MODEL 1
REMARK VINA RESULT:     -12.6      0.000      0.000
REMARK SMILES COc1cccc(C(=O)N2[C@@H](C(=O)NCCCCNC(=O)c3ccc(-c4c5nc(c(-c6c(F)cc(S(=O)(=O)[O-])cc6F)c6ccc([nH]6)c(-c6c(F)cc(S(=O)(=O)[O-])cc6F)c6nc(c(-c7c(F)cc(S(=O)(=O)[O-])cc7F)c7ccc4[nH]7)C=C6)C=C5)cc3)CS[C@@H]2c2ccccc2Cl)c1
REMARK SMILES IDX 16 1 15 2 14 3 12 4 13 5 11 7 10 8 90 9 88 10 89 11 8 12
REMARK SMILES IDX 9 13 7 14 3 15 4 16 98 17 5 18 6 19 2 20 1 21 91 22 92 23
REMARK SMILES IDX 96 24 93 25 95 26 97 27 94 28 17 29 18 30 19 31 20 32 21 34
REMARK SMILES IDX 22 35 23 36 87 37 24 38 86 39 25 40 26 41 27 42 80 43 28 44
REMARK SMILES IDX 85 45 79 46 81 47 29 48 84 49 78 50 77 51 30 53 64 54 43 55
REMARK SMILES IDX 63 56 44 57 47 58 62 59 82 60 45 61 46 62 61 64 83 65 48 66
REMARK SMILES IDX 31 67 32 68 41 69 33 70 34 71 40 72 42 73 35 74 36 75 37 76
REMARK SMILES IDX 38 77 39 78 65 79 66 80 75 81 67 82 68 83 74 84 76 85 69 86
REMARK SMILES IDX 70 87 71 88 72 89 73 90 49 91 50 92 59 93 51 94 52 95 58 96
REMARK SMILES IDX 60 97 53 98 54 99 55 100 56 101 57 102
REMARK H PARENT 14 6 19 33 81 52 47 63
REMARK Flexibility Score: inf
ROOT
ATOM      1  C   UNL A   1      39.763  21.338  26.232  1.00  0.00     0.023 C 
ENDROOT
BRANCH   1   2
ATOM      2  C   UNL A   1      38.539  21.596  25.354  1.00  0.00     0.116 C 
BRANCH   2   3
ATOM      3  N   UNL A   1      37.835  22.814  25.714  1.00  0.00    -0.354 N 
ATOM      4  C   UNL A   1      36.491  23.065  25.741  1.00  0.00     0.243 C 
ATOM      5  O   UNL A   1      36.108  24.181  26.098  1.00  0.00    -0.273 OA
ATOM      6  H   UNL A   1      38.409  23.570  25.977  1.00  0.00     0.163 HD
BRANCH   4   7
ATOM      7  C   UNL A   1      35.507  21.928  25.403  1.00  0.00     0.186 C 
ATOM      8  N   UNL A   1      34.455  22.370  24.476  1.00  0.00    -0.310 N 
ATOM      9  C   UNL A   1      33.114  21.903  24.791  1.00  0.00     0.176 C 
ATOM     10  C   UNL A   1      34.857  21.508  26.729  1.00  0.00     0.107 C 
ATOM     11  S   UNL A   1      33.139  22.086  26.634  1.00  0.00    -0.129 SA
BRANCH   8  12
ATOM     12  C   UNL A   1      34.833  23.135  23.384  1.00  0.00     0.255 C 
ATOM     13  O   UNL A   1      35.929  22.994  22.843  1.00  0.00    -0.269 OA
BRANCH  12  14
ATOM     14  C   UNL A   1      33.998  24.311  22.999  1.00  0.00     0.043 A 
ATOM     15  C   UNL A   1      33.410  26.657  23.253  1.00  0.00     0.119 A 
ATOM     16  C   UNL A   1      32.678  26.592  22.067  1.00  0.00     0.046 A 
ATOM     17  C   UNL A   1      34.075  25.519  23.710  1.00  0.00     0.060 A 
ATOM     18  C   UNL A   1      32.633  25.410  21.326  1.00  0.00     0.005 A 
ATOM     19  C   UNL A   1      33.291  24.271  21.791  1.00  0.00     0.014 A 
BRANCH  15  20
ATOM     20  O   UNL A   1      33.399  27.871  23.884  1.00  0.00    -0.497 OA
ATOM     21  C   UNL A   1      33.528  29.011  23.039  1.00  0.00     0.278 C 
ENDBRANCH  15  20
ENDBRANCH  12  14
ENDBRANCH   8  12
BRANCH   9  22
ATOM     22  C   UNL A   1      32.749  20.442  24.452  1.00  0.00     0.003 A 
ATOM     23  C   UNL A   1      32.869  19.504  25.516  1.00  0.00     0.008 A 
ATOM     24  C   UNL A   1      32.332  19.916  23.216  1.00  0.00     0.047 A 
ATOM     25  C   UNL A   1      32.713  18.126  25.331  1.00  0.00     0.001 A 
ATOM     26  C   UNL A   1      32.189  18.526  23.032  1.00  0.00     0.021 A 
ATOM     27  Cl  UNL A   1      31.910  20.850  21.832  1.00  0.00    -0.084 Cl
ATOM     28  C   UNL A   1      32.399  17.633  24.076  1.00  0.00     0.002 A 
ENDBRANCH   9  22
ENDBRANCH   4   7
ENDBRANCH   2   3
ENDBRANCH   1   2
BRANCH   1  29
ATOM     29  C   UNL A   1      40.041  22.415  27.285  1.00  0.00     0.023 C 
BRANCH  29  30
ATOM     30  C   UNL A   1      41.428  23.050  27.233  1.00  0.00     0.116 C 
BRANCH  30  31
ATOM     31  N   UNL A   1      41.616  23.924  26.086  1.00  0.00    -0.352 N 
ATOM     32  C   UNL A   1      41.599  25.299  26.031  1.00  0.00     0.251 C 
ATOM     33  H   UNL A   1      41.779  23.469  25.228  1.00  0.00     0.163 HD
ATOM     34  O   UNL A   1      41.658  25.865  24.942  1.00  0.00    -0.269 OA
BRANCH  32  35
ATOM     35  C   UNL A   1      41.474  26.094  27.275  1.00  0.00     0.039 A 
ATOM     36  C   UNL A   1      42.516  26.956  27.630  1.00  0.00     0.014 A 
ATOM     37  C   UNL A   1      40.338  26.004  28.083  1.00  0.00     0.014 A 
ATOM     38  C   UNL A   1      42.386  27.779  28.753  1.00  0.00     0.010 A 
ATOM     39  C   UNL A   1      40.179  26.877  29.157  1.00  0.00     0.010 A 
ATOM     40  C   UNL A   1      41.197  27.778  29.503  1.00  0.00    -0.014 A 
BRANCH  40  41
ATOM     41  C   UNL A   1      40.998  28.722  30.637  1.00  0.00     0.031 A 
ATOM     42  C   UNL A   1      41.832  28.600  31.885  1.00  0.00     0.074 A 
ATOM     43  C   UNL A   1      40.019  29.646  30.572  1.00  0.00     0.049 A 
ATOM     44  N   UNL A   1      41.754  29.281  33.001  1.00  0.00    -0.248 NA
ATOM     45  C   UNL A   1      42.873  27.561  31.889  1.00  0.00     0.031 C 
ATOM     46  C   UNL A   1      39.110  29.837  29.438  1.00  0.00     0.029 A 
ATOM     47  N   UNL A   1      39.613  30.591  31.482  1.00  0.00    -0.354 N 
ATOM     48  C   UNL A   1      42.724  28.746  33.841  1.00  0.00     0.074 A 
ATOM     49  C   UNL A   1      43.341  27.649  33.126  1.00  0.00     0.031 C 
ATOM     50  C   UNL A   1      38.270  30.847  29.713  1.00  0.00     0.029 A 
ATOM     51  C   UNL A   1      38.547  31.349  31.055  1.00  0.00     0.049 A 
ATOM     52  H   UNL A   1      40.044  30.714  32.358  1.00  0.00     0.167 HD
ATOM     53  C   UNL A   1      43.082  29.145  35.086  1.00  0.00     0.037 A 
ATOM     54  C   UNL A   1      37.860  32.329  31.675  1.00  0.00     0.037 A 
ATOM     55  C   UNL A   1      42.474  30.248  35.786  1.00  0.00     0.049 A 
ATOM     56  C   UNL A   1      38.267  32.746  33.064  1.00  0.00     0.074 A 
ATOM     57  C   UNL A   1      42.807  30.765  37.027  1.00  0.00     0.029 A 
ATOM     58  N   UNL A   1      41.409  31.000  35.314  1.00  0.00    -0.354 N 
ATOM     59  N   UNL A   1      39.230  32.272  33.817  1.00  0.00    -0.248 NA
ATOM     60  C   UNL A   1      37.498  33.834  33.684  1.00  0.00     0.031 C 
ATOM     61  C   UNL A   1      41.908  31.795  37.327  1.00  0.00     0.029 A 
ATOM     62  C   UNL A   1      41.054  31.959  36.248  1.00  0.00     0.049 A 
ATOM     63  H   UNL A   1      40.969  30.870  34.442  1.00  0.00     0.167 HD
ATOM     64  C   UNL A   1      39.202  33.024  34.988  1.00  0.00     0.074 A 
ATOM     65  C   UNL A   1      38.134  33.990  34.837  1.00  0.00     0.031 C 
ATOM     66  C   UNL A   1      39.991  32.923  36.086  1.00  0.00     0.037 A 
BRANCH  53  67
ATOM     67  C   UNL A   1      44.182  28.381  35.774  1.00  0.00     0.058 A 
ATOM     68  C   UNL A   1      45.535  28.713  35.598  1.00  0.00     0.135 A 
ATOM     69  C   UNL A   1      43.879  27.327  36.653  1.00  0.00     0.135 A 
ATOM     70  F   UNL A   1      45.884  29.704  34.761  1.00  0.00    -0.206 F 
ATOM     71  C   UNL A   1      46.549  28.008  36.238  1.00  0.00     0.059 A 
ATOM     72  C   UNL A   1      44.876  26.628  37.328  1.00  0.00     0.059 A 
ATOM     73  F   UNL A   1      42.603  26.967  36.863  1.00  0.00    -0.206 F 
ATOM     74  C   UNL A   1      46.208  26.966  37.101  1.00  0.00     0.060 A 
BRANCH  74  75
ATOM     75  S   UNL A   1      47.537  26.060  37.923  1.00  0.00     0.124 S 
ATOM     76  O   UNL A   1      48.390  27.151  38.384  1.00  0.00    -0.237 OA
ATOM     77  O   UNL A   1      46.820  25.333  38.966  1.00  0.00    -0.237 OA
ATOM     78  O   UNL A   1      48.096  25.235  36.858  1.00  0.00    -0.744 OA
ENDBRANCH  74  75
ENDBRANCH  53  67
BRANCH  54  79
ATOM     79  C   UNL A   1      36.725  32.995  30.981  1.00  0.00     0.058 A 
ATOM     80  C   UNL A   1      35.400  32.770  31.382  1.00  0.00     0.135 A 
ATOM     81  C   UNL A   1      36.942  33.882  29.915  1.00  0.00     0.135 A 
ATOM     82  F   UNL A   1      35.141  31.924  32.391  1.00  0.00    -0.206 F 
ATOM     83  C   UNL A   1      34.329  33.387  30.743  1.00  0.00     0.059 A 
ATOM     84  C   UNL A   1      35.889  34.533  29.279  1.00  0.00     0.059 A 
ATOM     85  F   UNL A   1      38.191  34.145  29.501  1.00  0.00    -0.206 F 
ATOM     86  C   UNL A   1      34.584  34.271  29.694  1.00  0.00     0.060 A 
BRANCH  86  87
ATOM     87  S   UNL A   1      33.189  35.106  28.908  1.00  0.00     0.124 S 
ATOM     88  O   UNL A   1      33.833  36.287  28.344  1.00  0.00    -0.237 OA
ATOM     89  O   UNL A   1      32.738  34.105  27.946  1.00  0.00    -0.237 OA
ATOM     90  O   UNL A   1      32.275  35.354  30.019  1.00  0.00    -0.744 OA
ENDBRANCH  86  87
ENDBRANCH  54  79
BRANCH  66  91
ATOM     91  C   UNL A   1      39.761  33.904  37.203  1.00  0.00     0.058 A 
ATOM     92  C   UNL A   1      38.886  33.628  38.265  1.00  0.00     0.135 A 
ATOM     93  C   UNL A   1      40.468  35.118  37.238  1.00  0.00     0.135 A 
ATOM     94  F   UNL A   1      38.179  32.487  38.278  1.00  0.00    -0.206 F 
ATOM     95  C   UNL A   1      38.704  34.528  39.311  1.00  0.00     0.059 A 
ATOM     96  C   UNL A   1      40.325  36.018  38.289  1.00  0.00     0.059 A 
ATOM     97  F   UNL A   1      41.326  35.429  36.253  1.00  0.00    -0.206 F 
ATOM     98  C   UNL A   1      39.432  35.720  39.316  1.00  0.00     0.060 A 
BRANCH  98  99
ATOM     99  S   UNL A   1      39.215  36.861  40.698  1.00  0.00     0.124 S 
ATOM    100  O   UNL A   1      38.422  37.921  40.084  1.00  0.00    -0.237 OA
ATOM    101  O   UNL A   1      38.518  36.034  41.678  1.00  0.00    -0.237 OA
ATOM    102  O   UNL A   1      40.582  37.227  41.054  1.00  0.00    -0.744 OA
ENDBRANCH  98  99
ENDBRANCH  66  91
ENDBRANCH  40  41
ENDBRANCH  32  35
ENDBRANCH  30  31
ENDBRANCH  29  30
ENDBRANCH   1  29
TORSDOF 18
ENDMDL
MODEL 2
REMARK VINA RESULT:     -12.3      6.367     11.624
REMARK SMILES COc1cccc(C(=O)N2[C@@H](C(=O)NCCCCNC(=O)c3ccc(-c4c5nc(c(-c6c(F)cc(S(=O)(=O)[O-])cc6F)c6ccc([nH]6)c(-c6c(F)cc(S(=O)(=O)[O-])cc6F)c6nc(c(-c7c(F)cc(S(=O)(=O)[O-])cc7F)c7ccc4[nH]7)C=C6)C=C5)cc3)CS[C@@H]2c2ccccc2Cl)c1
REMARK SMILES IDX 16 1 15 2 14 3 12 4 13 5 11 7 10 8 90 9 88 10 89 11 8 12
REMARK SMILES IDX 9 13 7 14 3 15 4 16 98 17 5 18 6 19 2 20 1 21 91 22 92 23
REMARK SMILES IDX 96 24 93 25 95 26 97 27 94 28 17 29 18 30 19 31 20 32 21 34
REMARK SMILES IDX 22 35 23 36 87 37 24 38 86 39 25 40 26 41 27 42 80 43 28 44
REMARK SMILES IDX 85 45 79 46 81 47 29 48 84 49 78 50 77 51 30 53 64 54 43 55
REMARK SMILES IDX 63 56 44 57 47 58 62 59 82 60 45 61 46 62 61 64 83 65 48 66
REMARK SMILES IDX 31 67 32 68 41 69 33 70 34 71 40 72 42 73 35 74 36 75 37 76
REMARK SMILES IDX 38 77 39 78 65 79 66 80 75 81 67 82 68 83 74 84 76 85 69 86
REMARK SMILES IDX 70 87 71 88 72 89 73 90 49 91 50 92 59 93 51 94 52 95 58 96
REMARK SMILES IDX 60 97 53 98 54 99 55 100 56 101 57 102
REMARK H PARENT 14 6 19 33 81 52 47 63
REMARK Flexibility Score: inf
ROOT
ATOM      1  C   UNL A   1      35.387  29.543  27.318  1.00  0.00     0.023 C 
ENDROOT
BRANCH   1   2
ATOM      2  C   UNL A   1      34.396  28.644  26.578  1.00  0.00     0.116 C 
BRANCH   2   3
ATOM      3  N   UNL A   1      33.084  28.623  27.198  1.00  0.00    -0.354 N 
ATOM      4  C   UNL A   1      32.024  27.793  26.958  1.00  0.00     0.243 C 
ATOM      5  O   UNL A   1      30.996  27.945  27.622  1.00  0.00    -0.273 OA
ATOM      6  H   UNL A   1      32.935  29.305  27.892  1.00  0.00     0.163 HD
BRANCH   4   7
ATOM      7  C   UNL A   1      32.177  26.654  25.931  1.00  0.00     0.186 C 
ATOM      8  N   UNL A   1      31.400  26.908  24.710  1.00  0.00    -0.310 N 
ATOM      9  C   UNL A   1      30.684  25.760  24.178  1.00  0.00     0.176 C 
ATOM     10  C   UNL A   1      31.639  25.385  26.607  1.00  0.00     0.107 C 
ATOM     11  S   UNL A   1      30.080  25.005  25.758  1.00  0.00    -0.129 SA
BRANCH   8  12
ATOM     12  C   UNL A   1      31.456  28.179  24.159  1.00  0.00     0.255 C 
ATOM     13  O   UNL A   1      32.506  28.818  24.111  1.00  0.00    -0.269 OA
BRANCH  12  14
ATOM     14  C   UNL A   1      30.182  28.884  23.831  1.00  0.00     0.043 A 
ATOM     15  C   UNL A   1      28.952  30.940  23.416  1.00  0.00     0.119 A 
ATOM     16  C   UNL A   1      27.893  30.192  22.899  1.00  0.00     0.046 A 
ATOM     17  C   UNL A   1      30.096  30.284  23.870  1.00  0.00     0.060 A 
ATOM     18  C   UNL A   1      27.986  28.802  22.810  1.00  0.00     0.005 A 
ATOM     19  C   UNL A   1      29.128  28.148  23.275  1.00  0.00     0.014 A 
BRANCH  15  20
ATOM     20  O   UNL A   1      28.759  32.294  23.436  1.00  0.00    -0.497 OA
ATOM     21  C   UNL A   1      28.166  32.855  22.267  1.00  0.00     0.278 C 
ENDBRANCH  15  20
ENDBRANCH  12  14
ENDBRANCH   8  12
BRANCH   9  22
ATOM     22  C   UNL A   1      31.485  24.691  23.404  1.00  0.00     0.003 A 
ATOM     23  C   UNL A   1      31.179  23.335  23.709  1.00  0.00     0.008 A 
ATOM     24  C   UNL A   1      32.497  24.890  22.448  1.00  0.00     0.047 A 
ATOM     25  C   UNL A   1      31.914  22.261  23.199  1.00  0.00     0.001 A 
ATOM     26  C   UNL A   1      33.243  23.805  21.947  1.00  0.00     0.021 A 
ATOM     27  Cl  UNL A   1      32.918  26.407  21.749  1.00  0.00    -0.084 Cl
ATOM     28  C   UNL A   1      32.969  22.499  22.335  1.00  0.00     0.002 A 
ENDBRANCH   9  22
ENDBRANCH   4   7
ENDBRANCH   2   3
ENDBRANCH   1   2
BRANCH   1  29
ATOM     29  C   UNL A   1      34.858  30.938  27.665  1.00  0.00     0.023 C 
BRANCH  29  30
ATOM     30  C   UNL A   1      35.698  31.738  28.656  1.00  0.00     0.116 C 
BRANCH  30  31
ATOM     31  N   UNL A   1      35.519  31.314  30.035  1.00  0.00    -0.352 N 
ATOM     32  C   UNL A   1      36.408  30.678  30.870  1.00  0.00     0.251 C 
ATOM     33  H   UNL A   1      34.637  31.509  30.427  1.00  0.00     0.163 HD
ATOM     34  O   UNL A   1      36.034  30.288  31.973  1.00  0.00    -0.269 OA
BRANCH  32  35
ATOM     35  C   UNL A   1      37.801  30.433  30.429  1.00  0.00     0.039 A 
ATOM     36  C   UNL A   1      38.777  30.170  31.394  1.00  0.00     0.014 A 
ATOM     37  C   UNL A   1      38.148  30.451  29.075  1.00  0.00     0.014 A 
ATOM     38  C   UNL A   1      40.080  29.852  30.999  1.00  0.00     0.010 A 
ATOM     39  C   UNL A   1      39.426  30.062  28.680  1.00  0.00     0.010 A 
ATOM     40  C   UNL A   1      40.406  29.754  29.635  1.00  0.00    -0.014 A 
BRANCH  40  41
ATOM     41  C   UNL A   1      41.759  29.313  29.194  1.00  0.00     0.031 A 
ATOM     42  C   UNL A   1      42.893  30.300  29.118  1.00  0.00     0.074 A 
ATOM     43  C   UNL A   1      41.949  28.039  28.795  1.00  0.00     0.049 A 
ATOM     44  N   UNL A   1      44.117  30.120  28.690  1.00  0.00    -0.248 NA
ATOM     45  C   UNL A   1      42.609  31.674  29.558  1.00  0.00     0.031 C 
ATOM     46  C   UNL A   1      40.919  26.997  28.775  1.00  0.00     0.029 A 
ATOM     47  N   UNL A   1      43.068  27.405  28.316  1.00  0.00    -0.354 N 
ATOM     48  C   UNL A   1      44.744  31.357  28.796  1.00  0.00     0.074 A 
ATOM     49  C   UNL A   1      43.749  32.290  29.280  1.00  0.00     0.031 C 
ATOM     50  C   UNL A   1      41.460  25.852  28.330  1.00  0.00     0.029 A 
ATOM     51  C   UNL A   1      42.860  26.086  27.989  1.00  0.00     0.049 A 
ATOM     52  H   UNL A   1      43.939  27.853  28.216  1.00  0.00     0.167 HD
ATOM     53  C   UNL A   1      46.033  31.680  28.536  1.00  0.00     0.037 A 
ATOM     54  C   UNL A   1      43.695  25.167  27.464  1.00  0.00     0.037 A 
ATOM     55  C   UNL A   1      47.023  30.742  28.070  1.00  0.00     0.049 A 
ATOM     56  C   UNL A   1      45.120  25.553  27.169  1.00  0.00     0.074 A 
ATOM     57  C   UNL A   1      48.369  30.961  27.833  1.00  0.00     0.029 A 
ATOM     58  N   UNL A   1      46.776  29.412  27.766  1.00  0.00    -0.354 N 
ATOM     59  N   UNL A   1      45.712  26.711  27.338  1.00  0.00    -0.248 NA
ATOM     60  C   UNL A   1      45.993  24.507  26.618  1.00  0.00     0.031 C 
ATOM     61  C   UNL A   1      48.924  29.777  27.334  1.00  0.00     0.029 A 
ATOM     62  C   UNL A   1      47.938  28.804  27.318  1.00  0.00     0.049 A 
ATOM     63  H   UNL A   1      45.903  28.965  27.854  1.00  0.00     0.167 HD
ATOM     64  C   UNL A   1      47.033  26.526  26.943  1.00  0.00     0.074 A 
ATOM     65  C   UNL A   1      47.155  25.142  26.536  1.00  0.00     0.031 C 
ATOM     66  C   UNL A   1      48.051  27.421  26.921  1.00  0.00     0.037 A 
BRANCH  53  67
ATOM     67  C   UNL A   1      46.450  33.112  28.746  1.00  0.00     0.058 A 
ATOM     68  C   UNL A   1      46.348  34.070  27.724  1.00  0.00     0.135 A 
ATOM     69  C   UNL A   1      46.924  33.541  29.997  1.00  0.00     0.135 A 
ATOM     70  F   UNL A   1      45.914  33.713  26.505  1.00  0.00    -0.206 F 
ATOM     71  C   UNL A   1      46.731  35.392  27.923  1.00  0.00     0.059 A 
ATOM     72  C   UNL A   1      47.283  34.867  30.227  1.00  0.00     0.059 A 
ATOM     73  F   UNL A   1      47.040  32.671  31.012  1.00  0.00    -0.206 F 
ATOM     74  C   UNL A   1      47.199  35.780  29.179  1.00  0.00     0.060 A 
BRANCH  74  75
ATOM     75  S   UNL A   1      47.693  37.501  29.419  1.00  0.00     0.124 S 
ATOM     76  O   UNL A   1      48.234  37.462  30.774  1.00  0.00    -0.237 OA
ATOM     77  O   UNL A   1      48.669  37.696  28.352  1.00  0.00    -0.237 OA
ATOM     78  O   UNL A   1      46.444  38.238  29.265  1.00  0.00    -0.744 OA
ENDBRANCH  74  75
ENDBRANCH  53  67
BRANCH  54  79
ATOM     79  C   UNL A   1      43.208  23.787  27.196  1.00  0.00     0.058 A 
ATOM     80  C   UNL A   1      42.750  23.415  25.923  1.00  0.00     0.135 A 
ATOM     81  C   UNL A   1      43.207  22.806  28.201  1.00  0.00     0.135 A 
ATOM     82  F   UNL A   1      42.723  24.320  24.932  1.00  0.00    -0.206 F 
ATOM     83  C   UNL A   1      42.293  22.129  25.659  1.00  0.00     0.059 A 
ATOM     84  C   UNL A   1      42.782  21.505  27.953  1.00  0.00     0.059 A 
ATOM     85  F   UNL A   1      43.650  23.104  29.433  1.00  0.00    -0.206 F 
ATOM     86  C   UNL A   1      42.318  21.178  26.680  1.00  0.00     0.060 A 
BRANCH  86  87
ATOM     87  S   UNL A   1      41.772  19.496  26.310  1.00  0.00     0.124 S 
ATOM     88  O   UNL A   1      42.149  18.789  27.529  1.00  0.00    -0.237 OA
ATOM     89  O   UNL A   1      40.339  19.681  26.096  1.00  0.00    -0.237 OA
ATOM     90  O   UNL A   1      42.537  19.150  25.116  1.00  0.00    -0.744 OA
ENDBRANCH  86  87
ENDBRANCH  54  79
BRANCH  66  91
ATOM     91  C   UNL A   1      49.402  26.929  26.478  1.00  0.00     0.058 A 
ATOM     92  C   UNL A   1      50.359  26.464  27.393  1.00  0.00     0.135 A 
ATOM     93  C   UNL A   1      49.724  26.871  25.111  1.00  0.00     0.135 A 
ATOM     94  F   UNL A   1      50.108  26.503  28.712  1.00  0.00    -0.206 F 
ATOM     95  C   UNL A   1      51.594  25.979  26.973  1.00  0.00     0.059 A 
ATOM     96  C   UNL A   1      50.940  26.362  24.666  1.00  0.00     0.059 A 
ATOM     97  F   UNL A   1      48.842  27.294  24.191  1.00  0.00    -0.206 F 
ATOM     98  C   UNL A   1      51.874  25.929  25.605  1.00  0.00     0.060 A 
BRANCH  98  99
ATOM     99  S   UNL A   1      53.464  25.263  25.071  1.00  0.00     0.124 S 
ATOM    100  O   UNL A   1      53.512  25.696  23.678  1.00  0.00    -0.237 OA
ATOM    101  O   UNL A   1      54.399  25.925  25.973  1.00  0.00    -0.237 OA
ATOM    102  O   UNL A   1      53.317  23.825  25.274  1.00  0.00    -0.744 OA
ENDBRANCH  98  99
ENDBRANCH  66  91
ENDBRANCH  40  41
ENDBRANCH  32  35
ENDBRANCH  30  31
ENDBRANCH  29  30
ENDBRANCH   1  29
TORSDOF 18
ENDMDL
MODEL 3
REMARK VINA RESULT:     -12.2      4.826     10.015
REMARK SMILES COc1cccc(C(=O)N2[C@@H](C(=O)NCCCCNC(=O)c3ccc(-c4c5nc(c(-c6c(F)cc(S(=O)(=O)[O-])cc6F)c6ccc([nH]6)c(-c6c(F)cc(S(=O)(=O)[O-])cc6F)c6nc(c(-c7c(F)cc(S(=O)(=O)[O-])cc7F)c7ccc4[nH]7)C=C6)C=C5)cc3)CS[C@@H]2c2ccccc2Cl)c1
REMARK SMILES IDX 16 1 15 2 14 3 12 4 13 5 11 7 10 8 90 9 88 10 89 11 8 12
REMARK SMILES IDX 9 13 7 14 3 15 4 16 98 17 5 18 6 19 2 20 1 21 91 22 92 23
REMARK SMILES IDX 96 24 93 25 95 26 97 27 94 28 17 29 18 30 19 31 20 32 21 34
REMARK SMILES IDX 22 35 23 36 87 37 24 38 86 39 25 40 26 41 27 42 80 43 28 44
REMARK SMILES IDX 85 45 79 46 81 47 29 48 84 49 78 50 77 51 30 53 64 54 43 55
REMARK SMILES IDX 63 56 44 57 47 58 62 59 82 60 45 61 46 62 61 64 83 65 48 66
REMARK SMILES IDX 31 67 32 68 41 69 33 70 34 71 40 72 42 73 35 74 36 75 37 76
REMARK SMILES IDX 38 77 39 78 65 79 66 80 75 81 67 82 68 83 74 84 76 85 69 86
REMARK SMILES IDX 70 87 71 88 72 89 73 90 49 91 50 92 59 93 51 94 52 95 58 96
REMARK SMILES IDX 60 97 53 98 54 99 55 100 56 101 57 102
REMARK H PARENT 14 6 19 33 81 52 47 63
REMARK Flexibility Score: inf
ROOT
ATOM      1  C   UNL A   1      32.307  27.727  27.289  1.00  0.00     0.023 C 
ENDROOT
BRANCH   1   2
ATOM      2  C   UNL A   1      31.320  27.394  26.171  1.00  0.00     0.116 C 
BRANCH   2   3
ATOM      3  N   UNL A   1      30.408  26.321  26.524  1.00  0.00    -0.354 N 
ATOM      4  C   UNL A   1      30.586  24.968  26.442  1.00  0.00     0.243 C 
ATOM      5  O   UNL A   1      29.672  24.230  26.818  1.00  0.00    -0.273 OA
ATOM      6  H   UNL A   1      29.535  26.609  26.876  1.00  0.00     0.163 HD
BRANCH   4   7
ATOM      7  C   UNL A   1      31.942  24.415  25.961  1.00  0.00     0.186 C 
ATOM      8  N   UNL A   1      31.826  23.724  24.669  1.00  0.00    -0.310 N 
ATOM      9  C   UNL A   1      32.566  22.477  24.563  1.00  0.00     0.176 C 
ATOM     10  C   UNL A   1      32.402  23.407  27.024  1.00  0.00     0.107 C 
ATOM     11  S   UNL A   1      32.247  21.774  26.247  1.00  0.00    -0.129 SA
BRANCH   8  12
ATOM     12  C   UNL A   1      31.077  24.332  23.674  1.00  0.00     0.255 C 
ATOM     13  O   UNL A   1      30.200  23.726  23.061  1.00  0.00    -0.269 OA
BRANCH  12  14
ATOM     14  C   UNL A   1      31.496  25.673  23.170  1.00  0.00     0.043 A 
ATOM     15  C   UNL A   1      30.938  27.934  22.467  1.00  0.00     0.119 A 
ATOM     16  C   UNL A   1      32.287  28.281  22.543  1.00  0.00     0.046 A 
ATOM     17  C   UNL A   1      30.546  26.635  22.789  1.00  0.00     0.060 A 
ATOM     18  C   UNL A   1      33.236  27.348  22.966  1.00  0.00     0.005 A 
ATOM     19  C   UNL A   1      32.841  26.046  23.278  1.00  0.00     0.014 A 
BRANCH  15  20
ATOM     20  O   UNL A   1      30.097  28.933  22.060  1.00  0.00    -0.497 OA
ATOM     21  C   UNL A   1      29.712  29.869  23.064  1.00  0.00     0.278 C 
ENDBRANCH  15  20
ENDBRANCH  12  14
ENDBRANCH   8  12
BRANCH   9  22
ATOM     22  C   UNL A   1      34.093  22.548  24.347  1.00  0.00     0.003 A 
ATOM     23  C   UNL A   1      34.901  22.115  25.437  1.00  0.00     0.008 A 
ATOM     24  C   UNL A   1      34.789  23.007  23.215  1.00  0.00     0.047 A 
ATOM     25  C   UNL A   1      36.292  22.252  25.449  1.00  0.00     0.001 A 
ATOM     26  C   UNL A   1      36.190  23.155  23.237  1.00  0.00     0.021 A 
ATOM     27  Cl  UNL A   1      34.071  23.390  21.697  1.00  0.00    -0.084 Cl
ATOM     28  C   UNL A   1      36.938  22.801  24.354  1.00  0.00     0.002 A 
ENDBRANCH   9  22
ENDBRANCH   4   7
ENDBRANCH   2   3
ENDBRANCH   1   2
BRANCH   1  29
ATOM     29  C   UNL A   1      33.765  27.872  26.841  1.00  0.00     0.023 C 
BRANCH  29  30
ATOM     30  C   UNL A   1      34.131  29.208  26.201  1.00  0.00     0.116 C 
BRANCH  30  31
ATOM     31  N   UNL A   1      33.882  30.348  27.068  1.00  0.00    -0.352 N 
ATOM     32  C   UNL A   1      34.664  30.855  28.080  1.00  0.00     0.251 C 
ATOM     33  H   UNL A   1      33.035  30.824  26.909  1.00  0.00     0.163 HD
ATOM     34  O   UNL A   1      34.229  31.760  28.789  1.00  0.00    -0.269 OA
BRANCH  32  35
ATOM     35  C   UNL A   1      36.010  30.292  28.337  1.00  0.00     0.039 A 
ATOM     36  C   UNL A   1      36.953  30.305  27.306  1.00  0.00     0.014 A 
ATOM     37  C   UNL A   1      36.349  29.764  29.585  1.00  0.00     0.014 A 
ATOM     38  C   UNL A   1      38.256  29.857  27.548  1.00  0.00     0.010 A 
ATOM     39  C   UNL A   1      37.665  29.388  29.846  1.00  0.00     0.010 A 
ATOM     40  C   UNL A   1      38.635  29.433  28.833  1.00  0.00    -0.014 A 
BRANCH  40  41
ATOM     41  C   UNL A   1      40.043  29.054  29.138  1.00  0.00     0.031 A 
ATOM     42  C   UNL A   1      40.990  30.060  29.736  1.00  0.00     0.074 A 
ATOM     43  C   UNL A   1      40.488  27.824  28.811  1.00  0.00     0.049 A 
ATOM     44  N   UNL A   1      42.266  29.937  30.002  1.00  0.00    -0.248 NA
ATOM     45  C   UNL A   1      40.437  31.385  30.055  1.00  0.00     0.031 C 
ATOM     46  C   UNL A   1      39.684  26.772  28.184  1.00  0.00     0.029 A 
ATOM     47  N   UNL A   1      41.728  27.252  28.949  1.00  0.00    -0.354 N 
ATOM     48  C   UNL A   1      42.670  31.168  30.505  1.00  0.00     0.074 A 
ATOM     49  C   UNL A   1      41.516  32.040  30.458  1.00  0.00     0.031 C 
ATOM     50  C   UNL A   1      40.444  25.681  28.010  1.00  0.00     0.029 A 
ATOM     51  C   UNL A   1      41.800  25.964  28.472  1.00  0.00     0.049 A 
ATOM     52  H   UNL A   1      42.495  27.719  29.351  1.00  0.00     0.167 HD
ATOM     53  C   UNL A   1      43.885  31.533  30.982  1.00  0.00     0.037 A 
ATOM     54  C   UNL A   1      42.839  25.108  28.400  1.00  0.00     0.037 A 
ATOM     55  C   UNL A   1      45.025  30.654  31.042  1.00  0.00     0.049 A 
ATOM     56  C   UNL A   1      44.183  25.540  28.924  1.00  0.00     0.074 A 
ATOM     57  C   UNL A   1      46.283  30.914  31.562  1.00  0.00     0.029 A 
ATOM     58  N   UNL A   1      45.053  29.353  30.563  1.00  0.00    -0.354 N 
ATOM     59  N   UNL A   1      44.530  26.687  29.458  1.00  0.00    -0.248 NA
ATOM     60  C   UNL A   1      45.276  24.561  28.842  1.00  0.00     0.031 C 
ATOM     61  C   UNL A   1      47.085  29.788  31.348  1.00  0.00     0.029 A 
ATOM     62  C   UNL A   1      46.312  28.805  30.751  1.00  0.00     0.049 A 
ATOM     63  H   UNL A   1      44.290  28.887  30.150  1.00  0.00     0.167 HD
ATOM     64  C   UNL A   1      45.872  26.556  29.802  1.00  0.00     0.074 A 
ATOM     65  C   UNL A   1      46.270  25.216  29.426  1.00  0.00     0.031 C 
ATOM     66  C   UNL A   1      46.697  27.465  30.378  1.00  0.00     0.037 A 
BRANCH  53  67
ATOM     67  C   UNL A   1      44.045  32.946  31.478  1.00  0.00     0.058 A 
ATOM     68  C   UNL A   1      43.811  33.290  32.819  1.00  0.00     0.135 A 
ATOM     69  C   UNL A   1      44.476  33.963  30.609  1.00  0.00     0.135 A 
ATOM     70  F   UNL A   1      43.386  32.362  33.691  1.00  0.00    -0.206 F 
ATOM     71  C   UNL A   1      43.963  34.596  33.273  1.00  0.00     0.059 A 
ATOM     72  C   UNL A   1      44.666  35.270  31.050  1.00  0.00     0.059 A 
ATOM     73  F   UNL A   1      44.719  33.692  29.317  1.00  0.00    -0.206 F 
ATOM     74  C   UNL A   1      44.391  35.580  32.380  1.00  0.00     0.060 A 
BRANCH  74  75
ATOM     75  S   UNL A   1      44.582  37.269  32.987  1.00  0.00     0.124 S 
ATOM     76  O   UNL A   1      45.010  37.966  31.779  1.00  0.00    -0.237 OA
ATOM     77  O   UNL A   1      43.238  37.585  33.458  1.00  0.00    -0.237 OA
ATOM     78  O   UNL A   1      45.595  37.144  34.030  1.00  0.00    -0.744 OA
ENDBRANCH  74  75
ENDBRANCH  53  67
BRANCH  54  79
ATOM     79  C   UNL A   1      42.646  23.750  27.824  1.00  0.00     0.058 A 
ATOM     80  C   UNL A   1      42.483  22.630  28.653  1.00  0.00     0.135 A 
ATOM     81  C   UNL A   1      42.604  23.546  26.436  1.00  0.00     0.135 A 
ATOM     82  F   UNL A   1      42.524  22.773  29.987  1.00  0.00    -0.206 F 
ATOM     83  C   UNL A   1      42.301  21.354  28.129  1.00  0.00     0.059 A 
ATOM     84  C   UNL A   1      42.394  22.284  25.888  1.00  0.00     0.059 A 
ATOM     85  F   UNL A   1      42.739  24.585  25.598  1.00  0.00    -0.206 F 
ATOM     86  C   UNL A   1      42.253  21.192  26.743  1.00  0.00     0.060 A 
BRANCH  86  87
ATOM     87  S   UNL A   1      41.963  19.539  26.076  1.00  0.00     0.124 S 
ATOM     88  O   UNL A   1      42.405  18.694  27.180  1.00  0.00    -0.237 OA
ATOM     89  O   UNL A   1      40.525  19.559  25.823  1.00  0.00    -0.237 OA
ATOM     90  O   UNL A   1      42.801  19.507  24.881  1.00  0.00    -0.744 OA
ENDBRANCH  86  87
ENDBRANCH  54  79
BRANCH  66  91
ATOM     91  C   UNL A   1      48.108  27.034  30.677  1.00  0.00     0.058 A 
ATOM     92  C   UNL A   1      49.166  27.293  29.792  1.00  0.00     0.135 A 
ATOM     93  C   UNL A   1      48.414  26.401  31.894  1.00  0.00     0.135 A 
ATOM     94  F   UNL A   1      48.929  27.888  28.612  1.00  0.00    -0.206 F 
ATOM     95  C   UNL A   1      50.473  26.920  30.091  1.00  0.00     0.059 A 
ATOM     96  C   UNL A   1      49.717  26.047  32.227  1.00  0.00     0.059 A 
ATOM     97  F   UNL A   1      47.442  26.138  32.782  1.00  0.00    -0.206 F 
ATOM     98  C   UNL A   1      50.739  26.301  31.314  1.00  0.00     0.060 A 
BRANCH  98  99
ATOM     99  S   UNL A   1      52.444  25.858  31.707  1.00  0.00     0.124 S 
ATOM    100  O   UNL A   1      52.771  26.833  32.743  1.00  0.00    -0.237 OA
ATOM    101  O   UNL A   1      52.312  24.476  32.157  1.00  0.00    -0.237 OA
ATOM    102  O   UNL A   1      53.143  26.034  30.438  1.00  0.00    -0.744 OA
ENDBRANCH  98  99
ENDBRANCH  66  91
ENDBRANCH  40  41
ENDBRANCH  32  35
ENDBRANCH  30  31
ENDBRANCH  29  30
ENDBRANCH   1  29
TORSDOF 18
ENDMDL
