MODEL 1
REMARK VINA RESULT:     -13.8      0.000      0.000
REMARK SMILES Cc1ccc(O[C@H](C)C(=O)Nc2ccsc2C(=O)NCCCCNC(=O)c2ccc(-c3c4nc(c(-c5c(F)cc(S(=O)(=O)[O-])cc5F)c5ccc([nH]5)c(-c5c(F)cc(S(=O)(=O)[O-])cc5F)c5nc(c(-c6c(F)cc(S(=O)(=O)[O-])cc6F)c6ccc3[nH]6)C=C5)C=C4)cc2)cc1
REMARK SMILES IDX 21 1 20 2 19 3 17 4 18 5 16 7 12 8 13 9 14 10 15 11 11 12
REMARK SMILES IDX 9 13 10 14 7 16 8 17 6 18 5 19 1 20 2 21 3 22 94 23 4 24
REMARK SMILES IDX 93 25 22 26 23 27 24 28 25 29 26 31 27 32 28 33 92 34 29 35
REMARK SMILES IDX 91 36 30 37 31 38 32 39 85 40 33 41 90 42 84 43 86 44 34 45
REMARK SMILES IDX 89 46 83 47 82 48 35 50 69 51 48 52 68 53 49 54 52 55 67 56
REMARK SMILES IDX 87 57 50 58 51 59 66 61 88 62 53 63 36 64 37 65 46 66 38 67
REMARK SMILES IDX 39 68 45 69 47 70 40 71 41 72 42 73 43 74 44 75 70 76 71 77
REMARK SMILES IDX 80 78 72 79 73 80 79 81 81 82 74 83 75 84 76 85 77 86 78 87
REMARK SMILES IDX 54 88 55 89 64 90 56 91 57 92 63 93 65 94 58 95 59 96 60 97
REMARK SMILES IDX 61 98 62 99
REMARK H PARENT 19 6 11 15 24 30 86 49 52 60
REMARK Flexibility Score: inf
ROOT
ATOM      1  C   UNL A   1      32.112  29.701  26.259  1.00  0.00     0.023 C 
ENDROOT
BRANCH   1   2
ATOM      2  C   UNL A   1      31.837  28.335  25.633  1.00  0.00     0.116 C 
BRANCH   2   3
ATOM      3  N   UNL A   1      30.876  28.306  24.550  1.00  0.00    -0.351 N 
ATOM      4  C   UNL A   1      30.289  27.259  23.869  1.00  0.00     0.263 C 
ATOM      5  O   UNL A   1      29.504  27.609  22.979  1.00  0.00    -0.268 OA
ATOM      6  H   UNL A   1      30.588  29.197  24.243  1.00  0.00     0.163 HD
BRANCH   4   7
ATOM      7  C   UNL A   1      30.595  25.852  24.133  1.00  0.00     0.115 A 
ATOM      8  C   UNL A   1      31.146  24.812  23.392  1.00  0.00     0.065 A 
ATOM      9  C   UNL A   1      31.233  23.597  24.144  1.00  0.00     0.038 A 
ATOM     10  C   UNL A   1      30.720  23.713  25.411  1.00  0.00     0.068 A 
ATOM     11  S   UNL A   1      30.163  25.288  25.719  1.00  0.00    -0.137 S 
BRANCH   8  12
ATOM     12  N   UNL A   1      31.646  24.934  22.108  1.00  0.00    -0.321 N 
ATOM     13  C   UNL A   1      32.874  25.413  21.724  1.00  0.00     0.265 C 
ATOM     14  O   UNL A   1      33.114  25.443  20.512  1.00  0.00    -0.270 OA
ATOM     15  H   UNL A   1      31.049  24.644  21.382  1.00  0.00     0.170 HD
BRANCH  13  16
ATOM     16  C   UNL A   1      33.966  25.850  22.739  1.00  0.00     0.259 C 
ATOM     17  C   UNL A   1      33.863  27.362  22.875  1.00  0.00     0.064 C 
BRANCH  16  18
ATOM     18  O   UNL A   1      34.031  24.994  23.875  1.00  0.00    -0.481 OA
BRANCH  18  19
ATOM     19  C   UNL A   1      34.969  24.080  24.225  1.00  0.00     0.120 A 
ATOM     20  C   UNL A   1      38.386  21.764  25.539  1.00  0.00     0.044 C 
ATOM     21  C   UNL A   1      37.163  22.532  25.138  1.00  0.00    -0.051 A 
ATOM     22  C   UNL A   1      36.468  22.186  23.977  1.00  0.00     0.007 A 
ATOM     23  C   UNL A   1      36.738  23.647  25.860  1.00  0.00     0.007 A 
ATOM     24  C   UNL A   1      35.374  22.947  23.534  1.00  0.00     0.047 A 
ATOM     25  C   UNL A   1      35.652  24.406  25.405  1.00  0.00     0.047 A 
ENDBRANCH  18  19
ENDBRANCH  16  18
ENDBRANCH  13  16
ENDBRANCH   8  12
ENDBRANCH   4   7
ENDBRANCH   2   3
ENDBRANCH   1   2
BRANCH   1  26
ATOM     26  C   UNL A   1      33.055  29.737  27.451  1.00  0.00     0.023 C 
BRANCH  26  27
ATOM     27  C   UNL A   1      34.539  29.745  27.103  1.00  0.00     0.116 C 
BRANCH  27  28
ATOM     28  N   UNL A   1      35.229  30.928  27.599  1.00  0.00    -0.352 N 
ATOM     29  C   UNL A   1      36.428  31.012  28.298  1.00  0.00     0.251 C 
ATOM     30  H   UNL A   1      34.786  31.787  27.413  1.00  0.00     0.163 HD
ATOM     31  O   UNL A   1      36.791  32.035  28.830  1.00  0.00    -0.269 OA
BRANCH  29  32
ATOM     32  C   UNL A   1      37.300  29.814  28.282  1.00  0.00     0.039 A 
ATOM     33  C   UNL A   1      37.355  29.040  29.446  1.00  0.00     0.014 A 
ATOM     34  C   UNL A   1      38.218  29.632  27.256  1.00  0.00     0.014 A 
ATOM     35  C   UNL A   1      38.464  28.231  29.676  1.00  0.00     0.010 A 
ATOM     36  C   UNL A   1      39.364  28.913  27.527  1.00  0.00     0.010 A 
ATOM     37  C   UNL A   1      39.512  28.256  28.758  1.00  0.00    -0.014 A 
BRANCH  37  38
ATOM     38  C   UNL A   1      40.833  27.687  29.006  1.00  0.00     0.031 A 
ATOM     39  C   UNL A   1      41.098  26.274  28.665  1.00  0.00     0.074 A 
ATOM     40  C   UNL A   1      41.840  28.498  29.389  1.00  0.00     0.049 A 
ATOM     41  N   UNL A   1      42.169  25.622  28.967  1.00  0.00    -0.248 NA
ATOM     42  C   UNL A   1      40.104  25.458  27.982  1.00  0.00     0.031 C 
ATOM     43  C   UNL A   1      43.274  28.235  29.314  1.00  0.00     0.029 A 
ATOM     44  N   UNL A   1      41.741  29.662  30.155  1.00  0.00    -0.354 N 
ATOM     45  C   UNL A   1      42.135  24.416  28.299  1.00  0.00     0.074 A 
ATOM     46  C   UNL A   1      40.795  24.336  27.771  1.00  0.00     0.031 C 
ATOM     47  C   UNL A   1      43.904  29.025  30.196  1.00  0.00     0.029 A 
ATOM     48  C   UNL A   1      42.884  29.694  30.983  1.00  0.00     0.049 A 
ATOM     49  H   UNL A   1      41.016  30.327  30.125  1.00  0.00     0.167 HD
ATOM     50  C   UNL A   1      43.289  23.694  28.181  1.00  0.00     0.037 A 
ATOM     51  C   UNL A   1      42.741  29.570  32.338  1.00  0.00     0.037 A 
ATOM     52  C   UNL A   1      44.322  24.222  29.082  1.00  0.00     0.049 A 
ATOM     53  C   UNL A   1      43.337  28.302  32.921  1.00  0.00     0.074 A 
ATOM     54  C   UNL A   1      45.419  25.055  28.932  1.00  0.00     0.029 A 
ATOM     55  N   UNL A   1      44.108  24.124  30.448  1.00  0.00    -0.354 N 
ATOM     56  N   UNL A   1      43.922  27.366  32.223  1.00  0.00    -0.248 NA
ATOM     57  C   UNL A   1      43.256  27.959  34.343  1.00  0.00     0.031 C 
ATOM     58  C   UNL A   1      45.794  25.532  30.225  1.00  0.00     0.029 A 
ATOM     59  C   UNL A   1      44.937  24.974  31.157  1.00  0.00     0.049 A 
ATOM     60  H   UNL A   1      43.448  23.523  30.862  1.00  0.00     0.167 HD
ATOM     61  C   UNL A   1      44.216  26.307  33.038  1.00  0.00     0.074 A 
ATOM     62  C   UNL A   1      43.808  26.733  34.363  1.00  0.00     0.031 C 
ATOM     63  C   UNL A   1      44.728  25.128  32.586  1.00  0.00     0.037 A 
BRANCH  50  64
ATOM     64  C   UNL A   1      43.559  22.669  27.088  1.00  0.00     0.058 A 
ATOM     65  C   UNL A   1      42.815  21.466  27.036  1.00  0.00     0.135 A 
ATOM     66  C   UNL A   1      44.583  22.744  26.121  1.00  0.00     0.135 A 
ATOM     67  F   UNL A   1      41.752  21.268  27.828  1.00  0.00    -0.206 F 
ATOM     68  C   UNL A   1      43.131  20.403  26.181  1.00  0.00     0.059 A 
ATOM     69  C   UNL A   1      44.949  21.681  25.289  1.00  0.00     0.059 A 
ATOM     70  F   UNL A   1      45.253  23.872  25.880  1.00  0.00    -0.206 F 
ATOM     71  C   UNL A   1      44.225  20.505  25.335  1.00  0.00     0.060 A 
BRANCH  71  72
ATOM     72  S   UNL A   1      44.676  19.109  24.290  1.00  0.00     0.124 S 
ATOM     73  O   UNL A   1      44.464  19.647  22.950  1.00  0.00    -0.237 OA
ATOM     74  O   UNL A   1      46.064  18.877  24.672  1.00  0.00    -0.237 OA
ATOM     75  O   UNL A   1      43.737  18.064  24.691  1.00  0.00    -0.744 OA
ENDBRANCH  71  72
ENDBRANCH  50  64
BRANCH  51  76
ATOM     76  C   UNL A   1      41.522  30.270  32.840  1.00  0.00     0.058 A 
ATOM     77  C   UNL A   1      40.392  29.479  33.138  1.00  0.00     0.135 A 
ATOM     78  C   UNL A   1      41.587  31.545  33.412  1.00  0.00     0.135 A 
ATOM     79  F   UNL A   1      40.273  28.253  32.600  1.00  0.00    -0.206 F 
ATOM     80  C   UNL A   1      39.461  29.863  34.096  1.00  0.00     0.059 A 
ATOM     81  C   UNL A   1      40.649  31.963  34.358  1.00  0.00     0.059 A 
ATOM     82  F   UNL A   1      42.637  32.345  33.170  1.00  0.00    -0.206 F 
ATOM     83  C   UNL A   1      39.634  31.084  34.743  1.00  0.00     0.060 A 
BRANCH  83  84
ATOM     84  S   UNL A   1      38.631  31.415  36.213  1.00  0.00     0.124 S 
ATOM     85  O   UNL A   1      39.611  31.994  37.125  1.00  0.00    -0.237 OA
ATOM     86  O   UNL A   1      37.628  32.338  35.687  1.00  0.00    -0.237 OA
ATOM     87  O   UNL A   1      38.135  30.093  36.579  1.00  0.00    -0.744 OA
ENDBRANCH  83  84
ENDBRANCH  51  76
BRANCH  63  88
ATOM     88  C   UNL A   1      45.069  24.012  33.519  1.00  0.00     0.058 A 
ATOM     89  C   UNL A   1      46.362  23.877  34.049  1.00  0.00     0.135 A 
ATOM     90  C   UNL A   1      44.150  22.985  33.806  1.00  0.00     0.135 A 
ATOM     91  F   UNL A   1      47.298  24.808  33.805  1.00  0.00    -0.206 F 
ATOM     92  C   UNL A   1      46.725  22.783  34.831  1.00  0.00     0.059 A 
ATOM     93  C   UNL A   1      44.500  21.867  34.555  1.00  0.00     0.059 A 
ATOM     94  F   UNL A   1      42.881  23.059  33.374  1.00  0.00    -0.206 F 
ATOM     95  C   UNL A   1      45.788  21.780  35.075  1.00  0.00     0.060 A 
BRANCH  95  96
ATOM     96  S   UNL A   1      46.265  20.337  36.046  1.00  0.00     0.124 S 
ATOM     97  O   UNL A   1      45.660  19.233  35.305  1.00  0.00    -0.237 OA
ATOM     98  O   UNL A   1      47.721  20.414  35.983  1.00  0.00    -0.237 OA
ATOM     99  O   UNL A   1      45.673  20.603  37.353  1.00  0.00    -0.744 OA
ENDBRANCH  95  96
ENDBRANCH  63  88
ENDBRANCH  37  38
ENDBRANCH  29  32
ENDBRANCH  27  28
ENDBRANCH  26  27
ENDBRANCH   1  26
TORSDOF 18
ENDMDL
MODEL 2
REMARK VINA RESULT:     -13.5      1.263      1.970
REMARK SMILES Cc1ccc(O[C@H](C)C(=O)Nc2ccsc2C(=O)NCCCCNC(=O)c2ccc(-c3c4nc(c(-c5c(F)cc(S(=O)(=O)[O-])cc5F)c5ccc([nH]5)c(-c5c(F)cc(S(=O)(=O)[O-])cc5F)c5nc(c(-c6c(F)cc(S(=O)(=O)[O-])cc6F)c6ccc3[nH]6)C=C5)C=C4)cc2)cc1
REMARK SMILES IDX 21 1 20 2 19 3 17 4 18 5 16 7 12 8 13 9 14 10 15 11 11 12
REMARK SMILES IDX 9 13 10 14 7 16 8 17 6 18 5 19 1 20 2 21 3 22 94 23 4 24
REMARK SMILES IDX 93 25 22 26 23 27 24 28 25 29 26 31 27 32 28 33 92 34 29 35
REMARK SMILES IDX 91 36 30 37 31 38 32 39 85 40 33 41 90 42 84 43 86 44 34 45
REMARK SMILES IDX 89 46 83 47 82 48 35 50 69 51 48 52 68 53 49 54 52 55 67 56
REMARK SMILES IDX 87 57 50 58 51 59 66 61 88 62 53 63 36 64 37 65 46 66 38 67
REMARK SMILES IDX 39 68 45 69 47 70 40 71 41 72 42 73 43 74 44 75 70 76 71 77
REMARK SMILES IDX 80 78 72 79 73 80 79 81 81 82 74 83 75 84 76 85 77 86 78 87
REMARK SMILES IDX 54 88 55 89 64 90 56 91 57 92 63 93 65 94 58 95 59 96 60 97
REMARK SMILES IDX 61 98 62 99
REMARK H PARENT 19 6 11 15 24 30 86 49 52 60
REMARK Flexibility Score: inf
ROOT
ATOM      1  C   UNL A   1      32.013  28.890  27.416  1.00  0.00     0.023 C 
ENDROOT
BRANCH   1   2
ATOM      2  C   UNL A   1      31.785  27.713  26.469  1.00  0.00     0.116 C 
BRANCH   2   3
ATOM      3  N   UNL A   1      30.688  27.844  25.533  1.00  0.00    -0.351 N 
ATOM      4  C   UNL A   1      30.631  27.722  24.160  1.00  0.00     0.263 C 
ATOM      5  O   UNL A   1      29.507  27.911  23.680  1.00  0.00    -0.268 OA
ATOM      6  H   UNL A   1      29.824  28.060  25.954  1.00  0.00     0.163 HD
BRANCH   4   7
ATOM      7  C   UNL A   1      31.800  27.441  23.325  1.00  0.00     0.115 A 
ATOM      8  C   UNL A   1      32.294  26.316  22.673  1.00  0.00     0.065 A 
ATOM      9  C   UNL A   1      33.509  26.587  21.968  1.00  0.00     0.038 A 
ATOM     10  C   UNL A   1      33.940  27.880  22.120  1.00  0.00     0.068 A 
ATOM     11  S   UNL A   1      32.873  28.786  23.081  1.00  0.00    -0.137 S 
BRANCH   8  12
ATOM     12  N   UNL A   1      31.655  25.090  22.621  1.00  0.00    -0.321 N 
ATOM     13  C   UNL A   1      31.938  23.961  23.348  1.00  0.00     0.265 C 
ATOM     14  O   UNL A   1      31.240  22.962  23.136  1.00  0.00    -0.270 OA
ATOM     15  H   UNL A   1      30.907  25.018  21.986  1.00  0.00     0.170 HD
BRANCH  13  16
ATOM     16  C   UNL A   1      33.039  23.914  24.445  1.00  0.00     0.259 C 
ATOM     17  C   UNL A   1      32.348  24.178  25.774  1.00  0.00     0.064 C 
BRANCH  16  18
ATOM     18  O   UNL A   1      33.942  22.829  24.266  1.00  0.00    -0.481 OA
BRANCH  18  19
ATOM     19  C   UNL A   1      35.249  22.718  24.608  1.00  0.00     0.120 A 
ATOM     20  C   UNL A   1      39.204  21.748  26.087  1.00  0.00     0.044 C 
ATOM     21  C   UNL A   1      37.861  22.073  25.505  1.00  0.00    -0.051 A 
ATOM     22  C   UNL A   1      37.414  23.396  25.473  1.00  0.00     0.007 A 
ATOM     23  C   UNL A   1      37.002  21.070  25.059  1.00  0.00     0.007 A 
ATOM     24  C   UNL A   1      36.125  23.713  25.017  1.00  0.00     0.047 A 
ATOM     25  C   UNL A   1      35.714  21.394  24.615  1.00  0.00     0.047 A 
ENDBRANCH  18  19
ENDBRANCH  16  18
ENDBRANCH  13  16
ENDBRANCH   8  12
ENDBRANCH   4   7
ENDBRANCH   2   3
ENDBRANCH   1   2
BRANCH   1  26
ATOM     26  C   UNL A   1      32.979  29.970  26.955  1.00  0.00     0.023 C 
BRANCH  26  27
ATOM     27  C   UNL A   1      34.446  29.703  27.272  1.00  0.00     0.116 C 
BRANCH  27  28
ATOM     28  N   UNL A   1      35.175  30.911  27.634  1.00  0.00    -0.352 N 
ATOM     29  C   UNL A   1      36.406  31.033  28.268  1.00  0.00     0.251 C 
ATOM     30  H   UNL A   1      34.735  31.759  27.395  1.00  0.00     0.163 HD
ATOM     31  O   UNL A   1      36.807  32.091  28.695  1.00  0.00    -0.269 OA
BRANCH  29  32
ATOM     32  C   UNL A   1      37.259  29.823  28.316  1.00  0.00     0.039 A 
ATOM     33  C   UNL A   1      37.346  29.141  29.535  1.00  0.00     0.014 A 
ATOM     34  C   UNL A   1      38.136  29.545  27.276  1.00  0.00     0.014 A 
ATOM     35  C   UNL A   1      38.451  28.334  29.788  1.00  0.00     0.010 A 
ATOM     36  C   UNL A   1      39.281  28.830  27.561  1.00  0.00     0.010 A 
ATOM     37  C   UNL A   1      39.465  28.269  28.835  1.00  0.00    -0.014 A 
BRANCH  37  38
ATOM     38  C   UNL A   1      40.786  27.699  29.079  1.00  0.00     0.031 A 
ATOM     39  C   UNL A   1      41.055  26.292  28.717  1.00  0.00     0.074 A 
ATOM     40  C   UNL A   1      41.790  28.506  29.479  1.00  0.00     0.049 A 
ATOM     41  N   UNL A   1      42.126  25.637  29.013  1.00  0.00    -0.248 NA
ATOM     42  C   UNL A   1      40.066  25.485  28.017  1.00  0.00     0.031 C 
ATOM     43  C   UNL A   1      43.225  28.246  29.407  1.00  0.00     0.029 A 
ATOM     44  N   UNL A   1      41.685  29.657  30.263  1.00  0.00    -0.354 N 
ATOM     45  C   UNL A   1      42.097  24.441  28.327  1.00  0.00     0.074 A 
ATOM     46  C   UNL A   1      40.759  24.368  27.791  1.00  0.00     0.031 C 
ATOM     47  C   UNL A   1      43.850  29.023  30.304  1.00  0.00     0.029 A 
ATOM     48  C   UNL A   1      42.825  29.678  31.096  1.00  0.00     0.049 A 
ATOM     49  H   UNL A   1      40.960  30.321  30.240  1.00  0.00     0.167 HD
ATOM     50  C   UNL A   1      43.254  23.723  28.203  1.00  0.00     0.037 A 
ATOM     51  C   UNL A   1      42.676  29.533  32.449  1.00  0.00     0.037 A 
ATOM     52  C   UNL A   1      44.281  24.239  29.116  1.00  0.00     0.049 A 
ATOM     53  C   UNL A   1      43.272  28.256  33.015  1.00  0.00     0.074 A 
ATOM     54  C   UNL A   1      45.377  25.076  28.984  1.00  0.00     0.029 A 
ATOM     55  N   UNL A   1      44.062  24.119  30.479  1.00  0.00    -0.354 N 
ATOM     56  N   UNL A   1      43.861  27.332  32.304  1.00  0.00    -0.248 NA
ATOM     57  C   UNL A   1      43.185  27.891  34.431  1.00  0.00     0.031 C 
ATOM     58  C   UNL A   1      45.746  25.534  30.286  1.00  0.00     0.029 A 
ATOM     59  C   UNL A   1      44.886  24.960  31.205  1.00  0.00     0.049 A 
ATOM     60  H   UNL A   1      43.401  23.511  30.881  1.00  0.00     0.167 HD
ATOM     61  C   UNL A   1      44.154  26.262  33.104  1.00  0.00     0.074 A 
ATOM     62  C   UNL A   1      43.739  26.666  34.434  1.00  0.00     0.031 C 
ATOM     63  C   UNL A   1      44.670  25.091  32.636  1.00  0.00     0.037 A 
BRANCH  50  64
ATOM     64  C   UNL A   1      43.530  22.716  27.094  1.00  0.00     0.058 A 
ATOM     65  C   UNL A   1      42.872  21.463  27.086  1.00  0.00     0.135 A 
ATOM     66  C   UNL A   1      44.487  22.860  26.068  1.00  0.00     0.135 A 
ATOM     67  F   UNL A   1      41.873  21.194  27.938  1.00  0.00    -0.206 F 
ATOM     68  C   UNL A   1      43.211  20.423  26.213  1.00  0.00     0.059 A 
ATOM     69  C   UNL A   1      44.877  21.823  25.216  1.00  0.00     0.059 A 
ATOM     70  F   UNL A   1      45.061  24.032  25.789  1.00  0.00    -0.206 F 
ATOM     71  C   UNL A   1      44.243  20.598  25.303  1.00  0.00     0.060 A 
BRANCH  71  72
ATOM     72  S   UNL A   1      44.729  19.235  24.232  1.00  0.00     0.124 S 
ATOM     73  O   UNL A   1      44.522  19.799  22.903  1.00  0.00    -0.237 OA
ATOM     74  O   UNL A   1      46.116  19.018  24.625  1.00  0.00    -0.237 OA
ATOM     75  O   UNL A   1      43.804  18.165  24.600  1.00  0.00    -0.744 OA
ENDBRANCH  71  72
ENDBRANCH  50  64
BRANCH  51  76
ATOM     76  C   UNL A   1      41.453  30.222  32.956  1.00  0.00     0.058 A 
ATOM     77  C   UNL A   1      41.506  31.624  33.100  1.00  0.00     0.135 A 
ATOM     78  C   UNL A   1      40.188  29.626  32.883  1.00  0.00     0.135 A 
ATOM     79  F   UNL A   1      42.696  32.243  33.193  1.00  0.00    -0.206 F 
ATOM     80  C   UNL A   1      40.367  32.414  32.997  1.00  0.00     0.059 A 
ATOM     81  C   UNL A   1      39.028  30.399  32.804  1.00  0.00     0.059 A 
ATOM     82  F   UNL A   1      40.071  28.297  32.743  1.00  0.00    -0.206 F 
ATOM     83  C   UNL A   1      39.139  31.792  32.789  1.00  0.00     0.060 A 
BRANCH  83  84
ATOM     84  S   UNL A   1      37.733  32.827  32.314  1.00  0.00     0.124 S 
ATOM     85  O   UNL A   1      37.478  33.574  33.541  1.00  0.00    -0.237 OA
ATOM     86  O   UNL A   1      38.291  33.597  31.204  1.00  0.00    -0.237 OA
ATOM     87  O   UNL A   1      36.712  31.852  31.948  1.00  0.00    -0.744 OA
ENDBRANCH  83  84
ENDBRANCH  51  76
BRANCH  63  88
ATOM     88  C   UNL A   1      45.009  23.961  33.552  1.00  0.00     0.058 A 
ATOM     89  C   UNL A   1      46.329  23.740  33.977  1.00  0.00     0.135 A 
ATOM     90  C   UNL A   1      44.049  23.002  33.926  1.00  0.00     0.135 A 
ATOM     91  F   UNL A   1      47.304  24.602  33.646  1.00  0.00    -0.206 F 
ATOM     92  C   UNL A   1      46.679  22.629  34.742  1.00  0.00     0.059 A 
ATOM     93  C   UNL A   1      44.382  21.868  34.659  1.00  0.00     0.059 A 
ATOM     94  F   UNL A   1      42.756  23.161  33.598  1.00  0.00    -0.206 F 
ATOM     95  C   UNL A   1      45.699  21.696  35.074  1.00  0.00     0.060 A 
BRANCH  95  96
ATOM     96  S   UNL A   1      46.153  20.230  36.022  1.00  0.00     0.124 S 
ATOM     97  O   UNL A   1      47.597  20.147  35.819  1.00  0.00    -0.237 OA
ATOM     98  O   UNL A   1      45.726  20.609  37.365  1.00  0.00    -0.237 OA
ATOM     99  O   UNL A   1      45.378  19.169  35.387  1.00  0.00    -0.744 OA
ENDBRANCH  95  96
ENDBRANCH  63  88
ENDBRANCH  37  38
ENDBRANCH  29  32
ENDBRANCH  27  28
ENDBRANCH  26  27
ENDBRANCH   1  26
TORSDOF 18
ENDMDL
MODEL 3
REMARK VINA RESULT:     -13.5      1.482      2.035
REMARK SMILES Cc1ccc(O[C@H](C)C(=O)Nc2ccsc2C(=O)NCCCCNC(=O)c2ccc(-c3c4nc(c(-c5c(F)cc(S(=O)(=O)[O-])cc5F)c5ccc([nH]5)c(-c5c(F)cc(S(=O)(=O)[O-])cc5F)c5nc(c(-c6c(F)cc(S(=O)(=O)[O-])cc6F)c6ccc3[nH]6)C=C5)C=C4)cc2)cc1
REMARK SMILES IDX 21 1 20 2 19 3 17 4 18 5 16 7 12 8 13 9 14 10 15 11 11 12
REMARK SMILES IDX 9 13 10 14 7 16 8 17 6 18 5 19 1 20 2 21 3 22 94 23 4 24
REMARK SMILES IDX 93 25 22 26 23 27 24 28 25 29 26 31 27 32 28 33 92 34 29 35
REMARK SMILES IDX 91 36 30 37 31 38 32 39 85 40 33 41 90 42 84 43 86 44 34 45
REMARK SMILES IDX 89 46 83 47 82 48 35 50 69 51 48 52 68 53 49 54 52 55 67 56
REMARK SMILES IDX 87 57 50 58 51 59 66 61 88 62 53 63 36 64 37 65 46 66 38 67
REMARK SMILES IDX 39 68 45 69 47 70 40 71 41 72 42 73 43 74 44 75 70 76 71 77
REMARK SMILES IDX 80 78 72 79 73 80 79 81 81 82 74 83 75 84 76 85 77 86 78 87
REMARK SMILES IDX 54 88 55 89 64 90 56 91 57 92 63 93 65 94 58 95 59 96 60 97
REMARK SMILES IDX 61 98 62 99
REMARK H PARENT 19 6 11 15 24 30 86 49 52 60
REMARK Flexibility Score: inf
ROOT
ATOM      1  C   UNL A   1      32.627  28.900  25.616  1.00  0.00     0.023 C 
ENDROOT
BRANCH   1   2
ATOM      2  C   UNL A   1      32.281  29.235  24.166  1.00  0.00     0.116 C 
BRANCH   2   3
ATOM      3  N   UNL A   1      32.572  28.212  23.183  1.00  0.00    -0.351 N 
ATOM      4  C   UNL A   1      32.404  26.843  23.203  1.00  0.00     0.263 C 
ATOM      5  O   UNL A   1      32.777  26.271  22.171  1.00  0.00    -0.268 OA
ATOM      6  H   UNL A   1      32.961  28.558  22.346  1.00  0.00     0.163 HD
BRANCH   4   7
ATOM      7  C   UNL A   1      31.877  26.110  24.356  1.00  0.00     0.115 A 
ATOM      8  C   UNL A   1      32.440  25.368  25.387  1.00  0.00     0.065 A 
ATOM      9  C   UNL A   1      31.453  24.852  26.286  1.00  0.00     0.038 A 
ATOM     10  C   UNL A   1      30.171  25.167  25.913  1.00  0.00     0.068 A 
ATOM     11  S   UNL A   1      30.145  26.113  24.503  1.00  0.00    -0.137 S 
BRANCH   8  12
ATOM     12  N   UNL A   1      33.799  25.209  25.597  1.00  0.00    -0.321 N 
ATOM     13  C   UNL A   1      34.615  24.216  25.115  1.00  0.00     0.265 C 
ATOM     14  O   UNL A   1      35.809  24.262  25.434  1.00  0.00    -0.270 OA
ATOM     15  H   UNL A   1      34.232  25.890  26.159  1.00  0.00     0.170 HD
BRANCH  13  16
ATOM     16  C   UNL A   1      34.114  23.100  24.156  1.00  0.00     0.259 C 
ATOM     17  C   UNL A   1      35.216  22.870  23.134  1.00  0.00     0.064 C 
BRANCH  16  18
ATOM     18  O   UNL A   1      33.492  22.024  24.849  1.00  0.00    -0.481 OA
BRANCH  18  19
ATOM     19  C   UNL A   1      33.421  20.708  24.531  1.00  0.00     0.120 A 
ATOM     20  C   UNL A   1      33.938  16.569  23.363  1.00  0.00     0.044 C 
ATOM     21  C   UNL A   1      33.739  17.977  23.835  1.00  0.00    -0.051 A 
ATOM     22  C   UNL A   1      32.613  18.699  23.433  1.00  0.00     0.007 A 
ATOM     23  C   UNL A   1      34.699  18.623  24.614  1.00  0.00     0.007 A 
ATOM     24  C   UNL A   1      32.453  20.047  23.790  1.00  0.00     0.047 A 
ATOM     25  C   UNL A   1      34.536  19.970  24.957  1.00  0.00     0.047 A 
ENDBRANCH  18  19
ENDBRANCH  16  18
ENDBRANCH  13  16
ENDBRANCH   8  12
ENDBRANCH   4   7
ENDBRANCH   2   3
ENDBRANCH   1   2
BRANCH   1  26
ATOM     26  C   UNL A   1      33.189  30.026  26.469  1.00  0.00     0.023 C 
BRANCH  26  27
ATOM     27  C   UNL A   1      34.512  29.716  27.160  1.00  0.00     0.116 C 
BRANCH  27  28
ATOM     28  N   UNL A   1      35.227  30.914  27.577  1.00  0.00    -0.352 N 
ATOM     29  C   UNL A   1      36.466  31.022  28.198  1.00  0.00     0.251 C 
ATOM     30  H   UNL A   1      34.770  31.767  27.392  1.00  0.00     0.163 HD
ATOM     31  O   UNL A   1      36.856  32.062  28.676  1.00  0.00    -0.269 OA
BRANCH  29  32
ATOM     32  C   UNL A   1      37.339  29.826  28.166  1.00  0.00     0.039 A 
ATOM     33  C   UNL A   1      37.365  29.015  29.306  1.00  0.00     0.014 A 
ATOM     34  C   UNL A   1      38.284  29.677  27.160  1.00  0.00     0.014 A 
ATOM     35  C   UNL A   1      38.469  28.199  29.538  1.00  0.00     0.010 A 
ATOM     36  C   UNL A   1      39.424  28.951  27.437  1.00  0.00     0.010 A 
ATOM     37  C   UNL A   1      39.540  28.254  28.650  1.00  0.00    -0.014 A 
BRANCH  37  38
ATOM     38  C   UNL A   1      40.856  27.679  28.913  1.00  0.00     0.031 A 
ATOM     39  C   UNL A   1      41.115  26.262  28.582  1.00  0.00     0.074 A 
ATOM     40  C   UNL A   1      41.864  28.485  29.303  1.00  0.00     0.049 A 
ATOM     41  N   UNL A   1      42.179  25.605  28.898  1.00  0.00    -0.248 NA
ATOM     42  C   UNL A   1      40.123  25.449  27.893  1.00  0.00     0.031 C 
ATOM     43  C   UNL A   1      43.297  28.212  29.243  1.00  0.00     0.029 A 
ATOM     44  N   UNL A   1      41.764  29.653  30.062  1.00  0.00    -0.354 N 
ATOM     45  C   UNL A   1      42.143  24.395  28.236  1.00  0.00     0.074 A 
ATOM     46  C   UNL A   1      40.808  24.322  27.694  1.00  0.00     0.031 C 
ATOM     47  C   UNL A   1      43.923  29.003  30.127  1.00  0.00     0.029 A 
ATOM     48  C   UNL A   1      42.900  29.683  30.901  1.00  0.00     0.049 A 
ATOM     49  H   UNL A   1      41.044  30.323  30.021  1.00  0.00     0.167 HD
ATOM     50  C   UNL A   1      43.295  23.666  28.133  1.00  0.00     0.037 A 
ATOM     51  C   UNL A   1      42.743  29.566  32.255  1.00  0.00     0.037 A 
ATOM     52  C   UNL A   1      44.322  24.192  29.041  1.00  0.00     0.049 A 
ATOM     53  C   UNL A   1      43.324  28.297  32.850  1.00  0.00     0.074 A 
ATOM     54  C   UNL A   1      45.425  25.017  28.898  1.00  0.00     0.029 A 
ATOM     55  N   UNL A   1      44.094  24.102  30.405  1.00  0.00    -0.354 N 
ATOM     56  N   UNL A   1      43.910  27.354  32.162  1.00  0.00    -0.248 NA
ATOM     57  C   UNL A   1      43.227  27.962  34.273  1.00  0.00     0.031 C 
ATOM     58  C   UNL A   1      45.790  25.498  30.192  1.00  0.00     0.029 A 
ATOM     59  C   UNL A   1      44.921  24.950  31.118  1.00  0.00     0.049 A 
ATOM     60  H   UNL A   1      43.426  23.508  30.816  1.00  0.00     0.167 HD
ATOM     61  C   UNL A   1      44.190  26.297  32.985  1.00  0.00     0.074 A 
ATOM     62  C   UNL A   1      43.771  26.732  34.304  1.00  0.00     0.031 C 
ATOM     63  C   UNL A   1      44.699  25.113  32.544  1.00  0.00     0.037 A 
BRANCH  50  64
ATOM     64  C   UNL A   1      43.568  22.633  27.047  1.00  0.00     0.058 A 
ATOM     65  C   UNL A   1      42.835  21.424  27.008  1.00  0.00     0.135 A 
ATOM     66  C   UNL A   1      44.588  22.709  26.076  1.00  0.00     0.135 A 
ATOM     67  F   UNL A   1      41.775  21.225  27.805  1.00  0.00    -0.206 F 
ATOM     68  C   UNL A   1      43.156  20.357  26.161  1.00  0.00     0.059 A 
ATOM     69  C   UNL A   1      44.960  21.642  25.252  1.00  0.00     0.059 A 
ATOM     70  F   UNL A   1      45.248  23.841  25.823  1.00  0.00    -0.206 F 
ATOM     71  C   UNL A   1      44.246  20.460  25.310  1.00  0.00     0.060 A 
BRANCH  71  72
ATOM     72  S   UNL A   1      44.704  19.059  24.275  1.00  0.00     0.124 S 
ATOM     73  O   UNL A   1      46.105  18.861  24.631  1.00  0.00    -0.237 OA
ATOM     74  O   UNL A   1      43.778  18.029  24.729  1.00  0.00    -0.237 OA
ATOM     75  O   UNL A   1      44.475  19.548  22.917  1.00  0.00    -0.744 OA
ENDBRANCH  71  72
ENDBRANCH  50  64
BRANCH  51  76
ATOM     76  C   UNL A   1      41.522  30.275  32.741  1.00  0.00     0.058 A 
ATOM     77  C   UNL A   1      40.379  29.496  33.015  1.00  0.00     0.135 A 
ATOM     78  C   UNL A   1      41.592  31.547  33.324  1.00  0.00     0.135 A 
ATOM     79  F   UNL A   1      40.256  28.274  32.467  1.00  0.00    -0.206 F 
ATOM     80  C   UNL A   1      39.437  29.884  33.960  1.00  0.00     0.059 A 
ATOM     81  C   UNL A   1      40.643  31.969  34.256  1.00  0.00     0.059 A 
ATOM     82  F   UNL A   1      42.655  32.336  33.104  1.00  0.00    -0.206 F 
ATOM     83  C   UNL A   1      39.612  31.098  34.618  1.00  0.00     0.060 A 
BRANCH  83  84
ATOM     84  S   UNL A   1      38.589  31.430  36.073  1.00  0.00     0.124 S 
ATOM     85  O   UNL A   1      39.459  32.291  36.867  1.00  0.00    -0.237 OA
ATOM     86  O   UNL A   1      37.424  32.079  35.476  1.00  0.00    -0.237 OA
ATOM     87  O   UNL A   1      38.352  30.099  36.622  1.00  0.00    -0.744 OA
ENDBRANCH  83  84
ENDBRANCH  51  76
BRANCH  63  88
ATOM     88  C   UNL A   1      45.023  23.999  33.486  1.00  0.00     0.058 A 
ATOM     89  C   UNL A   1      46.303  23.874  34.050  1.00  0.00     0.135 A 
ATOM     90  C   UNL A   1      44.105  22.966  33.749  1.00  0.00     0.135 A 
ATOM     91  F   UNL A   1      47.238  24.812  33.831  1.00  0.00    -0.206 F 
ATOM     92  C   UNL A   1      46.653  22.783  34.842  1.00  0.00     0.059 A 
ATOM     93  C   UNL A   1      44.444  21.850  34.507  1.00  0.00     0.059 A 
ATOM     94  F   UNL A   1      42.847  23.030  33.283  1.00  0.00    -0.206 F 
ATOM     95  C   UNL A   1      45.718  21.773  35.061  1.00  0.00     0.060 A 
BRANCH  95  96
ATOM     96  S   UNL A   1      46.180  20.333  36.044  1.00  0.00     0.124 S 
ATOM     97  O   UNL A   1      45.746  20.703  37.388  1.00  0.00    -0.237 OA
ATOM     98  O   UNL A   1      45.402  19.280  35.398  1.00  0.00    -0.237 OA
ATOM     99  O   UNL A   1      47.625  20.254  35.861  1.00  0.00    -0.744 OA
ENDBRANCH  95  96
ENDBRANCH  63  88
ENDBRANCH  37  38
ENDBRANCH  29  32
ENDBRANCH  27  28
ENDBRANCH  26  27
ENDBRANCH   1  26
TORSDOF 18
ENDMDL
