MODEL 1
REMARK VINA RESULT:     -11.7      0.000      0.000
REMARK SMILES C#CC[N@@H+](CC(=O)NCCCCNC(=O)c1ccc(-c2c3nc(c(-c4c(F)cc(S(=O)(=O)[O-])cc4F)c4ccc([nH]4)c(-c4c(F)cc(S(=O)(=O)[O-])cc4F)c4nc(c(-c5c(F)cc(S(=O)(=O)[O-])cc5F)c5ccc2[nH]5)C=C4)C=C3)cc1)Cc1cccc2ccccc12
REMARK SMILES IDX 10 1 9 2 8 3 6 4 7 5 5 7 4 8 3 10 2 11 1 12 82 13 83 14
REMARK SMILES IDX 84 15 92 16 85 17 87 18 91 19 86 20 88 21 90 22 89 23 11 24
REMARK SMILES IDX 12 25 13 26 14 27 15 29 16 30 17 31 81 32 18 33 80 34 19 35
REMARK SMILES IDX 20 36 21 37 74 38 22 39 79 40 73 41 75 42 23 43 78 44 72 45
REMARK SMILES IDX 71 46 24 48 58 49 37 50 57 51 38 52 41 53 56 54 76 55 39 56
REMARK SMILES IDX 40 57 55 59 77 60 42 61 25 62 26 63 35 64 27 65 28 66 34 67
REMARK SMILES IDX 36 68 29 69 30 70 31 71 32 72 33 73 59 74 60 75 69 76 61 77
REMARK SMILES IDX 62 78 68 79 70 80 63 81 64 82 65 83 66 84 67 85 43 86 44 87
REMARK SMILES IDX 53 88 45 89 46 90 52 91 54 92 47 93 48 94 49 95 50 96 51 97
REMARK H PARENT 8 6 4 9 13 28 75 47 41 58
REMARK Flexibility Score: inf
ROOT
ATOM      1  C   UNL A   1      37.720  22.066  25.519  1.00  0.00     0.023 C 
ENDROOT
BRANCH   1   2
ATOM      2  C   UNL A   1      36.308  21.478  25.319  1.00  0.00     0.116 C 
BRANCH   2   3
ATOM      3  N   UNL A   1      35.460  21.376  26.499  1.00  0.00    -0.351 N 
ATOM      4  C   UNL A   1      34.399  22.125  26.935  1.00  0.00     0.275 C 
ATOM      5  O   UNL A   1      33.600  21.567  27.696  1.00  0.00    -0.269 OA
ATOM      6  H   UNL A   1      35.692  20.627  27.095  1.00  0.00     0.163 HD
BRANCH   4   7
ATOM      7  C   UNL A   1      34.136  23.571  26.478  1.00  0.00     0.364 C 
BRANCH   7   8
ATOM      8  N   UNL A   1      32.826  23.839  25.823  1.00  0.00    -0.313 N 
ATOM      9  H   UNL A   1      32.255  22.994  25.870  1.00  0.00     0.349 HD
BRANCH   8  10
ATOM     10  C   UNL A   1      33.062  24.133  24.420  1.00  0.00     0.354 C 
BRANCH  10  11
ATOM     11  C   UNL A   1      32.730  23.006  23.455  1.00  0.00    -0.047 C 
ATOM     12  C   UNL A   1      32.445  22.040  22.629  1.00  0.00     0.010 C 
ENDBRANCH  10  11
ENDBRANCH   8  10
BRANCH   8  13
ATOM     13  C   UNL A   1      31.931  24.790  26.554  1.00  0.00     0.300 C 
BRANCH  13  14
ATOM     14  C   UNL A   1      31.178  25.865  25.771  1.00  0.00     0.014 A 
ATOM     15  C   UNL A   1      30.217  25.502  24.814  1.00  0.00     0.010 A 
ATOM     16  C   UNL A   1      31.421  27.256  25.952  1.00  0.00    -0.010 A 
ATOM     17  C   UNL A   1      29.803  26.397  23.834  1.00  0.00     0.001 A 
ATOM     18  C   UNL A   1      31.051  28.149  24.913  1.00  0.00    -0.018 A 
ATOM     19  C   UNL A   1      31.957  27.828  27.127  1.00  0.00     0.009 A 
ATOM     20  C   UNL A   1      30.306  27.688  23.825  1.00  0.00     0.009 A 
ATOM     21  C   UNL A   1      31.379  29.509  24.993  1.00  0.00     0.009 A 
ATOM     22  C   UNL A   1      32.156  29.208  27.246  1.00  0.00     0.001 A 
ATOM     23  C   UNL A   1      31.912  30.041  26.162  1.00  0.00     0.001 A 
ENDBRANCH  13  14
ENDBRANCH   8  13
ENDBRANCH   7   8
ENDBRANCH   4   7
ENDBRANCH   2   3
ENDBRANCH   1   2
BRANCH   1  24
ATOM     24  C   UNL A   1      37.785  23.578  25.604  1.00  0.00     0.023 C 
BRANCH  24  25
ATOM     25  C   UNL A   1      38.747  24.005  26.677  1.00  0.00     0.116 C 
BRANCH  25  26
ATOM     26  N   UNL A   1      40.116  24.125  26.172  1.00  0.00    -0.352 N 
ATOM     27  C   UNL A   1      41.039  25.113  26.414  1.00  0.00     0.251 C 
ATOM     28  H   UNL A   1      40.414  23.399  25.577  1.00  0.00     0.163 HD
ATOM     29  O   UNL A   1      42.092  25.156  25.810  1.00  0.00    -0.269 OA
BRANCH  27  30
ATOM     30  C   UNL A   1      40.666  26.133  27.405  1.00  0.00     0.039 A 
ATOM     31  C   UNL A   1      39.788  25.795  28.430  1.00  0.00     0.014 A 
ATOM     32  C   UNL A   1      41.339  27.356  27.389  1.00  0.00     0.014 A 
ATOM     33  C   UNL A   1      39.631  26.681  29.491  1.00  0.00     0.010 A 
ATOM     34  C   UNL A   1      41.311  28.144  28.520  1.00  0.00     0.010 A 
ATOM     35  C   UNL A   1      40.423  27.840  29.559  1.00  0.00    -0.014 A 
BRANCH  35  36
ATOM     36  C   UNL A   1      40.287  28.816  30.659  1.00  0.00     0.031 A 
ATOM     37  C   UNL A   1      41.187  28.675  31.857  1.00  0.00     0.074 A 
ATOM     38  C   UNL A   1      39.325  29.757  30.612  1.00  0.00     0.049 A 
ATOM     39  N   UNL A   1      41.171  29.332  32.985  1.00  0.00    -0.248 NA
ATOM     40  C   UNL A   1      42.208  27.610  31.803  1.00  0.00     0.031 C 
ATOM     41  C   UNL A   1      38.354  29.935  29.528  1.00  0.00     0.029 A 
ATOM     42  N   UNL A   1      39.006  30.745  31.505  1.00  0.00    -0.354 N 
ATOM     43  C   UNL A   1      42.146  28.736  33.775  1.00  0.00     0.074 A 
ATOM     44  C   UNL A   1      42.668  27.609  33.041  1.00  0.00     0.031 C 
ATOM     45  C   UNL A   1      37.582  31.000  29.799  1.00  0.00     0.029 A 
ATOM     46  C   UNL A   1      37.975  31.553  31.090  1.00  0.00     0.049 A 
ATOM     47  H   UNL A   1      39.471  30.865  32.366  1.00  0.00     0.167 HD
ATOM     48  C   UNL A   1      42.604  29.126  34.985  1.00  0.00     0.037 A 
ATOM     49  C   UNL A   1      37.423  32.625  31.690  1.00  0.00     0.037 A 
ATOM     50  C   UNL A   1      42.124  30.294  35.666  1.00  0.00     0.049 A 
ATOM     51  C   UNL A   1      37.972  33.065  33.020  1.00  0.00     0.074 A 
ATOM     52  C   UNL A   1      42.558  30.834  36.862  1.00  0.00     0.029 A 
ATOM     53  N   UNL A   1      41.108  31.112  35.195  1.00  0.00    -0.354 N 
ATOM     54  N   UNL A   1      38.937  32.527  33.730  1.00  0.00    -0.248 NA
ATOM     55  C   UNL A   1      37.367  34.256  33.627  1.00  0.00     0.031 C 
ATOM     56  C   UNL A   1      41.780  31.964  37.130  1.00  0.00     0.029 A 
ATOM     57  C   UNL A   1      40.890  32.151  36.082  1.00  0.00     0.049 A 
ATOM     58  H   UNL A   1      40.614  30.974  34.355  1.00  0.00     0.167 HD
ATOM     59  C   UNL A   1      39.071  33.329  34.857  1.00  0.00     0.074 A 
ATOM     60  C   UNL A   1      38.095  34.394  34.725  1.00  0.00     0.031 C 
ATOM     61  C   UNL A   1      39.920  33.201  35.907  1.00  0.00     0.037 A 
BRANCH  48  62
ATOM     62  C   UNL A   1      43.689  28.296  35.613  1.00  0.00     0.058 A 
ATOM     63  C   UNL A   1      43.397  27.270  36.528  1.00  0.00     0.135 A 
ATOM     64  C   UNL A   1      45.038  28.536  35.311  1.00  0.00     0.135 A 
ATOM     65  F   UNL A   1      42.125  27.014  36.874  1.00  0.00    -0.206 F 
ATOM     66  C   UNL A   1      44.403  26.543  37.153  1.00  0.00     0.059 A 
ATOM     67  C   UNL A   1      46.061  27.798  35.900  1.00  0.00     0.059 A 
ATOM     68  F   UNL A   1      45.376  29.508  34.449  1.00  0.00    -0.206 F 
ATOM     69  C   UNL A   1      45.733  26.816  36.835  1.00  0.00     0.060 A 
BRANCH  69  70
ATOM     70  S   UNL A   1      47.028  25.867  37.659  1.00  0.00     0.124 S 
ATOM     71  O   UNL A   1      46.387  25.543  38.929  1.00  0.00    -0.237 OA
ATOM     72  O   UNL A   1      47.224  24.747  36.745  1.00  0.00    -0.237 OA
ATOM     73  O   UNL A   1      48.140  26.810  37.739  1.00  0.00    -0.744 OA
ENDBRANCH  69  70
ENDBRANCH  48  62
BRANCH  49  74
ATOM     74  C   UNL A   1      36.333  33.377  31.015  1.00  0.00     0.058 A 
ATOM     75  C   UNL A   1      35.021  33.336  31.512  1.00  0.00     0.135 A 
ATOM     76  C   UNL A   1      36.577  34.168  29.882  1.00  0.00     0.135 A 
ATOM     77  F   UNL A   1      34.737  32.595  32.593  1.00  0.00    -0.206 F 
ATOM     78  C   UNL A   1      33.987  34.037  30.900  1.00  0.00     0.059 A 
ATOM     79  C   UNL A   1      35.564  34.895  29.265  1.00  0.00     0.059 A 
ATOM     80  F   UNL A   1      37.818  34.258  29.380  1.00  0.00    -0.206 F 
ATOM     81  C   UNL A   1      34.268  34.815  29.776  1.00  0.00     0.060 A 
BRANCH  81  82
ATOM     82  S   UNL A   1      32.926  35.756  29.017  1.00  0.00     0.124 S 
ATOM     83  O   UNL A   1      32.379  34.782  28.079  1.00  0.00    -0.237 OA
ATOM     84  O   UNL A   1      32.087  36.075  30.167  1.00  0.00    -0.237 OA
ATOM     85  O   UNL A   1      33.613  36.895  28.417  1.00  0.00    -0.744 OA
ENDBRANCH  81  82
ENDBRANCH  49  74
BRANCH  61  86
ATOM     86  C   UNL A   1      39.853  34.252  36.976  1.00  0.00     0.058 A 
ATOM     87  C   UNL A   1      40.521  35.478  36.841  1.00  0.00     0.135 A 
ATOM     88  C   UNL A   1      39.051  34.057  38.112  1.00  0.00     0.135 A 
ATOM     89  F   UNL A   1      41.304  35.707  35.775  1.00  0.00    -0.206 F 
ATOM     90  C   UNL A   1      40.409  36.471  37.806  1.00  0.00     0.059 A 
ATOM     91  C   UNL A   1      38.903  35.047  39.076  1.00  0.00     0.059 A 
ATOM     92  F   UNL A   1      38.382  32.904  38.277  1.00  0.00    -0.206 F 
ATOM     93  C   UNL A   1      39.595  36.248  38.918  1.00  0.00     0.060 A 
BRANCH  93  94
ATOM     94  S   UNL A   1      39.420  37.564  40.138  1.00  0.00     0.124 S 
ATOM     95  O   UNL A   1      38.407  38.409  39.515  1.00  0.00    -0.237 OA
ATOM     96  O   UNL A   1      38.994  36.834  41.328  1.00  0.00    -0.237 OA
ATOM     97  O   UNL A   1      40.759  38.140  40.210  1.00  0.00    -0.744 OA
ENDBRANCH  93  94
ENDBRANCH  61  86
ENDBRANCH  35  36
ENDBRANCH  27  30
ENDBRANCH  25  26
ENDBRANCH  24  25
ENDBRANCH   1  24
TORSDOF 19
ENDMDL
MODEL 2
REMARK VINA RESULT:     -11.5      4.953     10.641
REMARK SMILES C#CC[N@@H+](CC(=O)NCCCCNC(=O)c1ccc(-c2c3nc(c(-c4c(F)cc(S(=O)(=O)[O-])cc4F)c4ccc([nH]4)c(-c4c(F)cc(S(=O)(=O)[O-])cc4F)c4nc(c(-c5c(F)cc(S(=O)(=O)[O-])cc5F)c5ccc2[nH]5)C=C4)C=C3)cc1)Cc1cccc2ccccc12
REMARK SMILES IDX 10 1 9 2 8 3 6 4 7 5 5 7 4 8 3 10 2 11 1 12 82 13 83 14
REMARK SMILES IDX 84 15 92 16 85 17 87 18 91 19 86 20 88 21 90 22 89 23 11 24
REMARK SMILES IDX 12 25 13 26 14 27 15 29 16 30 17 31 81 32 18 33 80 34 19 35
REMARK SMILES IDX 20 36 21 37 74 38 22 39 79 40 73 41 75 42 23 43 78 44 72 45
REMARK SMILES IDX 71 46 24 48 58 49 37 50 57 51 38 52 41 53 56 54 76 55 39 56
REMARK SMILES IDX 40 57 55 59 77 60 42 61 25 62 26 63 35 64 27 65 28 66 34 67
REMARK SMILES IDX 36 68 29 69 30 70 31 71 32 72 33 73 59 74 60 75 69 76 61 77
REMARK SMILES IDX 62 78 68 79 70 80 63 81 64 82 65 83 66 84 67 85 43 86 44 87
REMARK SMILES IDX 53 88 45 89 46 90 52 91 54 92 47 93 48 94 49 95 50 96 51 97
REMARK H PARENT 8 6 4 9 13 28 75 47 41 58
REMARK Flexibility Score: inf
ROOT
ATOM      1  C   UNL A   1      31.847  29.209  25.672  1.00  0.00     0.023 C 
ENDROOT
BRANCH   1   2
ATOM      2  C   UNL A   1      31.720  29.037  24.145  1.00  0.00     0.116 C 
BRANCH   2   3
ATOM      3  N   UNL A   1      32.945  28.766  23.405  1.00  0.00    -0.351 N 
ATOM      4  C   UNL A   1      33.278  27.789  22.503  1.00  0.00     0.275 C 
ATOM      5  O   UNL A   1      34.188  28.052  21.709  1.00  0.00    -0.269 OA
ATOM      6  H   UNL A   1      33.671  29.406  23.586  1.00  0.00     0.163 HD
BRANCH   4   7
ATOM      7  C   UNL A   1      32.541  26.442  22.401  1.00  0.00     0.364 C 
BRANCH   7   8
ATOM      8  N   UNL A   1      32.852  25.427  23.444  1.00  0.00    -0.313 N 
ATOM      9  H   UNL A   1      32.858  25.883  24.357  1.00  0.00     0.349 HD
BRANCH   8  10
ATOM     10  C   UNL A   1      34.189  24.911  23.202  1.00  0.00     0.354 C 
BRANCH  10  11
ATOM     11  C   UNL A   1      34.966  24.510  24.446  1.00  0.00    -0.047 C 
ATOM     12  C   UNL A   1      35.631  24.166  25.512  1.00  0.00     0.010 C 
ENDBRANCH  10  11
ENDBRANCH   8  10
BRANCH   8  13
ATOM     13  C   UNL A   1      31.785  24.405  23.677  1.00  0.00     0.300 C 
BRANCH  13  14
ATOM     14  C   UNL A   1      31.940  23.402  24.820  1.00  0.00     0.014 A 
ATOM     15  C   UNL A   1      31.772  23.814  26.152  1.00  0.00     0.010 A 
ATOM     16  C   UNL A   1      32.277  22.036  24.601  1.00  0.00    -0.010 A 
ATOM     17  C   UNL A   1      32.271  23.059  27.207  1.00  0.00     0.001 A 
ATOM     18  C   UNL A   1      32.846  21.298  25.671  1.00  0.00    -0.018 A 
ATOM     19  C   UNL A   1      32.031  21.335  23.399  1.00  0.00     0.009 A 
ATOM     20  C   UNL A   1      32.903  21.853  26.953  1.00  0.00     0.009 A 
ATOM     21  C   UNL A   1      33.304  19.989  25.469  1.00  0.00     0.009 A 
ATOM     22  C   UNL A   1      32.373  19.986  23.254  1.00  0.00     0.001 A 
ATOM     23  C   UNL A   1      33.052  19.328  24.272  1.00  0.00     0.001 A 
ENDBRANCH  13  14
ENDBRANCH   8  13
ENDBRANCH   7   8
ENDBRANCH   4   7
ENDBRANCH   2   3
ENDBRANCH   1   2
BRANCH   1  24
ATOM     24  C   UNL A   1      32.469  28.037  26.406  1.00  0.00     0.023 C 
BRANCH  24  25
ATOM     25  C   UNL A   1      33.733  28.459  27.101  1.00  0.00     0.116 C 
BRANCH  25  26
ATOM     26  N   UNL A   1      33.640  29.821  27.631  1.00  0.00    -0.352 N 
ATOM     27  C   UNL A   1      34.599  30.557  28.283  1.00  0.00     0.251 C 
ATOM     28  H   UNL A   1      32.772  30.268  27.502  1.00  0.00     0.163 HD
ATOM     29  O   UNL A   1      34.335  31.626  28.796  1.00  0.00    -0.269 OA
BRANCH  27  30
ATOM     30  C   UNL A   1      35.942  29.964  28.364  1.00  0.00     0.039 A 
ATOM     31  C   UNL A   1      36.816  30.113  27.291  1.00  0.00     0.014 A 
ATOM     32  C   UNL A   1      36.360  29.422  29.581  1.00  0.00     0.014 A 
ATOM     33  C   UNL A   1      38.151  29.765  27.468  1.00  0.00     0.010 A 
ATOM     34  C   UNL A   1      37.709  29.245  29.801  1.00  0.00     0.010 A 
ATOM     35  C   UNL A   1      38.611  29.368  28.735  1.00  0.00    -0.014 A 
BRANCH  35  36
ATOM     36  C   UNL A   1      40.016  28.980  28.971  1.00  0.00     0.031 A 
ATOM     37  C   UNL A   1      40.949  29.999  29.569  1.00  0.00     0.074 A 
ATOM     38  C   UNL A   1      40.456  27.768  28.586  1.00  0.00     0.049 A 
ATOM     39  N   UNL A   1      42.239  29.929  29.754  1.00  0.00    -0.248 NA
ATOM     40  C   UNL A   1      40.361  31.296  29.957  1.00  0.00     0.031 C 
ATOM     41  C   UNL A   1      39.648  26.733  27.932  1.00  0.00     0.029 A 
ATOM     42  N   UNL A   1      41.698  27.201  28.688  1.00  0.00    -0.354 N 
ATOM     43  C   UNL A   1      42.612  31.176  30.241  1.00  0.00     0.074 A 
ATOM     44  C   UNL A   1      41.437  32.012  30.233  1.00  0.00     0.031 C 
ATOM     45  C   UNL A   1      40.405  25.640  27.739  1.00  0.00     0.029 A 
ATOM     46  C   UNL A   1      41.757  25.912  28.216  1.00  0.00     0.049 A 
ATOM     47  H   UNL A   1      42.477  27.673  29.065  1.00  0.00     0.167 HD
ATOM     48  C   UNL A   1      43.817  31.573  30.705  1.00  0.00     0.037 A 
ATOM     49  C   UNL A   1      42.792  25.051  28.185  1.00  0.00     0.037 A 
ATOM     50  C   UNL A   1      44.956  30.703  30.775  1.00  0.00     0.049 A 
ATOM     51  C   UNL A   1      44.116  25.500  28.740  1.00  0.00     0.074 A 
ATOM     52  C   UNL A   1      46.211  30.965  31.290  1.00  0.00     0.029 A 
ATOM     53  N   UNL A   1      44.967  29.391  30.326  1.00  0.00    -0.354 N 
ATOM     54  N   UNL A   1      44.441  26.664  29.253  1.00  0.00    -0.248 NA
ATOM     55  C   UNL A   1      45.211  24.523  28.718  1.00  0.00     0.031 C 
ATOM     56  C   UNL A   1      46.993  29.818  31.124  1.00  0.00     0.029 A 
ATOM     57  C   UNL A   1      46.213  28.829  30.542  1.00  0.00     0.049 A 
ATOM     58  H   UNL A   1      44.202  28.927  29.914  1.00  0.00     0.167 HD
ATOM     59  C   UNL A   1      45.771  26.551  29.639  1.00  0.00     0.074 A 
ATOM     60  C   UNL A   1      46.184  25.201  29.309  1.00  0.00     0.031 C 
ATOM     61  C   UNL A   1      46.581  27.476  30.213  1.00  0.00     0.037 A 
BRANCH  48  62
ATOM     62  C   UNL A   1      43.937  32.990  31.193  1.00  0.00     0.058 A 
ATOM     63  C   UNL A   1      44.300  34.039  30.330  1.00  0.00     0.135 A 
ATOM     64  C   UNL A   1      43.702  33.304  32.540  1.00  0.00     0.135 A 
ATOM     65  F   UNL A   1      44.562  33.791  29.037  1.00  0.00    -0.206 F 
ATOM     66  C   UNL A   1      44.468  35.338  30.794  1.00  0.00     0.059 A 
ATOM     67  C   UNL A   1      43.832  34.605  33.019  1.00  0.00     0.059 A 
ATOM     68  F   UNL A   1      43.360  32.341  33.410  1.00  0.00    -0.206 F 
ATOM     69  C   UNL A   1      44.234  35.611  32.142  1.00  0.00     0.060 A 
BRANCH  69  70
ATOM     70  S   UNL A   1      44.463  37.302  32.730  1.00  0.00     0.124 S 
ATOM     71  O   UNL A   1      44.438  38.051  31.477  1.00  0.00    -0.237 OA
ATOM     72  O   UNL A   1      43.306  37.488  33.601  1.00  0.00    -0.237 OA
ATOM     73  O   UNL A   1      45.754  37.253  33.408  1.00  0.00    -0.744 OA
ENDBRANCH  69  70
ENDBRANCH  48  62
BRANCH  49  74
ATOM     74  C   UNL A   1      42.599  23.673  27.660  1.00  0.00     0.058 A 
ATOM     75  C   UNL A   1      42.663  23.416  26.281  1.00  0.00     0.135 A 
ATOM     76  C   UNL A   1      42.374  22.585  28.516  1.00  0.00     0.135 A 
ATOM     77  F   UNL A   1      42.877  24.423  25.422  1.00  0.00    -0.206 F 
ATOM     78  C   UNL A   1      42.491  22.134  25.770  1.00  0.00     0.059 A 
ATOM     79  C   UNL A   1      42.221  21.290  28.030  1.00  0.00     0.059 A 
ATOM     80  F   UNL A   1      42.326  22.773  29.844  1.00  0.00    -0.206 F 
ATOM     81  C   UNL A   1      42.272  21.076  26.653  1.00  0.00     0.060 A 
BRANCH  81  82
ATOM     82  S   UNL A   1      42.095  19.410  25.979  1.00  0.00     0.124 S 
ATOM     83  O   UNL A   1      40.657  19.337  25.749  1.00  0.00    -0.237 OA
ATOM     84  O   UNL A   1      42.929  19.473  24.783  1.00  0.00    -0.237 OA
ATOM     85  O   UNL A   1      42.609  18.560  27.048  1.00  0.00    -0.744 OA
ENDBRANCH  81  82
ENDBRANCH  49  74
BRANCH  61  86
ATOM     86  C   UNL A   1      47.980  27.049  30.549  1.00  0.00     0.058 A 
ATOM     87  C   UNL A   1      49.051  27.299  29.678  1.00  0.00     0.135 A 
ATOM     88  C   UNL A   1      48.259  26.453  31.789  1.00  0.00     0.135 A 
ATOM     89  F   UNL A   1      48.831  27.862  28.480  1.00  0.00    -0.206 F 
ATOM     90  C   UNL A   1      50.353  26.955  30.019  1.00  0.00     0.059 A 
ATOM     91  C   UNL A   1      49.557  26.126  32.161  1.00  0.00     0.059 A 
ATOM     92  F   UNL A   1      47.267  26.208  32.660  1.00  0.00    -0.206 F 
ATOM     93  C   UNL A   1      50.597  26.373  31.265  1.00  0.00     0.060 A 
BRANCH  93  94
ATOM     94  S   UNL A   1      52.298  25.977  31.714  1.00  0.00     0.124 S 
ATOM     95  O   UNL A   1      52.156  24.622  32.237  1.00  0.00    -0.237 OA
ATOM     96  O   UNL A   1      52.995  26.095  30.437  1.00  0.00    -0.237 OA
ATOM     97  O   UNL A   1      52.635  26.998  32.701  1.00  0.00    -0.744 OA
ENDBRANCH  93  94
ENDBRANCH  61  86
ENDBRANCH  35  36
ENDBRANCH  27  30
ENDBRANCH  25  26
ENDBRANCH  24  25
ENDBRANCH   1  24
TORSDOF 19
ENDMDL
MODEL 3
REMARK VINA RESULT:     -11.5      2.904      3.718
REMARK SMILES C#CC[N@@H+](CC(=O)NCCCCNC(=O)c1ccc(-c2c3nc(c(-c4c(F)cc(S(=O)(=O)[O-])cc4F)c4ccc([nH]4)c(-c4c(F)cc(S(=O)(=O)[O-])cc4F)c4nc(c(-c5c(F)cc(S(=O)(=O)[O-])cc5F)c5ccc2[nH]5)C=C4)C=C3)cc1)Cc1cccc2ccccc12
REMARK SMILES IDX 10 1 9 2 8 3 6 4 7 5 5 7 4 8 3 10 2 11 1 12 82 13 83 14
REMARK SMILES IDX 84 15 92 16 85 17 87 18 91 19 86 20 88 21 90 22 89 23 11 24
REMARK SMILES IDX 12 25 13 26 14 27 15 29 16 30 17 31 81 32 18 33 80 34 19 35
REMARK SMILES IDX 20 36 21 37 74 38 22 39 79 40 73 41 75 42 23 43 78 44 72 45
REMARK SMILES IDX 71 46 24 48 58 49 37 50 57 51 38 52 41 53 56 54 76 55 39 56
REMARK SMILES IDX 40 57 55 59 77 60 42 61 25 62 26 63 35 64 27 65 28 66 34 67
REMARK SMILES IDX 36 68 29 69 30 70 31 71 32 72 33 73 59 74 60 75 69 76 61 77
REMARK SMILES IDX 62 78 68 79 70 80 63 81 64 82 65 83 66 84 67 85 43 86 44 87
REMARK SMILES IDX 53 88 45 89 46 90 52 91 54 92 47 93 48 94 49 95 50 96 51 97
REMARK H PARENT 8 6 4 9 13 28 75 47 41 58
REMARK Flexibility Score: inf
ROOT
ATOM      1  C   UNL A   1      34.604  23.614  26.193  1.00  0.00     0.023 C 
ENDROOT
BRANCH   1   2
ATOM      2  C   UNL A   1      33.803  22.594  27.028  1.00  0.00     0.116 C 
BRANCH   2   3
ATOM      3  N   UNL A   1      32.476  22.999  27.472  1.00  0.00    -0.351 N 
ATOM      4  C   UNL A   1      31.249  22.948  26.865  1.00  0.00     0.275 C 
ATOM      5  O   UNL A   1      30.261  22.927  27.608  1.00  0.00    -0.269 OA
ATOM      6  H   UNL A   1      32.457  23.381  28.379  1.00  0.00     0.163 HD
BRANCH   4   7
ATOM      7  C   UNL A   1      31.059  22.853  25.341  1.00  0.00     0.364 C 
BRANCH   7   8
ATOM      8  N   UNL A   1      30.369  23.994  24.679  1.00  0.00    -0.313 N 
ATOM      9  H   UNL A   1      29.361  23.869  24.773  1.00  0.00     0.349 HD
BRANCH   8  10
ATOM     10  C   UNL A   1      30.684  23.965  23.260  1.00  0.00     0.354 C 
BRANCH  10  11
ATOM     11  C   UNL A   1      32.161  24.091  22.921  1.00  0.00    -0.047 C 
ATOM     12  C   UNL A   1      33.426  24.199  22.630  1.00  0.00     0.010 C 
ENDBRANCH  10  11
ENDBRANCH   8  10
BRANCH   8  13
ATOM     13  C   UNL A   1      30.526  25.316  25.361  1.00  0.00     0.300 C 
BRANCH  13  14
ATOM     14  C   UNL A   1      30.460  26.602  24.536  1.00  0.00     0.014 A 
ATOM     15  C   UNL A   1      29.224  27.094  24.089  1.00  0.00     0.010 A 
ATOM     16  C   UNL A   1      31.623  27.336  24.168  1.00  0.00    -0.010 A 
ATOM     17  C   UNL A   1      29.149  28.007  23.043  1.00  0.00     0.001 A 
ATOM     18  C   UNL A   1      31.546  28.215  23.057  1.00  0.00    -0.018 A 
ATOM     19  C   UNL A   1      32.849  27.298  24.870  1.00  0.00     0.009 A 
ATOM     20  C   UNL A   1      30.311  28.483  22.459  1.00  0.00     0.009 A 
ATOM     21  C   UNL A   1      32.693  28.867  22.584  1.00  0.00     0.009 A 
ATOM     22  C   UNL A   1      33.950  28.058  24.464  1.00  0.00     0.001 A 
ATOM     23  C   UNL A   1      33.887  28.804  23.295  1.00  0.00     0.001 A 
ENDBRANCH  13  14
ENDBRANCH   8  13
ENDBRANCH   7   8
ENDBRANCH   4   7
ENDBRANCH   2   3
ENDBRANCH   1   2
BRANCH   1  24
ATOM     24  C   UNL A   1      35.623  23.015  25.244  1.00  0.00     0.023 C 
BRANCH  24  25
ATOM     25  C   UNL A   1      36.921  23.770  25.317  1.00  0.00     0.116 C 
BRANCH  25  26
ATOM     26  N   UNL A   1      38.069  22.875  25.470  1.00  0.00    -0.352 N 
ATOM     27  C   UNL A   1      39.267  23.112  26.100  1.00  0.00     0.251 C 
ATOM     28  H   UNL A   1      37.969  21.982  25.067  1.00  0.00     0.163 HD
ATOM     29  O   UNL A   1      40.188  22.324  26.024  1.00  0.00    -0.269 OA
BRANCH  27  30
ATOM     30  C   UNL A   1      39.387  24.384  26.828  1.00  0.00     0.039 A 
ATOM     31  C   UNL A   1      38.865  24.482  28.114  1.00  0.00     0.014 A 
ATOM     32  C   UNL A   1      40.173  25.398  26.276  1.00  0.00     0.014 A 
ATOM     33  C   UNL A   1      39.192  25.596  28.881  1.00  0.00     0.010 A 
ATOM     34  C   UNL A   1      40.630  26.406  27.097  1.00  0.00     0.010 A 
ATOM     35  C   UNL A   1      40.108  26.542  28.390  1.00  0.00    -0.014 A 
BRANCH  35  36
ATOM     36  C   UNL A   1      40.480  27.745  29.162  1.00  0.00     0.031 A 
ATOM     37  C   UNL A   1      41.814  27.765  29.858  1.00  0.00     0.074 A 
ATOM     38  C   UNL A   1      39.605  28.759  29.294  1.00  0.00     0.049 A 
ATOM     39  N   UNL A   1      42.302  28.651  30.684  1.00  0.00    -0.248 NA
ATOM     40  C   UNL A   1      42.696  26.600  29.644  1.00  0.00     0.031 C 
ATOM     41  C   UNL A   1      38.258  28.807  28.718  1.00  0.00     0.029 A 
ATOM     42  N   UNL A   1      39.721  29.950  29.960  1.00  0.00    -0.354 N 
ATOM     43  C   UNL A   1      43.519  28.132  31.107  1.00  0.00     0.074 A 
ATOM     44  C   UNL A   1      43.654  26.818  30.528  1.00  0.00     0.031 C 
ATOM     45  C   UNL A   1      37.694  29.990  29.015  1.00  0.00     0.029 A 
ATOM     46  C   UNL A   1      38.621  30.763  29.834  1.00  0.00     0.049 A 
ATOM     47  H   UNL A   1      40.519  30.200  30.482  1.00  0.00     0.167 HD
ATOM     48  C   UNL A   1      44.468  28.721  31.868  1.00  0.00     0.037 A 
ATOM     49  C   UNL A   1      38.399  31.998  30.323  1.00  0.00     0.037 A 
ATOM     50  C   UNL A   1      44.348  30.059  32.374  1.00  0.00     0.049 A 
ATOM     51  C   UNL A   1      39.482  32.651  31.138  1.00  0.00     0.074 A 
ATOM     52  C   UNL A   1      45.268  30.794  33.096  1.00  0.00     0.029 A 
ATOM     53  N   UNL A   1      43.236  30.868  32.190  1.00  0.00    -0.354 N 
ATOM     54  N   UNL A   1      40.655  32.173  31.483  1.00  0.00    -0.248 NA
ATOM     55  C   UNL A   1      39.217  34.010  31.626  1.00  0.00     0.031 C 
ATOM     56  C   UNL A   1      44.699  32.039  33.377  1.00  0.00     0.029 A 
ATOM     57  C   UNL A   1      43.441  32.095  32.795  1.00  0.00     0.049 A 
ATOM     58  H   UNL A   1      42.421  30.608  31.702  1.00  0.00     0.167 HD
ATOM     59  C   UNL A   1      41.279  33.181  32.207  1.00  0.00     0.074 A 
ATOM     60  C   UNL A   1      40.356  34.299  32.240  1.00  0.00     0.031 C 
ATOM     61  C   UNL A   1      42.502  33.188  32.793  1.00  0.00     0.037 A 
BRANCH  48  62
ATOM     62  C   UNL A   1      45.710  27.928  32.162  1.00  0.00     0.058 A 
ATOM     63  C   UNL A   1      46.831  27.973  31.315  1.00  0.00     0.135 A 
ATOM     64  C   UNL A   1      45.778  27.099  33.292  1.00  0.00     0.135 A 
ATOM     65  F   UNL A   1      46.811  28.728  30.205  1.00  0.00    -0.206 F 
ATOM     66  C   UNL A   1      47.957  27.193  31.555  1.00  0.00     0.059 A 
ATOM     67  C   UNL A   1      46.908  26.335  33.570  1.00  0.00     0.059 A 
ATOM     68  F   UNL A   1      44.734  27.011  34.131  1.00  0.00    -0.206 F 
ATOM     69  C   UNL A   1      47.985  26.375  32.684  1.00  0.00     0.060 A 
BRANCH  69  70
ATOM     70  S   UNL A   1      49.451  25.364  32.978  1.00  0.00     0.124 S 
ATOM     71  O   UNL A   1      48.915  24.322  33.848  1.00  0.00    -0.237 OA
ATOM     72  O   UNL A   1      49.812  24.938  31.630  1.00  0.00    -0.237 OA
ATOM     73  O   UNL A   1      50.382  26.293  33.611  1.00  0.00    -0.744 OA
ENDBRANCH  69  70
ENDBRANCH  48  62
BRANCH  49  74
ATOM     74  C   UNL A   1      37.130  32.707  30.010  1.00  0.00     0.058 A 
ATOM     75  C   UNL A   1      35.964  32.446  30.746  1.00  0.00     0.135 A 
ATOM     76  C   UNL A   1      37.059  33.672  28.994  1.00  0.00     0.135 A 
ATOM     77  F   UNL A   1      35.982  31.533  31.728  1.00  0.00    -0.206 F 
ATOM     78  C   UNL A   1      34.768  33.102  30.474  1.00  0.00     0.059 A 
ATOM     79  C   UNL A   1      35.880  34.357  28.718  1.00  0.00     0.059 A 
ATOM     80  F   UNL A   1      38.151  33.974  28.275  1.00  0.00    -0.206 F 
ATOM     81  C   UNL A   1      34.736  34.058  29.457  1.00  0.00     0.060 A 
BRANCH  81  82
ATOM     82  S   UNL A   1      33.188  34.934  29.143  1.00  0.00     0.124 S 
ATOM     83  O   UNL A   1      33.673  36.216  28.645  1.00  0.00    -0.237 OA
ATOM     84  O   UNL A   1      32.541  34.071  28.160  1.00  0.00    -0.237 OA
ATOM     85  O   UNL A   1      32.549  34.966  30.455  1.00  0.00    -0.744 OA
ENDBRANCH  81  82
ENDBRANCH  49  74
BRANCH  61  86
ATOM     86  C   UNL A   1      42.923  34.449  33.490  1.00  0.00     0.058 A 
ATOM     87  C   UNL A   1      42.721  34.628  34.866  1.00  0.00     0.135 A 
ATOM     88  C   UNL A   1      43.604  35.454  32.783  1.00  0.00     0.135 A 
ATOM     89  F   UNL A   1      42.072  33.696  35.581  1.00  0.00    -0.206 F 
ATOM     90  C   UNL A   1      43.166  35.772  35.517  1.00  0.00     0.059 A 
ATOM     91  C   UNL A   1      44.080  36.593  33.420  1.00  0.00     0.059 A 
ATOM     92  F   UNL A   1      43.831  35.319  31.467  1.00  0.00    -0.206 F 
ATOM     93  C   UNL A   1      43.848  36.747  34.786  1.00  0.00     0.060 A 
BRANCH  93  94
ATOM     94  S   UNL A   1      44.462  38.204  35.655  1.00  0.00     0.124 S 
ATOM     95  O   UNL A   1      43.895  39.283  34.854  1.00  0.00    -0.237 OA
ATOM     96  O   UNL A   1      43.893  38.037  36.988  1.00  0.00    -0.237 OA
ATOM     97  O   UNL A   1      45.912  38.059  35.576  1.00  0.00    -0.744 OA
ENDBRANCH  93  94
ENDBRANCH  61  86
ENDBRANCH  35  36
ENDBRANCH  27  30
ENDBRANCH  25  26
ENDBRANCH  24  25
ENDBRANCH   1  24
TORSDOF 19
ENDMDL
