MODEL 1
REMARK VINA RESULT:     -12.0      0.000      0.000
REMARK SMILES Cc1cc(C)n(CCC(=O)N[C@@H](C(=O)NCCCNC(=O)c2ccc(-c3c4nc(c(-c5c(F)cc(S(=O)(=O)[O-])cc5F)c5ccc([nH]5)c(-c5c(F)cc(S(=O)(=O)[O-])cc5F)c5nc(c(-c6c(F)cc(S(=O)(=O)[O-])cc6F)c6ccc3[nH]6)C=C5)C=C4)cc2)[C@@H](C)O)n1
REMARK SMILES IDX 16 1 15 2 13 3 14 4 12 6 11 7 9 8 10 9 8 11 7 12 6 13 1 14
REMARK SMILES IDX 2 15 3 16 91 17 4 18 5 19 88 20 89 21 90 22 17 24 18 25
REMARK SMILES IDX 19 26 20 27 21 29 22 30 23 31 87 32 24 33 86 34 25 35 26 36
REMARK SMILES IDX 27 37 80 38 28 39 85 40 79 41 81 42 29 43 84 44 78 45 77 46
REMARK SMILES IDX 30 48 64 49 43 50 63 51 44 52 47 53 62 54 82 55 45 56 46 57
REMARK SMILES IDX 61 59 83 60 48 61 31 62 32 63 41 64 33 65 34 66 40 67 42 68
REMARK SMILES IDX 35 69 36 70 37 71 38 72 39 73 65 74 66 75 75 76 67 77 68 78
REMARK SMILES IDX 74 79 76 80 69 81 70 82 71 83 72 84 73 85 49 86 50 87 59 88
REMARK SMILES IDX 51 89 52 90 58 91 60 92 53 93 54 94 55 95 56 96 57 97
REMARK H PARENT 15 5 11 10 90 23 19 28 81 47 47 58
REMARK Flexibility Score: inf
ROOT
ATOM      1  C   UNL A   1      36.411  21.090  25.390  1.00  0.00     0.117 C 
ENDROOT
BRANCH   1   2
ATOM      2  N   UNL A   1      35.385  21.361  26.436  1.00  0.00    -0.354 N 
ATOM      3  C   UNL A   1      34.059  21.454  26.730  1.00  0.00     0.245 C 
ATOM      4  O   UNL A   1      33.896  21.761  27.926  1.00  0.00    -0.273 OA
ATOM      5  H   UNL A   1      35.873  21.553  27.269  1.00  0.00     0.163 HD
BRANCH   3   6
ATOM      6  C   UNL A   1      32.766  21.409  25.807  1.00  0.00     0.199 C 
BRANCH   6   7
ATOM      7  N   UNL A   1      31.628  21.981  26.567  1.00  0.00    -0.342 N 
ATOM      8  C   UNL A   1      30.841  23.084  26.441  1.00  0.00     0.222 C 
ATOM      9  O   UNL A   1      30.053  23.309  27.367  1.00  0.00    -0.275 OA
ATOM     10  H   UNL A   1      31.383  21.433  27.346  1.00  0.00     0.164 HD
BRANCH   8  11
ATOM     11  C   UNL A   1      30.830  24.022  25.241  1.00  0.00     0.123 C 
BRANCH  11  12
ATOM     12  C   UNL A   1      31.241  25.462  25.495  1.00  0.00     0.154 C 
BRANCH  12  13
ATOM     13  N   UNL A   1      31.923  26.021  24.347  1.00  0.00    -0.269 N 
ATOM     14  C   UNL A   1      32.602  25.732  20.881  1.00  0.00     0.069 C 
ATOM     15  C   UNL A   1      32.544  26.079  22.322  1.00  0.00     0.060 A 
ATOM     16  C   UNL A   1      33.479  26.837  23.059  1.00  0.00     0.048 A 
ATOM     17  N   UNL A   1      31.583  25.593  23.114  1.00  0.00    -0.178 NA
ATOM     18  C   UNL A   1      33.065  26.768  24.377  1.00  0.00     0.036 A 
ATOM     19  C   UNL A   1      33.709  27.177  25.651  1.00  0.00     0.066 C 
ENDBRANCH  12  13
ENDBRANCH  11  12
ENDBRANCH   8  11
ENDBRANCH   6   7
BRANCH   6  20
ATOM     20  C   UNL A   1      32.515  19.902  25.384  1.00  0.00     0.143 C 
ATOM     21  C   UNL A   1      33.183  19.393  24.103  1.00  0.00     0.041 C 
BRANCH  20  22
ATOM     22  O   UNL A   1      32.944  19.031  26.446  1.00  0.00    -0.391 OA
ATOM     23  H   UNL A   1      33.610  19.484  26.988  1.00  0.00     0.211 HD
ENDBRANCH  20  22
ENDBRANCH   6  20
ENDBRANCH   3   6
ENDBRANCH   1   2
BRANCH   1  24
ATOM     24  C   UNL A   1      37.067  22.372  24.818  1.00  0.00     0.042 C 
BRANCH  24  25
ATOM     25  C   UNL A   1      38.418  22.801  25.427  1.00  0.00     0.118 C 
BRANCH  25  26
ATOM     26  N   UNL A   1      38.889  22.107  26.633  1.00  0.00    -0.352 N 
ATOM     27  C   UNL A   1      40.038  22.435  27.371  1.00  0.00     0.251 C 
ATOM     28  H   UNL A   1      38.354  21.345  26.952  1.00  0.00     0.163 HD
ATOM     29  O   UNL A   1      40.614  21.636  28.070  1.00  0.00    -0.269 OA
BRANCH  27  30
ATOM     30  C   UNL A   1      40.501  23.835  27.263  1.00  0.00     0.039 A 
ATOM     31  C   UNL A   1      39.624  24.864  26.911  1.00  0.00     0.014 A 
ATOM     32  C   UNL A   1      41.742  24.092  27.833  1.00  0.00     0.014 A 
ATOM     33  C   UNL A   1      39.934  26.164  27.314  1.00  0.00     0.010 A 
ATOM     34  C   UNL A   1      41.971  25.350  28.341  1.00  0.00     0.010 A 
ATOM     35  C   UNL A   1      41.072  26.396  28.105  1.00  0.00    -0.014 A 
BRANCH  35  36
ATOM     36  C   UNL A   1      41.219  27.664  28.837  1.00  0.00     0.031 A 
ATOM     37  C   UNL A   1      42.285  28.601  28.355  1.00  0.00     0.074 A 
ATOM     38  C   UNL A   1      40.319  28.136  29.728  1.00  0.00     0.049 A 
ATOM     39  N   UNL A   1      43.379  28.934  28.959  1.00  0.00    -0.248 NA
ATOM     40  C   UNL A   1      42.165  29.175  27.005  1.00  0.00     0.031 C 
ATOM     41  C   UNL A   1      39.034  27.548  30.123  1.00  0.00     0.029 A 
ATOM     42  N   UNL A   1      40.318  29.328  30.390  1.00  0.00    -0.354 N 
ATOM     43  C   UNL A   1      43.966  29.938  28.188  1.00  0.00     0.074 A 
ATOM     44  C   UNL A   1      43.280  29.906  26.922  1.00  0.00     0.031 C 
ATOM     45  C   UNL A   1      38.279  28.479  30.741  1.00  0.00     0.029 A 
ATOM     46  C   UNL A   1      39.099  29.651  30.973  1.00  0.00     0.049 A 
ATOM     47  H   UNL A   1      41.110  29.909  30.448  1.00  0.00     0.167 HD
ATOM     48  C   UNL A   1      44.800  30.869  28.740  1.00  0.00     0.037 A 
ATOM     49  C   UNL A   1      38.771  30.788  31.626  1.00  0.00     0.037 A 
ATOM     50  C   UNL A   1      45.232  30.461  30.057  1.00  0.00     0.049 A 
ATOM     51  C   UNL A   1      40.036  31.389  32.113  1.00  0.00     0.074 A 
ATOM     52  C   UNL A   1      45.859  29.349  30.587  1.00  0.00     0.029 A 
ATOM     53  N   UNL A   1      44.701  31.127  31.136  1.00  0.00    -0.354 N 
ATOM     54  N   UNL A   1      40.805  30.836  33.011  1.00  0.00    -0.248 NA
ATOM     55  C   UNL A   1      40.664  32.429  31.314  1.00  0.00     0.031 C 
ATOM     56  C   UNL A   1      45.236  29.146  31.856  1.00  0.00     0.029 A 
ATOM     57  C   UNL A   1      44.320  30.180  32.049  1.00  0.00     0.049 A 
ATOM     58  H   UNL A   1      44.609  32.102  31.233  1.00  0.00     0.167 HD
ATOM     59  C   UNL A   1      42.095  31.134  32.604  1.00  0.00     0.074 A 
ATOM     60  C   UNL A   1      41.941  32.220  31.640  1.00  0.00     0.031 C 
ATOM     61  C   UNL A   1      43.135  30.289  32.874  1.00  0.00     0.037 A 
BRANCH  48  62
ATOM     62  C   UNL A   1      44.924  32.319  28.291  1.00  0.00     0.058 A 
ATOM     63  C   UNL A   1      46.207  32.840  28.001  1.00  0.00     0.135 A 
ATOM     64  C   UNL A   1      43.906  33.285  28.440  1.00  0.00     0.135 A 
ATOM     65  F   UNL A   1      47.253  32.019  27.815  1.00  0.00    -0.206 F 
ATOM     66  C   UNL A   1      46.481  34.209  27.993  1.00  0.00     0.059 A 
ATOM     67  C   UNL A   1      44.146  34.656  28.380  1.00  0.00     0.059 A 
ATOM     68  F   UNL A   1      42.647  32.961  28.751  1.00  0.00    -0.206 F 
ATOM     69  C   UNL A   1      45.445  35.109  28.216  1.00  0.00     0.060 A 
BRANCH  69  70
ATOM     70  S   UNL A   1      45.811  36.866  28.371  1.00  0.00     0.124 S 
ATOM     71  O   UNL A   1      45.218  37.388  27.147  1.00  0.00    -0.237 OA
ATOM     72  O   UNL A   1      45.129  37.212  29.614  1.00  0.00    -0.237 OA
ATOM     73  O   UNL A   1      47.269  36.897  28.434  1.00  0.00    -0.744 OA
ENDBRANCH  69  70
ENDBRANCH  48  62
BRANCH  49  74
ATOM     74  C   UNL A   1      37.460  31.478  31.657  1.00  0.00     0.058 A 
ATOM     75  C   UNL A   1      36.745  31.629  32.855  1.00  0.00     0.135 A 
ATOM     76  C   UNL A   1      37.009  32.239  30.557  1.00  0.00     0.135 A 
ATOM     77  F   UNL A   1      37.113  30.951  33.951  1.00  0.00    -0.206 F 
ATOM     78  C   UNL A   1      35.681  32.528  32.975  1.00  0.00     0.059 A 
ATOM     79  C   UNL A   1      35.943  33.131  30.649  1.00  0.00     0.059 A 
ATOM     80  F   UNL A   1      37.654  32.207  29.381  1.00  0.00    -0.206 F 
ATOM     81  C   UNL A   1      35.303  33.293  31.872  1.00  0.00     0.060 A 
BRANCH  81  82
ATOM     82  S   UNL A   1      34.064  34.592  32.079  1.00  0.00     0.124 S 
ATOM     83  O   UNL A   1      34.875  35.709  32.551  1.00  0.00    -0.237 OA
ATOM     84  O   UNL A   1      33.524  34.719  30.730  1.00  0.00    -0.237 OA
ATOM     85  O   UNL A   1      33.144  34.029  33.064  1.00  0.00    -0.744 OA
ENDBRANCH  81  82
ENDBRANCH  49  74
BRANCH  61  86
ATOM     86  C   UNL A   1      42.955  29.241  33.942  1.00  0.00     0.058 A 
ATOM     87  C   UNL A   1      43.199  29.439  35.311  1.00  0.00     0.135 A 
ATOM     88  C   UNL A   1      42.373  28.020  33.567  1.00  0.00     0.135 A 
ATOM     89  F   UNL A   1      43.652  30.613  35.772  1.00  0.00    -0.206 F 
ATOM     90  C   UNL A   1      42.923  28.450  36.257  1.00  0.00     0.059 A 
ATOM     91  C   UNL A   1      42.059  27.032  34.495  1.00  0.00     0.059 A 
ATOM     92  F   UNL A   1      42.055  27.793  32.281  1.00  0.00    -0.206 F 
ATOM     93  C   UNL A   1      42.352  27.248  35.839  1.00  0.00     0.060 A 
BRANCH  93  94
ATOM     94  S   UNL A   1      41.930  25.998  37.072  1.00  0.00     0.124 S 
ATOM     95  O   UNL A   1      42.148  24.756  36.338  1.00  0.00    -0.237 OA
ATOM     96  O   UNL A   1      42.879  26.275  38.146  1.00  0.00    -0.237 OA
ATOM     97  O   UNL A   1      40.536  26.294  37.395  1.00  0.00    -0.744 OA
ENDBRANCH  93  94
ENDBRANCH  61  86
ENDBRANCH  35  36
ENDBRANCH  27  30
ENDBRANCH  25  26
ENDBRANCH  24  25
ENDBRANCH   1  24
TORSDOF 19
ENDMDL
MODEL 2
REMARK VINA RESULT:     -12.0      3.448      9.504
REMARK SMILES Cc1cc(C)n(CCC(=O)N[C@@H](C(=O)NCCCNC(=O)c2ccc(-c3c4nc(c(-c5c(F)cc(S(=O)(=O)[O-])cc5F)c5ccc([nH]5)c(-c5c(F)cc(S(=O)(=O)[O-])cc5F)c5nc(c(-c6c(F)cc(S(=O)(=O)[O-])cc6F)c6ccc3[nH]6)C=C5)C=C4)cc2)[C@@H](C)O)n1
REMARK SMILES IDX 16 1 15 2 13 3 14 4 12 6 11 7 9 8 10 9 8 11 7 12 6 13 1 14
REMARK SMILES IDX 2 15 3 16 91 17 4 18 5 19 88 20 89 21 90 22 17 24 18 25
REMARK SMILES IDX 19 26 20 27 21 29 22 30 23 31 87 32 24 33 86 34 25 35 26 36
REMARK SMILES IDX 27 37 80 38 28 39 85 40 79 41 81 42 29 43 84 44 78 45 77 46
REMARK SMILES IDX 30 48 64 49 43 50 63 51 44 52 47 53 62 54 82 55 45 56 46 57
REMARK SMILES IDX 61 59 83 60 48 61 31 62 32 63 41 64 33 65 34 66 40 67 42 68
REMARK SMILES IDX 35 69 36 70 37 71 38 72 39 73 65 74 66 75 75 76 67 77 68 78
REMARK SMILES IDX 74 79 76 80 69 81 70 82 71 83 72 84 73 85 49 86 50 87 59 88
REMARK SMILES IDX 51 89 52 90 58 91 60 92 53 93 54 94 55 95 56 96 57 97
REMARK H PARENT 15 5 11 10 90 23 19 28 81 47 47 58
REMARK Flexibility Score: inf
ROOT
ATOM      1  C   UNL A   1      31.885  30.068  25.710  1.00  0.00     0.117 C 
ENDROOT
BRANCH   1   2
ATOM      2  N   UNL A   1      32.613  29.607  24.495  1.00  0.00    -0.354 N 
ATOM      3  C   UNL A   1      32.555  28.889  23.340  1.00  0.00     0.245 C 
ATOM      4  O   UNL A   1      33.650  28.922  22.748  1.00  0.00    -0.273 OA
ATOM      5  H   UNL A   1      33.523  29.980  24.550  1.00  0.00     0.163 HD
BRANCH   3   6
ATOM      6  C   UNL A   1      31.435  27.929  22.747  1.00  0.00     0.199 C 
BRANCH   6   7
ATOM      7  N   UNL A   1      32.055  27.075  21.705  1.00  0.00    -0.342 N 
ATOM      8  C   UNL A   1      32.693  25.873  21.696  1.00  0.00     0.222 C 
ATOM      9  O   UNL A   1      33.205  25.527  20.625  1.00  0.00    -0.275 OA
ATOM     10  H   UNL A   1      31.987  27.469  20.806  1.00  0.00     0.164 HD
BRANCH   8  11
ATOM     11  C   UNL A   1      32.785  24.921  22.881  1.00  0.00     0.123 C 
BRANCH  11  12
ATOM     12  C   UNL A   1      31.573  24.048  23.152  1.00  0.00     0.154 C 
BRANCH  12  13
ATOM     13  N   UNL A   1      31.950  22.826  23.832  1.00  0.00    -0.269 N 
ATOM     14  C   UNL A   1      32.532  19.342  23.547  1.00  0.00     0.069 C 
ATOM     15  C   UNL A   1      32.313  20.744  23.981  1.00  0.00     0.060 A 
ATOM     16  C   UNL A   1      32.021  21.202  25.283  1.00  0.00     0.048 A 
ATOM     17  N   UNL A   1      32.283  21.746  23.096  1.00  0.00    -0.178 NA
ATOM     18  C   UNL A   1      31.769  22.556  25.158  1.00  0.00     0.036 A 
ATOM     19  C   UNL A   1      31.221  23.563  26.102  1.00  0.00     0.066 C 
ENDBRANCH  12  13
ENDBRANCH  11  12
ENDBRANCH   8  11
ENDBRANCH   6   7
BRANCH   6  20
ATOM     20  C   UNL A   1      30.266  28.832  22.172  1.00  0.00     0.143 C 
ATOM     21  C   UNL A   1      29.103  29.183  23.104  1.00  0.00     0.041 C 
BRANCH  20  22
ATOM     22  O   UNL A   1      30.812  30.081  21.708  1.00  0.00    -0.391 OA
ATOM     23  H   UNL A   1      30.676  30.159  20.751  1.00  0.00     0.211 HD
ENDBRANCH  20  22
ENDBRANCH   6  20
ENDBRANCH   3   6
ENDBRANCH   1   2
BRANCH   1  24
ATOM     24  C   UNL A   1      32.417  29.447  27.026  1.00  0.00     0.042 C 
BRANCH  24  25
ATOM     25  C   UNL A   1      33.862  29.801  27.437  1.00  0.00     0.118 C 
BRANCH  25  26
ATOM     26  N   UNL A   1      34.408  31.096  27.011  1.00  0.00    -0.352 N 
ATOM     27  C   UNL A   1      35.370  31.848  27.705  1.00  0.00     0.251 C 
ATOM     28  H   UNL A   1      34.071  31.471  26.165  1.00  0.00     0.163 HD
ATOM     29  O   UNL A   1      35.486  33.042  27.569  1.00  0.00    -0.269 OA
BRANCH  27  30
ATOM     30  C   UNL A   1      36.259  31.087  28.609  1.00  0.00     0.039 A 
ATOM     31  C   UNL A   1      36.382  29.699  28.506  1.00  0.00     0.014 A 
ATOM     32  C   UNL A   1      37.175  31.854  29.319  1.00  0.00     0.014 A 
ATOM     33  C   UNL A   1      37.554  29.102  28.976  1.00  0.00     0.010 A 
ATOM     34  C   UNL A   1      38.378  31.277  29.654  1.00  0.00     0.010 A 
ATOM     35  C   UNL A   1      38.592  29.905  29.477  1.00  0.00    -0.014 A 
BRANCH  35  36
ATOM     36  C   UNL A   1      39.947  29.352  29.630  1.00  0.00     0.031 A 
ATOM     37  C   UNL A   1      40.439  29.151  31.031  1.00  0.00     0.074 A 
ATOM     38  C   UNL A   1      40.659  28.795  28.625  1.00  0.00     0.049 A 
ATOM     39  N   UNL A   1      41.388  29.789  31.637  1.00  0.00    -0.248 NA
ATOM     40  C   UNL A   1      39.742  28.184  31.894  1.00  0.00     0.031 C 
ATOM     41  C   UNL A   1      40.254  28.585  27.230  1.00  0.00     0.029 A 
ATOM     42  N   UNL A   1      41.876  28.182  28.678  1.00  0.00    -0.354 N 
ATOM     43  C   UNL A   1      41.574  29.147  32.862  1.00  0.00     0.074 A 
ATOM     44  C   UNL A   1      40.421  28.302  33.038  1.00  0.00     0.031 C 
ATOM     45  C   UNL A   1      41.078  27.689  26.648  1.00  0.00     0.029 A 
ATOM     46  C   UNL A   1      42.181  27.430  27.551  1.00  0.00     0.049 A 
ATOM     47  H   UNL A   1      42.484  28.265  29.447  1.00  0.00     0.167 HD
ATOM     48  C   UNL A   1      42.776  29.183  33.513  1.00  0.00     0.037 A 
ATOM     49  C   UNL A   1      43.270  26.656  27.344  1.00  0.00     0.037 A 
ATOM     50  C   UNL A   1      43.632  30.208  32.963  1.00  0.00     0.049 A 
ATOM     51  C   UNL A   1      44.338  27.162  28.239  1.00  0.00     0.074 A 
ATOM     52  C   UNL A   1      43.525  31.569  32.746  1.00  0.00     0.029 A 
ATOM     53  N   UNL A   1      44.701  29.802  32.199  1.00  0.00    -0.354 N 
ATOM     54  N   UNL A   1      44.884  28.343  28.123  1.00  0.00    -0.248 NA
ATOM     55  C   UNL A   1      44.537  26.511  29.522  1.00  0.00     0.031 C 
ATOM     56  C   UNL A   1      44.187  31.796  31.501  1.00  0.00     0.029 A 
ATOM     57  C   UNL A   1      44.711  30.577  31.070  1.00  0.00     0.049 A 
ATOM     58  H   UNL A   1      45.339  29.086  32.421  1.00  0.00     0.167 HD
ATOM     59  C   UNL A   1      45.105  28.759  29.425  1.00  0.00     0.074 A 
ATOM     60  C   UNL A   1      44.998  27.545  30.229  1.00  0.00     0.031 C 
ATOM     61  C   UNL A   1      45.077  30.085  29.759  1.00  0.00     0.037 A 
BRANCH  48  62
ATOM     62  C   UNL A   1      43.349  28.061  34.369  1.00  0.00     0.058 A 
ATOM     63  C   UNL A   1      43.843  28.367  35.659  1.00  0.00     0.135 A 
ATOM     64  C   UNL A   1      43.723  26.795  33.869  1.00  0.00     0.135 A 
ATOM     65  F   UNL A   1      43.538  29.533  36.250  1.00  0.00    -0.206 F 
ATOM     66  C   UNL A   1      44.741  27.541  36.338  1.00  0.00     0.059 A 
ATOM     67  C   UNL A   1      44.572  25.930  34.555  1.00  0.00     0.059 A 
ATOM     68  F   UNL A   1      43.369  26.369  32.653  1.00  0.00    -0.206 F 
ATOM     69  C   UNL A   1      45.123  26.336  35.760  1.00  0.00     0.060 A 
BRANCH  69  70
ATOM     70  S   UNL A   1      46.402  25.339  36.545  1.00  0.00     0.124 S 
ATOM     71  O   UNL A   1      47.603  26.079  36.179  1.00  0.00    -0.237 OA
ATOM     72  O   UNL A   1      46.015  25.398  37.951  1.00  0.00    -0.237 OA
ATOM     73  O   UNL A   1      46.242  24.034  35.911  1.00  0.00    -0.744 OA
ENDBRANCH  69  70
ENDBRANCH  48  62
BRANCH  49  74
ATOM     74  C   UNL A   1      43.358  25.387  26.585  1.00  0.00     0.058 A 
ATOM     75  C   UNL A   1      44.141  25.285  25.425  1.00  0.00     0.135 A 
ATOM     76  C   UNL A   1      42.889  24.174  27.132  1.00  0.00     0.135 A 
ATOM     77  F   UNL A   1      44.637  26.389  24.846  1.00  0.00    -0.206 F 
ATOM     78  C   UNL A   1      44.492  24.050  24.872  1.00  0.00     0.059 A 
ATOM     79  C   UNL A   1      43.213  22.932  26.592  1.00  0.00     0.059 A 
ATOM     80  F   UNL A   1      42.174  24.156  28.268  1.00  0.00    -0.206 F 
ATOM     81  C   UNL A   1      44.042  22.877  25.478  1.00  0.00     0.060 A 
BRANCH  81  82
ATOM     82  S   UNL A   1      44.654  21.284  24.884  1.00  0.00     0.124 S 
ATOM     83  O   UNL A   1      44.715  21.502  23.444  1.00  0.00    -0.237 OA
ATOM     84  O   UNL A   1      45.938  21.173  25.569  1.00  0.00    -0.237 OA
ATOM     85  O   UNL A   1      43.632  20.340  25.330  1.00  0.00    -0.744 OA
ENDBRANCH  81  82
ENDBRANCH  49  74
BRANCH  61  86
ATOM     86  C   UNL A   1      45.195  31.108  28.660  1.00  0.00     0.058 A 
ATOM     87  C   UNL A   1      44.115  31.633  27.930  1.00  0.00     0.135 A 
ATOM     88  C   UNL A   1      46.456  31.682  28.435  1.00  0.00     0.135 A 
ATOM     89  F   UNL A   1      42.861  31.221  28.158  1.00  0.00    -0.206 F 
ATOM     90  C   UNL A   1      44.289  32.647  26.987  1.00  0.00     0.059 A 
ATOM     91  C   UNL A   1      46.649  32.716  27.523  1.00  0.00     0.059 A 
ATOM     92  F   UNL A   1      47.520  31.270  29.145  1.00  0.00    -0.206 F 
ATOM     93  C   UNL A   1      45.561  33.184  26.790  1.00  0.00     0.060 A 
BRANCH  93  94
ATOM     94  S   UNL A   1      45.773  34.544  25.621  1.00  0.00     0.124 S 
ATOM     95  O   UNL A   1      47.204  34.491  25.344  1.00  0.00    -0.237 OA
ATOM     96  O   UNL A   1      44.898  34.156  24.519  1.00  0.00    -0.237 OA
ATOM     97  O   UNL A   1      45.326  35.714  26.375  1.00  0.00    -0.744 OA
ENDBRANCH  93  94
ENDBRANCH  61  86
ENDBRANCH  35  36
ENDBRANCH  27  30
ENDBRANCH  25  26
ENDBRANCH  24  25
ENDBRANCH   1  24
TORSDOF 19
ENDMDL
MODEL 3
REMARK VINA RESULT:     -11.9      4.386      7.115
REMARK SMILES Cc1cc(C)n(CCC(=O)N[C@@H](C(=O)NCCCNC(=O)c2ccc(-c3c4nc(c(-c5c(F)cc(S(=O)(=O)[O-])cc5F)c5ccc([nH]5)c(-c5c(F)cc(S(=O)(=O)[O-])cc5F)c5nc(c(-c6c(F)cc(S(=O)(=O)[O-])cc6F)c6ccc3[nH]6)C=C5)C=C4)cc2)[C@@H](C)O)n1
REMARK SMILES IDX 16 1 15 2 13 3 14 4 12 6 11 7 9 8 10 9 8 11 7 12 6 13 1 14
REMARK SMILES IDX 2 15 3 16 91 17 4 18 5 19 88 20 89 21 90 22 17 24 18 25
REMARK SMILES IDX 19 26 20 27 21 29 22 30 23 31 87 32 24 33 86 34 25 35 26 36
REMARK SMILES IDX 27 37 80 38 28 39 85 40 79 41 81 42 29 43 84 44 78 45 77 46
REMARK SMILES IDX 30 48 64 49 43 50 63 51 44 52 47 53 62 54 82 55 45 56 46 57
REMARK SMILES IDX 61 59 83 60 48 61 31 62 32 63 41 64 33 65 34 66 40 67 42 68
REMARK SMILES IDX 35 69 36 70 37 71 38 72 39 73 65 74 66 75 75 76 67 77 68 78
REMARK SMILES IDX 74 79 76 80 69 81 70 82 71 83 72 84 73 85 49 86 50 87 59 88
REMARK SMILES IDX 51 89 52 90 58 91 60 92 53 93 54 94 55 95 56 96 57 97
REMARK H PARENT 15 5 11 10 90 23 19 28 81 47 47 58
REMARK Flexibility Score: inf
ROOT
ATOM      1  C   UNL A   1      45.026  28.437  27.542  1.00  0.00     0.117 C 
ENDROOT
BRANCH   1   2
ATOM      2  N   UNL A   1      45.257  27.462  26.439  1.00  0.00    -0.354 N 
ATOM      3  C   UNL A   1      44.720  26.492  25.650  1.00  0.00     0.245 C 
ATOM      4  O   UNL A   1      45.575  26.043  24.863  1.00  0.00    -0.273 OA
ATOM      5  H   UNL A   1      46.197  27.563  26.163  1.00  0.00     0.163 HD
BRANCH   3   6
ATOM      6  C   UNL A   1      43.310  25.760  25.686  1.00  0.00     0.199 C 
BRANCH   6   7
ATOM      7  N   UNL A   1      43.393  24.539  24.848  1.00  0.00    -0.342 N 
ATOM      8  C   UNL A   1      43.240  23.205  25.068  1.00  0.00     0.222 C 
ATOM      9  O   UNL A   1      43.525  22.453  24.128  1.00  0.00    -0.275 OA
ATOM     10  H   UNL A   1      43.611  24.741  23.910  1.00  0.00     0.164 HD
BRANCH   8  11
ATOM     11  C   UNL A   1      42.712  22.584  26.354  1.00  0.00     0.123 C 
BRANCH  11  12
ATOM     12  C   UNL A   1      41.305  22.014  26.311  1.00  0.00     0.154 C 
BRANCH  12  13
ATOM     13  N   UNL A   1      40.318  23.037  26.585  1.00  0.00    -0.269 N 
ATOM     14  C   UNL A   1      39.395  25.783  28.626  1.00  0.00     0.069 C 
ATOM     15  C   UNL A   1      39.482  24.662  27.659  1.00  0.00     0.060 A 
ATOM     16  C   UNL A   1      38.418  24.027  26.984  1.00  0.00     0.048 A 
ATOM     17  N   UNL A   1      40.648  24.061  27.399  1.00  0.00    -0.178 NA
ATOM     18  C   UNL A   1      38.983  22.961  26.308  1.00  0.00     0.036 A 
ATOM     19  C   UNL A   1      38.391  21.806  25.586  1.00  0.00     0.066 C 
ENDBRANCH  12  13
ENDBRANCH  11  12
ENDBRANCH   8  11
ENDBRANCH   6   7
BRANCH   6  20
ATOM     20  C   UNL A   1      42.213  26.778  25.163  1.00  0.00     0.143 C 
ATOM     21  C   UNL A   1      41.407  27.564  26.202  1.00  0.00     0.041 C 
BRANCH  20  22
ATOM     22  O   UNL A   1      42.836  27.751  24.304  1.00  0.00    -0.391 OA
ATOM     23  H   UNL A   1      43.263  27.300  23.559  1.00  0.00     0.211 HD
ENDBRANCH  20  22
ENDBRANCH   6  20
ENDBRANCH   3   6
ENDBRANCH   1   2
BRANCH   1  24
ATOM     24  C   UNL A   1      46.261  28.646  28.454  1.00  0.00     0.042 C 
BRANCH  24  25
ATOM     25  C   UNL A   1      46.266  27.909  29.809  1.00  0.00     0.118 C 
BRANCH  25  26
ATOM     26  N   UNL A   1      46.109  26.448  29.807  1.00  0.00    -0.352 N 
ATOM     27  C   UNL A   1      45.150  25.726  30.536  1.00  0.00     0.251 C 
ATOM     28  H   UNL A   1      46.730  25.930  29.247  1.00  0.00     0.163 HD
ATOM     29  O   UNL A   1      45.301  24.567  30.841  1.00  0.00    -0.269 OA
BRANCH  27  30
ATOM     30  C   UNL A   1      43.920  26.462  30.898  1.00  0.00     0.039 A 
ATOM     31  C   UNL A   1      43.849  27.226  32.066  1.00  0.00     0.014 A 
ATOM     32  C   UNL A   1      42.993  26.602  29.872  1.00  0.00     0.014 A 
ATOM     33  C   UNL A   1      42.932  28.278  32.113  1.00  0.00     0.010 A 
ATOM     34  C   UNL A   1      42.191  27.720  29.876  1.00  0.00     0.010 A 
ATOM     35  C   UNL A   1      42.155  28.578  30.981  1.00  0.00    -0.014 A 
BRANCH  35  36
ATOM     36  C   UNL A   1      41.468  29.874  30.877  1.00  0.00     0.031 A 
ATOM     37  C   UNL A   1      42.321  31.064  30.558  1.00  0.00     0.074 A 
ATOM     38  C   UNL A   1      40.127  30.021  30.803  1.00  0.00     0.049 A 
ATOM     39  N   UNL A   1      42.604  32.066  31.327  1.00  0.00    -0.248 NA
ATOM     40  C   UNL A   1      43.013  31.112  29.260  1.00  0.00     0.031 C 
ATOM     41  C   UNL A   1      39.097  28.976  30.769  1.00  0.00     0.029 A 
ATOM     42  N   UNL A   1      39.402  31.161  30.619  1.00  0.00    -0.354 N 
ATOM     43  C   UNL A   1      43.300  32.984  30.539  1.00  0.00     0.074 A 
ATOM     44  C   UNL A   1      43.680  32.266  29.350  1.00  0.00     0.031 C 
ATOM     45  C   UNL A   1      37.934  29.498  30.329  1.00  0.00     0.029 A 
ATOM     46  C   UNL A   1      38.079  30.938  30.258  1.00  0.00     0.049 A 
ATOM     47  H   UNL A   1      39.782  32.061  30.732  1.00  0.00     0.167 HD
ATOM     48  C   UNL A   1      43.295  34.320  30.825  1.00  0.00     0.037 A 
ATOM     49  C   UNL A   1      37.143  31.860  29.940  1.00  0.00     0.037 A 
ATOM     50  C   UNL A   1      42.806  34.563  32.162  1.00  0.00     0.049 A 
ATOM     51  C   UNL A   1      37.561  33.137  30.565  1.00  0.00     0.074 A 
ATOM     52  C   UNL A   1      43.148  34.128  33.430  1.00  0.00     0.029 A 
ATOM     53  N   UNL A   1      41.551  35.108  32.292  1.00  0.00    -0.354 N 
ATOM     54  N   UNL A   1      37.625  33.328  31.856  1.00  0.00    -0.248 NA
ATOM     55  C   UNL A   1      38.296  34.099  29.760  1.00  0.00     0.031 C 
ATOM     56  C   UNL A   1      41.904  33.971  34.113  1.00  0.00     0.029 A 
ATOM     57  C   UNL A   1      40.890  34.382  33.247  1.00  0.00     0.049 A 
ATOM     58  H   UNL A   1      41.194  35.876  31.792  1.00  0.00     0.167 HD
ATOM     59  C   UNL A   1      38.734  34.137  32.040  1.00  0.00     0.074 A 
ATOM     60  C   UNL A   1      39.021  34.683  30.717  1.00  0.00     0.031 C 
ATOM     61  C   UNL A   1      39.478  34.068  33.184  1.00  0.00     0.037 A 
BRANCH  48  62
ATOM     62  C   UNL A   1      43.346  35.442  29.796  1.00  0.00     0.058 A 
ATOM     63  C   UNL A   1      44.272  36.497  29.977  1.00  0.00     0.135 A 
ATOM     64  C   UNL A   1      42.335  35.691  28.843  1.00  0.00     0.135 A 
ATOM     65  F   UNL A   1      45.292  36.372  30.840  1.00  0.00    -0.206 F 
ATOM     66  C   UNL A   1      44.126  37.742  29.361  1.00  0.00     0.059 A 
ATOM     67  C   UNL A   1      42.205  36.905  28.175  1.00  0.00     0.059 A 
ATOM     68  F   UNL A   1      41.363  34.812  28.581  1.00  0.00    -0.206 F 
ATOM     69  C   UNL A   1      43.067  37.944  28.483  1.00  0.00     0.060 A 
BRANCH  69  70
ATOM     70  S   UNL A   1      42.773  39.589  27.809  1.00  0.00     0.124 S 
ATOM     71  O   UNL A   1      43.957  40.301  28.273  1.00  0.00    -0.237 OA
ATOM     72  O   UNL A   1      42.703  39.324  26.376  1.00  0.00    -0.237 OA
ATOM     73  O   UNL A   1      41.511  39.982  28.431  1.00  0.00    -0.744 OA
ENDBRANCH  69  70
ENDBRANCH  48  62
BRANCH  49  74
ATOM     74  C   UNL A   1      36.042  31.742  28.955  1.00  0.00     0.058 A 
ATOM     75  C   UNL A   1      36.136  30.869  27.859  1.00  0.00     0.135 A 
ATOM     76  C   UNL A   1      34.766  32.284  29.216  1.00  0.00     0.135 A 
ATOM     77  F   UNL A   1      37.310  30.300  27.548  1.00  0.00    -0.206 F 
ATOM     78  C   UNL A   1      35.018  30.505  27.103  1.00  0.00     0.059 A 
ATOM     79  C   UNL A   1      33.640  31.948  28.469  1.00  0.00     0.059 A 
ATOM     80  F   UNL A   1      34.558  33.089  30.270  1.00  0.00    -0.206 F 
ATOM     81  C   UNL A   1      33.769  31.032  27.431  1.00  0.00     0.060 A 
BRANCH  81  82
ATOM     82  S   UNL A   1      32.298  30.413  26.584  1.00  0.00     0.124 S 
ATOM     83  O   UNL A   1      32.843  30.002  25.296  1.00  0.00    -0.237 OA
ATOM     84  O   UNL A   1      31.864  29.336  27.468  1.00  0.00    -0.237 OA
ATOM     85  O   UNL A   1      31.414  31.576  26.546  1.00  0.00    -0.744 OA
ENDBRANCH  81  82
ENDBRANCH  49  74
BRANCH  61  86
ATOM     86  C   UNL A   1      38.878  33.405  34.397  1.00  0.00     0.058 A 
ATOM     87  C   UNL A   1      38.762  32.017  34.580  1.00  0.00     0.135 A 
ATOM     88  C   UNL A   1      38.529  34.223  35.483  1.00  0.00     0.135 A 
ATOM     89  F   UNL A   1      39.173  31.158  33.637  1.00  0.00    -0.206 F 
ATOM     90  C   UNL A   1      38.277  31.470  35.769  1.00  0.00     0.059 A 
ATOM     91  C   UNL A   1      38.074  33.700  36.690  1.00  0.00     0.059 A 
ATOM     92  F   UNL A   1      38.676  35.556  35.396  1.00  0.00    -0.206 F 
ATOM     93  C   UNL A   1      37.936  32.321  36.820  1.00  0.00     0.060 A 
BRANCH  93  94
ATOM     94  S   UNL A   1      37.376  31.609  38.383  1.00  0.00     0.124 S 
ATOM     95  O   UNL A   1      38.489  31.916  39.276  1.00  0.00    -0.237 OA
ATOM     96  O   UNL A   1      36.138  32.337  38.640  1.00  0.00    -0.237 OA
ATOM     97  O   UNL A   1      37.201  30.192  38.070  1.00  0.00    -0.744 OA
ENDBRANCH  93  94
ENDBRANCH  61  86
ENDBRANCH  35  36
ENDBRANCH  27  30
ENDBRANCH  25  26
ENDBRANCH  24  25
ENDBRANCH   1  24
TORSDOF 19
ENDMDL
