MODEL 1
REMARK VINA RESULT:     -11.3      0.000      0.000
REMARK SMILES O=C(Cc1cn2ccsc2n1)N[C@@H]1C=C[C@H](C(=O)NCCCNC(=O)c2ccc(-c3c4nc(c(-c5c(F)cc(S(=O)(=O)[O-])cc5F)c5ccc([nH]5)c(-c5c(F)cc(S(=O)(=O)[O-])cc5F)c5nc(c(-c6c(F)cc(S(=O)(=O)[O-])cc6F)c6ccc3[nH]6)C=C5)C=C4)cc2)C1
REMARK SMILES IDX 21 1 20 2 19 3 17 4 18 5 16 7 13 8 14 9 92 10 15 11 12 12
REMARK SMILES IDX 1 13 2 14 3 16 4 17 5 18 11 19 6 20 10 21 7 22 9 23 8 24
REMARK SMILES IDX 22 25 23 26 24 27 25 29 26 30 27 31 91 32 28 33 90 34 29 35
REMARK SMILES IDX 30 36 31 37 84 38 32 39 89 40 83 41 85 42 33 43 88 44 82 45
REMARK SMILES IDX 81 46 34 48 68 49 47 50 67 51 48 52 51 53 66 54 86 55 49 56
REMARK SMILES IDX 50 57 65 59 87 60 52 61 35 62 36 63 45 64 37 65 38 66 44 67
REMARK SMILES IDX 46 68 39 69 40 70 41 71 42 72 43 73 69 74 70 75 79 76 71 77
REMARK SMILES IDX 72 78 78 79 80 80 73 81 74 82 75 83 76 84 77 85 53 86 54 87
REMARK SMILES IDX 63 88 55 89 56 90 62 91 64 92 57 93 58 94 59 95 60 96 61 97
REMARK H PARENT 19 6 12 15 23 28 85 47 51 58
REMARK Flexibility Score: inf
ROOT
ATOM      1  C   UNL A   1      34.279  27.824  25.958  1.00  0.00     0.042 C 
ENDROOT
BRANCH   1   2
ATOM      2  C   UNL A   1      33.801  28.574  24.720  1.00  0.00     0.117 C 
BRANCH   2   3
ATOM      3  N   UNL A   1      33.276  27.680  23.704  1.00  0.00    -0.356 N 
ATOM      4  C   UNL A   1      32.025  27.287  23.360  1.00  0.00     0.227 C 
ATOM      5  O   UNL A   1      31.958  26.520  22.390  1.00  0.00    -0.274 OA
ATOM      6  H   UNL A   1      33.978  27.274  23.145  1.00  0.00     0.163 HD
BRANCH   4   7
ATOM      7  C   UNL A   1      30.741  27.654  24.133  1.00  0.00     0.103 C 
ATOM      8  C   UNL A   1      29.603  25.774  25.268  1.00  0.00     0.106 C 
ATOM      9  C   UNL A   1      28.814  26.296  24.120  1.00  0.00    -0.006 C 
ATOM     10  C   UNL A   1      30.682  26.852  25.456  1.00  0.00     0.047 C 
ATOM     11  C   UNL A   1      29.398  27.357  23.553  1.00  0.00    -0.016 C 
BRANCH   8  12
ATOM     12  N   UNL A   1      30.153  24.483  24.939  1.00  0.00    -0.350 N 
ATOM     13  O   UNL A   1      30.477  23.826  27.117  1.00  0.00    -0.275 OA
ATOM     14  C   UNL A   1      30.621  23.626  25.912  1.00  0.00     0.226 C 
ATOM     15  H   UNL A   1      30.197  24.206  23.995  1.00  0.00     0.164 HD
BRANCH  14  16
ATOM     16  C   UNL A   1      31.440  22.458  25.403  1.00  0.00     0.157 C 
BRANCH  16  17
ATOM     17  C   UNL A   1      32.906  22.674  25.503  1.00  0.00     0.070 A 
ATOM     18  C   UNL A   1      33.595  23.878  25.622  1.00  0.00     0.118 A 
ATOM     19  N   UNL A   1      33.786  21.604  25.387  1.00  0.00    -0.223 NA
ATOM     20  N   UNL A   1      34.908  23.527  25.573  1.00  0.00    -0.297 N 
ATOM     21  C   UNL A   1      34.958  22.172  25.444  1.00  0.00     0.193 A 
ATOM     22  C   UNL A   1      36.123  24.172  25.600  1.00  0.00     0.104 A 
ATOM     23  S   UNL A   1      36.600  21.617  25.353  1.00  0.00    -0.105 S 
ATOM     24  C   UNL A   1      37.142  23.302  25.494  1.00  0.00     0.087 A 
ENDBRANCH  16  17
ENDBRANCH  14  16
ENDBRANCH   8  12
ENDBRANCH   4   7
ENDBRANCH   2   3
ENDBRANCH   1   2
BRANCH   1  25
ATOM     25  C   UNL A   1      33.526  28.212  27.228  1.00  0.00     0.118 C 
BRANCH  25  26
ATOM     26  N   UNL A   1      33.475  29.657  27.421  1.00  0.00    -0.352 N 
ATOM     27  C   UNL A   1      34.387  30.517  27.981  1.00  0.00     0.251 C 
ATOM     28  H   UNL A   1      32.651  30.086  27.096  1.00  0.00     0.163 HD
ATOM     29  O   UNL A   1      34.041  31.661  28.259  1.00  0.00    -0.269 OA
BRANCH  27  30
ATOM     30  C   UNL A   1      35.771  30.077  28.255  1.00  0.00     0.039 A 
ATOM     31  C   UNL A   1      36.712  30.122  27.222  1.00  0.00     0.014 A 
ATOM     32  C   UNL A   1      36.136  29.579  29.508  1.00  0.00     0.014 A 
ATOM     33  C   UNL A   1      38.030  29.728  27.465  1.00  0.00     0.010 A 
ATOM     34  C   UNL A   1      37.465  29.265  29.772  1.00  0.00     0.010 A 
ATOM     35  C   UNL A   1      38.426  29.328  28.751  1.00  0.00    -0.014 A 
BRANCH  35  36
ATOM     36  C   UNL A   1      39.834  28.969  29.053  1.00  0.00     0.031 A 
ATOM     37  C   UNL A   1      40.769  29.999  29.629  1.00  0.00     0.074 A 
ATOM     38  C   UNL A   1      40.289  27.741  28.739  1.00  0.00     0.049 A 
ATOM     39  N   UNL A   1      42.052  29.908  29.870  1.00  0.00    -0.248 NA
ATOM     40  C   UNL A   1      40.192  31.315  29.947  1.00  0.00     0.031 C 
ATOM     41  C   UNL A   1      39.492  26.676  28.126  1.00  0.00     0.029 A 
ATOM     42  N   UNL A   1      41.536  27.184  28.875  1.00  0.00    -0.354 N 
ATOM     43  C   UNL A   1      42.437  31.153  30.353  1.00  0.00     0.074 A 
ATOM     44  C   UNL A   1      41.264  32.000  30.314  1.00  0.00     0.031 C 
ATOM     45  C   UNL A   1      40.265  25.591  27.952  1.00  0.00     0.029 A 
ATOM     46  C   UNL A   1      41.619  25.896  28.405  1.00  0.00     0.049 A 
ATOM     47  H   UNL A   1      42.300  27.664  29.272  1.00  0.00     0.167 HD
ATOM     48  C   UNL A   1      43.650  31.547  30.810  1.00  0.00     0.037 A 
ATOM     49  C   UNL A   1      42.671  25.056  28.333  1.00  0.00     0.037 A 
ATOM     50  C   UNL A   1      44.805  30.690  30.864  1.00  0.00     0.049 A 
ATOM     51  C   UNL A   1      44.005  25.511  28.855  1.00  0.00     0.074 A 
ATOM     52  C   UNL A   1      46.068  30.976  31.353  1.00  0.00     0.029 A 
ATOM     53  N   UNL A   1      44.839  29.378  30.414  1.00  0.00    -0.354 N 
ATOM     54  N   UNL A   1      44.338  26.674  29.360  1.00  0.00    -0.248 NA
ATOM     55  C   UNL A   1      45.105  24.537  28.807  1.00  0.00     0.031 C 
ATOM     56  C   UNL A   1      46.876  29.850  31.165  1.00  0.00     0.029 A 
ATOM     57  C   UNL A   1      46.105  28.846  30.602  1.00  0.00     0.049 A 
ATOM     58  H   UNL A   1      44.077  28.897  30.020  1.00  0.00     0.167 HD
ATOM     59  C   UNL A   1      45.680  26.567  29.711  1.00  0.00     0.074 A 
ATOM     60  C   UNL A   1      46.092  25.219  29.373  1.00  0.00     0.031 C 
ATOM     61  C   UNL A   1      46.496  27.499  30.262  1.00  0.00     0.037 A 
BRANCH  48  62
ATOM     62  C   UNL A   1      43.780  32.966  31.296  1.00  0.00     0.058 A 
ATOM     63  C   UNL A   1      44.140  34.011  30.428  1.00  0.00     0.135 A 
ATOM     64  C   UNL A   1      43.528  33.291  32.638  1.00  0.00     0.135 A 
ATOM     65  F   UNL A   1      44.407  33.756  29.137  1.00  0.00    -0.206 F 
ATOM     66  C   UNL A   1      44.282  35.318  30.881  1.00  0.00     0.059 A 
ATOM     67  C   UNL A   1      43.635  34.598  33.107  1.00  0.00     0.059 A 
ATOM     68  F   UNL A   1      43.179  32.333  33.513  1.00  0.00    -0.206 F 
ATOM     69  C   UNL A   1      44.031  35.602  32.224  1.00  0.00     0.060 A 
BRANCH  69  70
ATOM     70  S   UNL A   1      44.229  37.302  32.798  1.00  0.00     0.124 S 
ATOM     71  O   UNL A   1      45.531  37.236  33.455  1.00  0.00    -0.237 OA
ATOM     72  O   UNL A   1      44.187  38.060  31.551  1.00  0.00    -0.237 OA
ATOM     73  O   UNL A   1      43.088  37.497  33.685  1.00  0.00    -0.744 OA
ENDBRANCH  69  70
ENDBRANCH  48  62
BRANCH  49  74
ATOM     74  C   UNL A   1      42.489  23.695  27.763  1.00  0.00     0.058 A 
ATOM     75  C   UNL A   1      42.535  23.480  26.378  1.00  0.00     0.135 A 
ATOM     76  C   UNL A   1      42.299  22.578  28.592  1.00  0.00     0.135 A 
ATOM     77  F   UNL A   1      42.709  24.515  25.544  1.00  0.00    -0.206 F 
ATOM     78  C   UNL A   1      42.389  22.208  25.833  1.00  0.00     0.059 A 
ATOM     79  C   UNL A   1      42.175  21.293  28.072  1.00  0.00     0.059 A 
ATOM     80  F   UNL A   1      42.267  22.729  29.925  1.00  0.00    -0.206 F 
ATOM     81  C   UNL A   1      42.214  21.119  26.689  1.00  0.00     0.060 A 
BRANCH  81  82
ATOM     82  S   UNL A   1      42.089  19.466  25.975  1.00  0.00     0.124 S 
ATOM     83  O   UNL A   1      42.625  18.639  27.050  1.00  0.00    -0.237 OA
ATOM     84  O   UNL A   1      40.655  19.345  25.731  1.00  0.00    -0.237 OA
ATOM     85  O   UNL A   1      42.914  19.556  24.775  1.00  0.00    -0.744 OA
ENDBRANCH  81  82
ENDBRANCH  49  74
BRANCH  61  86
ATOM     86  C   UNL A   1      47.911  27.087  30.564  1.00  0.00     0.058 A 
ATOM     87  C   UNL A   1      48.953  27.305  29.650  1.00  0.00     0.135 A 
ATOM     88  C   UNL A   1      48.233  26.516  31.805  1.00  0.00     0.135 A 
ATOM     89  F   UNL A   1      48.695  27.843  28.447  1.00  0.00    -0.206 F 
ATOM     90  C   UNL A   1      50.265  26.952  29.948  1.00  0.00     0.059 A 
ATOM     91  C   UNL A   1      49.542  26.179  32.135  1.00  0.00     0.059 A 
ATOM     92  F   UNL A   1      47.275  26.295  32.719  1.00  0.00    -0.206 F 
ATOM     93  C   UNL A   1      50.550  26.390  31.194  1.00  0.00     0.060 A 
BRANCH  93  94
ATOM     94  S   UNL A   1      52.261  25.968  31.582  1.00  0.00     0.124 S 
ATOM     95  O   UNL A   1      52.901  26.108  30.278  1.00  0.00    -0.237 OA
ATOM     96  O   UNL A   1      52.616  26.979  32.573  1.00  0.00    -0.237 OA
ATOM     97  O   UNL A   1      52.167  24.605  32.094  1.00  0.00    -0.744 OA
ENDBRANCH  93  94
ENDBRANCH  61  86
ENDBRANCH  35  36
ENDBRANCH  27  30
ENDBRANCH  25  26
ENDBRANCH   1  25
TORSDOF 16
ENDMDL
MODEL 2
REMARK VINA RESULT:     -11.2      4.697     10.373
REMARK SMILES O=C(Cc1cn2ccsc2n1)N[C@@H]1C=C[C@H](C(=O)NCCCNC(=O)c2ccc(-c3c4nc(c(-c5c(F)cc(S(=O)(=O)[O-])cc5F)c5ccc([nH]5)c(-c5c(F)cc(S(=O)(=O)[O-])cc5F)c5nc(c(-c6c(F)cc(S(=O)(=O)[O-])cc6F)c6ccc3[nH]6)C=C5)C=C4)cc2)C1
REMARK SMILES IDX 21 1 20 2 19 3 17 4 18 5 16 7 13 8 14 9 92 10 15 11 12 12
REMARK SMILES IDX 1 13 2 14 3 16 4 17 5 18 11 19 6 20 10 21 7 22 9 23 8 24
REMARK SMILES IDX 22 25 23 26 24 27 25 29 26 30 27 31 91 32 28 33 90 34 29 35
REMARK SMILES IDX 30 36 31 37 84 38 32 39 89 40 83 41 85 42 33 43 88 44 82 45
REMARK SMILES IDX 81 46 34 48 68 49 47 50 67 51 48 52 51 53 66 54 86 55 49 56
REMARK SMILES IDX 50 57 65 59 87 60 52 61 35 62 36 63 45 64 37 65 38 66 44 67
REMARK SMILES IDX 46 68 39 69 40 70 41 71 42 72 43 73 69 74 70 75 79 76 71 77
REMARK SMILES IDX 72 78 78 79 80 80 73 81 74 82 75 83 76 84 77 85 53 86 54 87
REMARK SMILES IDX 63 88 55 89 56 90 62 91 64 92 57 93 58 94 59 95 60 96 61 97
REMARK H PARENT 19 6 12 15 23 28 85 47 51 58
REMARK Flexibility Score: inf
ROOT
ATOM      1  C   UNL A   1      40.630  22.064  27.630  1.00  0.00     0.042 C 
ENDROOT
BRANCH   1   2
ATOM      2  C   UNL A   1      39.812  22.064  26.344  1.00  0.00     0.117 C 
BRANCH   2   3
ATOM      3  N   UNL A   1      38.688  22.979  26.406  1.00  0.00    -0.356 N 
ATOM      4  C   UNL A   1      37.479  23.019  25.793  1.00  0.00     0.227 C 
ATOM      5  O   UNL A   1      36.745  23.958  26.131  1.00  0.00    -0.274 OA
ATOM      6  H   UNL A   1      38.834  23.731  27.025  1.00  0.00     0.163 HD
BRANCH   4   7
ATOM      7  C   UNL A   1      37.022  22.054  24.681  1.00  0.00     0.103 C 
ATOM      8  C   UNL A   1      34.577  21.899  24.339  1.00  0.00     0.106 C 
ATOM      9  C   UNL A   1      35.144  20.646  24.907  1.00  0.00    -0.006 C 
ATOM     10  C   UNL A   1      35.832  22.675  23.909  1.00  0.00     0.047 C 
ATOM     11  C   UNL A   1      36.474  20.708  25.024  1.00  0.00    -0.016 C 
BRANCH   8  12
ATOM     12  N   UNL A   1      33.809  22.590  25.344  1.00  0.00    -0.350 N 
ATOM     13  O   UNL A   1      31.805  22.428  24.231  1.00  0.00    -0.275 OA
ATOM     14  C   UNL A   1      32.469  22.866  25.169  1.00  0.00     0.226 C 
ATOM     15  H   UNL A   1      34.252  22.873  26.176  1.00  0.00     0.164 HD
BRANCH  14  16
ATOM     16  C   UNL A   1      31.881  23.853  26.155  1.00  0.00     0.157 C 
BRANCH  16  17
ATOM     17  C   UNL A   1      32.171  25.271  25.819  1.00  0.00     0.070 A 
ATOM     18  C   UNL A   1      31.614  26.420  26.372  1.00  0.00     0.118 A 
ATOM     19  N   UNL A   1      33.031  25.585  24.774  1.00  0.00    -0.223 NA
ATOM     20  N   UNL A   1      32.144  27.440  25.646  1.00  0.00    -0.297 N 
ATOM     21  C   UNL A   1      32.981  26.888  24.725  1.00  0.00     0.193 A 
ATOM     22  C   UNL A   1      32.032  28.811  25.607  1.00  0.00     0.104 A 
ATOM     23  S   UNL A   1      33.702  28.110  23.726  1.00  0.00    -0.105 S 
ATOM     24  C   UNL A   1      32.800  29.338  24.637  1.00  0.00     0.087 A 
ENDBRANCH  16  17
ENDBRANCH  14  16
ENDBRANCH   8  12
ENDBRANCH   4   7
ENDBRANCH   2   3
ENDBRANCH   1   2
BRANCH   1  25
ATOM     25  C   UNL A   1      41.954  22.814  27.504  1.00  0.00     0.118 C 
BRANCH  25  26
ATOM     26  N   UNL A   1      42.009  23.641  26.304  1.00  0.00    -0.352 N 
ATOM     27  C   UNL A   1      41.741  24.975  26.124  1.00  0.00     0.251 C 
ATOM     28  H   UNL A   1      42.284  23.164  25.488  1.00  0.00     0.163 HD
ATOM     29  O   UNL A   1      41.619  25.415  24.985  1.00  0.00    -0.269 OA
BRANCH  27  30
ATOM     30  C   UNL A   1      41.594  25.879  27.284  1.00  0.00     0.039 A 
ATOM     31  C   UNL A   1      42.594  26.823  27.537  1.00  0.00     0.014 A 
ATOM     32  C   UNL A   1      40.502  25.772  28.149  1.00  0.00     0.014 A 
ATOM     33  C   UNL A   1      42.465  27.698  28.619  1.00  0.00     0.010 A 
ATOM     34  C   UNL A   1      40.334  26.697  29.175  1.00  0.00     0.010 A 
ATOM     35  C   UNL A   1      41.317  27.665  29.426  1.00  0.00    -0.014 A 
BRANCH  35  36
ATOM     36  C   UNL A   1      41.124  28.628  30.540  1.00  0.00     0.031 A 
ATOM     37  C   UNL A   1      41.966  28.524  31.783  1.00  0.00     0.074 A 
ATOM     38  C   UNL A   1      40.142  29.547  30.461  1.00  0.00     0.049 A 
ATOM     39  N   UNL A   1      41.884  29.206  32.896  1.00  0.00    -0.248 NA
ATOM     40  C   UNL A   1      43.020  27.496  31.786  1.00  0.00     0.031 C 
ATOM     41  C   UNL A   1      39.225  29.709  29.330  1.00  0.00     0.029 A 
ATOM     42  N   UNL A   1      39.737  30.506  31.355  1.00  0.00    -0.354 N 
ATOM     43  C   UNL A   1      42.862  28.683  33.734  1.00  0.00     0.074 A 
ATOM     44  C   UNL A   1      43.484  27.587  33.023  1.00  0.00     0.031 C 
ATOM     45  C   UNL A   1      38.376  30.716  29.593  1.00  0.00     0.029 A 
ATOM     46  C   UNL A   1      38.662  31.245  30.923  1.00  0.00     0.049 A 
ATOM     47  H   UNL A   1      40.177  30.651  32.225  1.00  0.00     0.167 HD
ATOM     48  C   UNL A   1      43.224  29.093  34.974  1.00  0.00     0.037 A 
ATOM     49  C   UNL A   1      37.974  32.229  31.534  1.00  0.00     0.037 A 
ATOM     50  C   UNL A   1      42.613  30.198  35.665  1.00  0.00     0.049 A 
ATOM     51  C   UNL A   1      38.400  32.676  32.905  1.00  0.00     0.074 A 
ATOM     52  C   UNL A   1      42.938  30.726  36.902  1.00  0.00     0.029 A 
ATOM     53  N   UNL A   1      41.552  30.947  35.177  1.00  0.00    -0.354 N 
ATOM     54  N   UNL A   1      39.363  32.206  33.661  1.00  0.00    -0.248 NA
ATOM     55  C   UNL A   1      37.653  33.792  33.502  1.00  0.00     0.031 C 
ATOM     56  C   UNL A   1      42.048  31.770  37.180  1.00  0.00     0.029 A 
ATOM     57  C   UNL A   1      41.200  31.924  36.095  1.00  0.00     0.049 A 
ATOM     58  H   UNL A   1      41.113  30.805  34.307  1.00  0.00     0.167 HD
ATOM     59  C   UNL A   1      39.354  32.982  34.815  1.00  0.00     0.074 A 
ATOM     60  C   UNL A   1      38.298  33.961  34.649  1.00  0.00     0.031 C 
ATOM     61  C   UNL A   1      40.147  32.893  35.911  1.00  0.00     0.037 A 
BRANCH  48  62
ATOM     62  C   UNL A   1      44.341  28.346  35.653  1.00  0.00     0.058 A 
ATOM     63  C   UNL A   1      44.087  27.263  36.510  1.00  0.00     0.135 A 
ATOM     64  C   UNL A   1      45.681  28.703  35.434  1.00  0.00     0.135 A 
ATOM     65  F   UNL A   1      42.824  26.887  36.768  1.00  0.00    -0.206 F 
ATOM     66  C   UNL A   1      45.116  26.586  37.156  1.00  0.00     0.059 A 
ATOM     67  C   UNL A   1      46.729  28.021  36.045  1.00  0.00     0.059 A 
ATOM     68  F   UNL A   1      45.984  29.730  34.622  1.00  0.00    -0.206 F 
ATOM     69  C   UNL A   1      46.436  26.975  36.919  1.00  0.00     0.060 A 
BRANCH  69  70
ATOM     70  S   UNL A   1      47.760  26.093  37.772  1.00  0.00     0.124 S 
ATOM     71  O   UNL A   1      47.227  24.733  37.805  1.00  0.00    -0.237 OA
ATOM     72  O   UNL A   1      48.899  26.305  36.885  1.00  0.00    -0.237 OA
ATOM     73  O   UNL A   1      47.840  26.766  39.063  1.00  0.00    -0.744 OA
ENDBRANCH  69  70
ENDBRANCH  48  62
BRANCH  49  74
ATOM     74  C   UNL A   1      36.826  32.868  30.837  1.00  0.00     0.058 A 
ATOM     75  C   UNL A   1      35.505  32.532  31.164  1.00  0.00     0.135 A 
ATOM     76  C   UNL A   1      37.027  33.850  29.854  1.00  0.00     0.135 A 
ATOM     77  F   UNL A   1      35.261  31.596  32.093  1.00  0.00    -0.206 F 
ATOM     78  C   UNL A   1      34.422  33.139  30.535  1.00  0.00     0.059 A 
ATOM     79  C   UNL A   1      35.960  34.488  29.229  1.00  0.00     0.059 A 
ATOM     80  F   UNL A   1      38.273  34.220  29.519  1.00  0.00    -0.206 F 
ATOM     81  C   UNL A   1      34.660  34.120  29.571  1.00  0.00     0.060 A 
BRANCH  81  82
ATOM     82  S   UNL A   1      33.248  34.945  28.807  1.00  0.00     0.124 S 
ATOM     83  O   UNL A   1      32.429  35.264  29.970  1.00  0.00    -0.237 OA
ATOM     84  O   UNL A   1      33.880  36.079  28.140  1.00  0.00    -0.237 OA
ATOM     85  O   UNL A   1      32.708  33.925  27.913  1.00  0.00    -0.744 OA
ENDBRANCH  81  82
ENDBRANCH  49  74
BRANCH  61  86
ATOM     86  C   UNL A   1      39.925  33.898  37.008  1.00  0.00     0.058 A 
ATOM     87  C   UNL A   1      40.491  35.181  36.958  1.00  0.00     0.135 A 
ATOM     88  C   UNL A   1      39.094  33.588  38.096  1.00  0.00     0.135 A 
ATOM     89  F   UNL A   1      41.298  35.524  35.941  1.00  0.00    -0.206 F 
ATOM     90  C   UNL A   1      40.256  36.117  37.959  1.00  0.00     0.059 A 
ATOM     91  C   UNL A   1      38.824  34.517  39.096  1.00  0.00     0.059 A 
ATOM     92  F   UNL A   1      38.521  32.377  38.188  1.00  0.00    -0.206 F 
ATOM     93  C   UNL A   1      39.420  35.776  39.025  1.00  0.00     0.060 A 
BRANCH  93  94
ATOM     94  S   UNL A   1      39.095  37.011  40.300  1.00  0.00     0.124 S 
ATOM     95  O   UNL A   1      40.435  37.251  40.825  1.00  0.00    -0.237 OA
ATOM     96  O   UNL A   1      38.509  38.106  39.533  1.00  0.00    -0.237 OA
ATOM     97  O   UNL A   1      38.177  36.330  41.207  1.00  0.00    -0.744 OA
ENDBRANCH  93  94
ENDBRANCH  61  86
ENDBRANCH  35  36
ENDBRANCH  27  30
ENDBRANCH  25  26
ENDBRANCH   1  25
TORSDOF 16
ENDMDL
MODEL 3
REMARK VINA RESULT:     -11.1      3.292      4.852
REMARK SMILES O=C(Cc1cn2ccsc2n1)N[C@@H]1C=C[C@H](C(=O)NCCCNC(=O)c2ccc(-c3c4nc(c(-c5c(F)cc(S(=O)(=O)[O-])cc5F)c5ccc([nH]5)c(-c5c(F)cc(S(=O)(=O)[O-])cc5F)c5nc(c(-c6c(F)cc(S(=O)(=O)[O-])cc6F)c6ccc3[nH]6)C=C5)C=C4)cc2)C1
REMARK SMILES IDX 21 1 20 2 19 3 17 4 18 5 16 7 13 8 14 9 92 10 15 11 12 12
REMARK SMILES IDX 1 13 2 14 3 16 4 17 5 18 11 19 6 20 10 21 7 22 9 23 8 24
REMARK SMILES IDX 22 25 23 26 24 27 25 29 26 30 27 31 91 32 28 33 90 34 29 35
REMARK SMILES IDX 30 36 31 37 84 38 32 39 89 40 83 41 85 42 33 43 88 44 82 45
REMARK SMILES IDX 81 46 34 48 68 49 47 50 67 51 48 52 51 53 66 54 86 55 49 56
REMARK SMILES IDX 50 57 65 59 87 60 52 61 35 62 36 63 45 64 37 65 38 66 44 67
REMARK SMILES IDX 46 68 39 69 40 70 41 71 42 72 43 73 69 74 70 75 79 76 71 77
REMARK SMILES IDX 72 78 78 79 80 80 73 81 74 82 75 83 76 84 77 85 53 86 54 87
REMARK SMILES IDX 63 88 55 89 56 90 62 91 64 92 57 93 58 94 59 95 60 96 61 97
REMARK H PARENT 19 6 12 15 23 28 85 47 51 58
REMARK Flexibility Score: inf
ROOT
ATOM      1  C   UNL A   1      35.443  32.506  28.018  1.00  0.00     0.042 C 
ENDROOT
BRANCH   1   2
ATOM      2  C   UNL A   1      34.317  31.524  28.319  1.00  0.00     0.117 C 
BRANCH   2   3
ATOM      3  N   UNL A   1      33.504  31.243  27.150  1.00  0.00    -0.356 N 
ATOM      4  C   UNL A   1      32.978  30.108  26.627  1.00  0.00     0.227 C 
ATOM      5  O   UNL A   1      32.289  30.263  25.610  1.00  0.00    -0.274 OA
ATOM      6  H   UNL A   1      33.288  32.048  26.626  1.00  0.00     0.163 HD
BRANCH   4   7
ATOM      7  C   UNL A   1      33.253  28.685  27.154  1.00  0.00     0.103 C 
ATOM      8  C   UNL A   1      32.642  26.842  25.621  1.00  0.00     0.106 C 
ATOM      9  C   UNL A   1      31.760  26.891  26.817  1.00  0.00    -0.006 C 
ATOM     10  C   UNL A   1      33.785  27.796  26.002  1.00  0.00     0.047 C 
ATOM     11  C   UNL A   1      32.137  27.843  27.678  1.00  0.00    -0.016 C 
BRANCH   8  12
ATOM     12  N   UNL A   1      31.914  27.278  24.456  1.00  0.00    -0.350 N 
ATOM     13  O   UNL A   1      31.675  25.178  23.554  1.00  0.00    -0.275 OA
ATOM     14  C   UNL A   1      31.545  26.398  23.461  1.00  0.00     0.226 C 
ATOM     15  H   UNL A   1      31.675  28.229  24.367  1.00  0.00     0.164 HD
BRANCH  14  16
ATOM     16  C   UNL A   1      31.068  27.041  22.175  1.00  0.00     0.157 C 
BRANCH  16  17
ATOM     17  C   UNL A   1      30.181  28.212  22.392  1.00  0.00     0.070 A 
ATOM     18  C   UNL A   1      28.994  28.273  23.117  1.00  0.00     0.118 A 
ATOM     19  N   UNL A   1      30.444  29.422  21.760  1.00  0.00    -0.223 NA
ATOM     20  N   UNL A   1      28.535  29.537  22.915  1.00  0.00    -0.297 N 
ATOM     21  C   UNL A   1      29.436  30.171  22.115  1.00  0.00     0.193 A 
ATOM     22  C   UNL A   1      27.436  30.279  23.283  1.00  0.00     0.104 A 
ATOM     23  S   UNL A   1      28.933  31.797  21.776  1.00  0.00    -0.105 S 
ATOM     24  C   UNL A   1      27.484  31.518  22.763  1.00  0.00     0.087 A 
ENDBRANCH  16  17
ENDBRANCH  14  16
ENDBRANCH   8  12
ENDBRANCH   4   7
ENDBRANCH   2   3
ENDBRANCH   1   2
BRANCH   1  25
ATOM     25  C   UNL A   1      36.316  32.816  29.231  1.00  0.00     0.118 C 
BRANCH  25  26
ATOM     26  N   UNL A   1      36.000  31.963  30.372  1.00  0.00    -0.352 N 
ATOM     27  C   UNL A   1      36.633  30.846  30.855  1.00  0.00     0.251 C 
ATOM     28  H   UNL A   1      35.200  32.234  30.878  1.00  0.00     0.163 HD
ATOM     29  O   UNL A   1      36.061  30.143  31.684  1.00  0.00    -0.269 OA
BRANCH  27  30
ATOM     30  C   UNL A   1      37.986  30.481  30.386  1.00  0.00     0.039 A 
ATOM     31  C   UNL A   1      39.031  30.426  31.313  1.00  0.00     0.014 A 
ATOM     32  C   UNL A   1      38.240  30.239  29.034  1.00  0.00     0.014 A 
ATOM     33  C   UNL A   1      40.315  30.066  30.892  1.00  0.00     0.010 A 
ATOM     34  C   UNL A   1      39.497  29.801  28.630  1.00  0.00     0.010 A 
ATOM     35  C   UNL A   1      40.550  29.717  29.553  1.00  0.00    -0.014 A 
BRANCH  35  36
ATOM     36  C   UNL A   1      41.888  29.266  29.093  1.00  0.00     0.031 A 
ATOM     37  C   UNL A   1      43.020  30.252  28.982  1.00  0.00     0.074 A 
ATOM     38  C   UNL A   1      42.061  27.987  28.707  1.00  0.00     0.049 A 
ATOM     39  N   UNL A   1      44.228  30.073  28.512  1.00  0.00    -0.248 NA
ATOM     40  C   UNL A   1      42.748  31.628  29.428  1.00  0.00     0.031 C 
ATOM     41  C   UNL A   1      41.025  26.953  28.717  1.00  0.00     0.029 A 
ATOM     42  N   UNL A   1      43.168  27.342  28.212  1.00  0.00    -0.354 N 
ATOM     43  C   UNL A   1      44.853  31.312  28.593  1.00  0.00     0.074 A 
ATOM     44  C   UNL A   1      43.872  32.247  29.101  1.00  0.00     0.031 C 
ATOM     45  C   UNL A   1      41.547  25.801  28.265  1.00  0.00     0.029 A 
ATOM     46  C   UNL A   1      42.942  26.024  27.898  1.00  0.00     0.049 A 
ATOM     47  H   UNL A   1      44.040  27.783  28.094  1.00  0.00     0.167 HD
ATOM     48  C   UNL A   1      46.135  31.636  28.295  1.00  0.00     0.037 A 
ATOM     49  C   UNL A   1      43.762  25.099  27.360  1.00  0.00     0.037 A 
ATOM     50  C   UNL A   1      47.109  30.694  27.810  1.00  0.00     0.049 A 
ATOM     51  C   UNL A   1      45.183  25.478  27.046  1.00  0.00     0.074 A 
ATOM     52  C   UNL A   1      48.446  30.908  27.523  1.00  0.00     0.029 A 
ATOM     53  N   UNL A   1      46.853  29.358  27.540  1.00  0.00    -0.354 N 
ATOM     54  N   UNL A   1      45.774  26.641  27.182  1.00  0.00    -0.248 NA
ATOM     55  C   UNL A   1      46.052  24.417  26.516  1.00  0.00     0.031 C 
ATOM     56  C   UNL A   1      48.989  29.711  27.044  1.00  0.00     0.029 A 
ATOM     57  C   UNL A   1      48.002  28.738  27.077  1.00  0.00     0.049 A 
ATOM     58  H   UNL A   1      45.982  28.914  27.660  1.00  0.00     0.167 HD
ATOM     59  C   UNL A   1      47.089  26.448  26.774  1.00  0.00     0.074 A 
ATOM     60  C   UNL A   1      47.210  25.053  26.402  1.00  0.00     0.031 C 
ATOM     61  C   UNL A   1      48.105  27.345  26.715  1.00  0.00     0.037 A 
BRANCH  48  62
ATOM     62  C   UNL A   1      46.553  33.068  28.496  1.00  0.00     0.058 A 
ATOM     63  C   UNL A   1      46.441  34.019  27.469  1.00  0.00     0.135 A 
ATOM     64  C   UNL A   1      47.056  33.501  29.734  1.00  0.00     0.135 A 
ATOM     65  F   UNL A   1      45.980  33.658  26.261  1.00  0.00    -0.206 F 
ATOM     66  C   UNL A   1      46.848  35.337  27.647  1.00  0.00     0.059 A 
ATOM     67  C   UNL A   1      47.442  34.822  29.945  1.00  0.00     0.059 A 
ATOM     68  F   UNL A   1      47.184  32.635  30.753  1.00  0.00    -0.206 F 
ATOM     69  C   UNL A   1      47.351  35.729  28.889  1.00  0.00     0.060 A 
BRANCH  69  70
ATOM     70  S   UNL A   1      47.883  37.441  29.102  1.00  0.00     0.124 S 
ATOM     71  O   UNL A   1      49.137  37.266  29.830  1.00  0.00    -0.237 OA
ATOM     72  O   UNL A   1      48.011  37.902  27.723  1.00  0.00    -0.237 OA
ATOM     73  O   UNL A   1      46.795  38.043  29.863  1.00  0.00    -0.744 OA
ENDBRANCH  69  70
ENDBRANCH  48  62
BRANCH  49  74
ATOM     74  C   UNL A   1      43.257  23.723  27.109  1.00  0.00     0.058 A 
ATOM     75  C   UNL A   1      42.944  23.295  25.811  1.00  0.00     0.135 A 
ATOM     76  C   UNL A   1      43.110  22.800  28.156  1.00  0.00     0.135 A 
ATOM     77  F   UNL A   1      43.063  24.142  24.778  1.00  0.00    -0.206 F 
ATOM     78  C   UNL A   1      42.492  22.003  25.560  1.00  0.00     0.059 A 
ATOM     79  C   UNL A   1      42.683  21.495  27.926  1.00  0.00     0.059 A 
ATOM     80  F   UNL A   1      43.415  23.156  29.414  1.00  0.00    -0.206 F 
ATOM     81  C   UNL A   1      42.369  21.108  26.625  1.00  0.00     0.060 A 
BRANCH  81  82
ATOM     82  S   UNL A   1      41.843  19.416  26.279  1.00  0.00     0.124 S 
ATOM     83  O   UNL A   1      42.618  19.105  25.084  1.00  0.00    -0.237 OA
ATOM     84  O   UNL A   1      42.239  18.717  27.498  1.00  0.00    -0.237 OA
ATOM     85  O   UNL A   1      40.402  19.548  26.083  1.00  0.00    -0.744 OA
ENDBRANCH  81  82
ENDBRANCH  49  74
BRANCH  61  86
ATOM     86  C   UNL A   1      49.446  26.841  26.257  1.00  0.00     0.058 A 
ATOM     87  C   UNL A   1      49.847  26.927  24.915  1.00  0.00     0.135 A 
ATOM     88  C   UNL A   1      50.359  26.315  27.184  1.00  0.00     0.135 A 
ATOM     89  F   UNL A   1      49.008  27.417  23.988  1.00  0.00    -0.206 F 
ATOM     90  C   UNL A   1      51.101  26.489  24.503  1.00  0.00     0.059 A 
ATOM     91  C   UNL A   1      51.629  25.895  26.799  1.00  0.00     0.059 A 
ATOM     92  F   UNL A   1      50.029  26.220  28.481  1.00  0.00    -0.206 F 
ATOM     93  C   UNL A   1      51.987  25.975  25.453  1.00  0.00     0.060 A 
BRANCH  93  94
ATOM     94  S   UNL A   1      53.624  25.443  24.912  1.00  0.00     0.124 S 
ATOM     95  O   UNL A   1      53.539  23.998  25.095  1.00  0.00    -0.237 OA
ATOM     96  O   UNL A   1      53.663  25.906  23.529  1.00  0.00    -0.237 OA
ATOM     97  O   UNL A   1      54.526  26.140  25.824  1.00  0.00    -0.744 OA
ENDBRANCH  93  94
ENDBRANCH  61  86
ENDBRANCH  35  36
ENDBRANCH  27  30
ENDBRANCH  25  26
ENDBRANCH   1  25
TORSDOF 16
ENDMDL
