MODEL 1
REMARK VINA RESULT:     -11.3      0.000      0.000
REMARK SMILES CC(=O)[C@H]1CC(C)=C(C)C[C@@H]1C(=O)NCCCNC(=O)c1ccc(-c2c3nc(c(-c4c(F)cc(S(=O)(=O)[O-])cc4F)c4ccc([nH]4)c(-c4c(F)cc(S(=O)(=O)[O-])cc4F)c4nc(c(-c5c(F)cc(S(=O)(=O)[O-])cc5F)c5ccc2[nH]5)C=C4)C=C3)cc1
REMARK SMILES IDX 17 1 16 2 15 3 14 4 12 5 13 6 11 8 4 9 5 10 6 11 10 12 7 13
REMARK SMILES IDX 8 14 9 15 2 16 1 17 3 18 18 19 19 20 20 22 21 23 22 24 86 25
REMARK SMILES IDX 23 26 85 27 24 28 25 29 26 30 79 31 27 32 84 33 78 34 80 35
REMARK SMILES IDX 28 36 83 37 77 38 76 39 29 41 63 42 42 43 62 44 43 45 46 46
REMARK SMILES IDX 61 47 81 48 44 49 45 50 60 52 82 53 47 54 30 55 31 56 40 57
REMARK SMILES IDX 32 58 33 59 39 60 41 61 34 62 35 63 36 64 37 65 38 66 64 67
REMARK SMILES IDX 65 68 74 69 66 70 67 71 73 72 75 73 68 74 69 75 70 76 71 77
REMARK SMILES IDX 72 78 48 79 49 80 58 81 50 82 51 83 57 84 59 85 52 86 53 87
REMARK SMILES IDX 54 88 55 89 56 90
REMARK H PARENT 14 7 18 21 80 40 46 51
REMARK Flexibility Score: inf
ROOT
ATOM      1  C   UNL A   1      33.504  28.360  27.159  1.00  0.00     0.118 C 
ENDROOT
BRANCH   1   2
ATOM      2  C   UNL A   1      32.150  27.678  27.352  1.00  0.00     0.042 C 
BRANCH   2   3
ATOM      3  C   UNL A   1      31.451  27.332  26.041  1.00  0.00     0.117 C 
BRANCH   3   4
ATOM      4  N   UNL A   1      31.245  25.901  25.899  1.00  0.00    -0.356 N 
ATOM      5  C   UNL A   1      31.976  24.970  25.220  1.00  0.00     0.224 C 
ATOM      6  O   UNL A   1      31.581  23.805  25.214  1.00  0.00    -0.275 OA
ATOM      7  H   UNL A   1      30.454  25.546  26.367  1.00  0.00     0.163 HD
BRANCH   5   8
ATOM      8  C   UNL A   1      33.284  25.384  24.555  1.00  0.00     0.093 C 
ATOM      9  C   UNL A   1      33.334  24.836  23.120  1.00  0.00     0.072 C 
ATOM     10  C   UNL A   1      34.470  23.873  22.761  1.00  0.00     0.043 C 
ATOM     11  C   UNL A   1      35.545  23.611  23.781  1.00  0.00    -0.074 C 
ATOM     12  C   UNL A   1      34.422  25.020  25.518  1.00  0.00     0.045 C 
ATOM     13  C   UNL A   1      36.620  22.674  23.283  1.00  0.00     0.039 C 
ATOM     14  C   UNL A   1      35.527  24.133  25.021  1.00  0.00    -0.074 C 
ATOM     15  C   UNL A   1      36.597  23.847  26.046  1.00  0.00     0.039 C 
BRANCH   9  16
ATOM     16  C   UNL A   1      33.290  25.940  22.056  1.00  0.00     0.134 C 
ATOM     17  C   UNL A   1      33.337  27.390  22.468  1.00  0.00     0.088 C 
ATOM     18  O   UNL A   1      33.253  25.644  20.858  1.00  0.00    -0.300 OA
ENDBRANCH   9  16
ENDBRANCH   5   8
ENDBRANCH   3   4
ENDBRANCH   2   3
ENDBRANCH   1   2
BRANCH   1  19
ATOM     19  N   UNL A   1      33.433  29.797  27.398  1.00  0.00    -0.352 N 
ATOM     20  C   UNL A   1      34.317  30.640  28.017  1.00  0.00     0.251 C 
ATOM     21  H   UNL A   1      32.617  30.232  27.060  1.00  0.00     0.163 HD
ATOM     22  O   UNL A   1      33.947  31.775  28.323  1.00  0.00    -0.269 OA
BRANCH  20  23
ATOM     23  C   UNL A   1      35.697  30.207  28.317  1.00  0.00     0.039 A 
ATOM     24  C   UNL A   1      36.661  30.277  27.307  1.00  0.00     0.014 A 
ATOM     25  C   UNL A   1      36.032  29.683  29.568  1.00  0.00     0.014 A 
ATOM     26  C   UNL A   1      37.972  29.874  27.570  1.00  0.00     0.010 A 
ATOM     27  C   UNL A   1      37.354  29.349  29.851  1.00  0.00     0.010 A 
ATOM     28  C   UNL A   1      38.336  29.436  28.854  1.00  0.00    -0.014 A 
BRANCH  28  29
ATOM     29  C   UNL A   1      39.740  29.070  29.172  1.00  0.00     0.031 A 
ATOM     30  C   UNL A   1      40.658  30.074  29.813  1.00  0.00     0.074 A 
ATOM     31  C   UNL A   1      40.199  27.852  28.821  1.00  0.00     0.049 A 
ATOM     32  N   UNL A   1      41.928  29.958  30.109  1.00  0.00    -0.248 NA
ATOM     33  C   UNL A   1      40.085  31.389  30.143  1.00  0.00     0.031 C 
ATOM     34  C   UNL A   1      39.413  26.812  28.151  1.00  0.00     0.029 A 
ATOM     35  N   UNL A   1      41.439  27.284  28.970  1.00  0.00    -0.354 N 
ATOM     36  C   UNL A   1      42.309  31.187  30.636  1.00  0.00     0.074 A 
ATOM     37  C   UNL A   1      41.147  32.048  30.583  1.00  0.00     0.031 C 
ATOM     38  C   UNL A   1      40.183  25.727  27.971  1.00  0.00     0.029 A 
ATOM     39  C   UNL A   1      41.524  26.004  28.474  1.00  0.00     0.049 A 
ATOM     40  H   UNL A   1      42.197  27.749  29.391  1.00  0.00     0.167 HD
ATOM     41  C   UNL A   1      43.513  31.556  31.134  1.00  0.00     0.037 A 
ATOM     42  C   UNL A   1      42.566  25.154  28.423  1.00  0.00     0.037 A 
ATOM     43  C   UNL A   1      44.653  30.679  31.217  1.00  0.00     0.049 A 
ATOM     44  C   UNL A   1      43.891  25.590  28.989  1.00  0.00     0.074 A 
ATOM     45  C   UNL A   1      45.891  30.931  31.780  1.00  0.00     0.029 A 
ATOM     46  N   UNL A   1      44.695  29.385  30.719  1.00  0.00    -0.354 N 
ATOM     47  N   UNL A   1      44.211  26.728  29.557  1.00  0.00    -0.248 NA
ATOM     48  C   UNL A   1      44.996  24.624  28.913  1.00  0.00     0.031 C 
ATOM     49  C   UNL A   1      46.699  29.806  31.581  1.00  0.00     0.029 A 
ATOM     50  C   UNL A   1      45.947  28.835  30.939  1.00  0.00     0.049 A 
ATOM     51  H   UNL A   1      43.945  28.926  30.276  1.00  0.00     0.167 HD
ATOM     52  C   UNL A   1      45.544  26.603  29.934  1.00  0.00     0.074 A 
ATOM     53  C   UNL A   1      45.966  25.274  29.539  1.00  0.00     0.031 C 
ATOM     54  C   UNL A   1      46.346  27.505  30.550  1.00  0.00     0.037 A 
BRANCH  41  55
ATOM     55  C   UNL A   1      43.668  32.966  31.635  1.00  0.00     0.058 A 
ATOM     56  C   UNL A   1      44.203  33.983  30.828  1.00  0.00     0.135 A 
ATOM     57  C   UNL A   1      43.220  33.318  32.919  1.00  0.00     0.135 A 
ATOM     58  F   UNL A   1      44.659  33.701  29.598  1.00  0.00    -0.206 F 
ATOM     59  C   UNL A   1      44.309  35.293  31.283  1.00  0.00     0.059 A 
ATOM     60  C   UNL A   1      43.291  34.628  33.385  1.00  0.00     0.059 A 
ATOM     61  F   UNL A   1      42.701  32.385  33.733  1.00  0.00    -0.206 F 
ATOM     62  C   UNL A   1      43.847  35.607  32.563  1.00  0.00     0.060 A 
BRANCH  62  63
ATOM     63  S   UNL A   1      43.969  37.317  33.128  1.00  0.00     0.124 S 
ATOM     64  O   UNL A   1      43.736  38.051  31.889  1.00  0.00    -0.237 OA
ATOM     65  O   UNL A   1      42.902  37.395  34.121  1.00  0.00    -0.237 OA
ATOM     66  O   UNL A   1      45.325  37.403  33.662  1.00  0.00    -0.744 OA
ENDBRANCH  62  63
ENDBRANCH  41  55
BRANCH  42  67
ATOM     67  C   UNL A   1      42.400  23.796  27.839  1.00  0.00     0.058 A 
ATOM     68  C   UNL A   1      42.300  22.666  28.664  1.00  0.00     0.135 A 
ATOM     69  C   UNL A   1      42.346  23.599  26.450  1.00  0.00     0.135 A 
ATOM     70  F   UNL A   1      42.351  22.804  29.998  1.00  0.00    -0.206 F 
ATOM     71  C   UNL A   1      42.180  21.386  28.135  1.00  0.00     0.059 A 
ATOM     72  C   UNL A   1      42.198  22.329  25.898  1.00  0.00     0.059 A 
ATOM     73  F   UNL A   1      42.417  24.648  25.617  1.00  0.00    -0.206 F 
ATOM     74  C   UNL A   1      42.130  21.227  26.750  1.00  0.00     0.060 A 
BRANCH  74  75
ATOM     75  S   UNL A   1      41.947  19.562  26.074  1.00  0.00     0.124 S 
ATOM     76  O   UNL A   1      40.517  19.517  25.791  1.00  0.00    -0.237 OA
ATOM     77  O   UNL A   1      42.828  19.604  24.912  1.00  0.00    -0.237 OA
ATOM     78  O   UNL A   1      42.402  18.706  27.166  1.00  0.00    -0.744 OA
ENDBRANCH  74  75
ENDBRANCH  42  67
BRANCH  54  79
ATOM     79  C   UNL A   1      47.749  27.073  30.876  1.00  0.00     0.058 A 
ATOM     80  C   UNL A   1      48.064  26.435  32.085  1.00  0.00     0.135 A 
ATOM     81  C   UNL A   1      48.783  27.261  29.943  1.00  0.00     0.135 A 
ATOM     82  F   UNL A   1      47.115  26.239  33.013  1.00  0.00    -0.206 F 
ATOM     83  C   UNL A   1      49.361  26.022  32.370  1.00  0.00     0.059 A 
ATOM     84  C   UNL A   1      50.080  26.829  30.195  1.00  0.00     0.059 A 
ATOM     85  F   UNL A   1      48.532  27.856  28.766  1.00  0.00    -0.206 F 
ATOM     86  C   UNL A   1      50.362  26.222  31.418  1.00  0.00     0.060 A 
BRANCH  86  87
ATOM     87  S   UNL A   1      52.035  25.652  31.787  1.00  0.00     0.124 S 
ATOM     88  O   UNL A   1      51.807  24.240  32.079  1.00  0.00    -0.237 OA
ATOM     89  O   UNL A   1      52.744  25.935  30.542  1.00  0.00    -0.237 OA
ATOM     90  O   UNL A   1      52.430  26.473  32.927  1.00  0.00    -0.744 OA
ENDBRANCH  86  87
ENDBRANCH  54  79
ENDBRANCH  28  29
ENDBRANCH  20  23
ENDBRANCH   1  19
TORSDOF 14
ENDMDL
MODEL 2
REMARK VINA RESULT:     -11.1      0.828      1.998
REMARK SMILES CC(=O)[C@H]1CC(C)=C(C)C[C@@H]1C(=O)NCCCNC(=O)c1ccc(-c2c3nc(c(-c4c(F)cc(S(=O)(=O)[O-])cc4F)c4ccc([nH]4)c(-c4c(F)cc(S(=O)(=O)[O-])cc4F)c4nc(c(-c5c(F)cc(S(=O)(=O)[O-])cc5F)c5ccc2[nH]5)C=C4)C=C3)cc1
REMARK SMILES IDX 17 1 16 2 15 3 14 4 12 5 13 6 11 8 4 9 5 10 6 11 10 12 7 13
REMARK SMILES IDX 8 14 9 15 2 16 1 17 3 18 18 19 19 20 20 22 21 23 22 24 86 25
REMARK SMILES IDX 23 26 85 27 24 28 25 29 26 30 79 31 27 32 84 33 78 34 80 35
REMARK SMILES IDX 28 36 83 37 77 38 76 39 29 41 63 42 42 43 62 44 43 45 46 46
REMARK SMILES IDX 61 47 81 48 44 49 45 50 60 52 82 53 47 54 30 55 31 56 40 57
REMARK SMILES IDX 32 58 33 59 39 60 41 61 34 62 35 63 36 64 37 65 38 66 64 67
REMARK SMILES IDX 65 68 74 69 66 70 67 71 73 72 75 73 68 74 69 75 70 76 71 77
REMARK SMILES IDX 72 78 48 79 49 80 58 81 50 82 51 83 57 84 59 85 52 86 53 87
REMARK SMILES IDX 54 88 55 89 56 90
REMARK H PARENT 14 7 18 21 80 40 46 51
REMARK Flexibility Score: inf
ROOT
ATOM      1  C   UNL A   1      33.576  28.184  27.085  1.00  0.00     0.118 C 
ENDROOT
BRANCH   1   2
ATOM      2  C   UNL A   1      33.707  27.897  25.589  1.00  0.00     0.042 C 
BRANCH   2   3
ATOM      3  C   UNL A   1      32.674  26.902  25.068  1.00  0.00     0.117 C 
BRANCH   3   4
ATOM      4  N   UNL A   1      32.502  25.779  25.974  1.00  0.00    -0.356 N 
ATOM      5  C   UNL A   1      33.011  24.514  25.915  1.00  0.00     0.224 C 
ATOM      6  O   UNL A   1      32.692  23.712  26.792  1.00  0.00    -0.275 OA
ATOM      7  H   UNL A   1      31.928  25.958  26.754  1.00  0.00     0.163 HD
BRANCH   5   8
ATOM      8  C   UNL A   1      34.006  24.158  24.815  1.00  0.00     0.093 C 
ATOM      9  C   UNL A   1      33.691  22.758  24.264  1.00  0.00     0.072 C 
ATOM     10  C   UNL A   1      34.774  21.682  24.386  1.00  0.00     0.043 C 
ATOM     11  C   UNL A   1      36.126  22.073  24.918  1.00  0.00    -0.074 C 
ATOM     12  C   UNL A   1      35.412  24.430  25.365  1.00  0.00     0.045 C 
ATOM     13  C   UNL A   1      37.107  20.925  24.949  1.00  0.00     0.039 C 
ATOM     14  C   UNL A   1      36.416  23.313  25.352  1.00  0.00    -0.074 C 
ATOM     15  C   UNL A   1      37.767  23.692  25.906  1.00  0.00     0.039 C 
BRANCH   9  16
ATOM     16  C   UNL A   1      33.205  22.783  22.809  1.00  0.00     0.134 C 
ATOM     17  C   UNL A   1      32.291  21.695  22.299  1.00  0.00     0.088 C 
ATOM     18  O   UNL A   1      33.530  23.710  22.063  1.00  0.00    -0.300 OA
ENDBRANCH   9  16
ENDBRANCH   5   8
ENDBRANCH   3   4
ENDBRANCH   2   3
ENDBRANCH   1   2
BRANCH   1  19
ATOM     19  N   UNL A   1      33.470  29.613  27.362  1.00  0.00    -0.352 N 
ATOM     20  C   UNL A   1      34.337  30.462  27.995  1.00  0.00     0.251 C 
ATOM     21  H   UNL A   1      32.640  30.034  27.042  1.00  0.00     0.163 HD
ATOM     22  O   UNL A   1      33.939  31.578  28.333  1.00  0.00    -0.269 OA
BRANCH  20  23
ATOM     23  C   UNL A   1      35.730  30.058  28.272  1.00  0.00     0.039 A 
ATOM     24  C   UNL A   1      36.666  30.108  27.235  1.00  0.00     0.014 A 
ATOM     25  C   UNL A   1      36.105  29.581  29.530  1.00  0.00     0.014 A 
ATOM     26  C   UNL A   1      37.989  29.732  27.476  1.00  0.00     0.010 A 
ATOM     27  C   UNL A   1      37.439  29.275  29.789  1.00  0.00     0.010 A 
ATOM     28  C   UNL A   1      38.393  29.341  28.763  1.00  0.00    -0.014 A 
BRANCH  28  29
ATOM     29  C   UNL A   1      39.810  29.005  29.055  1.00  0.00     0.031 A 
ATOM     30  C   UNL A   1      40.727  30.039  29.649  1.00  0.00     0.074 A 
ATOM     31  C   UNL A   1      40.279  27.786  28.724  1.00  0.00     0.049 A 
ATOM     32  N   UNL A   1      42.006  29.951  29.916  1.00  0.00    -0.248 NA
ATOM     33  C   UNL A   1      40.141  31.353  29.960  1.00  0.00     0.031 C 
ATOM     34  C   UNL A   1      39.495  26.717  28.100  1.00  0.00     0.029 A 
ATOM     35  N   UNL A   1      41.532  27.241  28.856  1.00  0.00    -0.354 N 
ATOM     36  C   UNL A   1      42.379  31.198  30.403  1.00  0.00     0.074 A 
ATOM     37  C   UNL A   1      41.203  32.039  30.357  1.00  0.00     0.031 C 
ATOM     38  C   UNL A   1      40.277  25.640  27.927  1.00  0.00     0.029 A 
ATOM     39  C   UNL A   1      41.625  25.950  28.390  1.00  0.00     0.049 A 
ATOM     40  H   UNL A   1      42.292  27.729  29.247  1.00  0.00     0.167 HD
ATOM     41  C   UNL A   1      43.589  31.598  30.862  1.00  0.00     0.037 A 
ATOM     42  C   UNL A   1      42.680  25.116  28.335  1.00  0.00     0.037 A 
ATOM     43  C   UNL A   1      44.744  30.741  30.938  1.00  0.00     0.049 A 
ATOM     44  C   UNL A   1      44.011  25.586  28.857  1.00  0.00     0.074 A 
ATOM     45  C   UNL A   1      45.992  31.026  31.464  1.00  0.00     0.029 A 
ATOM     46  N   UNL A   1      44.795  29.436  30.472  1.00  0.00    -0.354 N 
ATOM     47  N   UNL A   1      44.326  26.743  29.388  1.00  0.00    -0.248 NA
ATOM     48  C   UNL A   1      45.129  24.636  28.777  1.00  0.00     0.031 C 
ATOM     49  C   UNL A   1      46.812  29.909  31.274  1.00  0.00     0.029 A 
ATOM     50  C   UNL A   1      46.061  28.910  30.674  1.00  0.00     0.049 A 
ATOM     51  H   UNL A   1      44.042  28.954  30.059  1.00  0.00     0.167 HD
ATOM     52  C   UNL A   1      45.670  26.648  29.735  1.00  0.00     0.074 A 
ATOM     53  C   UNL A   1      46.104  25.317  29.364  1.00  0.00     0.031 C 
ATOM     54  C   UNL A   1      46.472  27.578  30.309  1.00  0.00     0.037 A 
BRANCH  41  55
ATOM     55  C   UNL A   1      43.733  33.023  31.324  1.00  0.00     0.058 A 
ATOM     56  C   UNL A   1      43.501  33.395  32.658  1.00  0.00     0.135 A 
ATOM     57  C   UNL A   1      44.166  34.018  30.433  1.00  0.00     0.135 A 
ATOM     58  F   UNL A   1      43.071  32.488  33.549  1.00  0.00    -0.206 F 
ATOM     59  C   UNL A   1      43.672  34.707  33.087  1.00  0.00     0.059 A 
ATOM     60  C   UNL A   1      44.371  35.332  30.847  1.00  0.00     0.059 A 
ATOM     61  F   UNL A   1      44.401  33.718  29.146  1.00  0.00    -0.206 F 
ATOM     62  C   UNL A   1      44.111  35.669  32.174  1.00  0.00     0.060 A 
BRANCH  62  63
ATOM     63  S   UNL A   1      44.352  37.361  32.754  1.00  0.00     0.124 S 
ATOM     64  O   UNL A   1      44.140  38.123  31.527  1.00  0.00    -0.237 OA
ATOM     65  O   UNL A   1      43.312  37.494  33.769  1.00  0.00    -0.237 OA
ATOM     66  O   UNL A   1      45.721  37.355  33.260  1.00  0.00    -0.744 OA
ENDBRANCH  62  63
ENDBRANCH  41  55
BRANCH  42  67
ATOM     67  C   UNL A   1      42.521  23.741  27.789  1.00  0.00     0.058 A 
ATOM     68  C   UNL A   1      42.445  23.523  26.406  1.00  0.00     0.135 A 
ATOM     69  C   UNL A   1      42.434  22.623  28.633  1.00  0.00     0.135 A 
ATOM     70  F   UNL A   1      42.521  24.561  25.558  1.00  0.00    -0.206 F 
ATOM     71  C   UNL A   1      42.262  22.249  25.878  1.00  0.00     0.059 A 
ATOM     72  C   UNL A   1      42.277  21.336  28.127  1.00  0.00     0.059 A 
ATOM     73  F   UNL A   1      42.520  22.776  29.964  1.00  0.00    -0.206 F 
ATOM     74  C   UNL A   1      42.177  21.161  26.747  1.00  0.00     0.060 A 
BRANCH  74  75
ATOM     75  S   UNL A   1      41.966  19.509  26.050  1.00  0.00     0.124 S 
ATOM     76  O   UNL A   1      42.454  18.668  27.136  1.00  0.00    -0.237 OA
ATOM     77  O   UNL A   1      40.528  19.462  25.802  1.00  0.00    -0.237 OA
ATOM     78  O   UNL A   1      42.800  19.542  24.852  1.00  0.00    -0.744 OA
ENDBRANCH  74  75
ENDBRANCH  42  67
BRANCH  54  79
ATOM     79  C   UNL A   1      47.889  27.176  30.611  1.00  0.00     0.058 A 
ATOM     80  C   UNL A   1      48.930  27.399  29.697  1.00  0.00     0.135 A 
ATOM     81  C   UNL A   1      48.214  26.603  31.851  1.00  0.00     0.135 A 
ATOM     82  F   UNL A   1      48.671  27.937  28.495  1.00  0.00    -0.206 F 
ATOM     83  C   UNL A   1      50.242  27.042  29.992  1.00  0.00     0.059 A 
ATOM     84  C   UNL A   1      49.523  26.265  32.178  1.00  0.00     0.059 A 
ATOM     85  F   UNL A   1      47.257  26.379  32.765  1.00  0.00    -0.206 F 
ATOM     86  C   UNL A   1      50.529  26.477  31.236  1.00  0.00     0.060 A 
BRANCH  86  87
ATOM     87  S   UNL A   1      52.240  26.048  31.618  1.00  0.00     0.124 S 
ATOM     88  O   UNL A   1      52.546  26.987  32.692  1.00  0.00    -0.237 OA
ATOM     89  O   UNL A   1      52.131  24.646  32.013  1.00  0.00    -0.237 OA
ATOM     90  O   UNL A   1      52.939  26.285  30.359  1.00  0.00    -0.744 OA
ENDBRANCH  86  87
ENDBRANCH  54  79
ENDBRANCH  28  29
ENDBRANCH  20  23
ENDBRANCH   1  19
TORSDOF 14
ENDMDL
MODEL 3
REMARK VINA RESULT:     -11.1      2.715      9.313
REMARK SMILES CC(=O)[C@H]1CC(C)=C(C)C[C@@H]1C(=O)NCCCNC(=O)c1ccc(-c2c3nc(c(-c4c(F)cc(S(=O)(=O)[O-])cc4F)c4ccc([nH]4)c(-c4c(F)cc(S(=O)(=O)[O-])cc4F)c4nc(c(-c5c(F)cc(S(=O)(=O)[O-])cc5F)c5ccc2[nH]5)C=C4)C=C3)cc1
REMARK SMILES IDX 17 1 16 2 15 3 14 4 12 5 13 6 11 8 4 9 5 10 6 11 10 12 7 13
REMARK SMILES IDX 8 14 9 15 2 16 1 17 3 18 18 19 19 20 20 22 21 23 22 24 86 25
REMARK SMILES IDX 23 26 85 27 24 28 25 29 26 30 79 31 27 32 84 33 78 34 80 35
REMARK SMILES IDX 28 36 83 37 77 38 76 39 29 41 63 42 42 43 62 44 43 45 46 46
REMARK SMILES IDX 61 47 81 48 44 49 45 50 60 52 82 53 47 54 30 55 31 56 40 57
REMARK SMILES IDX 32 58 33 59 39 60 41 61 34 62 35 63 36 64 37 65 38 66 64 67
REMARK SMILES IDX 65 68 74 69 66 70 67 71 73 72 75 73 68 74 69 75 70 76 71 77
REMARK SMILES IDX 72 78 48 79 49 80 58 81 50 82 51 83 57 84 59 85 52 86 53 87
REMARK SMILES IDX 54 88 55 89 56 90
REMARK H PARENT 14 7 18 21 80 40 46 51
REMARK Flexibility Score: inf
ROOT
ATOM      1  C   UNL A   1      36.780  23.720  25.215  1.00  0.00     0.118 C 
ENDROOT
BRANCH   1   2
ATOM      2  C   UNL A   1      36.253  23.607  23.785  1.00  0.00     0.042 C 
BRANCH   2   3
ATOM      3  C   UNL A   1      34.822  23.081  23.704  1.00  0.00     0.117 C 
BRANCH   3   4
ATOM      4  N   UNL A   1      33.922  24.054  23.110  1.00  0.00    -0.356 N 
ATOM      5  C   UNL A   1      33.122  24.988  23.701  1.00  0.00     0.224 C 
ATOM      6  O   UNL A   1      32.408  25.688  22.984  1.00  0.00    -0.275 OA
ATOM      7  H   UNL A   1      33.881  24.038  22.126  1.00  0.00     0.163 HD
BRANCH   5   8
ATOM      8  C   UNL A   1      33.189  25.183  25.212  1.00  0.00     0.093 C 
ATOM      9  C   UNL A   1      31.775  25.104  25.809  1.00  0.00     0.072 C 
ATOM     10  C   UNL A   1      31.242  26.334  26.552  1.00  0.00     0.043 C 
ATOM     11  C   UNL A   1      32.165  27.502  26.770  1.00  0.00    -0.074 C 
ATOM     12  C   UNL A   1      34.025  26.442  25.474  1.00  0.00     0.045 C 
ATOM     13  C   UNL A   1      31.523  28.628  27.547  1.00  0.00     0.039 C 
ATOM     14  C   UNL A   1      33.421  27.548  26.291  1.00  0.00    -0.074 C 
ATOM     15  C   UNL A   1      34.333  28.734  26.495  1.00  0.00     0.039 C 
BRANCH   9  16
ATOM     16  C   UNL A   1      31.572  23.878  26.709  1.00  0.00     0.134 C 
ATOM     17  C   UNL A   1      32.732  22.961  27.010  1.00  0.00     0.088 C 
ATOM     18  O   UNL A   1      30.470  23.659  27.219  1.00  0.00    -0.300 OA
ENDBRANCH   9  16
ENDBRANCH   5   8
ENDBRANCH   3   4
ENDBRANCH   2   3
ENDBRANCH   1   2
BRANCH   1  19
ATOM     19  N   UNL A   1      37.812  22.729  25.499  1.00  0.00    -0.352 N 
ATOM     20  C   UNL A   1      39.047  22.871  26.072  1.00  0.00     0.251 C 
ATOM     21  H   UNL A   1      37.583  21.809  25.235  1.00  0.00     0.163 HD
ATOM     22  O   UNL A   1      39.852  21.942  25.995  1.00  0.00    -0.269 OA
BRANCH  20  23
ATOM     23  C   UNL A   1      39.419  24.115  26.776  1.00  0.00     0.039 A 
ATOM     24  C   UNL A   1      38.979  24.304  28.090  1.00  0.00     0.014 A 
ATOM     25  C   UNL A   1      40.151  25.116  26.133  1.00  0.00     0.014 A 
ATOM     26  C   UNL A   1      39.322  25.472  28.775  1.00  0.00     0.010 A 
ATOM     27  C   UNL A   1      40.552  26.247  26.840  1.00  0.00     0.010 A 
ATOM     28  C   UNL A   1      40.137  26.440  28.165  1.00  0.00    -0.014 A 
BRANCH  28  29
ATOM     29  C   UNL A   1      40.569  27.655  28.901  1.00  0.00     0.031 A 
ATOM     30  C   UNL A   1      41.920  27.701  29.561  1.00  0.00     0.074 A 
ATOM     31  C   UNL A   1      39.713  28.689  29.025  1.00  0.00     0.049 A 
ATOM     32  N   UNL A   1      42.446  28.648  30.297  1.00  0.00    -0.248 NA
ATOM     33  C   UNL A   1      42.785  26.521  29.398  1.00  0.00     0.031 C 
ATOM     34  C   UNL A   1      38.359  28.739  28.467  1.00  0.00     0.029 A 
ATOM     35  N   UNL A   1      39.850  29.894  29.667  1.00  0.00    -0.354 N 
ATOM     36  C   UNL A   1      43.688  28.169  30.699  1.00  0.00     0.074 A 
ATOM     37  C   UNL A   1      43.821  26.833  30.162  1.00  0.00     0.031 C 
ATOM     38  C   UNL A   1      37.802  29.922  28.770  1.00  0.00     0.029 A 
ATOM     39  C   UNL A   1      38.739  30.699  29.574  1.00  0.00     0.049 A 
ATOM     40  H   UNL A   1      40.667  30.158  30.149  1.00  0.00     0.167 HD
ATOM     41  C   UNL A   1      44.636  28.796  31.436  1.00  0.00     0.037 A 
ATOM     42  C   UNL A   1      38.500  31.921  30.087  1.00  0.00     0.037 A 
ATOM     43  C   UNL A   1      44.509  30.141  31.935  1.00  0.00     0.049 A 
ATOM     44  C   UNL A   1      39.574  32.595  30.897  1.00  0.00     0.074 A 
ATOM     45  C   UNL A   1      45.445  30.896  32.620  1.00  0.00     0.029 A 
ATOM     46  N   UNL A   1      43.375  30.930  31.807  1.00  0.00    -0.354 N 
ATOM     47  N   UNL A   1      40.774  32.160  31.201  1.00  0.00    -0.248 NA
ATOM     48  C   UNL A   1      39.265  33.929  31.431  1.00  0.00     0.031 C 
ATOM     49  C   UNL A   1      44.861  32.124  32.948  1.00  0.00     0.029 A 
ATOM     50  C   UNL A   1      43.579  32.155  32.424  1.00  0.00     0.049 A 
ATOM     51  H   UNL A   1      42.548  30.660  31.346  1.00  0.00     0.167 HD
ATOM     52  C   UNL A   1      41.374  33.179  31.933  1.00  0.00     0.074 A 
ATOM     53  C   UNL A   1      40.408  34.256  32.017  1.00  0.00     0.031 C 
ATOM     54  C   UNL A   1      42.610  33.220  32.486  1.00  0.00     0.037 A 
BRANCH  41  55
ATOM     55  C   UNL A   1      45.900  28.042  31.749  1.00  0.00     0.058 A 
ATOM     56  C   UNL A   1      45.962  27.102  32.790  1.00  0.00     0.135 A 
ATOM     57  C   UNL A   1      47.047  28.220  30.959  1.00  0.00     0.135 A 
ATOM     58  F   UNL A   1      44.900  26.903  33.586  1.00  0.00    -0.206 F 
ATOM     59  C   UNL A   1      47.123  26.381  33.050  1.00  0.00     0.059 A 
ATOM     60  C   UNL A   1      48.211  27.489  31.184  1.00  0.00     0.059 A 
ATOM     61  F   UNL A   1      47.043  29.107  29.951  1.00  0.00    -0.206 F 
ATOM     62  C   UNL A   1      48.242  26.579  32.239  1.00  0.00     0.060 A 
BRANCH  62  63
ATOM     63  S   UNL A   1      49.731  25.617  32.576  1.00  0.00     0.124 S 
ATOM     64  O   UNL A   1      49.872  24.855  31.338  1.00  0.00    -0.237 OA
ATOM     65  O   UNL A   1      50.732  26.656  32.796  1.00  0.00    -0.237 OA
ATOM     66  O   UNL A   1      49.373  24.836  33.755  1.00  0.00    -0.744 OA
ENDBRANCH  62  63
ENDBRANCH  41  55
BRANCH  42  67
ATOM     67  C   UNL A   1      37.202  32.601  29.832  1.00  0.00     0.058 A 
ATOM     68  C   UNL A   1      37.094  33.597  28.850  1.00  0.00     0.135 A 
ATOM     69  C   UNL A   1      36.050  32.278  30.565  1.00  0.00     0.135 A 
ATOM     70  F   UNL A   1      38.169  33.943  28.125  1.00  0.00    -0.206 F 
ATOM     71  C   UNL A   1      35.897  34.268  28.621  1.00  0.00     0.059 A 
ATOM     72  C   UNL A   1      34.834  32.917  30.336  1.00  0.00     0.059 A 
ATOM     73  F   UNL A   1      36.095  31.319  31.503  1.00  0.00    -0.206 F 
ATOM     74  C   UNL A   1      34.772  33.921  29.371  1.00  0.00     0.060 A 
BRANCH  74  75
ATOM     75  S   UNL A   1      33.218  34.781  29.047  1.00  0.00     0.124 S 
ATOM     76  O   UNL A   1      32.609  33.917  28.042  1.00  0.00    -0.237 OA
ATOM     77  O   UNL A   1      32.585  34.776  30.362  1.00  0.00    -0.237 OA
ATOM     78  O   UNL A   1      33.652  36.092  28.574  1.00  0.00    -0.744 OA
ENDBRANCH  74  75
ENDBRANCH  42  67
BRANCH  54  79
ATOM     79  C   UNL A   1      43.009  34.486  33.195  1.00  0.00     0.058 A 
ATOM     80  C   UNL A   1      42.851  34.637  34.581  1.00  0.00     0.135 A 
ATOM     81  C   UNL A   1      43.598  35.542  32.481  1.00  0.00     0.135 A 
ATOM     82  F   UNL A   1      42.287  33.660  35.307  1.00  0.00    -0.206 F 
ATOM     83  C   UNL A   1      43.240  35.804  35.231  1.00  0.00     0.059 A 
ATOM     84  C   UNL A   1      44.021  36.705  33.115  1.00  0.00     0.059 A 
ATOM     85  F   UNL A   1      43.781  35.443  31.154  1.00  0.00    -0.206 F 
ATOM     86  C   UNL A   1      43.826  36.831  34.490  1.00  0.00     0.060 A 
BRANCH  86  87
ATOM     87  S   UNL A   1      44.355  38.327  35.351  1.00  0.00     0.124 S 
ATOM     88  O   UNL A   1      43.664  39.363  34.591  1.00  0.00    -0.237 OA
ATOM     89  O   UNL A   1      43.864  38.099  36.706  1.00  0.00    -0.237 OA
ATOM     90  O   UNL A   1      45.808  38.306  35.205  1.00  0.00    -0.744 OA
ENDBRANCH  86  87
ENDBRANCH  54  79
ENDBRANCH  28  29
ENDBRANCH  20  23
ENDBRANCH   1  19
TORSDOF 14
ENDMDL
