MODEL 1
REMARK VINA RESULT:     -12.7      0.000      0.000
REMARK SMILES CC(C)c1nc(N2C[C@H](C)OC(C)(C)C2)sc1C(=O)NCCCNC(=O)c1ccc(-c2c3nc(c(-c4c(F)cc(S(=O)(=O)[O-])cc4F)c4ccc([nH]4)c(-c4c(F)cc(S(=O)(=O)[O-])cc4F)c4nc(c(-c5c(F)cc(S(=O)(=O)[O-])cc5F)c5ccc2[nH]5)C=C4)C=C3)cc1
REMARK SMILES IDX 23 1 22 2 21 3 20 4 18 5 19 6 17 8 4 9 5 10 6 11 16 12 2 13
REMARK SMILES IDX 1 14 3 15 7 16 8 17 15 18 9 19 12 20 11 21 10 22 13 23 14 24
REMARK SMILES IDX 24 25 25 26 26 28 27 29 28 30 92 31 29 32 91 33 30 34 31 35
REMARK SMILES IDX 32 36 85 37 33 38 90 39 84 40 86 41 34 42 89 43 83 44 82 45
REMARK SMILES IDX 35 47 69 48 48 49 68 50 49 51 52 52 67 53 87 54 50 55 51 56
REMARK SMILES IDX 66 58 88 59 53 60 36 61 37 62 46 63 38 64 39 65 45 66 47 67
REMARK SMILES IDX 40 68 41 69 42 70 43 71 44 72 70 73 71 74 80 75 72 76 73 77
REMARK SMILES IDX 79 78 81 79 74 80 75 81 76 82 77 83 78 84 54 85 55 86 64 87
REMARK SMILES IDX 56 88 57 89 63 90 65 91 58 92 59 93 60 94 61 95 62 96
REMARK H PARENT 20 7 24 27 86 46 52 57
REMARK Flexibility Score: inf
ROOT
ATOM      1  C   UNL A   1      38.453  23.923  26.592  1.00  0.00     0.118 C 
ENDROOT
BRANCH   1   2
ATOM      2  C   UNL A   1      37.542  23.529  25.441  1.00  0.00     0.042 C 
BRANCH   2   3
ATOM      3  C   UNL A   1      37.100  22.070  25.484  1.00  0.00     0.118 C 
BRANCH   3   4
ATOM      4  N   UNL A   1      36.075  21.854  26.472  1.00  0.00    -0.351 N 
ATOM      5  C   UNL A   1      34.731  22.099  26.571  1.00  0.00     0.263 C 
ATOM      6  O   UNL A   1      34.305  21.697  27.666  1.00  0.00    -0.268 OA
ATOM      7  H   UNL A   1      36.430  21.419  27.281  1.00  0.00     0.163 HD
BRANCH   5   8
ATOM      8  C   UNL A   1      33.839  22.701  25.571  1.00  0.00     0.117 A 
ATOM      9  C   UNL A   1      33.037  22.373  24.471  1.00  0.00     0.069 A 
ATOM     10  N   UNL A   1      32.331  23.449  23.921  1.00  0.00    -0.224 NA
ATOM     11  C   UNL A   1      32.728  24.598  24.391  1.00  0.00     0.186 A 
ATOM     12  S   UNL A   1      33.794  24.458  25.710  1.00  0.00    -0.091 S 
BRANCH   9  13
ATOM     13  C   UNL A   1      32.798  21.118  23.668  1.00  0.00     0.034 C 
ATOM     14  C   UNL A   1      32.451  19.915  24.538  1.00  0.00     0.014 C 
ATOM     15  C   UNL A   1      31.963  21.334  22.404  1.00  0.00     0.014 C 
ENDBRANCH   9  13
BRANCH  11  16
ATOM     16  N   UNL A   1      32.302  25.793  23.914  1.00  0.00    -0.343 N 
ATOM     17  C   UNL A   1      30.977  25.938  23.312  1.00  0.00     0.150 C 
ATOM     18  C   UNL A   1      32.905  27.031  24.406  1.00  0.00     0.153 C 
ATOM     19  C   UNL A   1      30.052  26.715  24.272  1.00  0.00     0.135 C 
ATOM     20  C   UNL A   1      31.919  27.876  25.258  1.00  0.00     0.081 C 
ATOM     21  O   UNL A   1      30.625  27.989  24.621  1.00  0.00    -0.369 OA
ATOM     22  C   UNL A   1      28.699  26.989  23.627  1.00  0.00     0.040 C 
ATOM     23  C   UNL A   1      31.769  27.338  26.688  1.00  0.00     0.044 C 
ATOM     24  C   UNL A   1      32.459  29.312  25.340  1.00  0.00     0.044 C 
ENDBRANCH  11  16
ENDBRANCH   5   8
ENDBRANCH   3   4
ENDBRANCH   2   3
ENDBRANCH   1   2
BRANCH   1  25
ATOM     25  N   UNL A   1      39.855  23.917  26.199  1.00  0.00    -0.352 N 
ATOM     26  C   UNL A   1      40.884  24.779  26.500  1.00  0.00     0.251 C 
ATOM     27  H   UNL A   1      40.110  23.167  25.616  1.00  0.00     0.163 HD
ATOM     28  O   UNL A   1      41.919  24.703  25.839  1.00  0.00    -0.269 OA
BRANCH  26  29
ATOM     29  C   UNL A   1      40.775  25.793  27.579  1.00  0.00     0.039 A 
ATOM     30  C   UNL A   1      41.719  26.825  27.635  1.00  0.00     0.014 A 
ATOM     31  C   UNL A   1      39.806  25.708  28.579  1.00  0.00     0.014 A 
ATOM     32  C   UNL A   1      41.658  27.785  28.653  1.00  0.00     0.010 A 
ATOM     33  C   UNL A   1      39.678  26.722  29.526  1.00  0.00     0.010 A 
ATOM     34  C   UNL A   1      40.615  27.762  29.591  1.00  0.00    -0.014 A 
BRANCH  34  35
ATOM     35  C   UNL A   1      40.506  28.777  30.675  1.00  0.00     0.031 A 
ATOM     36  C   UNL A   1      41.393  28.676  31.892  1.00  0.00     0.074 A 
ATOM     37  C   UNL A   1      39.569  29.743  30.605  1.00  0.00     0.049 A 
ATOM     38  N   UNL A   1      41.369  29.379  32.997  1.00  0.00    -0.248 NA
ATOM     39  C   UNL A   1      42.422  27.622  31.882  1.00  0.00     0.031 C 
ATOM     40  C   UNL A   1      38.618  29.924  29.507  1.00  0.00     0.029 A 
ATOM     41  N   UNL A   1      39.251  30.748  31.485  1.00  0.00    -0.354 N 
ATOM     42  C   UNL A   1      42.347  28.831  33.819  1.00  0.00     0.074 A 
ATOM     43  C   UNL A   1      42.912  27.705  33.109  1.00  0.00     0.031 C 
ATOM     44  C   UNL A   1      37.843  30.990  29.765  1.00  0.00     0.029 A 
ATOM     45  C   UNL A   1      38.211  31.544  31.065  1.00  0.00     0.049 A 
ATOM     46  H   UNL A   1      39.724  30.887  32.337  1.00  0.00     0.167 HD
ATOM     47  C   UNL A   1      42.758  29.241  35.043  1.00  0.00     0.037 A 
ATOM     48  C   UNL A   1      37.613  32.594  31.661  1.00  0.00     0.037 A 
ATOM     49  C   UNL A   1      42.232  30.396  35.723  1.00  0.00     0.049 A 
ATOM     50  C   UNL A   1      38.105  33.050  33.008  1.00  0.00     0.074 A 
ATOM     51  C   UNL A   1      42.625  30.935  36.935  1.00  0.00     0.029 A 
ATOM     52  N   UNL A   1      41.205  31.196  35.244  1.00  0.00    -0.354 N 
ATOM     53  N   UNL A   1      39.061  32.544  33.750  1.00  0.00    -0.248 NA
ATOM     54  C   UNL A   1      37.441  34.222  33.597  1.00  0.00     0.031 C 
ATOM     55  C   UNL A   1      41.815  32.043  37.204  1.00  0.00     0.029 A 
ATOM     56  C   UNL A   1      40.945  32.219  36.139  1.00  0.00     0.049 A 
ATOM     57  H   UNL A   1      40.732  31.057  34.391  1.00  0.00     0.167 HD
ATOM     58  C   UNL A   1      39.131  33.351  34.880  1.00  0.00     0.074 A 
ATOM     59  C   UNL A   1      38.129  34.385  34.719  1.00  0.00     0.031 C 
ATOM     60  C   UNL A   1      39.951  33.247  35.955  1.00  0.00     0.037 A 
BRANCH  47  61
ATOM     61  C   UNL A   1      43.841  28.445  35.721  1.00  0.00     0.058 A 
ATOM     62  C   UNL A   1      45.202  28.709  35.496  1.00  0.00     0.135 A 
ATOM     63  C   UNL A   1      43.517  27.424  36.630  1.00  0.00     0.135 A 
ATOM     64  F   UNL A   1      45.571  29.664  34.626  1.00  0.00    -0.206 F 
ATOM     65  C   UNL A   1      46.201  27.968  36.119  1.00  0.00     0.059 A 
ATOM     66  C   UNL A   1      44.500  26.690  37.287  1.00  0.00     0.059 A 
ATOM     67  F   UNL A   1      42.233  27.129  36.885  1.00  0.00    -0.206 F 
ATOM     68  C   UNL A   1      45.840  26.959  37.012  1.00  0.00     0.060 A 
BRANCH  68  69
ATOM     69  S   UNL A   1      47.150  26.008  37.812  1.00  0.00     0.124 S 
ATOM     70  O   UNL A   1      46.449  24.772  38.146  1.00  0.00    -0.237 OA
ATOM     71  O   UNL A   1      48.150  25.902  36.755  1.00  0.00    -0.237 OA
ATOM     72  O   UNL A   1      47.529  26.842  38.949  1.00  0.00    -0.744 OA
ENDBRANCH  68  69
ENDBRANCH  47  61
BRANCH  48  73
ATOM     73  C   UNL A   1      36.504  33.307  30.973  1.00  0.00     0.058 A 
ATOM     74  C   UNL A   1      35.193  33.245  31.470  1.00  0.00     0.135 A 
ATOM     75  C   UNL A   1      36.731  34.076  29.821  1.00  0.00     0.135 A 
ATOM     76  F   UNL A   1      34.926  32.518  32.565  1.00  0.00    -0.206 F 
ATOM     77  C   UNL A   1      34.143  33.907  30.842  1.00  0.00     0.059 A 
ATOM     78  C   UNL A   1      35.701  34.767  29.190  1.00  0.00     0.059 A 
ATOM     79  F   UNL A   1      37.969  34.182  29.316  1.00  0.00    -0.206 F 
ATOM     80  C   UNL A   1      34.408  34.668  29.702  1.00  0.00     0.060 A 
BRANCH  80  81
ATOM     81  S   UNL A   1      33.047  35.566  28.926  1.00  0.00     0.124 S 
ATOM     82  O   UNL A   1      32.420  34.519  28.129  1.00  0.00    -0.237 OA
ATOM     83  O   UNL A   1      32.287  36.031  30.082  1.00  0.00    -0.237 OA
ATOM     84  O   UNL A   1      33.726  36.614  28.170  1.00  0.00    -0.744 OA
ENDBRANCH  80  81
ENDBRANCH  48  73
BRANCH  60  85
ATOM     85  C   UNL A   1      39.828  34.295  37.024  1.00  0.00     0.058 A 
ATOM     86  C   UNL A   1      40.459  35.543  36.908  1.00  0.00     0.135 A 
ATOM     87  C   UNL A   1      39.022  34.069  38.151  1.00  0.00     0.135 A 
ATOM     88  F   UNL A   1      41.247  35.807  35.853  1.00  0.00    -0.206 F 
ATOM     89  C   UNL A   1      40.313  36.523  37.884  1.00  0.00     0.059 A 
ATOM     90  C   UNL A   1      38.840  35.043  39.127  1.00  0.00     0.059 A 
ATOM     91  F   UNL A   1      38.386  32.895  38.303  1.00  0.00    -0.206 F 
ATOM     92  C   UNL A   1      39.499  36.263  38.990  1.00  0.00     0.060 A 
BRANCH  92  93
ATOM     93  S   UNL A   1      39.287  37.557  40.231  1.00  0.00     0.124 S 
ATOM     94  O   UNL A   1      38.811  36.788  41.378  1.00  0.00    -0.237 OA
ATOM     95  O   UNL A   1      40.634  38.103  40.348  1.00  0.00    -0.237 OA
ATOM     96  O   UNL A   1      38.305  38.452  39.625  1.00  0.00    -0.744 OA
ENDBRANCH  92  93
ENDBRANCH  60  85
ENDBRANCH  34  35
ENDBRANCH  26  29
ENDBRANCH   1  25
TORSDOF 15
ENDMDL
MODEL 2
REMARK VINA RESULT:     -12.5      6.596     12.221
REMARK SMILES CC(C)c1nc(N2C[C@H](C)OC(C)(C)C2)sc1C(=O)NCCCNC(=O)c1ccc(-c2c3nc(c(-c4c(F)cc(S(=O)(=O)[O-])cc4F)c4ccc([nH]4)c(-c4c(F)cc(S(=O)(=O)[O-])cc4F)c4nc(c(-c5c(F)cc(S(=O)(=O)[O-])cc5F)c5ccc2[nH]5)C=C4)C=C3)cc1
REMARK SMILES IDX 23 1 22 2 21 3 20 4 18 5 19 6 17 8 4 9 5 10 6 11 16 12 2 13
REMARK SMILES IDX 1 14 3 15 7 16 8 17 15 18 9 19 12 20 11 21 10 22 13 23 14 24
REMARK SMILES IDX 24 25 25 26 26 28 27 29 28 30 92 31 29 32 91 33 30 34 31 35
REMARK SMILES IDX 32 36 85 37 33 38 90 39 84 40 86 41 34 42 89 43 83 44 82 45
REMARK SMILES IDX 35 47 69 48 48 49 68 50 49 51 52 52 67 53 87 54 50 55 51 56
REMARK SMILES IDX 66 58 88 59 53 60 36 61 37 62 46 63 38 64 39 65 45 66 47 67
REMARK SMILES IDX 40 68 41 69 42 70 43 71 44 72 70 73 71 74 80 75 72 76 73 77
REMARK SMILES IDX 79 78 81 79 74 80 75 81 76 82 77 83 78 84 54 85 55 86 64 87
REMARK SMILES IDX 56 88 57 89 63 90 65 91 58 92 59 93 60 94 61 95 62 96
REMARK H PARENT 20 7 24 27 86 46 52 57
REMARK Flexibility Score: inf
ROOT
ATOM      1  C   UNL A   1      35.082  29.492  27.528  1.00  0.00     0.118 C 
ENDROOT
BRANCH   1   2
ATOM      2  C   UNL A   1      33.650  29.079  27.232  1.00  0.00     0.042 C 
BRANCH   2   3
ATOM      3  C   UNL A   1      32.943  29.998  26.241  1.00  0.00     0.118 C 
BRANCH   3   4
ATOM      4  N   UNL A   1      33.414  29.793  24.896  1.00  0.00    -0.351 N 
ATOM      5  C   UNL A   1      33.321  28.800  23.957  1.00  0.00     0.263 C 
ATOM      6  O   UNL A   1      33.918  29.137  22.921  1.00  0.00    -0.268 OA
ATOM      7  H   UNL A   1      33.933  30.562  24.567  1.00  0.00     0.163 HD
BRANCH   5   8
ATOM      8  C   UNL A   1      32.610  27.518  24.055  1.00  0.00     0.117 A 
ATOM      9  C   UNL A   1      31.329  26.959  23.964  1.00  0.00     0.069 A 
ATOM     10  N   UNL A   1      31.288  25.568  24.107  1.00  0.00    -0.224 NA
ATOM     11  C   UNL A   1      32.420  25.075  24.526  1.00  0.00     0.186 A 
ATOM     12  S   UNL A   1      33.689  26.208  24.533  1.00  0.00    -0.091 S 
BRANCH   9  13
ATOM     13  C   UNL A   1      29.936  27.517  23.818  1.00  0.00     0.034 C 
ATOM     14  C   UNL A   1      29.834  28.583  22.731  1.00  0.00     0.014 C 
ATOM     15  C   UNL A   1      28.830  26.461  23.870  1.00  0.00     0.014 C 
ENDBRANCH   9  13
BRANCH  11  16
ATOM     16  N   UNL A   1      32.590  23.778  24.877  1.00  0.00    -0.343 N 
ATOM     17  C   UNL A   1      31.843  22.709  24.214  1.00  0.00     0.150 C 
ATOM     18  C   UNL A   1      33.825  23.359  25.541  1.00  0.00     0.153 C 
ATOM     19  C   UNL A   1      32.785  21.916  23.284  1.00  0.00     0.135 C 
ATOM     20  C   UNL A   1      34.702  22.443  24.645  1.00  0.00     0.081 C 
ATOM     21  O   UNL A   1      33.917  21.406  24.012  1.00  0.00    -0.369 OA
ATOM     22  C   UNL A   1      32.068  20.721  22.669  1.00  0.00     0.040 C 
ATOM     23  C   UNL A   1      35.494  23.235  23.594  1.00  0.00     0.044 C 
ATOM     24  C   UNL A   1      35.705  21.704  25.544  1.00  0.00     0.044 C 
ENDBRANCH  11  16
ENDBRANCH   5   8
ENDBRANCH   3   4
ENDBRANCH   2   3
ENDBRANCH   1   2
BRANCH   1  25
ATOM     25  N   UNL A   1      35.184  30.240  28.774  1.00  0.00    -0.352 N 
ATOM     26  C   UNL A   1      36.219  30.373  29.669  1.00  0.00     0.251 C 
ATOM     27  H   UNL A   1      34.369  30.735  29.017  1.00  0.00     0.163 HD
ATOM     28  O   UNL A   1      35.975  30.852  30.775  1.00  0.00    -0.269 OA
BRANCH  26  29
ATOM     29  C   UNL A   1      37.604  29.947  29.343  1.00  0.00     0.039 A 
ATOM     30  C   UNL A   1      38.460  29.575  30.387  1.00  0.00     0.014 A 
ATOM     31  C   UNL A   1      38.101  29.979  28.040  1.00  0.00     0.014 A 
ATOM     32  C   UNL A   1      39.779  29.190  30.116  1.00  0.00     0.010 A 
ATOM     33  C   UNL A   1      39.376  29.492  27.759  1.00  0.00     0.010 A 
ATOM     34  C   UNL A   1      40.241  29.113  28.794  1.00  0.00    -0.014 A 
BRANCH  34  35
ATOM     35  C   UNL A   1      41.630  28.689  28.467  1.00  0.00     0.031 A 
ATOM     36  C   UNL A   1      42.741  29.711  28.434  1.00  0.00     0.074 A 
ATOM     37  C   UNL A   1      41.886  27.409  28.131  1.00  0.00     0.049 A 
ATOM     38  N   UNL A   1      43.985  29.572  28.050  1.00  0.00    -0.248 NA
ATOM     39  C   UNL A   1      42.398  31.081  28.853  1.00  0.00     0.031 C 
ATOM     40  C   UNL A   1      40.895  26.333  28.078  1.00  0.00     0.029 A 
ATOM     41  N   UNL A   1      43.056  26.798  27.755  1.00  0.00    -0.354 N 
ATOM     42  C   UNL A   1      44.558  30.836  28.148  1.00  0.00     0.074 A 
ATOM     43  C   UNL A   1      43.514  31.739  28.577  1.00  0.00     0.031 C 
ATOM     44  C   UNL A   1      41.503  25.190  27.720  1.00  0.00     0.029 A 
ATOM     45  C   UNL A   1      42.917  25.458  27.474  1.00  0.00     0.049 A 
ATOM     46  H   UNL A   1      43.915  27.274  27.691  1.00  0.00     0.167 HD
ATOM     47  C   UNL A   1      45.842  31.207  27.928  1.00  0.00     0.037 A 
ATOM     48  C   UNL A   1      43.821  24.550  27.058  1.00  0.00     0.037 A 
ATOM     49  C   UNL A   1      46.891  30.295  27.556  1.00  0.00     0.049 A 
ATOM     50  C   UNL A   1      45.248  24.980  26.847  1.00  0.00     0.074 A 
ATOM     51  C   UNL A   1      48.237  30.558  27.373  1.00  0.00     0.029 A 
ATOM     52  N   UNL A   1      46.713  28.939  27.320  1.00  0.00    -0.354 N 
ATOM     53  N   UNL A   1      45.779  26.171  26.986  1.00  0.00    -0.248 NA
ATOM     54  C   UNL A   1      46.199  23.942  26.426  1.00  0.00     0.031 C 
ATOM     55  C   UNL A   1      48.868  29.368  26.996  1.00  0.00     0.029 A 
ATOM     56  C   UNL A   1      47.922  28.354  26.985  1.00  0.00     0.049 A 
ATOM     57  H   UNL A   1      45.853  28.463  27.383  1.00  0.00     0.167 HD
ATOM     58  C   UNL A   1      47.130  26.021  26.697  1.00  0.00     0.074 A 
ATOM     59  C   UNL A   1      47.337  24.621  26.386  1.00  0.00     0.031 C 
ATOM     60  C   UNL A   1      48.111  26.956  26.690  1.00  0.00     0.037 A 
BRANCH  47  61
ATOM     61  C   UNL A   1      46.188  32.662  28.099  1.00  0.00     0.058 A 
ATOM     62  C   UNL A   1      46.690  33.164  29.310  1.00  0.00     0.135 A 
ATOM     63  C   UNL A   1      46.045  33.562  27.030  1.00  0.00     0.135 A 
ATOM     64  F   UNL A   1      46.834  32.353  30.371  1.00  0.00    -0.206 F 
ATOM     65  C   UNL A   1      47.004  34.511  29.468  1.00  0.00     0.059 A 
ATOM     66  C   UNL A   1      46.381  34.907  27.155  1.00  0.00     0.059 A 
ATOM     67  F   UNL A   1      45.571  33.138  25.848  1.00  0.00    -0.206 F 
ATOM     68  C   UNL A   1      46.844  35.375  28.384  1.00  0.00     0.060 A 
BRANCH  68  69
ATOM     69  S   UNL A   1      47.256  37.119  28.606  1.00  0.00     0.124 S 
ATOM     70  O   UNL A   1      46.172  37.769  27.876  1.00  0.00    -0.237 OA
ATOM     71  O   UNL A   1      47.221  37.267  30.057  1.00  0.00    -0.237 OA
ATOM     72  O   UNL A   1      48.579  37.235  27.999  1.00  0.00    -0.744 OA
ENDBRANCH  68  69
ENDBRANCH  47  61
BRANCH  48  73
ATOM     73  C   UNL A   1      43.411  23.137  26.844  1.00  0.00     0.058 A 
ATOM     74  C   UNL A   1      43.301  22.609  25.548  1.00  0.00     0.135 A 
ATOM     75  C   UNL A   1      43.138  22.283  27.923  1.00  0.00     0.135 A 
ATOM     76  F   UNL A   1      43.546  23.389  24.485  1.00  0.00    -0.206 F 
ATOM     77  C   UNL A   1      42.922  21.290  25.328  1.00  0.00     0.059 A 
ATOM     78  C   UNL A   1      42.780  20.952  27.729  1.00  0.00     0.059 A 
ATOM     79  F   UNL A   1      43.245  22.733  29.182  1.00  0.00    -0.206 F 
ATOM     80  C   UNL A   1      42.665  20.467  26.426  1.00  0.00     0.060 A 
BRANCH  80  81
ATOM     81  S   UNL A   1      42.224  18.741  26.130  1.00  0.00     0.124 S 
ATOM     82  O   UNL A   1      40.830  18.860  25.721  1.00  0.00    -0.237 OA
ATOM     83  O   UNL A   1      43.167  18.358  25.084  1.00  0.00    -0.237 OA
ATOM     84  O   UNL A   1      42.451  18.111  27.428  1.00  0.00    -0.744 OA
ENDBRANCH  80  81
ENDBRANCH  48  73
BRANCH  60  85
ATOM     85  C   UNL A   1      49.505  26.495  26.372  1.00  0.00     0.058 A 
ATOM     86  C   UNL A   1      50.042  26.609  25.080  1.00  0.00     0.135 A 
ATOM     87  C   UNL A   1      50.333  25.984  27.384  1.00  0.00     0.135 A 
ATOM     88  F   UNL A   1      49.289  27.084  24.075  1.00  0.00    -0.206 F 
ATOM     89  C   UNL A   1      51.345  26.212  24.799  1.00  0.00     0.059 A 
ATOM     90  C   UNL A   1      51.647  25.605  27.131  1.00  0.00     0.059 A 
ATOM     91  F   UNL A   1      49.870  25.865  28.640  1.00  0.00    -0.206 F 
ATOM     92  C   UNL A   1      52.140  25.712  25.832  1.00  0.00     0.060 A 
BRANCH  92  93
ATOM     93  S   UNL A   1      53.842  25.236  25.462  1.00  0.00     0.124 S 
ATOM     94  O   UNL A   1      53.754  23.779  25.503  1.00  0.00    -0.237 OA
ATOM     95  O   UNL A   1      54.052  25.822  24.143  1.00  0.00    -0.237 OA
ATOM     96  O   UNL A   1      54.609  25.849  26.543  1.00  0.00    -0.744 OA
ENDBRANCH  92  93
ENDBRANCH  60  85
ENDBRANCH  34  35
ENDBRANCH  26  29
ENDBRANCH   1  25
TORSDOF 15
ENDMDL
MODEL 3
REMARK VINA RESULT:     -12.5      4.493      7.141
REMARK SMILES CC(C)c1nc(N2C[C@H](C)OC(C)(C)C2)sc1C(=O)NCCCNC(=O)c1ccc(-c2c3nc(c(-c4c(F)cc(S(=O)(=O)[O-])cc4F)c4ccc([nH]4)c(-c4c(F)cc(S(=O)(=O)[O-])cc4F)c4nc(c(-c5c(F)cc(S(=O)(=O)[O-])cc5F)c5ccc2[nH]5)C=C4)C=C3)cc1
REMARK SMILES IDX 23 1 22 2 21 3 20 4 18 5 19 6 17 8 4 9 5 10 6 11 16 12 2 13
REMARK SMILES IDX 1 14 3 15 7 16 8 17 15 18 9 19 12 20 11 21 10 22 13 23 14 24
REMARK SMILES IDX 24 25 25 26 26 28 27 29 28 30 92 31 29 32 91 33 30 34 31 35
REMARK SMILES IDX 32 36 85 37 33 38 90 39 84 40 86 41 34 42 89 43 83 44 82 45
REMARK SMILES IDX 35 47 69 48 48 49 68 50 49 51 52 52 67 53 87 54 50 55 51 56
REMARK SMILES IDX 66 58 88 59 53 60 36 61 37 62 46 63 38 64 39 65 45 66 47 67
REMARK SMILES IDX 40 68 41 69 42 70 43 71 44 72 70 73 71 74 80 75 72 76 73 77
REMARK SMILES IDX 79 78 81 79 74 80 75 81 76 82 77 83 78 84 54 85 55 86 64 87
REMARK SMILES IDX 56 88 57 89 63 90 65 91 58 92 59 93 60 94 61 95 62 96
REMARK H PARENT 20 7 24 27 86 46 52 57
REMARK Flexibility Score: inf
ROOT
ATOM      1  C   UNL A   1      40.694  21.747  26.226  1.00  0.00     0.118 C 
ENDROOT
BRANCH   1   2
ATOM      2  C   UNL A   1      40.789  20.267  26.559  1.00  0.00     0.042 C 
BRANCH   2   3
ATOM      3  C   UNL A   1      42.162  19.844  27.068  1.00  0.00     0.118 C 
BRANCH   3   4
ATOM      4  N   UNL A   1      43.159  19.909  26.031  1.00  0.00    -0.351 N 
ATOM      5  C   UNL A   1      44.024  20.856  25.551  1.00  0.00     0.263 C 
ATOM      6  O   UNL A   1      44.697  20.385  24.620  1.00  0.00    -0.268 OA
ATOM      7  H   UNL A   1      43.239  19.058  25.544  1.00  0.00     0.163 HD
BRANCH   5   8
ATOM      8  C   UNL A   1      44.226  22.231  26.029  1.00  0.00     0.117 A 
ATOM      9  C   UNL A   1      44.111  23.026  27.176  1.00  0.00     0.069 A 
ATOM     10  N   UNL A   1      44.538  24.350  27.014  1.00  0.00    -0.224 NA
ATOM     11  C   UNL A   1      44.748  24.657  25.765  1.00  0.00     0.186 A 
ATOM     12  S   UNL A   1      44.698  23.314  24.721  1.00  0.00    -0.091 S 
BRANCH   9  13
ATOM     13  C   UNL A   1      43.557  22.816  28.563  1.00  0.00     0.034 C 
ATOM     14  C   UNL A   1      44.527  23.242  29.660  1.00  0.00     0.014 C 
ATOM     15  C   UNL A   1      42.092  23.231  28.721  1.00  0.00     0.014 C 
ENDBRANCH   9  13
BRANCH  11  16
ATOM     16  N   UNL A   1      45.026  25.911  25.336  1.00  0.00    -0.343 N 
ATOM     17  C   UNL A   1      44.126  27.027  25.625  1.00  0.00     0.150 C 
ATOM     18  C   UNL A   1      46.405  26.285  25.023  1.00  0.00     0.153 C 
ATOM     19  C   UNL A   1      44.757  27.941  26.696  1.00  0.00     0.135 C 
ATOM     20  C   UNL A   1      46.986  27.315  26.029  1.00  0.00     0.081 C 
ATOM     21  O   UNL A   1      46.059  28.396  26.282  1.00  0.00    -0.369 OA
ATOM     22  C   UNL A   1      43.901  29.178  26.935  1.00  0.00     0.040 C 
ATOM     23  C   UNL A   1      47.425  26.664  27.348  1.00  0.00     0.044 C 
ATOM     24  C   UNL A   1      48.217  27.976  25.388  1.00  0.00     0.044 C 
ENDBRANCH  11  16
ENDBRANCH   5   8
ENDBRANCH   3   4
ENDBRANCH   2   3
ENDBRANCH   1   2
BRANCH   1  25
ATOM     25  N   UNL A   1      39.374  22.107  25.729  1.00  0.00    -0.352 N 
ATOM     26  C   UNL A   1      38.552  23.170  26.025  1.00  0.00     0.251 C 
ATOM     27  H   UNL A   1      39.005  21.481  25.066  1.00  0.00     0.163 HD
ATOM     28  O   UNL A   1      37.377  23.116  25.665  1.00  0.00    -0.269 OA
BRANCH  26  29
ATOM     29  C   UNL A   1      39.037  24.359  26.771  1.00  0.00     0.039 A 
ATOM     30  C   UNL A   1      38.667  24.513  28.112  1.00  0.00     0.014 A 
ATOM     31  C   UNL A   1      39.787  25.362  26.157  1.00  0.00     0.014 A 
ATOM     32  C   UNL A   1      39.089  25.634  28.838  1.00  0.00     0.010 A 
ATOM     33  C   UNL A   1      40.298  26.420  26.906  1.00  0.00     0.010 A 
ATOM     34  C   UNL A   1      39.937  26.585  28.250  1.00  0.00    -0.014 A 
BRANCH  34  35
ATOM     35  C   UNL A   1      40.421  27.779  28.996  1.00  0.00     0.031 A 
ATOM     36  C   UNL A   1      41.797  27.771  29.617  1.00  0.00     0.074 A 
ATOM     37  C   UNL A   1      39.607  28.838  29.180  1.00  0.00     0.049 A 
ATOM     38  N   UNL A   1      42.355  28.652  30.409  1.00  0.00    -0.248 NA
ATOM     39  C   UNL A   1      42.645  26.599  29.341  1.00  0.00     0.031 C 
ATOM     40  C   UNL A   1      38.239  28.954  28.673  1.00  0.00     0.029 A 
ATOM     41  N   UNL A   1      39.809  30.015  29.857  1.00  0.00    -0.354 N 
ATOM     42  C   UNL A   1      43.596  28.126  30.750  1.00  0.00     0.074 A 
ATOM     43  C   UNL A   1      43.690  26.827  30.123  1.00  0.00     0.031 C 
ATOM     44  C   UNL A   1      37.735  30.146  29.032  1.00  0.00     0.029 A 
ATOM     45  C   UNL A   1      38.724  30.862  29.831  1.00  0.00     0.049 A 
ATOM     46  H   UNL A   1      40.651  30.234  30.318  1.00  0.00     0.167 HD
ATOM     47  C   UNL A   1      44.581  28.683  31.495  1.00  0.00     0.037 A 
ATOM     48  C   UNL A   1      38.543  32.072  30.394  1.00  0.00     0.037 A 
ATOM     49  C   UNL A   1      44.506  30.000  32.072  1.00  0.00     0.049 A 
ATOM     50  C   UNL A   1      39.661  32.684  31.194  1.00  0.00     0.074 A 
ATOM     51  C   UNL A   1      45.474  30.683  32.787  1.00  0.00     0.029 A 
ATOM     52  N   UNL A   1      43.404  30.838  31.988  1.00  0.00    -0.354 N 
ATOM     53  N   UNL A   1      40.844  32.188  31.470  1.00  0.00    -0.248 NA
ATOM     54  C   UNL A   1      39.422  34.020  31.757  1.00  0.00     0.031 C 
ATOM     55  C   UNL A   1      44.945  31.922  33.164  1.00  0.00     0.029 A 
ATOM     56  C   UNL A   1      43.664  32.028  32.646  1.00  0.00     0.049 A 
ATOM     57  H   UNL A   1      42.562  30.619  31.528  1.00  0.00     0.167 HD
ATOM     58  C   UNL A   1      41.500  33.162  32.214  1.00  0.00     0.074 A 
ATOM     59  C   UNL A   1      40.586  34.280  32.336  1.00  0.00     0.031 C 
ATOM     60  C   UNL A   1      42.746  33.135  32.748  1.00  0.00     0.037 A 
BRANCH  47  61
ATOM     61  C   UNL A   1      45.832  27.876  31.718  1.00  0.00     0.058 A 
ATOM     62  C   UNL A   1      45.939  26.958  32.775  1.00  0.00     0.135 A 
ATOM     63  C   UNL A   1      46.927  27.997  30.847  1.00  0.00     0.135 A 
ATOM     64  F   UNL A   1      44.929  26.811  33.648  1.00  0.00    -0.206 F 
ATOM     65  C   UNL A   1      47.098  26.217  32.983  1.00  0.00     0.059 A 
ATOM     66  C   UNL A   1      48.085  27.244  31.017  1.00  0.00     0.059 A 
ATOM     67  F   UNL A   1      46.879  28.857  29.817  1.00  0.00    -0.206 F 
ATOM     68  C   UNL A   1      48.166  26.368  32.099  1.00  0.00     0.060 A 
BRANCH  68  69
ATOM     69  S   UNL A   1      49.663  25.398  32.383  1.00  0.00     0.124 S 
ATOM     70  O   UNL A   1      49.191  24.412  33.351  1.00  0.00    -0.237 OA
ATOM     71  O   UNL A   1      49.961  24.884  31.051  1.00  0.00    -0.237 OA
ATOM     72  O   UNL A   1      50.611  26.381  32.900  1.00  0.00    -0.744 OA
ENDBRANCH  68  69
ENDBRANCH  47  61
BRANCH  48  73
ATOM     73  C   UNL A   1      37.262  32.800  30.194  1.00  0.00     0.058 A 
ATOM     74  C   UNL A   1      37.095  33.674  29.108  1.00  0.00     0.135 A 
ATOM     75  C   UNL A   1      36.177  32.627  31.066  1.00  0.00     0.135 A 
ATOM     76  F   UNL A   1      38.106  33.877  28.250  1.00  0.00    -0.206 F 
ATOM     77  C   UNL A   1      35.904  34.362  28.902  1.00  0.00     0.059 A 
ATOM     78  C   UNL A   1      34.967  33.286  30.867  1.00  0.00     0.059 A 
ATOM     79  F   UNL A   1      36.279  31.790  32.109  1.00  0.00    -0.206 F 
ATOM     80  C   UNL A   1      34.843  34.159  29.787  1.00  0.00     0.060 A 
BRANCH  80  81
ATOM     81  S   UNL A   1      33.284  35.017  29.481  1.00  0.00     0.124 S 
ATOM     82  O   UNL A   1      32.659  34.971  30.797  1.00  0.00    -0.237 OA
ATOM     83  O   UNL A   1      33.739  36.330  29.034  1.00  0.00    -0.237 OA
ATOM     84  O   UNL A   1      32.650  34.199  28.450  1.00  0.00    -0.744 OA
ENDBRANCH  80  81
ENDBRANCH  48  73
BRANCH  60  85
ATOM     85  C   UNL A   1      43.211  34.361  33.481  1.00  0.00     0.058 A 
ATOM     86  C   UNL A   1      43.737  35.470  32.801  1.00  0.00     0.135 A 
ATOM     87  C   UNL A   1      43.078  34.447  34.876  1.00  0.00     0.135 A 
ATOM     88  F   UNL A   1      43.892  35.435  31.468  1.00  0.00    -0.206 F 
ATOM     89  C   UNL A   1      44.134  36.616  33.482  1.00  0.00     0.059 A 
ATOM     90  C   UNL A   1      43.444  35.593  35.574  1.00  0.00     0.059 A 
ATOM     91  F   UNL A   1      42.570  33.417  35.572  1.00  0.00    -0.206 F 
ATOM     92  C   UNL A   1      43.982  36.668  34.869  1.00  0.00     0.060 A 
BRANCH  92  93
ATOM     93  S   UNL A   1      44.466  38.176  35.738  1.00  0.00     0.124 S 
ATOM     94  O   UNL A   1      43.720  38.047  36.986  1.00  0.00    -0.237 OA
ATOM     95  O   UNL A   1      45.912  38.026  35.844  1.00  0.00    -0.237 OA
ATOM     96  O   UNL A   1      44.016  39.241  34.846  1.00  0.00    -0.744 OA
ENDBRANCH  92  93
ENDBRANCH  60  85
ENDBRANCH  34  35
ENDBRANCH  26  29
ENDBRANCH   1  25
TORSDOF 15
ENDMDL
