MODEL 1
REMARK VINA RESULT:     -12.8      0.000      0.000
REMARK SMILES O=C(NCCCNC(=O)c1cc(-c2ccc(Cl)cc2)nc2c3c(C4CC4)cc(C(F)(F)F)nc3nn12)c1ccc(-c2c3nc(c(-c4c(F)cc(S(=O)(=O)[O-])cc4F)c4ccc([nH]4)c(-c4c(F)cc(S(=O)(=O)[O-])cc4F)c4nc(c(-c5c(F)cc(S(=O)(=O)[O-])cc5F)c5ccc2[nH]5)C=C4)C=C3)cc1
REMARK SMILES IDX 4 1 3 2 1 3 2 4 37 6 38 7 102 8 39 9 101 10 40 11 41 12
REMARK SMILES IDX 42 13 95 14 43 15 100 16 94 17 96 18 44 19 99 20 93 21 92 22
REMARK SMILES IDX 45 24 79 25 58 26 78 27 59 28 62 29 77 30 97 31 60 32 61 33
REMARK SMILES IDX 76 35 98 36 63 37 46 38 47 39 56 40 48 41 49 42 55 43 57 44
REMARK SMILES IDX 50 45 51 46 52 47 53 48 54 49 80 50 81 51 90 52 82 53 83 54
REMARK SMILES IDX 89 55 91 56 84 57 85 58 86 59 87 60 88 61 64 62 65 63 74 64
REMARK SMILES IDX 66 65 67 66 73 67 75 68 68 69 69 70 70 71 71 72 72 73 5 74
REMARK SMILES IDX 6 75 7 76 8 77 9 79 10 80 11 81 36 82 12 83 21 84 35 85
REMARK SMILES IDX 20 86 22 87 34 88 23 89 33 90 27 91 28 92 13 93 14 94 19 95
REMARK SMILES IDX 15 96 18 97 16 98 17 99 24 100 25 101 26 102 29 103 30 104
REMARK SMILES IDX 31 105 32 106
REMARK H PARENT 3 5 96 23 62 34 7 78
REMARK Flexibility Score: inf
ROOT
ATOM      1  C   UNL A   1      40.040  21.997  27.423  1.00  0.00     0.118 C 
ENDROOT
BRANCH   1   2
ATOM      2  N   UNL A   1      41.080  21.273  26.710  1.00  0.00    -0.352 N 
ATOM      3  O   UNL A   1      42.973  21.072  25.488  1.00  0.00    -0.269 OA
ATOM      4  C   UNL A   1      42.236  21.776  26.160  1.00  0.00     0.251 C 
ATOM      5  H   UNL A   1      40.939  20.304  26.610  1.00  0.00     0.163 HD
BRANCH   4   6
ATOM      6  C   UNL A   1      42.551  23.197  26.386  1.00  0.00     0.039 A 
ATOM      7  C   UNL A   1      42.638  23.692  27.692  1.00  0.00     0.014 A 
ATOM      8  C   UNL A   1      42.716  24.036  25.285  1.00  0.00     0.014 A 
ATOM      9  C   UNL A   1      42.827  25.053  27.898  1.00  0.00     0.010 A 
ATOM     10  C   UNL A   1      42.928  25.397  25.495  1.00  0.00     0.010 A 
ATOM     11  C   UNL A   1      42.982  25.909  26.800  1.00  0.00    -0.014 A 
BRANCH  11  12
ATOM     12  C   UNL A   1      43.352  27.308  27.071  1.00  0.00     0.031 A 
ATOM     13  C   UNL A   1      42.204  28.248  27.172  1.00  0.00     0.074 A 
ATOM     14  C   UNL A   1      44.520  27.664  27.643  1.00  0.00     0.049 A 
ATOM     15  N   UNL A   1      41.524  28.383  28.271  1.00  0.00    -0.248 NA
ATOM     16  C   UNL A   1      41.586  28.874  26.005  1.00  0.00     0.031 C 
ATOM     17  C   UNL A   1      45.297  26.795  28.533  1.00  0.00     0.029 A 
ATOM     18  N   UNL A   1      45.124  28.893  27.750  1.00  0.00    -0.354 N 
ATOM     19  C   UNL A   1      40.359  29.045  27.946  1.00  0.00     0.074 A 
ATOM     20  C   UNL A   1      40.451  29.356  26.536  1.00  0.00     0.031 C 
ATOM     21  C   UNL A   1      46.156  27.564  29.236  1.00  0.00     0.029 A 
ATOM     22  C   UNL A   1      46.113  28.934  28.729  1.00  0.00     0.049 A 
ATOM     23  H   UNL A   1      44.883  29.666  27.191  1.00  0.00     0.167 HD
ATOM     24  C   UNL A   1      39.369  29.274  28.846  1.00  0.00     0.037 A 
ATOM     25  C   UNL A   1      46.441  30.026  29.473  1.00  0.00     0.037 A 
ATOM     26  C   UNL A   1      39.607  28.797  30.175  1.00  0.00     0.049 A 
ATOM     27  C   UNL A   1      45.162  30.287  30.226  1.00  0.00     0.074 A 
ATOM     28  C   UNL A   1      39.320  27.663  30.904  1.00  0.00     0.029 A 
ATOM     29  N   UNL A   1      40.406  29.555  31.000  1.00  0.00    -0.354 N 
ATOM     30  N   UNL A   1      44.770  29.655  31.300  1.00  0.00    -0.248 NA
ATOM     31  C   UNL A   1      44.112  31.061  29.559  1.00  0.00     0.031 C 
ATOM     32  C   UNL A   1      40.317  27.603  31.930  1.00  0.00     0.029 A 
ATOM     33  C   UNL A   1      41.179  28.678  31.723  1.00  0.00     0.049 A 
ATOM     34  H   UNL A   1      40.421  30.536  31.060  1.00  0.00     0.167 HD
ATOM     35  C   UNL A   1      43.376  29.733  31.291  1.00  0.00     0.074 A 
ATOM     36  C   UNL A   1      43.038  30.637  30.210  1.00  0.00     0.031 C 
ATOM     37  C   UNL A   1      42.571  28.923  32.036  1.00  0.00     0.037 A 
BRANCH  24  38
ATOM     38  C   UNL A   1      38.176  30.083  28.547  1.00  0.00     0.058 A 
ATOM     39  C   UNL A   1      38.172  31.427  28.941  1.00  0.00     0.135 A 
ATOM     40  C   UNL A   1      37.000  29.531  28.029  1.00  0.00     0.135 A 
ATOM     41  F   UNL A   1      39.286  31.980  29.449  1.00  0.00    -0.206 F 
ATOM     42  C   UNL A   1      37.024  32.199  28.859  1.00  0.00     0.059 A 
ATOM     43  C   UNL A   1      35.835  30.288  27.935  1.00  0.00     0.059 A 
ATOM     44  F   UNL A   1      36.966  28.246  27.645  1.00  0.00    -0.206 F 
ATOM     45  C   UNL A   1      35.855  31.615  28.370  1.00  0.00     0.060 A 
BRANCH  45  46
ATOM     46  S   UNL A   1      34.356  32.620  28.356  1.00  0.00     0.124 S 
ATOM     47  O   UNL A   1      33.421  31.752  27.646  1.00  0.00    -0.237 OA
ATOM     48  O   UNL A   1      34.103  32.798  29.782  1.00  0.00    -0.237 OA
ATOM     49  O   UNL A   1      34.761  33.825  27.638  1.00  0.00    -0.744 OA
ENDBRANCH  45  46
ENDBRANCH  24  38
BRANCH  25  50
ATOM     50  C   UNL A   1      47.211  31.088  28.745  1.00  0.00     0.058 A 
ATOM     51  C   UNL A   1      48.049  30.699  27.676  1.00  0.00     0.135 A 
ATOM     52  C   UNL A   1      47.191  32.461  29.037  1.00  0.00     0.135 A 
ATOM     53  F   UNL A   1      48.234  29.396  27.399  1.00  0.00    -0.206 F 
ATOM     54  C   UNL A   1      48.707  31.619  26.864  1.00  0.00     0.059 A 
ATOM     55  C   UNL A   1      47.821  33.406  28.223  1.00  0.00     0.059 A 
ATOM     56  F   UNL A   1      46.546  32.932  30.113  1.00  0.00    -0.206 F 
ATOM     57  C   UNL A   1      48.555  32.976  27.123  1.00  0.00     0.060 A 
BRANCH  57  58
ATOM     58  S   UNL A   1      49.288  34.160  25.974  1.00  0.00     0.124 S 
ATOM     59  O   UNL A   1      49.706  35.231  26.872  1.00  0.00    -0.237 OA
ATOM     60  O   UNL A   1      50.364  33.373  25.380  1.00  0.00    -0.237 OA
ATOM     61  O   UNL A   1      48.187  34.485  25.074  1.00  0.00    -0.744 OA
ENDBRANCH  57  58
ENDBRANCH  25  50
BRANCH  37  62
ATOM     62  C   UNL A   1      43.258  28.077  33.057  1.00  0.00     0.058 A 
ATOM     63  C   UNL A   1      43.813  26.844  32.690  1.00  0.00     0.135 A 
ATOM     64  C   UNL A   1      43.436  28.511  34.380  1.00  0.00     0.135 A 
ATOM     65  F   UNL A   1      43.675  26.385  31.434  1.00  0.00    -0.206 F 
ATOM     66  C   UNL A   1      44.557  26.087  33.590  1.00  0.00     0.059 A 
ATOM     67  C   UNL A   1      44.194  27.780  35.291  1.00  0.00     0.059 A 
ATOM     68  F   UNL A   1      42.912  29.675  34.798  1.00  0.00    -0.206 F 
ATOM     69  C   UNL A   1      44.760  26.573  34.883  1.00  0.00     0.060 A 
BRANCH  69  70
ATOM     70  S   UNL A   1      45.840  25.650  35.995  1.00  0.00     0.124 S 
ATOM     71  O   UNL A   1      46.520  24.741  35.078  1.00  0.00    -0.237 OA
ATOM     72  O   UNL A   1      46.668  26.705  36.573  1.00  0.00    -0.237 OA
ATOM     73  O   UNL A   1      44.912  25.015  36.928  1.00  0.00    -0.744 OA
ENDBRANCH  69  70
ENDBRANCH  37  62
ENDBRANCH  11  12
ENDBRANCH   4   6
ENDBRANCH   1   2
BRANCH   1  74
ATOM     74  C   UNL A   1      39.231  22.906  26.504  1.00  0.00     0.042 C 
BRANCH  74  75
ATOM     75  C   UNL A   1      38.113  22.163  25.782  1.00  0.00     0.118 C 
BRANCH  75  76
ATOM     76  N   UNL A   1      37.910  22.686  24.433  1.00  0.00    -0.351 N 
ATOM     77  C   UNL A   1      36.786  22.738  23.667  1.00  0.00     0.270 C 
ATOM     78  H   UNL A   1      38.716  23.062  24.010  1.00  0.00     0.163 HD
ATOM     79  O   UNL A   1      36.866  23.067  22.485  1.00  0.00    -0.268 OA
BRANCH  77  80
ATOM     80  C   UNL A   1      35.495  22.341  24.251  1.00  0.00     0.134 A 
ATOM     81  C   UNL A   1      35.285  21.026  24.405  1.00  0.00     0.063 A 
ATOM     82  N   UNL A   1      34.530  23.266  24.632  1.00  0.00    -0.207 N 
ATOM     83  C   UNL A   1      33.954  20.657  24.974  1.00  0.00     0.075 A 
ATOM     84  C   UNL A   1      33.354  22.839  25.277  1.00  0.00     0.166 A 
ATOM     85  N   UNL A   1      34.581  24.615  24.499  1.00  0.00    -0.145 NA
ATOM     86  N   UNL A   1      33.043  21.503  25.367  1.00  0.00    -0.228 NA
ATOM     87  C   UNL A   1      32.797  23.998  25.787  1.00  0.00     0.069 A 
ATOM     88  C   UNL A   1      33.607  25.056  25.279  1.00  0.00     0.184 A 
ATOM     89  C   UNL A   1      31.702  24.133  26.652  1.00  0.00    -0.028 A 
ATOM     90  N   UNL A   1      33.398  26.356  25.586  1.00  0.00    -0.222 NA
ATOM     91  C   UNL A   1      31.538  25.498  26.981  1.00  0.00     0.038 A 
ATOM     92  C   UNL A   1      32.360  26.540  26.460  1.00  0.00     0.147 A 
BRANCH  83  93
ATOM     93  C   UNL A   1      33.695  19.197  25.012  1.00  0.00     0.000 A 
ATOM     94  C   UNL A   1      34.583  18.339  24.358  1.00  0.00     0.012 A 
ATOM     95  C   UNL A   1      32.623  18.680  25.751  1.00  0.00     0.012 A 
ATOM     96  C   UNL A   1      34.422  16.957  24.476  1.00  0.00     0.021 A 
ATOM     97  C   UNL A   1      32.461  17.297  25.858  1.00  0.00     0.021 A 
ATOM     98  C   UNL A   1      33.366  16.441  25.231  1.00  0.00     0.041 A 
ATOM     99  Cl  UNL A   1      33.196  14.737  25.402  1.00  0.00    -0.084 Cl
ENDBRANCH  83  93
BRANCH  89 100
ATOM    100  C   UNL A   1      30.888  22.978  27.137  1.00  0.00     0.020 C 
ATOM    101  C   UNL A   1      29.394  23.065  27.350  1.00  0.00     0.009 C 
ATOM    102  C   UNL A   1      29.934  22.313  26.171  1.00  0.00     0.009 C 
ENDBRANCH  89 100
BRANCH  92 103
ATOM    103  C   UNL A   1      32.092  27.974  26.906  1.00  0.00     0.433 C 
ATOM    104  F   UNL A   1      31.842  28.819  25.866  1.00  0.00    -0.165 F 
ATOM    105  F   UNL A   1      31.019  28.081  27.743  1.00  0.00    -0.165 F 
ATOM    106  F   UNL A   1      33.133  28.536  27.590  1.00  0.00    -0.165 F 
ENDBRANCH  92 103
ENDBRANCH  77  80
ENDBRANCH  75  76
ENDBRANCH  74  75
ENDBRANCH   1  74
TORSDOF 16
ENDMDL
MODEL 2
REMARK VINA RESULT:     -12.2      6.529     13.483
REMARK SMILES O=C(NCCCNC(=O)c1cc(-c2ccc(Cl)cc2)nc2c3c(C4CC4)cc(C(F)(F)F)nc3nn12)c1ccc(-c2c3nc(c(-c4c(F)cc(S(=O)(=O)[O-])cc4F)c4ccc([nH]4)c(-c4c(F)cc(S(=O)(=O)[O-])cc4F)c4nc(c(-c5c(F)cc(S(=O)(=O)[O-])cc5F)c5ccc2[nH]5)C=C4)C=C3)cc1
REMARK SMILES IDX 4 1 3 2 1 3 2 4 37 6 38 7 102 8 39 9 101 10 40 11 41 12
REMARK SMILES IDX 42 13 95 14 43 15 100 16 94 17 96 18 44 19 99 20 93 21 92 22
REMARK SMILES IDX 45 24 79 25 58 26 78 27 59 28 62 29 77 30 97 31 60 32 61 33
REMARK SMILES IDX 76 35 98 36 63 37 46 38 47 39 56 40 48 41 49 42 55 43 57 44
REMARK SMILES IDX 50 45 51 46 52 47 53 48 54 49 80 50 81 51 90 52 82 53 83 54
REMARK SMILES IDX 89 55 91 56 84 57 85 58 86 59 87 60 88 61 64 62 65 63 74 64
REMARK SMILES IDX 66 65 67 66 73 67 75 68 68 69 69 70 70 71 71 72 72 73 5 74
REMARK SMILES IDX 6 75 7 76 8 77 9 79 10 80 11 81 36 82 12 83 21 84 35 85
REMARK SMILES IDX 20 86 22 87 34 88 23 89 33 90 27 91 28 92 13 93 14 94 19 95
REMARK SMILES IDX 15 96 18 97 16 98 17 99 24 100 25 101 26 102 29 103 30 104
REMARK SMILES IDX 31 105 32 106
REMARK H PARENT 3 5 96 23 62 34 7 78
REMARK Flexibility Score: inf
ROOT
ATOM      1  C   UNL A   1      44.819  25.489  37.105  1.00  0.00     0.118 C 
ENDROOT
BRANCH   1   2
ATOM      2  N   UNL A   1      43.507  24.865  37.054  1.00  0.00    -0.352 N 
ATOM      3  O   UNL A   1      41.498  24.380  36.133  1.00  0.00    -0.269 OA
ATOM      4  C   UNL A   1      42.618  24.847  36.004  1.00  0.00     0.251 C 
ATOM      5  H   UNL A   1      43.220  24.397  37.872  1.00  0.00     0.163 HD
BRANCH   4   6
ATOM      6  C   UNL A   1      43.049  25.429  34.721  1.00  0.00     0.039 A 
ATOM      7  C   UNL A   1      43.879  24.694  33.867  1.00  0.00     0.014 A 
ATOM      8  C   UNL A   1      42.653  26.726  34.401  1.00  0.00     0.014 A 
ATOM      9  C   UNL A   1      44.370  25.287  32.711  1.00  0.00     0.010 A 
ATOM     10  C   UNL A   1      43.129  27.311  33.229  1.00  0.00     0.010 A 
ATOM     11  C   UNL A   1      43.989  26.595  32.382  1.00  0.00    -0.014 A 
BRANCH  11  12
ATOM     12  C   UNL A   1      44.394  27.116  31.066  1.00  0.00     0.031 A 
ATOM     13  C   UNL A   1      44.352  26.121  29.962  1.00  0.00     0.074 A 
ATOM     14  C   UNL A   1      44.351  28.425  30.747  1.00  0.00     0.049 A 
ATOM     15  N   UNL A   1      43.249  25.841  29.334  1.00  0.00    -0.248 NA
ATOM     16  C   UNL A   1      45.450  25.197  29.684  1.00  0.00     0.031 C 
ATOM     17  C   UNL A   1      43.447  29.394  31.374  1.00  0.00     0.029 A 
ATOM     18  N   UNL A   1      44.899  29.104  29.686  1.00  0.00    -0.354 N 
ATOM     19  C   UNL A   1      43.469  24.675  28.631  1.00  0.00     0.074 A 
ATOM     20  C   UNL A   1      44.856  24.325  28.853  1.00  0.00     0.031 C 
ATOM     21  C   UNL A   1      43.363  30.479  30.574  1.00  0.00     0.029 A 
ATOM     22  C   UNL A   1      44.326  30.356  29.483  1.00  0.00     0.049 A 
ATOM     23  H   UNL A   1      45.623  28.741  29.127  1.00  0.00     0.167 HD
ATOM     24  C   UNL A   1      42.493  24.044  27.931  1.00  0.00     0.037 A 
ATOM     25  C   UNL A   1      44.185  30.972  28.276  1.00  0.00     0.037 A 
ATOM     26  C   UNL A   1      41.204  24.670  27.949  1.00  0.00     0.049 A 
ATOM     27  C   UNL A   1      43.270  30.022  27.547  1.00  0.00     0.074 A 
ATOM     28  C   UNL A   1      40.045  24.566  28.687  1.00  0.00     0.029 A 
ATOM     29  N   UNL A   1      40.992  25.737  27.106  1.00  0.00    -0.354 N 
ATOM     30  N   UNL A   1      41.972  29.961  27.684  1.00  0.00    -0.248 NA
ATOM     31  C   UNL A   1      43.866  28.862  26.881  1.00  0.00     0.031 C 
ATOM     32  C   UNL A   1      39.395  25.835  28.562  1.00  0.00     0.029 A 
ATOM     33  C   UNL A   1      40.230  26.647  27.797  1.00  0.00     0.049 A 
ATOM     34  H   UNL A   1      41.323  25.829  26.184  1.00  0.00     0.167 HD
ATOM     35  C   UNL A   1      41.625  28.646  27.367  1.00  0.00     0.074 A 
ATOM     36  C   UNL A   1      42.833  28.032  26.853  1.00  0.00     0.031 C 
ATOM     37  C   UNL A   1      40.434  28.078  27.711  1.00  0.00     0.037 A 
BRANCH  24  38
ATOM     38  C   UNL A   1      42.739  22.870  27.079  1.00  0.00     0.058 A 
ATOM     39  C   UNL A   1      42.209  21.637  27.479  1.00  0.00     0.135 A 
ATOM     40  C   UNL A   1      43.601  22.904  25.978  1.00  0.00     0.135 A 
ATOM     41  F   UNL A   1      41.385  21.574  28.538  1.00  0.00    -0.206 F 
ATOM     42  C   UNL A   1      42.548  20.461  26.830  1.00  0.00     0.059 A 
ATOM     43  C   UNL A   1      43.954  21.736  25.308  1.00  0.00     0.059 A 
ATOM     44  F   UNL A   1      44.130  24.067  25.567  1.00  0.00    -0.206 F 
ATOM     45  C   UNL A   1      43.437  20.518  25.756  1.00  0.00     0.060 A 
BRANCH  45  46
ATOM     46  S   UNL A   1      43.927  18.961  24.986  1.00  0.00     0.124 S 
ATOM     47  O   UNL A   1      42.824  18.082  25.360  1.00  0.00    -0.237 OA
ATOM     48  O   UNL A   1      43.995  19.334  23.577  1.00  0.00    -0.237 OA
ATOM     49  O   UNL A   1      45.210  18.660  25.615  1.00  0.00    -0.744 OA
ENDBRANCH  45  46
ENDBRANCH  24  38
BRANCH  25  50
ATOM     50  C   UNL A   1      45.449  31.528  27.690  1.00  0.00     0.058 A 
ATOM     51  C   UNL A   1      45.421  32.830  27.143  1.00  0.00     0.135 A 
ATOM     52  C   UNL A   1      46.682  30.861  27.618  1.00  0.00     0.135 A 
ATOM     53  F   UNL A   1      44.261  33.502  27.050  1.00  0.00    -0.206 F 
ATOM     54  C   UNL A   1      46.567  33.477  26.687  1.00  0.00     0.059 A 
ATOM     55  C   UNL A   1      47.851  31.496  27.190  1.00  0.00     0.059 A 
ATOM     56  F   UNL A   1      46.796  29.574  27.975  1.00  0.00    -0.206 F 
ATOM     57  C   UNL A   1      47.787  32.814  26.751  1.00  0.00     0.060 A 
BRANCH  57  58
ATOM     58  S   UNL A   1      49.284  33.717  26.300  1.00  0.00     0.124 S 
ATOM     59  O   UNL A   1      49.596  34.420  27.540  1.00  0.00    -0.237 OA
ATOM     60  O   UNL A   1      50.190  32.633  25.939  1.00  0.00    -0.237 OA
ATOM     61  O   UNL A   1      48.849  34.559  25.190  1.00  0.00    -0.744 OA
ENDBRANCH  57  58
ENDBRANCH  25  50
BRANCH  37  62
ATOM     62  C   UNL A   1      39.399  29.005  28.254  1.00  0.00     0.058 A 
ATOM     63  C   UNL A   1      39.326  29.247  29.633  1.00  0.00     0.135 A 
ATOM     64  C   UNL A   1      38.525  29.715  27.416  1.00  0.00     0.135 A 
ATOM     65  F   UNL A   1      40.143  28.597  30.479  1.00  0.00    -0.206 F 
ATOM     66  C   UNL A   1      38.449  30.191  30.159  1.00  0.00     0.059 A 
ATOM     67  C   UNL A   1      37.654  30.679  27.918  1.00  0.00     0.059 A 
ATOM     68  F   UNL A   1      38.533  29.514  26.087  1.00  0.00    -0.206 F 
ATOM     69  C   UNL A   1      37.631  30.917  29.291  1.00  0.00     0.060 A 
BRANCH  69  70
ATOM     70  S   UNL A   1      36.600  32.233  29.971  1.00  0.00     0.124 S 
ATOM     71  O   UNL A   1      37.061  33.399  29.226  1.00  0.00    -0.237 OA
ATOM     72  O   UNL A   1      35.252  31.768  29.654  1.00  0.00    -0.237 OA
ATOM     73  O   UNL A   1      36.933  32.230  31.393  1.00  0.00    -0.744 OA
ENDBRANCH  69  70
ENDBRANCH  37  62
ENDBRANCH  11  12
ENDBRANCH   4   6
ENDBRANCH   1   2
BRANCH   1  74
ATOM     74  C   UNL A   1      45.951  24.472  37.011  1.00  0.00     0.042 C 
BRANCH  74  75
ATOM     75  C   UNL A   1      45.556  23.105  37.556  1.00  0.00     0.118 C 
BRANCH  75  76
ATOM     76  N   UNL A   1      45.062  22.229  36.495  1.00  0.00    -0.351 N 
ATOM     77  C   UNL A   1      45.670  21.198  35.848  1.00  0.00     0.270 C 
ATOM     78  H   UNL A   1      44.140  22.415  36.204  1.00  0.00     0.163 HD
ATOM     79  O   UNL A   1      45.135  20.695  34.861  1.00  0.00    -0.268 OA
BRANCH  77  80
ATOM     80  C   UNL A   1      46.992  20.738  36.303  1.00  0.00     0.134 A 
ATOM     81  C   UNL A   1      48.052  21.183  35.614  1.00  0.00     0.063 A 
ATOM     82  N   UNL A   1      47.154  19.888  37.391  1.00  0.00    -0.207 N 
ATOM     83  C   UNL A   1      49.375  20.675  36.085  1.00  0.00     0.075 A 
ATOM     84  C   UNL A   1      48.444  19.558  37.846  1.00  0.00     0.166 A 
ATOM     85  N   UNL A   1      46.182  19.325  38.151  1.00  0.00    -0.145 NA
ATOM     86  N   UNL A   1      49.559  19.901  37.119  1.00  0.00    -0.228 NA
ATOM     87  C   UNL A   1      48.239  18.986  39.088  1.00  0.00     0.069 A 
ATOM     88  C   UNL A   1      46.823  18.881  39.221  1.00  0.00     0.184 A 
ATOM     89  C   UNL A   1      49.192  18.621  40.049  1.00  0.00    -0.028 A 
ATOM     90  N   UNL A   1      46.221  18.395  40.330  1.00  0.00    -0.222 NA
ATOM     91  C   UNL A   1      48.527  18.155  41.207  1.00  0.00     0.038 A 
ATOM     92  C   UNL A   1      47.108  18.056  41.316  1.00  0.00     0.147 A 
BRANCH  83  93
ATOM     93  C   UNL A   1      50.518  21.075  35.229  1.00  0.00     0.000 A 
ATOM     94  C   UNL A   1      51.560  21.812  35.797  1.00  0.00     0.012 A 
ATOM     95  C   UNL A   1      50.589  20.659  33.893  1.00  0.00     0.012 A 
ATOM     96  C   UNL A   1      52.697  22.101  35.039  1.00  0.00     0.021 A 
ATOM     97  C   UNL A   1      51.725  20.959  33.135  1.00  0.00     0.021 A 
ATOM     98  C   UNL A   1      52.778  21.667  33.714  1.00  0.00     0.041 A 
ATOM     99  Cl  UNL A   1      54.197  21.996  32.797  1.00  0.00    -0.084 Cl
ENDBRANCH  83  93
BRANCH  89 100
ATOM    100  C   UNL A   1      50.666  18.748  39.839  1.00  0.00     0.020 C 
ATOM    101  C   UNL A   1      51.672  18.490  40.937  1.00  0.00     0.009 C 
ATOM    102  C   UNL A   1      51.504  17.489  39.833  1.00  0.00     0.009 C 
ENDBRANCH  89 100
BRANCH  92 103
ATOM    103  C   UNL A   1      46.510  17.553  42.626  1.00  0.00     0.433 C 
ATOM    104  F   UNL A   1      46.236  18.556  43.508  1.00  0.00    -0.165 F 
ATOM    105  F   UNL A   1      45.338  16.876  42.452  1.00  0.00    -0.165 F 
ATOM    106  F   UNL A   1      47.324  16.687  43.301  1.00  0.00    -0.165 F 
ENDBRANCH  92 103
ENDBRANCH  77  80
ENDBRANCH  75  76
ENDBRANCH  74  75
ENDBRANCH   1  74
TORSDOF 16
ENDMDL
MODEL 3
REMARK VINA RESULT:     -12.0      7.060     13.309
REMARK SMILES O=C(NCCCNC(=O)c1cc(-c2ccc(Cl)cc2)nc2c3c(C4CC4)cc(C(F)(F)F)nc3nn12)c1ccc(-c2c3nc(c(-c4c(F)cc(S(=O)(=O)[O-])cc4F)c4ccc([nH]4)c(-c4c(F)cc(S(=O)(=O)[O-])cc4F)c4nc(c(-c5c(F)cc(S(=O)(=O)[O-])cc5F)c5ccc2[nH]5)C=C4)C=C3)cc1
REMARK SMILES IDX 4 1 3 2 1 3 2 4 37 6 38 7 102 8 39 9 101 10 40 11 41 12
REMARK SMILES IDX 42 13 95 14 43 15 100 16 94 17 96 18 44 19 99 20 93 21 92 22
REMARK SMILES IDX 45 24 79 25 58 26 78 27 59 28 62 29 77 30 97 31 60 32 61 33
REMARK SMILES IDX 76 35 98 36 63 37 46 38 47 39 56 40 48 41 49 42 55 43 57 44
REMARK SMILES IDX 50 45 51 46 52 47 53 48 54 49 80 50 81 51 90 52 82 53 83 54
REMARK SMILES IDX 89 55 91 56 84 57 85 58 86 59 87 60 88 61 64 62 65 63 74 64
REMARK SMILES IDX 66 65 67 66 73 67 75 68 68 69 69 70 70 71 71 72 72 73 5 74
REMARK SMILES IDX 6 75 7 76 8 77 9 79 10 80 11 81 36 82 12 83 21 84 35 85
REMARK SMILES IDX 20 86 22 87 34 88 23 89 33 90 27 91 28 92 13 93 14 94 19 95
REMARK SMILES IDX 15 96 18 97 16 98 17 99 24 100 25 101 26 102 29 103 30 104
REMARK SMILES IDX 31 105 32 106
REMARK H PARENT 3 5 96 23 62 34 7 78
REMARK Flexibility Score: inf
ROOT
ATOM      1  C   UNL A   1      47.029  23.452  35.684  1.00  0.00     0.118 C 
ENDROOT
BRANCH   1   2
ATOM      2  N   UNL A   1      45.670  23.548  36.192  1.00  0.00    -0.352 N 
ATOM      3  O   UNL A   1      43.547  24.330  36.245  1.00  0.00    -0.269 OA
ATOM      4  C   UNL A   1      44.612  24.243  35.653  1.00  0.00     0.251 C 
ATOM      5  H   UNL A   1      45.485  23.054  37.023  1.00  0.00     0.163 HD
BRANCH   4   6
ATOM      6  C   UNL A   1      44.806  24.900  34.349  1.00  0.00     0.039 A 
ATOM      7  C   UNL A   1      45.507  26.109  34.276  1.00  0.00     0.014 A 
ATOM      8  C   UNL A   1      44.246  24.322  33.211  1.00  0.00     0.014 A 
ATOM      9  C   UNL A   1      45.593  26.780  33.062  1.00  0.00     0.010 A 
ATOM     10  C   UNL A   1      44.354  24.986  31.991  1.00  0.00     0.010 A 
ATOM     11  C   UNL A   1      45.025  26.216  31.912  1.00  0.00    -0.014 A 
BRANCH  11  12
ATOM     12  C   UNL A   1      45.292  26.875  30.624  1.00  0.00     0.031 A 
ATOM     13  C   UNL A   1      45.231  25.977  29.440  1.00  0.00     0.074 A 
ATOM     14  C   UNL A   1      45.137  28.200  30.428  1.00  0.00     0.049 A 
ATOM     15  N   UNL A   1      44.104  25.672  28.868  1.00  0.00    -0.248 NA
ATOM     16  C   UNL A   1      46.364  25.163  29.002  1.00  0.00     0.031 C 
ATOM     17  C   UNL A   1      44.220  29.043  31.202  1.00  0.00     0.029 A 
ATOM     18  N   UNL A   1      45.555  29.005  29.397  1.00  0.00    -0.354 N 
ATOM     19  C   UNL A   1      44.347  24.589  28.049  1.00  0.00     0.074 A 
ATOM     20  C   UNL A   1      45.767  24.325  28.140  1.00  0.00     0.031 C 
ATOM     21  C   UNL A   1      44.003  30.183  30.512  1.00  0.00     0.029 A 
ATOM     22  C   UNL A   1      44.885  30.225  29.348  1.00  0.00     0.049 A 
ATOM     23  H   UNL A   1      46.256  28.746  28.757  1.00  0.00     0.167 HD
ATOM     24  C   UNL A   1      43.364  23.950  27.366  1.00  0.00     0.037 A 
ATOM     25  C   UNL A   1      44.610  30.929  28.216  1.00  0.00     0.037 A 
ATOM     26  C   UNL A   1      42.042  24.476  27.532  1.00  0.00     0.049 A 
ATOM     27  C   UNL A   1      43.708  29.980  27.470  1.00  0.00     0.074 A 
ATOM     28  C   UNL A   1      40.952  24.225  28.337  1.00  0.00     0.029 A 
ATOM     29  N   UNL A   1      41.694  25.592  26.806  1.00  0.00    -0.354 N 
ATOM     30  N   UNL A   1      42.431  29.812  27.693  1.00  0.00    -0.248 NA
ATOM     31  C   UNL A   1      44.327  28.928  26.661  1.00  0.00     0.031 C 
ATOM     32  C   UNL A   1      40.211  25.449  28.374  1.00  0.00     0.029 A 
ATOM     33  C   UNL A   1      40.929  26.382  27.629  1.00  0.00     0.049 A 
ATOM     34  H   UNL A   1      41.947  25.787  25.875  1.00  0.00     0.167 HD
ATOM     35  C   UNL A   1      42.150  28.507  27.284  1.00  0.00     0.074 A 
ATOM     36  C   UNL A   1      43.352  28.030  26.632  1.00  0.00     0.031 C 
ATOM     37  C   UNL A   1      41.029  27.826  27.658  1.00  0.00     0.037 A 
BRANCH  24  38
ATOM     38  C   UNL A   1      43.622  22.874  26.396  1.00  0.00     0.058 A 
ATOM     39  C   UNL A   1      43.218  21.574  26.725  1.00  0.00     0.135 A 
ATOM     40  C   UNL A   1      44.382  23.069  25.238  1.00  0.00     0.135 A 
ATOM     41  F   UNL A   1      42.494  21.358  27.835  1.00  0.00    -0.206 F 
ATOM     42  C   UNL A   1      43.586  20.486  25.949  1.00  0.00     0.059 A 
ATOM     43  C   UNL A   1      44.762  21.992  24.441  1.00  0.00     0.059 A 
ATOM     44  F   UNL A   1      44.789  24.300  24.893  1.00  0.00    -0.206 F 
ATOM     45  C   UNL A   1      44.374  20.703  24.818  1.00  0.00     0.060 A 
BRANCH  45  46
ATOM     46  S   UNL A   1      44.909  19.260  23.876  1.00  0.00     0.124 S 
ATOM     47  O   UNL A   1      46.353  19.283  24.088  1.00  0.00    -0.237 OA
ATOM     48  O   UNL A   1      44.186  18.184  24.544  1.00  0.00    -0.237 OA
ATOM     49  O   UNL A   1      44.470  19.559  22.517  1.00  0.00    -0.744 OA
ENDBRANCH  45  46
ENDBRANCH  24  38
BRANCH  25  50
ATOM     50  C   UNL A   1      45.785  31.624  27.594  1.00  0.00     0.058 A 
ATOM     51  C   UNL A   1      45.617  32.948  27.131  1.00  0.00     0.135 A 
ATOM     52  C   UNL A   1      47.063  31.070  27.411  1.00  0.00     0.135 A 
ATOM     53  F   UNL A   1      44.402  33.522  27.147  1.00  0.00    -0.206 F 
ATOM     54  C   UNL A   1      46.675  33.717  26.652  1.00  0.00     0.059 A 
ATOM     55  C   UNL A   1      48.146  31.828  26.957  1.00  0.00     0.059 A 
ATOM     56  F   UNL A   1      47.305  29.780  27.680  1.00  0.00    -0.206 F 
ATOM     57  C   UNL A   1      47.947  33.158  26.605  1.00  0.00     0.060 A 
BRANCH  57  58
ATOM     58  S   UNL A   1      49.333  34.211  26.127  1.00  0.00     0.124 S 
ATOM     59  O   UNL A   1      50.165  33.285  25.367  1.00  0.00    -0.237 OA
ATOM     60  O   UNL A   1      48.666  35.250  25.350  1.00  0.00    -0.237 OA
ATOM     61  O   UNL A   1      49.883  34.649  27.406  1.00  0.00    -0.744 OA
ENDBRANCH  57  58
ENDBRANCH  25  50
BRANCH  37  62
ATOM     62  C   UNL A   1      39.979  28.626  28.355  1.00  0.00     0.058 A 
ATOM     63  C   UNL A   1      39.939  28.663  29.756  1.00  0.00     0.135 A 
ATOM     64  C   UNL A   1      39.057  29.414  27.650  1.00  0.00     0.135 A 
ATOM     65  F   UNL A   1      40.803  27.930  30.479  1.00  0.00    -0.206 F 
ATOM     66  C   UNL A   1      39.046  29.488  30.434  1.00  0.00     0.059 A 
ATOM     67  C   UNL A   1      38.169  30.262  28.307  1.00  0.00     0.059 A 
ATOM     68  F   UNL A   1      39.032  29.407  26.306  1.00  0.00    -0.206 F 
ATOM     69  C   UNL A   1      38.178  30.299  29.701  1.00  0.00     0.060 A 
BRANCH  69  70
ATOM     70  S   UNL A   1      37.123  31.463  30.589  1.00  0.00     0.124 S 
ATOM     71  O   UNL A   1      38.102  32.299  31.277  1.00  0.00    -0.237 OA
ATOM     72  O   UNL A   1      36.388  32.107  29.504  1.00  0.00    -0.237 OA
ATOM     73  O   UNL A   1      36.318  30.605  31.454  1.00  0.00    -0.744 OA
ENDBRANCH  69  70
ENDBRANCH  37  62
ENDBRANCH  11  12
ENDBRANCH   4   6
ENDBRANCH   1   2
BRANCH   1  74
ATOM     74  C   UNL A   1      47.199  22.312  34.687  1.00  0.00     0.042 C 
BRANCH  74  75
ATOM     75  C   UNL A   1      47.371  20.960  35.369  1.00  0.00     0.118 C 
BRANCH  75  76
ATOM     76  N   UNL A   1      46.214  20.097  35.143  1.00  0.00    -0.351 N 
ATOM     77  C   UNL A   1      45.615  19.191  35.964  1.00  0.00     0.270 C 
ATOM     78  H   UNL A   1      45.800  20.186  34.254  1.00  0.00     0.163 HD
ATOM     79  O   UNL A   1      44.748  18.441  35.520  1.00  0.00    -0.268 OA
BRANCH  77  80
ATOM     80  C   UNL A   1      46.057  19.083  37.365  1.00  0.00     0.134 A 
ATOM     81  C   UNL A   1      46.963  19.979  37.778  1.00  0.00     0.063 A 
ATOM     82  N   UNL A   1      45.570  18.110  38.229  1.00  0.00    -0.207 N 
ATOM     83  C   UNL A   1      47.410  19.823  39.195  1.00  0.00     0.075 A 
ATOM     84  C   UNL A   1      45.950  18.111  39.584  1.00  0.00     0.166 A 
ATOM     85  N   UNL A   1      44.691  17.116  37.944  1.00  0.00    -0.145 NA
ATOM     86  N   UNL A   1      46.950  18.940  40.036  1.00  0.00    -0.228 NA
ATOM     87  C   UNL A   1      45.062  17.245  40.196  1.00  0.00     0.069 A 
ATOM     88  C   UNL A   1      44.306  16.673  39.130  1.00  0.00     0.184 A 
ATOM     89  C   UNL A   1      44.888  16.996  41.564  1.00  0.00    -0.028 A 
ATOM     90  N   UNL A   1      43.302  15.790  39.331  1.00  0.00    -0.222 NA
ATOM     91  C   UNL A   1      43.807  16.102  41.738  1.00  0.00     0.038 A 
ATOM     92  C   UNL A   1      43.066  15.540  40.657  1.00  0.00     0.147 A 
BRANCH  83  93
ATOM     93  C   UNL A   1      48.506  20.741  39.589  1.00  0.00     0.000 A 
ATOM     94  C   UNL A   1      49.622  20.214  40.246  1.00  0.00     0.012 A 
ATOM     95  C   UNL A   1      48.461  22.098  39.244  1.00  0.00     0.012 A 
ATOM     96  C   UNL A   1      50.714  21.040  40.524  1.00  0.00     0.021 A 
ATOM     97  C   UNL A   1      49.553  22.921  39.532  1.00  0.00     0.021 A 
ATOM     98  C   UNL A   1      50.678  22.388  40.160  1.00  0.00     0.041 A 
ATOM     99  Cl  UNL A   1      52.042  23.389  40.473  1.00  0.00    -0.084 Cl
ENDBRANCH  83  93
BRANCH  89 100
ATOM    100  C   UNL A   1      45.726  17.625  42.630  1.00  0.00     0.020 C 
ATOM    101  C   UNL A   1      45.833  17.055  44.025  1.00  0.00     0.009 C 
ATOM    102  C   UNL A   1      46.981  16.908  43.074  1.00  0.00     0.009 C 
ENDBRANCH  89 100
BRANCH  92 103
ATOM    103  C   UNL A   1      41.908  14.598  40.976  1.00  0.00     0.433 C 
ATOM    104  F   UNL A   1      41.035  15.115  41.887  1.00  0.00    -0.165 F 
ATOM    105  F   UNL A   1      41.162  14.280  39.879  1.00  0.00    -0.165 F 
ATOM    106  F   UNL A   1      42.308  13.398  41.494  1.00  0.00    -0.165 F 
ENDBRANCH  92 103
ENDBRANCH  77  80
ENDBRANCH  75  76
ENDBRANCH  74  75
ENDBRANCH   1  74
TORSDOF 16
ENDMDL
