MODEL 1
REMARK VINA RESULT:     -12.2      0.000      0.000
REMARK SMILES O=C(CCS(=O)(=O)Nc1ccc(-c2ccccc2)cc1)NCCCNC(=O)c1ccc(-c2c3nc(c(-c4c(F)cc(S(=O)(=O)[O-])cc4F)c4ccc([nH]4)c(-c4c(F)cc(S(=O)(=O)[O-])cc4F)c4nc(c(-c5c(F)cc(S(=O)(=O)[O-])cc5F)c5ccc2[nH]5)C=C4)C=C3)cc1
REMARK SMILES IDX 22 1 21 2 1 3 2 4 3 6 4 7 5 8 6 9 7 10 8 11 9 13 10 14 20 15
REMARK SMILES IDX 11 16 19 17 12 18 13 19 14 20 18 21 15 22 17 23 16 24 23 25
REMARK SMILES IDX 24 26 25 27 26 28 27 30 28 31 29 32 93 33 30 34 92 35 31 36
REMARK SMILES IDX 32 37 33 38 86 39 34 40 91 41 85 42 87 43 35 44 90 45 84 46
REMARK SMILES IDX 83 47 36 49 70 50 49 51 69 52 50 53 53 54 68 55 88 56 51 57
REMARK SMILES IDX 52 58 67 60 89 61 54 62 37 63 38 64 47 65 39 66 40 67 46 68
REMARK SMILES IDX 48 69 41 70 42 71 43 72 44 73 45 74 71 75 72 76 81 77 73 78
REMARK SMILES IDX 74 79 80 80 82 81 75 82 76 83 77 84 78 85 79 86 55 87 56 88
REMARK SMILES IDX 65 89 57 90 58 91 64 92 66 93 59 94 60 95 61 96 62 97 63 98
REMARK H PARENT 21 5 8 12 25 29 87 48 53 59
REMARK Flexibility Score: inf
ROOT
ATOM      1  C   UNL A   1      36.691  22.993  24.904  1.00  0.00     0.117 C 
ENDROOT
BRANCH   1   2
ATOM      2  N   UNL A   1      35.862  24.078  25.387  1.00  0.00    -0.356 N 
ATOM      3  O   UNL A   1      34.615  24.406  23.485  1.00  0.00    -0.275 OA
ATOM      4  C   UNL A   1      34.816  24.612  24.677  1.00  0.00     0.221 C 
ATOM      5  H   UNL A   1      36.058  24.453  26.276  1.00  0.00     0.163 HD
BRANCH   4   6
ATOM      6  C   UNL A   1      33.877  25.476  25.496  1.00  0.00     0.118 C 
BRANCH   6   7
ATOM      7  C   UNL A   1      32.762  26.181  24.728  1.00  0.00     0.170 C 
BRANCH   7   8
ATOM      8  S   UNL A   1      31.112  26.054  25.430  1.00  0.00     0.233 S 
ATOM      9  O   UNL A   1      31.206  25.928  26.873  1.00  0.00    -0.207 OA
ATOM     10  O   UNL A   1      30.346  27.153  24.884  1.00  0.00    -0.207 OA
BRANCH   8  11
ATOM     11  N   UNL A   1      30.338  24.683  24.836  1.00  0.00    -0.284 N 
ATOM     12  H   UNL A   1      29.371  24.751  24.664  1.00  0.00     0.180 HD
BRANCH  11  13
ATOM     13  C   UNL A   1      30.968  23.426  24.557  1.00  0.00     0.049 A 
ATOM     14  C   UNL A   1      31.409  23.133  23.258  1.00  0.00     0.027 A 
ATOM     15  C   UNL A   1      31.327  22.551  25.573  1.00  0.00     0.027 A 
ATOM     16  C   UNL A   1      32.089  21.927  22.980  1.00  0.00     0.011 A 
ATOM     17  C   UNL A   1      31.958  21.340  25.296  1.00  0.00     0.011 A 
ATOM     18  C   UNL A   1      32.343  21.003  23.998  1.00  0.00    -0.018 A 
BRANCH  18  19
ATOM     19  C   UNL A   1      33.027  19.724  23.800  1.00  0.00    -0.018 A 
ATOM     20  C   UNL A   1      34.175  19.417  24.546  1.00  0.00     0.009 A 
ATOM     21  C   UNL A   1      32.454  18.718  23.008  1.00  0.00     0.009 A 
ATOM     22  C   UNL A   1      34.717  18.130  24.526  1.00  0.00     0.001 A 
ATOM     23  C   UNL A   1      32.999  17.431  22.982  1.00  0.00     0.001 A 
ATOM     24  C   UNL A   1      34.124  17.136  23.750  1.00  0.00     0.000 A 
ENDBRANCH  18  19
ENDBRANCH  11  13
ENDBRANCH   8  11
ENDBRANCH   7   8
ENDBRANCH   6   7
ENDBRANCH   4   6
ENDBRANCH   1   2
BRANCH   1  25
ATOM     25  C   UNL A   1      37.866  22.660  25.801  1.00  0.00     0.042 C 
BRANCH  25  26
ATOM     26  C   UNL A   1      38.666  23.853  26.309  1.00  0.00     0.118 C 
BRANCH  26  27
ATOM     27  N   UNL A   1      40.115  23.746  26.178  1.00  0.00    -0.352 N 
ATOM     28  C   UNL A   1      41.091  24.552  26.736  1.00  0.00     0.251 C 
ATOM     29  H   UNL A   1      40.442  23.003  25.619  1.00  0.00     0.163 HD
ATOM     30  O   UNL A   1      42.279  24.337  26.510  1.00  0.00    -0.269 OA
BRANCH  28  31
ATOM     31  C   UNL A   1      40.682  25.719  27.556  1.00  0.00     0.039 A 
ATOM     32  C   UNL A   1      39.702  25.553  28.538  1.00  0.00     0.014 A 
ATOM     33  C   UNL A   1      41.355  26.937  27.441  1.00  0.00     0.014 A 
ATOM     34  C   UNL A   1      39.495  26.563  29.484  1.00  0.00     0.010 A 
ATOM     35  C   UNL A   1      41.233  27.886  28.451  1.00  0.00     0.010 A 
ATOM     36  C   UNL A   1      40.312  27.707  29.494  1.00  0.00    -0.014 A 
BRANCH  36  37
ATOM     37  C   UNL A   1      40.244  28.709  30.596  1.00  0.00     0.031 A 
ATOM     38  C   UNL A   1      41.119  28.557  31.813  1.00  0.00     0.074 A 
ATOM     39  C   UNL A   1      39.336  29.708  30.544  1.00  0.00     0.049 A 
ATOM     40  N   UNL A   1      41.142  29.272  32.909  1.00  0.00    -0.248 NA
ATOM     41  C   UNL A   1      42.068  27.432  31.814  1.00  0.00     0.031 C 
ATOM     42  C   UNL A   1      38.382  29.933  29.454  1.00  0.00     0.029 A 
ATOM     43  N   UNL A   1      39.056  30.717  31.433  1.00  0.00    -0.354 N 
ATOM     44  C   UNL A   1      42.092  28.676  33.731  1.00  0.00     0.074 A 
ATOM     45  C   UNL A   1      42.573  27.502  33.036  1.00  0.00     0.031 C 
ATOM     46  C   UNL A   1      37.651  31.025  29.723  1.00  0.00     0.029 A 
ATOM     47  C   UNL A   1      38.044  31.555  31.024  1.00  0.00     0.049 A 
ATOM     48  H   UNL A   1      39.537  30.831  32.285  1.00  0.00     0.167 HD
ATOM     49  C   UNL A   1      42.545  29.083  34.940  1.00  0.00     0.037 A 
ATOM     50  C   UNL A   1      37.485  32.623  31.630  1.00  0.00     0.037 A 
ATOM     51  C   UNL A   1      42.083  30.267  35.616  1.00  0.00     0.049 A 
ATOM     52  C   UNL A   1      38.003  33.055  32.976  1.00  0.00     0.074 A 
ATOM     53  C   UNL A   1      42.524  30.798  36.815  1.00  0.00     0.029 A 
ATOM     54  N   UNL A   1      41.073  31.100  35.157  1.00  0.00    -0.354 N 
ATOM     55  N   UNL A   1      38.953  32.519  33.705  1.00  0.00    -0.248 NA
ATOM     56  C   UNL A   1      37.379  34.240  33.583  1.00  0.00     0.031 C 
ATOM     57  C   UNL A   1      41.744  31.922  37.108  1.00  0.00     0.029 A 
ATOM     58  C   UNL A   1      40.861  32.128  36.062  1.00  0.00     0.049 A 
ATOM     59  H   UNL A   1      40.580  30.979  34.313  1.00  0.00     0.167 HD
ATOM     60  C   UNL A   1      39.063  33.320  34.838  1.00  0.00     0.074 A 
ATOM     61  C   UNL A   1      38.089  34.383  34.693  1.00  0.00     0.031 C 
ATOM     62  C   UNL A   1      39.895  33.187  35.900  1.00  0.00     0.037 A 
BRANCH  49  63
ATOM     63  C   UNL A   1      43.603  28.244  35.608  1.00  0.00     0.058 A 
ATOM     64  C   UNL A   1      43.274  27.231  36.523  1.00  0.00     0.135 A 
ATOM     65  C   UNL A   1      44.961  28.430  35.301  1.00  0.00     0.135 A 
ATOM     66  F   UNL A   1      41.994  27.018  36.866  1.00  0.00    -0.206 F 
ATOM     67  C   UNL A   1      44.254  26.455  37.135  1.00  0.00     0.059 A 
ATOM     68  C   UNL A   1      45.956  27.644  35.874  1.00  0.00     0.059 A 
ATOM     69  F   UNL A   1      45.334  29.385  34.433  1.00  0.00    -0.206 F 
ATOM     70  C   UNL A   1      45.592  26.668  36.802  1.00  0.00     0.060 A 
BRANCH  70  71
ATOM     71  S   UNL A   1      46.849  25.644  37.597  1.00  0.00     0.124 S 
ATOM     72  O   UNL A   1      46.040  24.856  38.521  1.00  0.00    -0.237 OA
ATOM     73  O   UNL A   1      47.414  24.913  36.468  1.00  0.00    -0.237 OA
ATOM     74  O   UNL A   1      47.740  26.619  38.219  1.00  0.00    -0.744 OA
ENDBRANCH  70  71
ENDBRANCH  49  63
BRANCH  50  75
ATOM     75  C   UNL A   1      36.385  33.373  30.961  1.00  0.00     0.058 A 
ATOM     76  C   UNL A   1      35.069  33.313  31.443  1.00  0.00     0.135 A 
ATOM     77  C   UNL A   1      36.627  34.170  29.830  1.00  0.00     0.135 A 
ATOM     78  F   UNL A   1      34.782  32.559  32.517  1.00  0.00    -0.206 F 
ATOM     79  C   UNL A   1      34.029  33.998  30.821  1.00  0.00     0.059 A 
ATOM     80  C   UNL A   1      35.610  34.888  29.208  1.00  0.00     0.059 A 
ATOM     81  F   UNL A   1      37.870  34.275  29.335  1.00  0.00    -0.206 F 
ATOM     82  C   UNL A   1      34.311  34.787  29.706  1.00  0.00     0.060 A 
BRANCH  82  83
ATOM     83  S   UNL A   1      32.963  35.709  28.934  1.00  0.00     0.124 S 
ATOM     84  O   UNL A   1      32.179  36.114  30.096  1.00  0.00    -0.237 OA
ATOM     85  O   UNL A   1      33.679  36.777  28.243  1.00  0.00    -0.237 OA
ATOM     86  O   UNL A   1      32.336  34.720  28.063  1.00  0.00    -0.744 OA
ENDBRANCH  82  83
ENDBRANCH  50  75
BRANCH  62  87
ATOM     87  C   UNL A   1      39.829  34.239  36.974  1.00  0.00     0.058 A 
ATOM     88  C   UNL A   1      40.453  35.487  36.832  1.00  0.00     0.135 A 
ATOM     89  C   UNL A   1      39.079  34.012  38.140  1.00  0.00     0.135 A 
ATOM     90  F   UNL A   1      41.187  35.756  35.740  1.00  0.00    -0.206 F 
ATOM     91  C   UNL A   1      40.354  36.466  37.817  1.00  0.00     0.059 A 
ATOM     92  C   UNL A   1      38.941  34.986  39.124  1.00  0.00     0.059 A 
ATOM     93  F   UNL A   1      38.452  32.838  38.324  1.00  0.00    -0.206 F 
ATOM     94  C   UNL A   1      39.592  36.207  38.958  1.00  0.00     0.060 A 
BRANCH  94  95
ATOM     95  S   UNL A   1      39.444  37.498  40.211  1.00  0.00     0.124 S 
ATOM     96  O   UNL A   1      38.564  38.453  39.545  1.00  0.00    -0.237 OA
ATOM     97  O   UNL A   1      38.859  36.774  41.336  1.00  0.00    -0.237 OA
ATOM     98  O   UNL A   1      40.820  37.943  40.407  1.00  0.00    -0.744 OA
ENDBRANCH  94  95
ENDBRANCH  62  87
ENDBRANCH  36  37
ENDBRANCH  28  31
ENDBRANCH  26  27
ENDBRANCH  25  26
ENDBRANCH   1  25
TORSDOF 18
ENDMDL
MODEL 2
REMARK VINA RESULT:     -12.0      4.990     10.474
REMARK SMILES O=C(CCS(=O)(=O)Nc1ccc(-c2ccccc2)cc1)NCCCNC(=O)c1ccc(-c2c3nc(c(-c4c(F)cc(S(=O)(=O)[O-])cc4F)c4ccc([nH]4)c(-c4c(F)cc(S(=O)(=O)[O-])cc4F)c4nc(c(-c5c(F)cc(S(=O)(=O)[O-])cc5F)c5ccc2[nH]5)C=C4)C=C3)cc1
REMARK SMILES IDX 22 1 21 2 1 3 2 4 3 6 4 7 5 8 6 9 7 10 8 11 9 13 10 14 20 15
REMARK SMILES IDX 11 16 19 17 12 18 13 19 14 20 18 21 15 22 17 23 16 24 23 25
REMARK SMILES IDX 24 26 25 27 26 28 27 30 28 31 29 32 93 33 30 34 92 35 31 36
REMARK SMILES IDX 32 37 33 38 86 39 34 40 91 41 85 42 87 43 35 44 90 45 84 46
REMARK SMILES IDX 83 47 36 49 70 50 49 51 69 52 50 53 53 54 68 55 88 56 51 57
REMARK SMILES IDX 52 58 67 60 89 61 54 62 37 63 38 64 47 65 39 66 40 67 46 68
REMARK SMILES IDX 48 69 41 70 42 71 43 72 44 73 45 74 71 75 72 76 81 77 73 78
REMARK SMILES IDX 74 79 80 80 82 81 75 82 76 83 77 84 78 85 79 86 55 87 56 88
REMARK SMILES IDX 65 89 57 90 58 91 64 92 66 93 59 94 60 95 61 96 62 97 63 98
REMARK H PARENT 21 5 8 12 25 29 87 48 53 59
REMARK Flexibility Score: inf
ROOT
ATOM      1  C   UNL A   1      31.675  29.482  25.910  1.00  0.00     0.117 C 
ENDROOT
BRANCH   1   2
ATOM      2  N   UNL A   1      31.117  28.915  24.699  1.00  0.00    -0.356 N 
ATOM      3  O   UNL A   1      29.794  30.691  24.087  1.00  0.00    -0.275 OA
ATOM      4  C   UNL A   1      30.317  29.613  23.830  1.00  0.00     0.221 C 
ATOM      5  H   UNL A   1      31.325  27.976  24.487  1.00  0.00     0.163 HD
BRANCH   4   6
ATOM      6  C   UNL A   1      30.139  28.955  22.475  1.00  0.00     0.118 C 
BRANCH   6   7
ATOM      7  C   UNL A   1      30.094  27.429  22.463  1.00  0.00     0.170 C 
BRANCH   7   8
ATOM      8  S   UNL A   1      31.629  26.592  22.047  1.00  0.00     0.233 S 
ATOM      9  O   UNL A   1      31.565  26.112  20.678  1.00  0.00    -0.207 OA
ATOM     10  O   UNL A   1      32.701  27.493  22.411  1.00  0.00    -0.207 OA
BRANCH   8  11
ATOM     11  N   UNL A   1      31.852  25.265  23.055  1.00  0.00    -0.284 N 
ATOM     12  H   UNL A   1      31.046  24.779  23.346  1.00  0.00     0.180 HD
BRANCH  11  13
ATOM     13  C   UNL A   1      33.116  24.778  23.526  1.00  0.00     0.049 A 
ATOM     14  C   UNL A   1      33.575  25.134  24.803  1.00  0.00     0.027 A 
ATOM     15  C   UNL A   1      33.828  23.812  22.831  1.00  0.00     0.027 A 
ATOM     16  C   UNL A   1      34.786  24.613  25.308  1.00  0.00     0.011 A 
ATOM     17  C   UNL A   1      35.046  23.328  23.305  1.00  0.00     0.011 A 
ATOM     18  C   UNL A   1      35.549  23.724  24.544  1.00  0.00    -0.018 A 
BRANCH  18  19
ATOM     19  C   UNL A   1      36.822  23.144  24.980  1.00  0.00    -0.018 A 
ATOM     20  C   UNL A   1      37.656  23.855  25.856  1.00  0.00     0.009 A 
ATOM     21  C   UNL A   1      37.143  21.811  24.683  1.00  0.00     0.009 A 
ATOM     22  C   UNL A   1      38.763  23.241  26.445  1.00  0.00     0.001 A 
ATOM     23  C   UNL A   1      38.255  21.197  25.267  1.00  0.00     0.001 A 
ATOM     24  C   UNL A   1      39.057  21.910  26.155  1.00  0.00     0.000 A 
ENDBRANCH  18  19
ENDBRANCH  11  13
ENDBRANCH   8  11
ENDBRANCH   7   8
ENDBRANCH   6   7
ENDBRANCH   4   6
ENDBRANCH   1   2
BRANCH   1  25
ATOM     25  C   UNL A   1      32.267  28.461  26.860  1.00  0.00     0.042 C 
BRANCH  25  26
ATOM     26  C   UNL A   1      33.619  28.826  27.461  1.00  0.00     0.118 C 
BRANCH  26  27
ATOM     27  N   UNL A   1      33.747  30.197  27.944  1.00  0.00    -0.352 N 
ATOM     28  C   UNL A   1      34.878  30.839  28.417  1.00  0.00     0.251 C 
ATOM     29  H   UNL A   1      32.923  30.735  27.931  1.00  0.00     0.163 HD
ATOM     30  O   UNL A   1      34.815  32.001  28.808  1.00  0.00    -0.269 OA
BRANCH  28  31
ATOM     31  C   UNL A   1      36.152  30.084  28.509  1.00  0.00     0.039 A 
ATOM     32  C   UNL A   1      37.059  30.145  27.447  1.00  0.00     0.014 A 
ATOM     33  C   UNL A   1      36.502  29.427  29.689  1.00  0.00     0.014 A 
ATOM     34  C   UNL A   1      38.360  29.662  27.624  1.00  0.00     0.010 A 
ATOM     35  C   UNL A   1      37.828  29.058  29.901  1.00  0.00     0.010 A 
ATOM     36  C   UNL A   1      38.779  29.184  28.877  1.00  0.00    -0.014 A 
BRANCH  36  37
ATOM     37  C   UNL A   1      40.203  28.839  29.150  1.00  0.00     0.031 A 
ATOM     38  C   UNL A   1      41.127  29.862  29.758  1.00  0.00     0.074 A 
ATOM     39  C   UNL A   1      40.690  27.637  28.772  1.00  0.00     0.049 A 
ATOM     40  N   UNL A   1      42.413  29.781  29.989  1.00  0.00    -0.248 NA
ATOM     41  C   UNL A   1      40.536  31.159  30.123  1.00  0.00     0.031 C 
ATOM     42  C   UNL A   1      39.921  26.578  28.113  1.00  0.00     0.029 A 
ATOM     43  N   UNL A   1      41.952  27.104  28.877  1.00  0.00    -0.354 N 
ATOM     44  C   UNL A   1      42.783  31.017  30.509  1.00  0.00     0.074 A 
ATOM     45  C   UNL A   1      41.601  31.850  30.496  1.00  0.00     0.031 C 
ATOM     46  C   UNL A   1      40.715  25.516  27.905  1.00  0.00     0.029 A 
ATOM     47  C   UNL A   1      42.063  25.830  28.368  1.00  0.00     0.049 A 
ATOM     48  H   UNL A   1      42.709  27.589  29.280  1.00  0.00     0.167 HD
ATOM     49  C   UNL A   1      43.989  31.413  30.981  1.00  0.00     0.037 A 
ATOM     50  C   UNL A   1      43.128  25.008  28.273  1.00  0.00     0.037 A 
ATOM     51  C   UNL A   1      45.156  30.571  31.017  1.00  0.00     0.049 A 
ATOM     52  C   UNL A   1      44.460  25.471  28.803  1.00  0.00     0.074 A 
ATOM     53  C   UNL A   1      46.406  30.859  31.533  1.00  0.00     0.029 A 
ATOM     54  N   UNL A   1      45.219  29.279  30.514  1.00  0.00    -0.354 N 
ATOM     55  N   UNL A   1      44.773  26.618  29.357  1.00  0.00    -0.248 NA
ATOM     56  C   UNL A   1      45.583  24.529  28.700  1.00  0.00     0.031 C 
ATOM     57  C   UNL A   1      47.241  29.762  31.293  1.00  0.00     0.029 A 
ATOM     58  C   UNL A   1      46.494  28.767  30.686  1.00  0.00     0.049 A 
ATOM     59  H   UNL A   1      44.468  28.798  30.096  1.00  0.00     0.167 HD
ATOM     60  C   UNL A   1      46.118  26.523  29.699  1.00  0.00     0.074 A 
ATOM     61  C   UNL A   1      46.556  25.202  29.299  1.00  0.00     0.031 C 
ATOM     62  C   UNL A   1      46.916  27.445  30.292  1.00  0.00     0.037 A 
BRANCH  49  63
ATOM     63  C   UNL A   1      44.105  32.820  31.507  1.00  0.00     0.058 A 
ATOM     64  C   UNL A   1      43.940  33.115  32.869  1.00  0.00     0.135 A 
ATOM     65  C   UNL A   1      44.422  33.880  30.642  1.00  0.00     0.135 A 
ATOM     66  F   UNL A   1      43.620  32.144  33.739  1.00  0.00    -0.206 F 
ATOM     67  C   UNL A   1      44.052  34.415  33.352  1.00  0.00     0.059 A 
ATOM     68  C   UNL A   1      44.574  35.183  31.108  1.00  0.00     0.059 A 
ATOM     69  F   UNL A   1      44.592  33.657  29.330  1.00  0.00    -0.206 F 
ATOM     70  C   UNL A   1      44.371  35.443  32.463  1.00  0.00     0.060 A 
BRANCH  70  71
ATOM     71  S   UNL A   1      44.524  37.121  33.109  1.00  0.00     0.124 S 
ATOM     72  O   UNL A   1      45.394  36.911  34.262  1.00  0.00    -0.237 OA
ATOM     73  O   UNL A   1      45.122  37.834  31.985  1.00  0.00    -0.237 OA
ATOM     74  O   UNL A   1      43.147  37.493  33.422  1.00  0.00    -0.744 OA
ENDBRANCH  70  71
ENDBRANCH  49  63
BRANCH  50  75
ATOM     75  C   UNL A   1      42.978  23.653  27.673  1.00  0.00     0.058 A 
ATOM     76  C   UNL A   1      43.159  23.446  26.297  1.00  0.00     0.135 A 
ATOM     77  C   UNL A   1      42.657  22.535  28.460  1.00  0.00     0.135 A 
ATOM     78  F   UNL A   1      43.459  24.482  25.497  1.00  0.00    -0.206 F 
ATOM     79  C   UNL A   1      43.010  22.189  25.719  1.00  0.00     0.059 A 
ATOM     80  C   UNL A   1      42.530  21.262  27.911  1.00  0.00     0.059 A 
ATOM     81  F   UNL A   1      42.487  22.673  29.784  1.00  0.00    -0.206 F 
ATOM     82  C   UNL A   1      42.699  21.101  26.537  1.00  0.00     0.060 A 
BRANCH  82  83
ATOM     83  S   UNL A   1      42.553  19.466  25.784  1.00  0.00     0.124 S 
ATOM     84  O   UNL A   1      41.150  19.448  25.385  1.00  0.00    -0.237 OA
ATOM     85  O   UNL A   1      43.525  19.542  24.697  1.00  0.00    -0.237 OA
ATOM     86  O   UNL A   1      42.912  18.562  26.873  1.00  0.00    -0.744 OA
ENDBRANCH  82  83
ENDBRANCH  50  75
BRANCH  62  87
ATOM     87  C   UNL A   1      48.337  27.050  30.589  1.00  0.00     0.058 A 
ATOM     88  C   UNL A   1      49.387  27.330  29.702  1.00  0.00     0.135 A 
ATOM     89  C   UNL A   1      48.659  26.432  31.810  1.00  0.00     0.135 A 
ATOM     90  F   UNL A   1      49.137  27.913  28.519  1.00  0.00    -0.206 F 
ATOM     91  C   UNL A   1      50.703  26.992  30.004  1.00  0.00     0.059 A 
ATOM     92  C   UNL A   1      49.970  26.114  32.146  1.00  0.00     0.059 A 
ATOM     93  F   UNL A   1      47.694  26.151  32.701  1.00  0.00    -0.206 F 
ATOM     94  C   UNL A   1      50.986  26.387  31.231  1.00  0.00     0.060 A 
BRANCH  94  95
ATOM     95  S   UNL A   1      52.701  25.987  31.624  1.00  0.00     0.124 S 
ATOM     96  O   UNL A   1      53.339  26.110  30.317  1.00  0.00    -0.237 OA
ATOM     97  O   UNL A   1      53.046  27.020  32.597  1.00  0.00    -0.237 OA
ATOM     98  O   UNL A   1      52.621  24.632  32.160  1.00  0.00    -0.744 OA
ENDBRANCH  94  95
ENDBRANCH  62  87
ENDBRANCH  36  37
ENDBRANCH  28  31
ENDBRANCH  26  27
ENDBRANCH  25  26
ENDBRANCH   1  25
TORSDOF 18
ENDMDL
MODEL 3
REMARK VINA RESULT:     -12.0      2.689      3.342
REMARK SMILES O=C(CCS(=O)(=O)Nc1ccc(-c2ccccc2)cc1)NCCCNC(=O)c1ccc(-c2c3nc(c(-c4c(F)cc(S(=O)(=O)[O-])cc4F)c4ccc([nH]4)c(-c4c(F)cc(S(=O)(=O)[O-])cc4F)c4nc(c(-c5c(F)cc(S(=O)(=O)[O-])cc5F)c5ccc2[nH]5)C=C4)C=C3)cc1
REMARK SMILES IDX 22 1 21 2 1 3 2 4 3 6 4 7 5 8 6 9 7 10 8 11 9 13 10 14 20 15
REMARK SMILES IDX 11 16 19 17 12 18 13 19 14 20 18 21 15 22 17 23 16 24 23 25
REMARK SMILES IDX 24 26 25 27 26 28 27 30 28 31 29 32 93 33 30 34 92 35 31 36
REMARK SMILES IDX 32 37 33 38 86 39 34 40 91 41 85 42 87 43 35 44 90 45 84 46
REMARK SMILES IDX 83 47 36 49 70 50 49 51 69 52 50 53 53 54 68 55 88 56 51 57
REMARK SMILES IDX 52 58 67 60 89 61 54 62 37 63 38 64 47 65 39 66 40 67 46 68
REMARK SMILES IDX 48 69 41 70 42 71 43 72 44 73 45 74 71 75 72 76 81 77 73 78
REMARK SMILES IDX 74 79 80 80 82 81 75 82 76 83 77 84 78 85 79 86 55 87 56 88
REMARK SMILES IDX 65 89 57 90 58 91 64 92 66 93 59 94 60 95 61 96 62 97 63 98
REMARK H PARENT 21 5 8 12 25 29 87 48 53 59
REMARK Flexibility Score: inf
ROOT
ATOM      1  C   UNL A   1      35.217  23.326  23.558  1.00  0.00     0.117 C 
ENDROOT
BRANCH   1   2
ATOM      2  N   UNL A   1      34.628  24.472  24.221  1.00  0.00    -0.356 N 
ATOM      3  O   UNL A   1      33.889  25.585  22.351  1.00  0.00    -0.275 OA
ATOM      4  C   UNL A   1      33.912  25.444  23.569  1.00  0.00     0.221 C 
ATOM      5  H   UNL A   1      34.749  24.559  25.194  1.00  0.00     0.163 HD
BRANCH   4   6
ATOM      6  C   UNL A   1      33.100  26.343  24.480  1.00  0.00     0.118 C 
BRANCH   6   7
ATOM      7  C   UNL A   1      31.589  26.124  24.476  1.00  0.00     0.170 C 
BRANCH   7   8
ATOM      8  S   UNL A   1      30.815  25.895  26.083  1.00  0.00     0.233 S 
ATOM      9  O   UNL A   1      31.083  27.051  26.920  1.00  0.00    -0.207 OA
ATOM     10  O   UNL A   1      29.438  25.533  25.829  1.00  0.00    -0.207 OA
BRANCH   8  11
ATOM     11  N   UNL A   1      31.460  24.541  26.843  1.00  0.00    -0.284 N 
ATOM     12  H   UNL A   1      31.592  24.591  27.818  1.00  0.00     0.180 HD
BRANCH  11  13
ATOM     13  C   UNL A   1      31.832  23.318  26.193  1.00  0.00     0.049 A 
ATOM     14  C   UNL A   1      31.354  23.033  24.905  1.00  0.00     0.027 A 
ATOM     15  C   UNL A   1      32.802  22.479  26.721  1.00  0.00     0.027 A 
ATOM     16  C   UNL A   1      31.762  21.865  24.225  1.00  0.00     0.011 A 
ATOM     17  C   UNL A   1      33.174  21.303  26.074  1.00  0.00     0.011 A 
ATOM     18  C   UNL A   1      32.657  20.971  24.821  1.00  0.00    -0.018 A 
BRANCH  18  19
ATOM     19  C   UNL A   1      33.123  19.731  24.197  1.00  0.00    -0.018 A 
ATOM     20  C   UNL A   1      34.249  19.067  24.706  1.00  0.00     0.009 A 
ATOM     21  C   UNL A   1      32.357  19.091  23.211  1.00  0.00     0.009 A 
ATOM     22  C   UNL A   1      34.584  17.786  24.264  1.00  0.00     0.001 A 
ATOM     23  C   UNL A   1      32.694  17.811  22.763  1.00  0.00     0.001 A 
ATOM     24  C   UNL A   1      33.801  17.155  23.298  1.00  0.00     0.000 A 
ENDBRANCH  18  19
ENDBRANCH  11  13
ENDBRANCH   8  11
ENDBRANCH   7   8
ENDBRANCH   6   7
ENDBRANCH   4   6
ENDBRANCH   1   2
BRANCH   1  25
ATOM     25  C   UNL A   1      36.142  22.506  24.435  1.00  0.00     0.042 C 
BRANCH  25  26
ATOM     26  C   UNL A   1      37.264  23.281  25.115  1.00  0.00     0.118 C 
BRANCH  26  27
ATOM     27  N   UNL A   1      38.491  22.532  25.363  1.00  0.00    -0.352 N 
ATOM     28  C   UNL A   1      39.589  22.907  26.116  1.00  0.00     0.251 C 
ATOM     29  H   UNL A   1      38.544  21.644  24.940  1.00  0.00     0.163 HD
ATOM     30  O   UNL A   1      40.561  22.162  26.211  1.00  0.00    -0.269 OA
BRANCH  28  31
ATOM     31  C   UNL A   1      39.607  24.247  26.751  1.00  0.00     0.039 A 
ATOM     32  C   UNL A   1      39.021  24.414  28.008  1.00  0.00     0.014 A 
ATOM     33  C   UNL A   1      40.310  25.300  26.163  1.00  0.00     0.014 A 
ATOM     34  C   UNL A   1      39.256  25.591  28.728  1.00  0.00     0.010 A 
ATOM     35  C   UNL A   1      40.640  26.415  26.928  1.00  0.00     0.010 A 
ATOM     36  C   UNL A   1      40.131  26.570  28.226  1.00  0.00    -0.014 A 
BRANCH  36  37
ATOM     37  C   UNL A   1      40.549  27.743  29.046  1.00  0.00     0.031 A 
ATOM     38  C   UNL A   1      41.861  27.719  29.787  1.00  0.00     0.074 A 
ATOM     39  C   UNL A   1      39.714  28.793  29.195  1.00  0.00     0.049 A 
ATOM     40  N   UNL A   1      42.357  28.601  30.617  1.00  0.00    -0.248 NA
ATOM     41  C   UNL A   1      42.710  26.533  29.599  1.00  0.00     0.031 C 
ATOM     42  C   UNL A   1      38.386  28.917  28.587  1.00  0.00     0.029 A 
ATOM     43  N   UNL A   1      39.849  29.957  29.914  1.00  0.00    -0.354 N 
ATOM     44  C   UNL A   1      43.563  28.070  31.058  1.00  0.00     0.074 A 
ATOM     45  C   UNL A   1      43.692  26.761  30.458  1.00  0.00     0.031 C 
ATOM     46  C   UNL A   1      37.848  30.097  28.929  1.00  0.00     0.029 A 
ATOM     47  C   UNL A   1      38.765  30.799  29.821  1.00  0.00     0.049 A 
ATOM     48  H   UNL A   1      40.650  30.168  30.448  1.00  0.00     0.167 HD
ATOM     49  C   UNL A   1      44.494  28.631  31.866  1.00  0.00     0.037 A 
ATOM     50  C   UNL A   1      38.527  31.997  30.395  1.00  0.00     0.037 A 
ATOM     51  C   UNL A   1      44.375  29.946  32.440  1.00  0.00     0.049 A 
ATOM     52  C   UNL A   1      39.576  32.600  31.292  1.00  0.00     0.074 A 
ATOM     53  C   UNL A   1      45.292  30.628  33.220  1.00  0.00     0.029 A 
ATOM     54  N   UNL A   1      43.272  30.776  32.301  1.00  0.00    -0.354 N 
ATOM     55  N   UNL A   1      40.743  32.112  31.640  1.00  0.00    -0.248 NA
ATOM     56  C   UNL A   1      39.281  33.918  31.872  1.00  0.00     0.031 C 
ATOM     57  C   UNL A   1      44.721  31.848  33.599  1.00  0.00     0.029 A 
ATOM     58  C   UNL A   1      43.476  31.953  33.002  1.00  0.00     0.049 A 
ATOM     59  H   UNL A   1      42.464  30.559  31.782  1.00  0.00     0.167 HD
ATOM     60  C   UNL A   1      41.334  33.077  32.450  1.00  0.00     0.074 A 
ATOM     61  C   UNL A   1      40.400  34.180  32.532  1.00  0.00     0.031 C 
ATOM     62  C   UNL A   1      42.541  33.050  33.067  1.00  0.00     0.037 A 
BRANCH  49  63
ATOM     63  C   UNL A   1      45.731  27.826  32.171  1.00  0.00     0.058 A 
ATOM     64  C   UNL A   1      45.811  26.994  33.299  1.00  0.00     0.135 A 
ATOM     65  C   UNL A   1      46.835  27.859  31.304  1.00  0.00     0.135 A 
ATOM     66  F   UNL A   1      44.792  26.934  34.171  1.00  0.00    -0.206 F 
ATOM     67  C   UNL A   1      46.953  26.248  33.574  1.00  0.00     0.059 A 
ATOM     68  C   UNL A   1      47.975  27.096  31.541  1.00  0.00     0.059 A 
ATOM     69  F   UNL A   1      46.814  28.638  30.210  1.00  0.00    -0.206 F 
ATOM     70  C   UNL A   1      48.030  26.306  32.688  1.00  0.00     0.060 A 
BRANCH  70  71
ATOM     71  S   UNL A   1      49.499  25.323  33.056  1.00  0.00     0.124 S 
ATOM     72  O   UNL A   1      50.268  26.248  33.882  1.00  0.00    -0.237 OA
ATOM     73  O   UNL A   1      48.935  24.170  33.752  1.00  0.00    -0.237 OA
ATOM     74  O   UNL A   1      50.060  25.043  31.738  1.00  0.00    -0.744 OA
ENDBRANCH  70  71
ENDBRANCH  49  63
BRANCH  50  75
ATOM     75  C   UNL A   1      37.253  32.718  30.123  1.00  0.00     0.058 A 
ATOM     76  C   UNL A   1      36.101  32.465  30.883  1.00  0.00     0.135 A 
ATOM     77  C   UNL A   1      37.159  33.678  29.102  1.00  0.00     0.135 A 
ATOM     78  F   UNL A   1      36.134  31.551  31.866  1.00  0.00    -0.206 F 
ATOM     79  C   UNL A   1      34.899  33.122  30.633  1.00  0.00     0.059 A 
ATOM     80  C   UNL A   1      35.977  34.369  28.851  1.00  0.00     0.059 A 
ATOM     81  F   UNL A   1      38.234  33.970  28.354  1.00  0.00    -0.206 F 
ATOM     82  C   UNL A   1      34.849  34.076  29.616  1.00  0.00     0.060 A 
BRANCH  82  83
ATOM     83  S   UNL A   1      33.297  34.956  29.331  1.00  0.00     0.124 S 
ATOM     84  O   UNL A   1      32.682  34.905  30.652  1.00  0.00    -0.237 OA
ATOM     85  O   UNL A   1      33.766  36.267  28.894  1.00  0.00    -0.237 OA
ATOM     86  O   UNL A   1      32.644  34.156  28.298  1.00  0.00    -0.744 OA
ENDBRANCH  82  83
ENDBRANCH  50  75
BRANCH  62  87
ATOM     87  C   UNL A   1      42.949  34.267  33.853  1.00  0.00     0.058 A 
ATOM     88  C   UNL A   1      42.821  34.327  35.249  1.00  0.00     0.135 A 
ATOM     89  C   UNL A   1      43.531  35.367  33.202  1.00  0.00     0.135 A 
ATOM     90  F   UNL A   1      42.267  33.306  35.923  1.00  0.00    -0.206 F 
ATOM     91  C   UNL A   1      43.236  35.443  35.970  1.00  0.00     0.059 A 
ATOM     92  C   UNL A   1      43.981  36.480  33.904  1.00  0.00     0.059 A 
ATOM     93  F   UNL A   1      43.688  35.359  31.868  1.00  0.00    -0.206 F 
ATOM     94  C   UNL A   1      43.818  36.514  35.288  1.00  0.00     0.060 A 
BRANCH  94  95
ATOM     95  S   UNL A   1      44.384  37.940  36.239  1.00  0.00     0.124 S 
ATOM     96  O   UNL A   1      43.447  37.938  37.358  1.00  0.00    -0.237 OA
ATOM     97  O   UNL A   1      45.759  37.572  36.563  1.00  0.00    -0.237 OA
ATOM     98  O   UNL A   1      44.243  39.052  35.303  1.00  0.00    -0.744 OA
ENDBRANCH  94  95
ENDBRANCH  62  87
ENDBRANCH  36  37
ENDBRANCH  28  31
ENDBRANCH  26  27
ENDBRANCH  25  26
ENDBRANCH   1  25
TORSDOF 18
ENDMDL
