MODEL 1
REMARK VINA RESULT:     -12.2      0.000      0.000
REMARK SMILES CCn1ncc(CNc2ccccc2C(=O)NCCCNC(=O)c2ccc(-c3c4nc(c(-c5c(F)cc(S(=O)(=O)[O-])cc5F)c5ccc([nH]5)c(-c5c(F)cc(S(=O)(=O)[O-])cc5F)c5nc(c(-c6c(F)cc(S(=O)(=O)[O-])cc6F)c6ccc3[nH]6)C=C5)C=C4)cc2)c1C
REMARK SMILES IDX 18 1 17 2 15 3 16 4 14 6 9 7 10 8 11 9 13 10 12 11 8 12 7 14
REMARK SMILES IDX 6 15 3 16 4 17 90 18 5 19 91 20 2 21 1 22 19 23 20 24 21 25
REMARK SMILES IDX 22 26 23 28 24 29 25 30 89 31 26 32 88 33 27 34 28 35 29 36
REMARK SMILES IDX 82 37 30 38 87 39 81 40 83 41 31 42 86 43 80 44 79 45 32 47
REMARK SMILES IDX 66 48 45 49 65 50 46 51 49 52 64 53 84 54 47 55 48 56 63 58
REMARK SMILES IDX 85 59 50 60 33 61 34 62 43 63 35 64 36 65 42 66 44 67 37 68
REMARK SMILES IDX 38 69 39 70 40 71 41 72 67 73 68 74 77 75 69 76 70 77 76 78
REMARK SMILES IDX 78 79 71 80 72 81 73 82 74 83 75 84 51 85 52 86 61 87 53 88
REMARK SMILES IDX 54 89 60 90 62 91 55 92 56 93 57 94 58 95 59 96
REMARK H PARENT 17 5 8 13 21 27 83 46 49 57
REMARK Flexibility Score: inf
ROOT
ATOM      1  C   UNL A   1      32.129  30.031  25.299  1.00  0.00     0.118 C 
ENDROOT
BRANCH   1   2
ATOM      2  N   UNL A   1      33.289  29.590  24.587  1.00  0.00    -0.352 N 
ATOM      3  C   UNL A   1      33.305  28.371  23.921  1.00  0.00     0.253 C 
ATOM      4  O   UNL A   1      33.845  28.311  22.816  1.00  0.00    -0.269 OA
ATOM      5  H   UNL A   1      34.091  30.162  24.569  1.00  0.00     0.163 HD
BRANCH   3   6
ATOM      6  C   UNL A   1      32.908  27.093  24.601  1.00  0.00     0.062 A 
ATOM      7  C   UNL A   1      31.640  26.617  25.010  1.00  0.00     0.047 A 
ATOM      8  C   UNL A   1      31.634  25.425  25.785  1.00  0.00     0.026 A 
ATOM      9  C   UNL A   1      32.787  24.702  26.100  1.00  0.00     0.002 A 
ATOM     10  C   UNL A   1      34.066  26.323  24.904  1.00  0.00     0.016 A 
ATOM     11  C   UNL A   1      34.009  25.141  25.637  1.00  0.00     0.001 A 
BRANCH   7  12
ATOM     12  N   UNL A   1      30.366  27.076  24.717  1.00  0.00    -0.380 N 
ATOM     13  H   UNL A   1      29.926  27.566  25.448  1.00  0.00     0.160 HD
BRANCH  12  14
ATOM     14  C   UNL A   1      29.573  26.951  23.509  1.00  0.00     0.152 C 
BRANCH  14  15
ATOM     15  C   UNL A   1      28.761  28.149  23.159  1.00  0.00     0.012 A 
ATOM     16  N   UNL A   1      28.067  30.118  22.500  1.00  0.00    -0.270 N 
ATOM     17  N   UNL A   1      26.959  29.532  22.982  1.00  0.00    -0.181 NA
ATOM     18  C   UNL A   1      29.167  29.298  22.509  1.00  0.00     0.040 A 
ATOM     19  C   UNL A   1      27.389  28.357  23.431  1.00  0.00     0.141 A 
ATOM     20  C   UNL A   1      30.507  29.624  21.971  1.00  0.00     0.067 C 
BRANCH  16  21
ATOM     21  C   UNL A   1      27.984  31.522  22.152  1.00  0.00     0.141 C 
ATOM     22  C   UNL A   1      28.594  32.385  23.243  1.00  0.00     0.029 C 
ENDBRANCH  16  21
ENDBRANCH  14  15
ENDBRANCH  12  14
ENDBRANCH   7  12
ENDBRANCH   3   6
ENDBRANCH   1   2
BRANCH   1  23
ATOM     23  C   UNL A   1      32.026  29.929  26.808  1.00  0.00     0.042 C 
BRANCH  23  24
ATOM     24  C   UNL A   1      33.398  30.064  27.471  1.00  0.00     0.118 C 
BRANCH  24  25
ATOM     25  N   UNL A   1      34.108  31.335  27.209  1.00  0.00    -0.352 N 
ATOM     26  C   UNL A   1      35.318  31.758  27.752  1.00  0.00     0.251 C 
ATOM     27  H   UNL A   1      33.675  31.953  26.577  1.00  0.00     0.163 HD
ATOM     28  O   UNL A   1      35.747  32.893  27.583  1.00  0.00    -0.269 OA
BRANCH  26  29
ATOM     29  C   UNL A   1      36.058  30.784  28.571  1.00  0.00     0.039 A 
ATOM     30  C   UNL A   1      36.472  29.573  28.009  1.00  0.00     0.014 A 
ATOM     31  C   UNL A   1      36.649  31.299  29.711  1.00  0.00     0.014 A 
ATOM     32  C   UNL A   1      37.643  28.981  28.484  1.00  0.00     0.010 A 
ATOM     33  C   UNL A   1      37.896  30.817  30.033  1.00  0.00     0.010 A 
ATOM     34  C   UNL A   1      38.416  29.659  29.438  1.00  0.00    -0.014 A 
BRANCH  34  35
ATOM     35  C   UNL A   1      39.832  29.297  29.664  1.00  0.00     0.031 A 
ATOM     36  C   UNL A   1      40.269  29.056  31.087  1.00  0.00     0.074 A 
ATOM     37  C   UNL A   1      40.638  28.871  28.665  1.00  0.00     0.049 A 
ATOM     38  N   UNL A   1      41.242  29.611  31.739  1.00  0.00    -0.248 NA
ATOM     39  C   UNL A   1      39.494  28.106  31.905  1.00  0.00     0.031 C 
ATOM     40  C   UNL A   1      40.318  28.717  27.239  1.00  0.00     0.029 A 
ATOM     41  N   UNL A   1      41.880  28.316  28.746  1.00  0.00    -0.354 N 
ATOM     42  C   UNL A   1      41.328  28.957  32.974  1.00  0.00     0.074 A 
ATOM     43  C   UNL A   1      40.143  28.147  33.071  1.00  0.00     0.031 C 
ATOM     44  C   UNL A   1      41.180  27.851  26.671  1.00  0.00     0.029 A 
ATOM     45  C   UNL A   1      42.244  27.594  27.618  1.00  0.00     0.049 A 
ATOM     46  H   UNL A   1      42.465  28.417  29.532  1.00  0.00     0.167 HD
ATOM     47  C   UNL A   1      42.460  28.986  33.741  1.00  0.00     0.037 A 
ATOM     48  C   UNL A   1      43.346  26.833  27.443  1.00  0.00     0.037 A 
ATOM     49  C   UNL A   1      43.361  30.019  33.300  1.00  0.00     0.049 A 
ATOM     50  C   UNL A   1      44.354  27.296  28.422  1.00  0.00     0.074 A 
ATOM     51  C   UNL A   1      43.308  31.393  33.188  1.00  0.00     0.029 A 
ATOM     52  N   UNL A   1      44.458  29.629  32.571  1.00  0.00    -0.354 N 
ATOM     53  N   UNL A   1      44.879  28.493  28.416  1.00  0.00    -0.248 NA
ATOM     54  C   UNL A   1      44.507  26.556  29.663  1.00  0.00     0.031 C 
ATOM     55  C   UNL A   1      44.071  31.699  32.023  1.00  0.00     0.029 A 
ATOM     56  C   UNL A   1      44.578  30.499  31.520  1.00  0.00     0.049 A 
ATOM     57  H   UNL A   1      45.049  28.866  32.769  1.00  0.00     0.167 HD
ATOM     58  C   UNL A   1      45.050  28.811  29.754  1.00  0.00     0.074 A 
ATOM     59  C   UNL A   1      44.937  27.538  30.459  1.00  0.00     0.031 C 
ATOM     60  C   UNL A   1      44.989  30.105  30.188  1.00  0.00     0.037 A 
BRANCH  47  61
ATOM     61  C   UNL A   1      42.940  27.882  34.672  1.00  0.00     0.058 A 
ATOM     62  C   UNL A   1      43.175  28.177  36.038  1.00  0.00     0.135 A 
ATOM     63  C   UNL A   1      43.470  26.651  34.229  1.00  0.00     0.135 A 
ATOM     64  F   UNL A   1      42.703  29.309  36.584  1.00  0.00    -0.206 F 
ATOM     65  C   UNL A   1      43.971  27.375  36.858  1.00  0.00     0.059 A 
ATOM     66  C   UNL A   1      44.222  25.810  35.047  1.00  0.00     0.059 A 
ATOM     67  F   UNL A   1      43.373  26.251  32.957  1.00  0.00    -0.206 F 
ATOM     68  C   UNL A   1      44.517  26.206  36.341  1.00  0.00     0.060 A 
BRANCH  68  69
ATOM     69  S   UNL A   1      45.683  25.253  37.334  1.00  0.00     0.124 S 
ATOM     70  O   UNL A   1      45.342  25.698  38.680  1.00  0.00    -0.237 OA
ATOM     71  O   UNL A   1      45.319  23.879  37.002  1.00  0.00    -0.237 OA
ATOM     72  O   UNL A   1      46.982  25.690  36.831  1.00  0.00    -0.744 OA
ENDBRANCH  68  69
ENDBRANCH  47  61
BRANCH  48  73
ATOM     73  C   UNL A   1      43.459  25.589  26.648  1.00  0.00     0.058 A 
ATOM     74  C   UNL A   1      44.280  25.513  25.514  1.00  0.00     0.135 A 
ATOM     75  C   UNL A   1      42.940  24.369  27.133  1.00  0.00     0.135 A 
ATOM     76  F   UNL A   1      44.829  26.626  25.005  1.00  0.00    -0.206 F 
ATOM     77  C   UNL A   1      44.600  24.292  24.913  1.00  0.00     0.059 A 
ATOM     78  C   UNL A   1      43.236  23.141  26.545  1.00  0.00     0.059 A 
ATOM     79  F   UNL A   1      42.194  24.332  28.248  1.00  0.00    -0.206 F 
ATOM     80  C   UNL A   1      44.088  23.109  25.447  1.00  0.00     0.060 A 
BRANCH  80  81
ATOM     81  S   UNL A   1      44.637  21.524  24.771  1.00  0.00     0.124 S 
ATOM     82  O   UNL A   1      43.617  20.612  25.276  1.00  0.00    -0.237 OA
ATOM     83  O   UNL A   1      44.611  21.778  23.334  1.00  0.00    -0.237 OA
ATOM     84  O   UNL A   1      45.969  21.352  25.347  1.00  0.00    -0.744 OA
ENDBRANCH  80  81
ENDBRANCH  48  73
BRANCH  60  85
ATOM     85  C   UNL A   1      45.088  31.216  29.173  1.00  0.00     0.058 A 
ATOM     86  C   UNL A   1      46.296  31.676  28.620  1.00  0.00     0.135 A 
ATOM     87  C   UNL A   1      43.901  31.691  28.596  1.00  0.00     0.135 A 
ATOM     88  F   UNL A   1      47.473  31.202  29.043  1.00  0.00    -0.206 F 
ATOM     89  C   UNL A   1      46.323  32.579  27.556  1.00  0.00     0.059 A 
ATOM     90  C   UNL A   1      43.904  32.570  27.515  1.00  0.00     0.059 A 
ATOM     91  F   UNL A   1      42.714  31.243  29.037  1.00  0.00    -0.206 F 
ATOM     92  C   UNL A   1      45.121  33.014  27.003  1.00  0.00     0.060 A 
BRANCH  92  93
ATOM     93  S   UNL A   1      45.161  34.081  25.546  1.00  0.00     0.124 S 
ATOM     94  O   UNL A   1      44.506  33.253  24.540  1.00  0.00    -0.237 OA
ATOM     95  O   UNL A   1      44.412  35.255  25.988  1.00  0.00    -0.237 OA
ATOM     96  O   UNL A   1      46.589  34.311  25.332  1.00  0.00    -0.744 OA
ENDBRANCH  92  93
ENDBRANCH  60  85
ENDBRANCH  34  35
ENDBRANCH  26  29
ENDBRANCH  24  25
ENDBRANCH  23  24
ENDBRANCH   1  23
TORSDOF 17
ENDMDL
MODEL 2
REMARK VINA RESULT:     -11.8      1.025      3.176
REMARK SMILES CCn1ncc(CNc2ccccc2C(=O)NCCCNC(=O)c2ccc(-c3c4nc(c(-c5c(F)cc(S(=O)(=O)[O-])cc5F)c5ccc([nH]5)c(-c5c(F)cc(S(=O)(=O)[O-])cc5F)c5nc(c(-c6c(F)cc(S(=O)(=O)[O-])cc6F)c6ccc3[nH]6)C=C5)C=C4)cc2)c1C
REMARK SMILES IDX 18 1 17 2 15 3 16 4 14 6 9 7 10 8 11 9 13 10 12 11 8 12 7 14
REMARK SMILES IDX 6 15 3 16 4 17 90 18 5 19 91 20 2 21 1 22 19 23 20 24 21 25
REMARK SMILES IDX 22 26 23 28 24 29 25 30 89 31 26 32 88 33 27 34 28 35 29 36
REMARK SMILES IDX 82 37 30 38 87 39 81 40 83 41 31 42 86 43 80 44 79 45 32 47
REMARK SMILES IDX 66 48 45 49 65 50 46 51 49 52 64 53 84 54 47 55 48 56 63 58
REMARK SMILES IDX 85 59 50 60 33 61 34 62 43 63 35 64 36 65 42 66 44 67 37 68
REMARK SMILES IDX 38 69 39 70 40 71 41 72 67 73 68 74 77 75 69 76 70 77 76 78
REMARK SMILES IDX 78 79 71 80 72 81 73 82 74 83 75 84 51 85 52 86 61 87 53 88
REMARK SMILES IDX 54 89 60 90 62 91 55 92 56 93 57 94 58 95 59 96
REMARK H PARENT 17 5 8 13 21 27 83 46 49 57
REMARK Flexibility Score: inf
ROOT
ATOM      1  C   UNL A   1      31.806  30.399  25.512  1.00  0.00     0.118 C 
ENDROOT
BRANCH   1   2
ATOM      2  N   UNL A   1      32.309  29.497  24.522  1.00  0.00    -0.352 N 
ATOM      3  C   UNL A   1      31.569  29.186  23.389  1.00  0.00     0.253 C 
ATOM      4  O   UNL A   1      32.154  29.102  22.309  1.00  0.00    -0.269 OA
ATOM      5  H   UNL A   1      33.197  29.088  24.648  1.00  0.00     0.163 HD
BRANCH   3   6
ATOM      6  C   UNL A   1      30.145  28.718  23.478  1.00  0.00     0.062 A 
ATOM      7  C   UNL A   1      29.604  27.469  23.864  1.00  0.00     0.047 A 
ATOM      8  C   UNL A   1      28.204  27.304  23.674  1.00  0.00     0.026 A 
ATOM      9  C   UNL A   1      27.364  28.310  23.191  1.00  0.00     0.002 A 
ATOM     10  C   UNL A   1      29.268  29.740  23.019  1.00  0.00     0.016 A 
ATOM     11  C   UNL A   1      27.896  29.545  22.883  1.00  0.00     0.001 A 
BRANCH   7  12
ATOM     12  N   UNL A   1      30.197  26.379  24.480  1.00  0.00    -0.380 N 
ATOM     13  H   UNL A   1      29.924  25.504  24.121  1.00  0.00     0.160 HD
BRANCH  12  14
ATOM     14  C   UNL A   1      31.153  26.317  25.568  1.00  0.00     0.152 C 
BRANCH  14  15
ATOM     15  C   UNL A   1      32.079  25.150  25.530  1.00  0.00     0.012 A 
ATOM     16  N   UNL A   1      33.019  23.186  25.750  1.00  0.00    -0.270 N 
ATOM     17  N   UNL A   1      33.977  23.939  25.186  1.00  0.00    -0.181 NA
ATOM     18  C   UNL A   1      31.827  23.845  25.907  1.00  0.00     0.040 A 
ATOM     19  C   UNL A   1      33.425  25.146  25.100  1.00  0.00     0.141 A 
ATOM     20  C   UNL A   1      30.565  23.265  26.421  1.00  0.00     0.067 C 
BRANCH  16  21
ATOM     21  C   UNL A   1      33.391  21.862  26.205  1.00  0.00     0.141 C 
ATOM     22  C   UNL A   1      33.854  21.898  27.651  1.00  0.00     0.029 C 
ENDBRANCH  16  21
ENDBRANCH  14  15
ENDBRANCH  12  14
ENDBRANCH   7  12
ENDBRANCH   3   6
ENDBRANCH   1   2
BRANCH   1  23
ATOM     23  C   UNL A   1      31.843  30.070  26.992  1.00  0.00     0.042 C 
BRANCH  23  24
ATOM     24  C   UNL A   1      33.269  30.129  27.541  1.00  0.00     0.118 C 
BRANCH  24  25
ATOM     25  N   UNL A   1      34.011  31.375  27.249  1.00  0.00    -0.352 N 
ATOM     26  C   UNL A   1      35.251  31.761  27.750  1.00  0.00     0.251 C 
ATOM     27  H   UNL A   1      33.578  32.005  26.627  1.00  0.00     0.163 HD
ATOM     28  O   UNL A   1      35.711  32.882  27.561  1.00  0.00    -0.269 OA
BRANCH  26  29
ATOM     29  C   UNL A   1      35.985  30.768  28.550  1.00  0.00     0.039 A 
ATOM     30  C   UNL A   1      36.423  29.581  27.956  1.00  0.00     0.014 A 
ATOM     31  C   UNL A   1      36.549  31.250  29.718  1.00  0.00     0.014 A 
ATOM     32  C   UNL A   1      37.591  28.985  28.434  1.00  0.00     0.010 A 
ATOM     33  C   UNL A   1      37.795  30.770  30.048  1.00  0.00     0.010 A 
ATOM     34  C   UNL A   1      38.338  29.638  29.425  1.00  0.00    -0.014 A 
BRANCH  34  35
ATOM     35  C   UNL A   1      39.753  29.283  29.667  1.00  0.00     0.031 A 
ATOM     36  C   UNL A   1      40.181  29.065  31.096  1.00  0.00     0.074 A 
ATOM     37  C   UNL A   1      40.568  28.843  28.681  1.00  0.00     0.049 A 
ATOM     38  N   UNL A   1      41.148  29.631  31.747  1.00  0.00    -0.248 NA
ATOM     39  C   UNL A   1      39.402  28.126  31.924  1.00  0.00     0.031 C 
ATOM     40  C   UNL A   1      40.257  28.667  27.255  1.00  0.00     0.029 A 
ATOM     41  N   UNL A   1      41.810  28.292  28.779  1.00  0.00    -0.354 N 
ATOM     42  C   UNL A   1      41.227  28.998  32.992  1.00  0.00     0.074 A 
ATOM     43  C   UNL A   1      40.042  28.186  33.094  1.00  0.00     0.031 C 
ATOM     44  C   UNL A   1      41.126  27.794  26.706  1.00  0.00     0.029 A 
ATOM     45  C   UNL A   1      42.183  27.554  27.664  1.00  0.00     0.049 A 
ATOM     46  H   UNL A   1      42.389  28.407  29.567  1.00  0.00     0.167 HD
ATOM     47  C   UNL A   1      42.353  29.041  33.767  1.00  0.00     0.037 A 
ATOM     48  C   UNL A   1      43.288  26.792  27.509  1.00  0.00     0.037 A 
ATOM     49  C   UNL A   1      43.255  30.069  33.316  1.00  0.00     0.049 A 
ATOM     50  C   UNL A   1      44.289  27.273  28.487  1.00  0.00     0.074 A 
ATOM     51  C   UNL A   1      43.200  31.440  33.183  1.00  0.00     0.029 A 
ATOM     52  N   UNL A   1      44.358  29.670  32.601  1.00  0.00    -0.354 N 
ATOM     53  N   UNL A   1      44.811  28.471  28.467  1.00  0.00    -0.248 NA
ATOM     54  C   UNL A   1      44.434  26.552  29.741  1.00  0.00     0.031 C 
ATOM     55  C   UNL A   1      43.970  31.730  32.018  1.00  0.00     0.029 A 
ATOM     56  C   UNL A   1      44.484  30.524  31.538  1.00  0.00     0.049 A 
ATOM     57  H   UNL A   1      44.949  28.911  32.814  1.00  0.00     0.167 HD
ATOM     58  C   UNL A   1      44.972  28.810  29.801  1.00  0.00     0.074 A 
ATOM     59  C   UNL A   1      44.856  27.548  30.525  1.00  0.00     0.031 C 
ATOM     60  C   UNL A   1      44.905  30.111  30.215  1.00  0.00     0.037 A 
BRANCH  47  61
ATOM     61  C   UNL A   1      42.829  27.952  34.718  1.00  0.00     0.058 A 
ATOM     62  C   UNL A   1      43.046  28.267  36.082  1.00  0.00     0.135 A 
ATOM     63  C   UNL A   1      43.371  26.719  34.297  1.00  0.00     0.135 A 
ATOM     64  F   UNL A   1      42.562  29.404  36.608  1.00  0.00    -0.206 F 
ATOM     65  C   UNL A   1      43.838  27.481  36.923  1.00  0.00     0.059 A 
ATOM     66  C   UNL A   1      44.119  25.893  35.135  1.00  0.00     0.059 A 
ATOM     67  F   UNL A   1      43.291  26.301  33.030  1.00  0.00    -0.206 F 
ATOM     68  C   UNL A   1      44.397  26.308  36.427  1.00  0.00     0.060 A 
BRANCH  68  69
ATOM     69  S   UNL A   1      45.556  25.375  37.446  1.00  0.00     0.124 S 
ATOM     70  O   UNL A   1      45.985  24.338  36.515  1.00  0.00    -0.237 OA
ATOM     71  O   UNL A   1      46.553  26.385  37.782  1.00  0.00    -0.237 OA
ATOM     72  O   UNL A   1      44.729  24.924  38.561  1.00  0.00    -0.744 OA
ENDBRANCH  68  69
ENDBRANCH  47  61
BRANCH  48  73
ATOM     73  C   UNL A   1      43.409  25.537  26.734  1.00  0.00     0.058 A 
ATOM     74  C   UNL A   1      44.115  25.485  25.524  1.00  0.00     0.135 A 
ATOM     75  C   UNL A   1      43.030  24.299  27.296  1.00  0.00     0.135 A 
ATOM     76  F   UNL A   1      44.530  26.618  24.937  1.00  0.00    -0.206 F 
ATOM     77  C   UNL A   1      44.460  24.272  24.921  1.00  0.00     0.059 A 
ATOM     78  C   UNL A   1      43.353  23.077  26.708  1.00  0.00     0.059 A 
ATOM     79  F   UNL A   1      42.404  24.243  28.482  1.00  0.00    -0.206 F 
ATOM     80  C   UNL A   1      44.090  23.072  25.530  1.00  0.00     0.060 A 
BRANCH  80  81
ATOM     81  S   UNL A   1      44.681  21.510  24.836  1.00  0.00     0.124 S 
ATOM     82  O   UNL A   1      44.802  21.836  23.420  1.00  0.00    -0.237 OA
ATOM     83  O   UNL A   1      45.936  21.311  25.554  1.00  0.00    -0.237 OA
ATOM     84  O   UNL A   1      43.618  20.566  25.171  1.00  0.00    -0.744 OA
ENDBRANCH  80  81
ENDBRANCH  48  73
BRANCH  60  85
ATOM     85  C   UNL A   1      45.009  31.206  29.184  1.00  0.00     0.058 A 
ATOM     86  C   UNL A   1      46.216  31.637  28.608  1.00  0.00     0.135 A 
ATOM     87  C   UNL A   1      43.822  31.694  28.617  1.00  0.00     0.135 A 
ATOM     88  F   UNL A   1      47.391  31.148  29.020  1.00  0.00    -0.206 F 
ATOM     89  C   UNL A   1      46.244  32.525  27.531  1.00  0.00     0.059 A 
ATOM     90  C   UNL A   1      43.825  32.558  27.524  1.00  0.00     0.059 A 
ATOM     91  F   UNL A   1      42.633  31.272  29.080  1.00  0.00    -0.206 F 
ATOM     92  C   UNL A   1      45.042  32.974  26.989  1.00  0.00     0.060 A 
BRANCH  92  93
ATOM     93  S   UNL A   1      45.080  34.020  25.517  1.00  0.00     0.124 S 
ATOM     94  O   UNL A   1      44.237  35.142  25.915  1.00  0.00    -0.237 OA
ATOM     95  O   UNL A   1      46.503  34.317  25.373  1.00  0.00    -0.237 OA
ATOM     96  O   UNL A   1      44.525  33.161  24.473  1.00  0.00    -0.744 OA
ENDBRANCH  92  93
ENDBRANCH  60  85
ENDBRANCH  34  35
ENDBRANCH  26  29
ENDBRANCH  24  25
ENDBRANCH  23  24
ENDBRANCH   1  23
TORSDOF 17
ENDMDL
MODEL 3
REMARK VINA RESULT:     -11.6      3.547      9.588
REMARK SMILES CCn1ncc(CNc2ccccc2C(=O)NCCCNC(=O)c2ccc(-c3c4nc(c(-c5c(F)cc(S(=O)(=O)[O-])cc5F)c5ccc([nH]5)c(-c5c(F)cc(S(=O)(=O)[O-])cc5F)c5nc(c(-c6c(F)cc(S(=O)(=O)[O-])cc6F)c6ccc3[nH]6)C=C5)C=C4)cc2)c1C
REMARK SMILES IDX 18 1 17 2 15 3 16 4 14 6 9 7 10 8 11 9 13 10 12 11 8 12 7 14
REMARK SMILES IDX 6 15 3 16 4 17 90 18 5 19 91 20 2 21 1 22 19 23 20 24 21 25
REMARK SMILES IDX 22 26 23 28 24 29 25 30 89 31 26 32 88 33 27 34 28 35 29 36
REMARK SMILES IDX 82 37 30 38 87 39 81 40 83 41 31 42 86 43 80 44 79 45 32 47
REMARK SMILES IDX 66 48 45 49 65 50 46 51 49 52 64 53 84 54 47 55 48 56 63 58
REMARK SMILES IDX 85 59 50 60 33 61 34 62 43 63 35 64 36 65 42 66 44 67 37 68
REMARK SMILES IDX 38 69 39 70 40 71 41 72 67 73 68 74 77 75 69 76 70 77 76 78
REMARK SMILES IDX 78 79 71 80 72 81 73 82 74 83 75 84 51 85 52 86 61 87 53 88
REMARK SMILES IDX 54 89 60 90 62 91 55 92 56 93 57 94 58 95 59 96
REMARK H PARENT 17 5 8 13 21 27 83 46 49 57
REMARK Flexibility Score: inf
ROOT
ATOM      1  C   UNL A   1      36.413  23.692  24.805  1.00  0.00     0.118 C 
ENDROOT
BRANCH   1   2
ATOM      2  N   UNL A   1      35.311  23.430  23.931  1.00  0.00    -0.352 N 
ATOM      3  C   UNL A   1      34.486  24.456  23.485  1.00  0.00     0.253 C 
ATOM      4  O   UNL A   1      34.114  24.443  22.312  1.00  0.00    -0.269 OA
ATOM      5  H   UNL A   1      35.133  22.506  23.641  1.00  0.00     0.163 HD
BRANCH   3   6
ATOM      6  C   UNL A   1      33.849  25.428  24.435  1.00  0.00     0.062 A 
ATOM      7  C   UNL A   1      33.283  25.233  25.718  1.00  0.00     0.047 A 
ATOM      8  C   UNL A   1      32.606  26.349  26.283  1.00  0.00     0.026 A 
ATOM      9  C   UNL A   1      32.530  27.601  25.668  1.00  0.00     0.002 A 
ATOM     10  C   UNL A   1      33.788  26.719  23.841  1.00  0.00     0.016 A 
ATOM     11  C   UNL A   1      33.145  27.794  24.448  1.00  0.00     0.001 A 
BRANCH   7  12
ATOM     12  N   UNL A   1      33.339  24.146  26.574  1.00  0.00    -0.380 N 
ATOM     13  H   UNL A   1      34.122  24.131  27.170  1.00  0.00     0.160 HD
BRANCH  12  14
ATOM     14  C   UNL A   1      32.434  23.025  26.733  1.00  0.00     0.152 C 
BRANCH  14  15
ATOM     15  C   UNL A   1      32.656  21.893  25.790  1.00  0.00     0.012 A 
ATOM     16  N   UNL A   1      32.603  20.507  24.097  1.00  0.00    -0.270 N 
ATOM     17  N   UNL A   1      33.412  19.902  24.982  1.00  0.00    -0.181 NA
ATOM     18  C   UNL A   1      32.182  21.748  24.501  1.00  0.00     0.040 A 
ATOM     19  C   UNL A   1      33.403  20.717  26.032  1.00  0.00     0.141 A 
ATOM     20  C   UNL A   1      31.355  22.692  23.715  1.00  0.00     0.067 C 
BRANCH  16  21
ATOM     21  C   UNL A   1      32.206  19.750  22.928  1.00  0.00     0.141 C 
ATOM     22  C   UNL A   1      32.524  18.276  23.105  1.00  0.00     0.029 C 
ENDBRANCH  16  21
ENDBRANCH  14  15
ENDBRANCH  12  14
ENDBRANCH   7  12
ENDBRANCH   3   6
ENDBRANCH   1   2
BRANCH   1  23
ATOM     23  C   UNL A   1      36.968  22.633  25.738  1.00  0.00     0.042 C 
BRANCH  23  24
ATOM     24  C   UNL A   1      38.421  22.297  25.398  1.00  0.00     0.118 C 
BRANCH  24  25
ATOM     25  N   UNL A   1      39.246  21.824  26.532  1.00  0.00    -0.352 N 
ATOM     26  C   UNL A   1      40.103  22.576  27.329  1.00  0.00     0.251 C 
ATOM     27  H   UNL A   1      39.180  20.865  26.748  1.00  0.00     0.163 HD
ATOM     28  O   UNL A   1      40.854  22.059  28.148  1.00  0.00    -0.269 OA
BRANCH  26  29
ATOM     29  C   UNL A   1      40.094  24.034  27.127  1.00  0.00     0.039 A 
ATOM     30  C   UNL A   1      38.990  24.787  27.534  1.00  0.00     0.014 A 
ATOM     31  C   UNL A   1      41.336  24.611  26.927  1.00  0.00     0.014 A 
ATOM     32  C   UNL A   1      39.194  26.103  27.952  1.00  0.00     0.010 A 
ATOM     33  C   UNL A   1      41.555  25.831  27.524  1.00  0.00     0.010 A 
ATOM     34  C   UNL A   1      40.502  26.599  28.041  1.00  0.00    -0.014 A 
BRANCH  34  35
ATOM     35  C   UNL A   1      40.806  27.800  28.848  1.00  0.00     0.031 A 
ATOM     36  C   UNL A   1      41.950  28.671  28.394  1.00  0.00     0.074 A 
ATOM     37  C   UNL A   1      39.933  28.307  29.748  1.00  0.00     0.049 A 
ATOM     38  N   UNL A   1      42.987  29.059  29.068  1.00  0.00    -0.248 NA
ATOM     39  C   UNL A   1      41.965  29.134  26.995  1.00  0.00     0.031 C 
ATOM     40  C   UNL A   1      38.605  27.794  30.117  1.00  0.00     0.029 A 
ATOM     41  N   UNL A   1      39.978  29.499  30.406  1.00  0.00    -0.354 N 
ATOM     42  C   UNL A   1      43.686  29.960  28.255  1.00  0.00     0.074 A 
ATOM     43  C   UNL A   1      43.089  29.853  26.949  1.00  0.00     0.031 C 
ATOM     44  C   UNL A   1      37.871  28.786  30.659  1.00  0.00     0.029 A 
ATOM     45  C   UNL A   1      38.749  29.911  30.901  1.00  0.00     0.049 A 
ATOM     46  H   UNL A   1      40.806  30.020  30.520  1.00  0.00     0.167 HD
ATOM     47  C   UNL A   1      44.579  30.863  28.762  1.00  0.00     0.037 A 
ATOM     48  C   UNL A   1      38.445  31.091  31.485  1.00  0.00     0.037 A 
ATOM     49  C   UNL A   1      44.946  30.530  30.113  1.00  0.00     0.049 A 
ATOM     50  C   UNL A   1      39.713  31.665  31.989  1.00  0.00     0.074 A 
ATOM     51  C   UNL A   1      45.558  29.461  30.734  1.00  0.00     0.029 A 
ATOM     52  N   UNL A   1      44.377  31.270  31.121  1.00  0.00    -0.354 N 
ATOM     53  N   UNL A   1      40.444  31.112  32.920  1.00  0.00    -0.248 NA
ATOM     54  C   UNL A   1      40.385  32.672  31.185  1.00  0.00     0.031 C 
ATOM     55  C   UNL A   1      44.918  29.356  32.005  1.00  0.00     0.029 A 
ATOM     56  C   UNL A   1      43.988  30.393  32.099  1.00  0.00     0.049 A 
ATOM     57  H   UNL A   1      44.270  32.249  31.138  1.00  0.00     0.167 HD
ATOM     58  C   UNL A   1      41.752  31.385  32.553  1.00  0.00     0.074 A 
ATOM     59  C   UNL A   1      41.647  32.456  31.567  1.00  0.00     0.031 C 
ATOM     60  C   UNL A   1      42.771  30.533  32.872  1.00  0.00     0.037 A 
BRANCH  47  61
ATOM     61  C   UNL A   1      44.877  32.244  28.193  1.00  0.00     0.058 A 
ATOM     62  C   UNL A   1      46.190  32.547  27.757  1.00  0.00     0.135 A 
ATOM     63  C   UNL A   1      44.026  33.359  28.346  1.00  0.00     0.135 A 
ATOM     64  F   UNL A   1      47.087  31.569  27.554  1.00  0.00    -0.206 F 
ATOM     65  C   UNL A   1      46.651  33.856  27.602  1.00  0.00     0.059 A 
ATOM     66  C   UNL A   1      44.452  34.672  28.145  1.00  0.00     0.059 A 
ATOM     67  F   UNL A   1      42.772  33.244  28.795  1.00  0.00    -0.206 F 
ATOM     68  C   UNL A   1      45.780  34.915  27.831  1.00  0.00     0.060 A 
BRANCH  68  69
ATOM     69  S   UNL A   1      46.406  36.606  27.803  1.00  0.00     0.124 S 
ATOM     70  O   UNL A   1      45.635  37.178  26.706  1.00  0.00    -0.237 OA
ATOM     71  O   UNL A   1      46.068  37.082  29.139  1.00  0.00    -0.237 OA
ATOM     72  O   UNL A   1      47.833  36.427  27.549  1.00  0.00    -0.744 OA
ENDBRANCH  68  69
ENDBRANCH  47  61
BRANCH  48  73
ATOM     73  C   UNL A   1      37.165  31.830  31.399  1.00  0.00     0.058 A 
ATOM     74  C   UNL A   1      36.303  31.937  32.499  1.00  0.00     0.135 A 
ATOM     75  C   UNL A   1      36.877  32.654  30.290  1.00  0.00     0.135 A 
ATOM     76  F   UNL A   1      36.522  31.202  33.600  1.00  0.00    -0.206 F 
ATOM     77  C   UNL A   1      35.234  32.838  32.516  1.00  0.00     0.059 A 
ATOM     78  C   UNL A   1      35.811  33.552  30.279  1.00  0.00     0.059 A 
ATOM     79  F   UNL A   1      37.679  32.667  29.214  1.00  0.00    -0.206 F 
ATOM     80  C   UNL A   1      35.007  33.654  31.408  1.00  0.00     0.060 A 
BRANCH  80  81
ATOM     81  S   UNL A   1      33.730  34.932  31.499  1.00  0.00     0.124 S 
ATOM     82  O   UNL A   1      34.516  36.123  31.802  1.00  0.00    -0.237 OA
ATOM     83  O   UNL A   1      33.146  34.877  30.162  1.00  0.00    -0.237 OA
ATOM     84  O   UNL A   1      32.860  34.467  32.576  1.00  0.00    -0.744 OA
ENDBRANCH  80  81
ENDBRANCH  48  73
BRANCH  60  85
ATOM     85  C   UNL A   1      42.532  29.479  33.923  1.00  0.00     0.058 A 
ATOM     86  C   UNL A   1      42.129  28.162  33.644  1.00  0.00     0.135 A 
ATOM     87  C   UNL A   1      42.920  29.761  35.241  1.00  0.00     0.135 A 
ATOM     88  F   UNL A   1      41.836  27.779  32.396  1.00  0.00    -0.206 F 
ATOM     89  C   UNL A   1      42.096  27.175  34.631  1.00  0.00     0.059 A 
ATOM     90  C   UNL A   1      42.922  28.786  36.237  1.00  0.00     0.059 A 
ATOM     91  F   UNL A   1      43.375  30.984  35.560  1.00  0.00    -0.206 F 
ATOM     92  C   UNL A   1      42.504  27.495  35.925  1.00  0.00     0.060 A 
BRANCH  92  93
ATOM     93  S   UNL A   1      42.581  26.187  37.168  1.00  0.00     0.124 S 
ATOM     94  O   UNL A   1      43.632  26.668  38.056  1.00  0.00    -0.237 OA
ATOM     95  O   UNL A   1      41.230  26.193  37.723  1.00  0.00    -0.237 OA
ATOM     96  O   UNL A   1      42.917  24.996  36.389  1.00  0.00    -0.744 OA
ENDBRANCH  92  93
ENDBRANCH  60  85
ENDBRANCH  34  35
ENDBRANCH  26  29
ENDBRANCH  24  25
ENDBRANCH  23  24
ENDBRANCH   1  23
TORSDOF 17
ENDMDL
