MODEL 1
REMARK VINA RESULT:     -12.4      0.000      0.000
REMARK SMILES CCc1ccc(C(=O)N2Cc3nc[nH]c3C[C@@H]2C(=O)NCCCNC(=O)c2ccc(-c3c4nc(c(-c5c(F)cc(S(=O)(=O)[O-])cc5F)c5ccc([nH]5)c(-c5c(F)cc(S(=O)(=O)[O-])cc5F)c5nc(c(-c6c(F)cc(S(=O)(=O)[O-])cc6F)c6ccc3[nH]6)C=C5)C=C4)cc2)o1
REMARK SMILES IDX 22 1 21 2 20 3 18 4 19 5 17 7 9 8 10 9 11 10 16 11 12 12
REMARK SMILES IDX 15 13 13 14 14 15 7 17 8 18 6 19 3 20 4 21 93 22 5 23 2 24
REMARK SMILES IDX 1 25 23 26 24 27 25 28 26 30 27 31 28 32 92 33 29 34 91 35
REMARK SMILES IDX 30 36 31 37 32 38 85 39 33 40 90 41 84 42 86 43 34 44 89 45
REMARK SMILES IDX 83 46 82 47 35 49 69 50 48 51 68 52 49 53 52 54 67 55 87 56
REMARK SMILES IDX 50 57 51 58 66 60 88 61 53 62 36 63 37 64 46 65 38 66 39 67
REMARK SMILES IDX 45 68 47 69 40 70 41 71 42 72 43 73 44 74 70 75 71 76 80 77
REMARK SMILES IDX 72 78 73 79 79 80 81 81 74 82 75 83 76 84 77 85 78 86 54 87
REMARK SMILES IDX 55 88 64 89 56 90 57 91 63 92 65 93 58 94 59 95 60 96 61 97
REMARK SMILES IDX 62 98
REMARK H PARENT 20 6 14 16 24 29 86 48 52 59
REMARK Flexibility Score: inf
ROOT
ATOM      1  C   UNL A   1      32.979  28.894  27.160  1.00  0.00     0.042 C 
ENDROOT
BRANCH   1   2
ATOM      2  C   UNL A   1      33.092  27.503  26.520  1.00  0.00     0.117 C 
BRANCH   2   3
ATOM      3  N   UNL A   1      33.697  27.489  25.199  1.00  0.00    -0.354 N 
ATOM      4  C   UNL A   1      33.278  27.973  23.995  1.00  0.00     0.243 C 
ATOM      5  O   UNL A   1      34.117  27.993  23.090  1.00  0.00    -0.273 OA
ATOM      6  H   UNL A   1      34.576  27.045  25.167  1.00  0.00     0.163 HD
BRANCH   4   7
ATOM      7  C   UNL A   1      31.815  28.385  23.731  1.00  0.00     0.181 C 
ATOM      8  N   UNL A   1      30.851  27.246  23.632  1.00  0.00    -0.318 N 
ATOM      9  C   UNL A   1      29.425  27.600  23.490  1.00  0.00     0.179 C 
ATOM     10  C   UNL A   1      29.273  28.817  22.638  1.00  0.00     0.081 A 
ATOM     11  C   UNL A   1      31.758  29.286  22.454  1.00  0.00     0.091 C 
ATOM     12  N   UNL A   1      28.082  29.374  22.255  1.00  0.00    -0.240 NA
ATOM     13  C   UNL A   1      30.328  29.574  22.180  1.00  0.00     0.042 A 
ATOM     14  C   UNL A   1      28.415  30.413  21.517  1.00  0.00     0.197 A 
ATOM     15  N   UNL A   1      29.775  30.571  21.435  1.00  0.00    -0.348 N 
ATOM     16  H   UNL A   1      30.259  31.269  20.936  1.00  0.00     0.167 HD
BRANCH   8  17
ATOM     17  C   UNL A   1      31.253  26.124  22.897  1.00  0.00     0.290 C 
ATOM     18  O   UNL A   1      31.429  26.171  21.680  1.00  0.00    -0.265 OA
BRANCH  17  19
ATOM     19  C   UNL A   1      31.293  24.922  23.705  1.00  0.00     0.191 A 
ATOM     20  C   UNL A   1      31.621  23.715  25.512  1.00  0.00     0.104 A 
ATOM     21  C   UNL A   1      31.160  22.844  24.548  1.00  0.00     0.046 A 
ATOM     22  O   UNL A   1      31.720  24.975  25.001  1.00  0.00    -0.456 OA
ATOM     23  C   UNL A   1      30.974  23.615  23.384  1.00  0.00     0.056 A 
BRANCH  20  24
ATOM     24  C   UNL A   1      32.028  23.542  26.930  1.00  0.00     0.072 C 
ATOM     25  C   UNL A   1      33.430  22.972  27.040  1.00  0.00     0.012 C 
ENDBRANCH  20  24
ENDBRANCH  17  19
ENDBRANCH   8  17
ENDBRANCH   4   7
ENDBRANCH   2   3
ENDBRANCH   1   2
BRANCH   1  26
ATOM     26  C   UNL A   1      34.149  29.842  26.909  1.00  0.00     0.118 C 
BRANCH  26  27
ATOM     27  N   UNL A   1      33.979  31.155  27.526  1.00  0.00    -0.352 N 
ATOM     28  C   UNL A   1      34.675  31.677  28.601  1.00  0.00     0.251 C 
ATOM     29  H   UNL A   1      33.289  31.735  27.130  1.00  0.00     0.163 HD
ATOM     30  O   UNL A   1      34.174  32.580  29.268  1.00  0.00    -0.269 OA
BRANCH  28  31
ATOM     31  C   UNL A   1      36.005  31.135  28.956  1.00  0.00     0.039 A 
ATOM     32  C   UNL A   1      36.191  29.766  29.178  1.00  0.00     0.014 A 
ATOM     33  C   UNL A   1      37.081  32.006  29.081  1.00  0.00     0.014 A 
ATOM     34  C   UNL A   1      37.475  29.275  29.452  1.00  0.00     0.010 A 
ATOM     35  C   UNL A   1      38.361  31.506  29.228  1.00  0.00     0.010 A 
ATOM     36  C   UNL A   1      38.578  30.143  29.460  1.00  0.00    -0.014 A 
BRANCH  36  37
ATOM     37  C   UNL A   1      39.952  29.626  29.621  1.00  0.00     0.031 A 
ATOM     38  C   UNL A   1      40.488  29.490  31.022  1.00  0.00     0.074 A 
ATOM     39  C   UNL A   1      40.646  29.049  28.608  1.00  0.00     0.049 A 
ATOM     40  N   UNL A   1      41.659  29.804  31.481  1.00  0.00    -0.248 NA
ATOM     41  C   UNL A   1      39.602  28.916  32.049  1.00  0.00     0.031 C 
ATOM     42  C   UNL A   1      40.212  28.822  27.221  1.00  0.00     0.029 A 
ATOM     43  N   UNL A   1      41.860  28.421  28.641  1.00  0.00    -0.354 N 
ATOM     44  C   UNL A   1      41.729  29.296  32.781  1.00  0.00     0.074 A 
ATOM     45  C   UNL A   1      40.420  28.786  33.094  1.00  0.00     0.031 C 
ATOM     46  C   UNL A   1      41.020  27.915  26.632  1.00  0.00     0.029 A 
ATOM     47  C   UNL A   1      42.133  27.643  27.520  1.00  0.00     0.049 A 
ATOM     48  H   UNL A   1      42.489  28.513  29.393  1.00  0.00     0.167 HD
ATOM     49  C   UNL A   1      42.892  29.204  33.481  1.00  0.00     0.037 A 
ATOM     50  C   UNL A   1      43.193  26.827  27.308  1.00  0.00     0.037 A 
ATOM     51  C   UNL A   1      43.876  30.137  33.012  1.00  0.00     0.049 A 
ATOM     52  C   UNL A   1      44.266  27.248  28.233  1.00  0.00     0.074 A 
ATOM     53  C   UNL A   1      43.904  31.513  32.873  1.00  0.00     0.029 A 
ATOM     54  N   UNL A   1      44.936  29.680  32.273  1.00  0.00    -0.354 N 
ATOM     55  N   UNL A   1      44.913  28.376  28.148  1.00  0.00    -0.248 NA
ATOM     56  C   UNL A   1      44.401  26.542  29.496  1.00  0.00     0.031 C 
ATOM     57  C   UNL A   1      44.617  31.744  31.662  1.00  0.00     0.029 A 
ATOM     58  C   UNL A   1      45.020  30.500  31.175  1.00  0.00     0.049 A 
ATOM     59  H   UNL A   1      45.519  28.916  32.486  1.00  0.00     0.167 HD
ATOM     60  C   UNL A   1      45.184  28.727  29.459  1.00  0.00     0.074 A 
ATOM     61  C   UNL A   1      44.967  27.505  30.227  1.00  0.00     0.031 C 
ATOM     62  C   UNL A   1      45.298  30.035  29.834  1.00  0.00     0.037 A 
BRANCH  49  63
ATOM     63  C   UNL A   1      43.210  28.077  34.432  1.00  0.00     0.058 A 
ATOM     64  C   UNL A   1      43.472  28.333  35.791  1.00  0.00     0.135 A 
ATOM     65  C   UNL A   1      43.532  26.777  33.979  1.00  0.00     0.135 A 
ATOM     66  F   UNL A   1      43.222  29.542  36.319  1.00  0.00    -0.206 F 
ATOM     67  C   UNL A   1      44.057  27.382  36.633  1.00  0.00     0.059 A 
ATOM     68  C   UNL A   1      44.080  25.801  34.809  1.00  0.00     0.059 A 
ATOM     69  F   UNL A   1      43.404  26.433  32.690  1.00  0.00    -0.206 F 
ATOM     70  C   UNL A   1      44.373  26.124  36.125  1.00  0.00     0.060 A 
BRANCH  70  71
ATOM     71  S   UNL A   1      45.227  24.933  37.179  1.00  0.00     0.124 S 
ATOM     72  O   UNL A   1      44.573  25.162  38.463  1.00  0.00    -0.237 OA
ATOM     73  O   UNL A   1      44.919  23.667  36.523  1.00  0.00    -0.237 OA
ATOM     74  O   UNL A   1      46.623  25.351  37.094  1.00  0.00    -0.744 OA
ENDBRANCH  70  71
ENDBRANCH  49  63
BRANCH  50  75
ATOM     75  C   UNL A   1      43.294  25.592  26.493  1.00  0.00     0.058 A 
ATOM     76  C   UNL A   1      44.222  25.493  25.442  1.00  0.00     0.135 A 
ATOM     77  C   UNL A   1      42.689  24.389  26.909  1.00  0.00     0.135 A 
ATOM     78  F   UNL A   1      44.854  26.587  24.993  1.00  0.00    -0.206 F 
ATOM     79  C   UNL A   1      44.580  24.266  24.879  1.00  0.00     0.059 A 
ATOM     80  C   UNL A   1      43.020  23.154  26.354  1.00  0.00     0.059 A 
ATOM     81  F   UNL A   1      41.824  24.374  27.936  1.00  0.00    -0.206 F 
ATOM     82  C   UNL A   1      43.992  23.097  25.360  1.00  0.00     0.060 A 
BRANCH  82  83
ATOM     83  S   UNL A   1      44.610  21.502  24.775  1.00  0.00     0.124 S 
ATOM     84  O   UNL A   1      45.913  21.425  25.424  1.00  0.00    -0.237 OA
ATOM     85  O   UNL A   1      43.595  20.579  25.273  1.00  0.00    -0.237 OA
ATOM     86  O   UNL A   1      44.641  21.662  23.324  1.00  0.00    -0.744 OA
ENDBRANCH  82  83
ENDBRANCH  50  75
BRANCH  62  87
ATOM     87  C   UNL A   1      45.452  31.083  28.757  1.00  0.00     0.058 A 
ATOM     88  C   UNL A   1      44.384  31.674  28.056  1.00  0.00     0.135 A 
ATOM     89  C   UNL A   1      46.732  31.607  28.515  1.00  0.00     0.135 A 
ATOM     90  F   UNL A   1      43.114  31.325  28.306  1.00  0.00    -0.206 F 
ATOM     91  C   UNL A   1      44.584  32.691  27.119  1.00  0.00     0.059 A 
ATOM     92  C   UNL A   1      46.951  32.647  27.613  1.00  0.00     0.059 A 
ATOM     93  F   UNL A   1      47.791  31.139  29.196  1.00  0.00    -0.206 F 
ATOM     94  C   UNL A   1      45.874  33.170  26.903  1.00  0.00     0.060 A 
BRANCH  94  95
ATOM     95  S   UNL A   1      46.123  34.534  25.744  1.00  0.00     0.124 S 
ATOM     96  O   UNL A   1      45.787  35.696  26.560  1.00  0.00    -0.237 OA
ATOM     97  O   UNL A   1      47.532  34.397  25.385  1.00  0.00    -0.237 OA
ATOM     98  O   UNL A   1      45.185  34.238  24.663  1.00  0.00    -0.744 OA
ENDBRANCH  94  95
ENDBRANCH  62  87
ENDBRANCH  36  37
ENDBRANCH  28  31
ENDBRANCH  26  27
ENDBRANCH   1  26
TORSDOF 16
ENDMDL
MODEL 2
REMARK VINA RESULT:     -12.3      1.333      3.232
REMARK SMILES CCc1ccc(C(=O)N2Cc3nc[nH]c3C[C@@H]2C(=O)NCCCNC(=O)c2ccc(-c3c4nc(c(-c5c(F)cc(S(=O)(=O)[O-])cc5F)c5ccc([nH]5)c(-c5c(F)cc(S(=O)(=O)[O-])cc5F)c5nc(c(-c6c(F)cc(S(=O)(=O)[O-])cc6F)c6ccc3[nH]6)C=C5)C=C4)cc2)o1
REMARK SMILES IDX 22 1 21 2 20 3 18 4 19 5 17 7 9 8 10 9 11 10 16 11 12 12
REMARK SMILES IDX 15 13 13 14 14 15 7 17 8 18 6 19 3 20 4 21 93 22 5 23 2 24
REMARK SMILES IDX 1 25 23 26 24 27 25 28 26 30 27 31 28 32 92 33 29 34 91 35
REMARK SMILES IDX 30 36 31 37 32 38 85 39 33 40 90 41 84 42 86 43 34 44 89 45
REMARK SMILES IDX 83 46 82 47 35 49 69 50 48 51 68 52 49 53 52 54 67 55 87 56
REMARK SMILES IDX 50 57 51 58 66 60 88 61 53 62 36 63 37 64 46 65 38 66 39 67
REMARK SMILES IDX 45 68 47 69 40 70 41 71 42 72 43 73 44 74 70 75 71 76 80 77
REMARK SMILES IDX 72 78 73 79 79 80 81 81 74 82 75 83 76 84 77 85 78 86 54 87
REMARK SMILES IDX 55 88 64 89 56 90 57 91 63 92 65 93 58 94 59 95 60 96 61 97
REMARK SMILES IDX 62 98
REMARK H PARENT 20 6 14 16 24 29 86 48 52 59
REMARK Flexibility Score: inf
ROOT
ATOM      1  C   UNL A   1      32.503  28.957  26.962  1.00  0.00     0.042 C 
ENDROOT
BRANCH   1   2
ATOM      2  C   UNL A   1      32.532  27.427  26.843  1.00  0.00     0.117 C 
BRANCH   2   3
ATOM      3  N   UNL A   1      31.229  26.805  26.678  1.00  0.00    -0.354 N 
ATOM      4  C   UNL A   1      30.853  25.516  26.440  1.00  0.00     0.243 C 
ATOM      5  O   UNL A   1      29.651  25.264  26.563  1.00  0.00    -0.273 OA
ATOM      6  H   UNL A   1      30.475  27.434  26.752  1.00  0.00     0.163 HD
BRANCH   4   7
ATOM      7  C   UNL A   1      31.844  24.441  25.948  1.00  0.00     0.181 C 
ATOM      8  N   UNL A   1      32.390  24.673  24.575  1.00  0.00    -0.318 N 
ATOM      9  C   UNL A   1      33.424  23.729  24.108  1.00  0.00     0.179 C 
ATOM     10  C   UNL A   1      33.129  22.350  24.599  1.00  0.00     0.081 A 
ATOM     11  C   UNL A   1      31.171  23.034  26.057  1.00  0.00     0.091 C 
ATOM     12  N   UNL A   1      33.853  21.228  24.295  1.00  0.00    -0.240 NA
ATOM     13  C   UNL A   1      32.117  22.046  25.480  1.00  0.00     0.042 A 
ATOM     14  C   UNL A   1      33.242  20.248  24.928  1.00  0.00     0.197 A 
ATOM     15  N   UNL A   1      32.171  20.697  25.659  1.00  0.00    -0.348 N 
ATOM     16  H   UNL A   1      31.561  20.151  26.207  1.00  0.00     0.167 HD
BRANCH   8  17
ATOM     17  C   UNL A   1      31.492  25.095  23.587  1.00  0.00     0.290 C 
ATOM     18  O   UNL A   1      30.801  24.298  22.953  1.00  0.00    -0.265 OA
BRANCH  17  19
ATOM     19  C   UNL A   1      31.585  26.517  23.327  1.00  0.00     0.191 A 
ATOM     20  C   UNL A   1      30.900  28.603  23.246  1.00  0.00     0.104 A 
ATOM     21  C   UNL A   1      32.208  28.612  22.811  1.00  0.00     0.046 A 
ATOM     22  O   UNL A   1      30.511  27.331  23.545  1.00  0.00    -0.456 OA
ATOM     23  C   UNL A   1      32.638  27.271  22.841  1.00  0.00     0.056 A 
BRANCH  20  24
ATOM     24  C   UNL A   1      29.879  29.667  23.424  1.00  0.00     0.072 C 
ATOM     25  C   UNL A   1      28.571  29.301  22.745  1.00  0.00     0.012 C 
ENDBRANCH  20  24
ENDBRANCH  17  19
ENDBRANCH   8  17
ENDBRANCH   4   7
ENDBRANCH   2   3
ENDBRANCH   1   2
BRANCH   1  26
ATOM     26  C   UNL A   1      33.862  29.646  27.061  1.00  0.00     0.118 C 
BRANCH  26  27
ATOM     27  N   UNL A   1      33.777  31.048  27.462  1.00  0.00    -0.352 N 
ATOM     28  C   UNL A   1      34.553  31.705  28.399  1.00  0.00     0.251 C 
ATOM     29  H   UNL A   1      33.087  31.588  27.012  1.00  0.00     0.163 HD
ATOM     30  O   UNL A   1      34.126  32.726  28.934  1.00  0.00    -0.269 OA
BRANCH  28  31
ATOM     31  C   UNL A   1      35.881  31.167  28.770  1.00  0.00     0.039 A 
ATOM     32  C   UNL A   1      36.084  29.791  28.927  1.00  0.00     0.014 A 
ATOM     33  C   UNL A   1      36.937  32.047  28.976  1.00  0.00     0.014 A 
ATOM     34  C   UNL A   1      37.367  29.308  29.217  1.00  0.00     0.010 A 
ATOM     35  C   UNL A   1      38.220  31.561  29.139  1.00  0.00     0.010 A 
ATOM     36  C   UNL A   1      38.453  30.192  29.306  1.00  0.00    -0.014 A 
BRANCH  36  37
ATOM     37  C   UNL A   1      39.831  29.689  29.486  1.00  0.00     0.031 A 
ATOM     38  C   UNL A   1      40.356  29.575  30.894  1.00  0.00     0.074 A 
ATOM     39  C   UNL A   1      40.539  29.107  28.487  1.00  0.00     0.049 A 
ATOM     40  N   UNL A   1      41.520  29.905  31.359  1.00  0.00    -0.248 NA
ATOM     41  C   UNL A   1      39.465  29.006  31.920  1.00  0.00     0.031 C 
ATOM     42  C   UNL A   1      40.120  28.858  27.098  1.00  0.00     0.029 A 
ATOM     43  N   UNL A   1      41.758  28.490  28.538  1.00  0.00    -0.354 N 
ATOM     44  C   UNL A   1      41.581  29.414  32.665  1.00  0.00     0.074 A 
ATOM     45  C   UNL A   1      40.275  28.896  32.973  1.00  0.00     0.031 C 
ATOM     46  C   UNL A   1      40.941  27.952  26.528  1.00  0.00     0.029 A 
ATOM     47  C   UNL A   1      42.048  27.701  27.430  1.00  0.00     0.049 A 
ATOM     48  H   UNL A   1      42.379  28.597  29.294  1.00  0.00     0.167 HD
ATOM     49  C   UNL A   1      42.740  29.341  33.378  1.00  0.00     0.037 A 
ATOM     50  C   UNL A   1      43.118  26.892  27.237  1.00  0.00     0.037 A 
ATOM     51  C   UNL A   1      43.719  30.278  32.906  1.00  0.00     0.049 A 
ATOM     52  C   UNL A   1      44.179  27.334  28.166  1.00  0.00     0.074 A 
ATOM     53  C   UNL A   1      43.736  31.651  32.751  1.00  0.00     0.029 A 
ATOM     54  N   UNL A   1      44.790  29.821  32.182  1.00  0.00    -0.354 N 
ATOM     55  N   UNL A   1      44.816  28.467  28.073  1.00  0.00    -0.248 NA
ATOM     56  C   UNL A   1      44.308  26.645  29.439  1.00  0.00     0.031 C 
ATOM     57  C   UNL A   1      44.457  31.875  31.543  1.00  0.00     0.029 A 
ATOM     58  C   UNL A   1      44.877  30.629  31.075  1.00  0.00     0.049 A 
ATOM     59  H   UNL A   1      45.378  29.065  32.409  1.00  0.00     0.167 HD
ATOM     60  C   UNL A   1      45.072  28.836  29.382  1.00  0.00     0.074 A 
ATOM     61  C   UNL A   1      44.859  27.622  30.163  1.00  0.00     0.031 C 
ATOM     62  C   UNL A   1      45.171  30.149  29.742  1.00  0.00     0.037 A 
BRANCH  49  63
ATOM     63  C   UNL A   1      43.059  28.229  34.344  1.00  0.00     0.058 A 
ATOM     64  C   UNL A   1      43.339  28.507  35.697  1.00  0.00     0.135 A 
ATOM     65  C   UNL A   1      43.365  26.918  33.912  1.00  0.00     0.135 A 
ATOM     66  F   UNL A   1      43.104  29.727  36.205  1.00  0.00    -0.206 F 
ATOM     67  C   UNL A   1      43.925  27.566  36.548  1.00  0.00     0.059 A 
ATOM     68  C   UNL A   1      43.915  25.952  34.753  1.00  0.00     0.059 A 
ATOM     69  F   UNL A   1      43.220  26.552  32.630  1.00  0.00    -0.206 F 
ATOM     70  C   UNL A   1      44.226  26.297  36.060  1.00  0.00     0.060 A 
BRANCH  70  71
ATOM     71  S   UNL A   1      45.082  25.118  37.126  1.00  0.00     0.124 S 
ATOM     72  O   UNL A   1      46.455  25.603  37.050  1.00  0.00    -0.237 OA
ATOM     73  O   UNL A   1      44.406  25.315  38.404  1.00  0.00    -0.237 OA
ATOM     74  O   UNL A   1      44.825  23.835  36.481  1.00  0.00    -0.744 OA
ENDBRANCH  70  71
ENDBRANCH  49  63
BRANCH  50  75
ATOM     75  C   UNL A   1      43.237  25.648  26.438  1.00  0.00     0.058 A 
ATOM     76  C   UNL A   1      44.189  25.538  25.409  1.00  0.00     0.135 A 
ATOM     77  C   UNL A   1      42.623  24.450  26.853  1.00  0.00     0.135 A 
ATOM     78  F   UNL A   1      44.831  26.627  24.963  1.00  0.00    -0.206 F 
ATOM     79  C   UNL A   1      44.560  24.306  24.869  1.00  0.00     0.059 A 
ATOM     80  C   UNL A   1      42.967  23.209  26.320  1.00  0.00     0.059 A 
ATOM     81  F   UNL A   1      41.735  24.446  27.860  1.00  0.00    -0.206 F 
ATOM     82  C   UNL A   1      43.961  23.141  25.349  1.00  0.00     0.060 A 
BRANCH  82  83
ATOM     83  S   UNL A   1      44.592  21.540  24.795  1.00  0.00     0.124 S 
ATOM     84  O   UNL A   1      43.597  20.620  25.335  1.00  0.00    -0.237 OA
ATOM     85  O   UNL A   1      44.594  21.697  23.344  1.00  0.00    -0.237 OA
ATOM     86  O   UNL A   1      45.914  21.464  25.411  1.00  0.00    -0.744 OA
ENDBRANCH  82  83
ENDBRANCH  50  75
BRANCH  62  87
ATOM     87  C   UNL A   1      45.324  31.186  28.654  1.00  0.00     0.058 A 
ATOM     88  C   UNL A   1      44.259  31.748  27.926  1.00  0.00     0.135 A 
ATOM     89  C   UNL A   1      46.599  31.731  28.427  1.00  0.00     0.135 A 
ATOM     90  F   UNL A   1      42.992  31.379  28.158  1.00  0.00    -0.206 F 
ATOM     91  C   UNL A   1      44.457  32.755  26.979  1.00  0.00     0.059 A 
ATOM     92  C   UNL A   1      46.816  32.762  27.515  1.00  0.00     0.059 A 
ATOM     93  F   UNL A   1      47.654  31.292  29.134  1.00  0.00    -0.206 F 
ATOM     94  C   UNL A   1      45.742  33.256  26.779  1.00  0.00     0.060 A 
BRANCH  94  95
ATOM     95  S   UNL A   1      45.987  34.609  25.606  1.00  0.00     0.124 S 
ATOM     96  O   UNL A   1      45.064  34.255  24.532  1.00  0.00    -0.237 OA
ATOM     97  O   UNL A   1      45.624  35.785  26.392  1.00  0.00    -0.237 OA
ATOM     98  O   UNL A   1      47.405  34.512  25.267  1.00  0.00    -0.744 OA
ENDBRANCH  94  95
ENDBRANCH  62  87
ENDBRANCH  36  37
ENDBRANCH  28  31
ENDBRANCH  26  27
ENDBRANCH   1  26
TORSDOF 16
ENDMDL
MODEL 3
REMARK VINA RESULT:     -12.3      2.975      9.032
REMARK SMILES CCc1ccc(C(=O)N2Cc3nc[nH]c3C[C@@H]2C(=O)NCCCNC(=O)c2ccc(-c3c4nc(c(-c5c(F)cc(S(=O)(=O)[O-])cc5F)c5ccc([nH]5)c(-c5c(F)cc(S(=O)(=O)[O-])cc5F)c5nc(c(-c6c(F)cc(S(=O)(=O)[O-])cc6F)c6ccc3[nH]6)C=C5)C=C4)cc2)o1
REMARK SMILES IDX 22 1 21 2 20 3 18 4 19 5 17 7 9 8 10 9 11 10 16 11 12 12
REMARK SMILES IDX 15 13 13 14 14 15 7 17 8 18 6 19 3 20 4 21 93 22 5 23 2 24
REMARK SMILES IDX 1 25 23 26 24 27 25 28 26 30 27 31 28 32 92 33 29 34 91 35
REMARK SMILES IDX 30 36 31 37 32 38 85 39 33 40 90 41 84 42 86 43 34 44 89 45
REMARK SMILES IDX 83 46 82 47 35 49 69 50 48 51 68 52 49 53 52 54 67 55 87 56
REMARK SMILES IDX 50 57 51 58 66 60 88 61 53 62 36 63 37 64 46 65 38 66 39 67
REMARK SMILES IDX 45 68 47 69 40 70 41 71 42 72 43 73 44 74 70 75 71 76 80 77
REMARK SMILES IDX 72 78 73 79 79 80 81 81 74 82 75 83 76 84 77 85 78 86 54 87
REMARK SMILES IDX 55 88 64 89 56 90 57 91 63 92 65 93 58 94 59 95 60 96 61 97
REMARK SMILES IDX 62 98
REMARK H PARENT 20 6 14 16 24 29 86 48 52 59
REMARK Flexibility Score: inf
ROOT
ATOM      1  C   UNL A   1      36.838  22.769  24.512  1.00  0.00     0.042 C 
ENDROOT
BRANCH   1   2
ATOM      2  C   UNL A   1      35.646  23.695  24.234  1.00  0.00     0.117 C 
BRANCH   2   3
ATOM      3  N   UNL A   1      34.883  23.364  23.042  1.00  0.00    -0.354 N 
ATOM      4  C   UNL A   1      33.898  24.026  22.372  1.00  0.00     0.243 C 
ATOM      5  O   UNL A   1      33.593  23.579  21.263  1.00  0.00    -0.273 OA
ATOM      6  H   UNL A   1      35.124  22.495  22.644  1.00  0.00     0.163 HD
BRANCH   4   7
ATOM      7  C   UNL A   1      33.128  25.211  22.990  1.00  0.00     0.181 C 
ATOM      8  N   UNL A   1      32.190  24.841  24.095  1.00  0.00    -0.318 N 
ATOM      9  C   UNL A   1      31.515  25.956  24.787  1.00  0.00     0.179 C 
ATOM     10  C   UNL A   1      31.178  27.042  23.820  1.00  0.00     0.081 A 
ATOM     11  C   UNL A   1      32.384  25.987  21.855  1.00  0.00     0.091 C 
ATOM     12  N   UNL A   1      30.492  28.189  24.121  1.00  0.00    -0.240 NA
ATOM     13  C   UNL A   1      31.577  27.052  22.503  1.00  0.00     0.042 A 
ATOM     14  C   UNL A   1      30.417  28.848  22.984  1.00  0.00     0.197 A 
ATOM     15  N   UNL A   1      31.058  28.190  21.964  1.00  0.00    -0.348 N 
ATOM     16  H   UNL A   1      31.129  28.483  21.027  1.00  0.00     0.167 HD
BRANCH   8  17
ATOM     17  C   UNL A   1      31.401  23.699  23.915  1.00  0.00     0.290 C 
ATOM     18  O   UNL A   1      30.304  23.746  23.360  1.00  0.00    -0.265 OA
BRANCH  17  19
ATOM     19  C   UNL A   1      31.962  22.533  24.568  1.00  0.00     0.191 A 
ATOM     20  C   UNL A   1      32.581  20.434  24.767  1.00  0.00     0.104 A 
ATOM     21  C   UNL A   1      32.940  21.053  25.945  1.00  0.00     0.046 A 
ATOM     22  O   UNL A   1      31.971  21.325  23.934  1.00  0.00    -0.456 OA
ATOM     23  C   UNL A   1      32.521  22.392  25.825  1.00  0.00     0.056 A 
BRANCH  20  24
ATOM     24  C   UNL A   1      32.710  19.041  24.268  1.00  0.00     0.072 C 
ATOM     25  C   UNL A   1      32.650  18.036  25.403  1.00  0.00     0.012 C 
ENDBRANCH  20  24
ENDBRANCH  17  19
ENDBRANCH   8  17
ENDBRANCH   4   7
ENDBRANCH   2   3
ENDBRANCH   1   2
BRANCH   1  26
ATOM     26  C   UNL A   1      37.495  22.917  25.882  1.00  0.00     0.118 C 
BRANCH  26  27
ATOM     27  N   UNL A   1      38.604  21.991  26.101  1.00  0.00    -0.352 N 
ATOM     28  C   UNL A   1      39.921  22.306  26.380  1.00  0.00     0.251 C 
ATOM     29  H   UNL A   1      38.387  21.032  26.043  1.00  0.00     0.163 HD
ATOM     30  O   UNL A   1      40.806  21.489  26.132  1.00  0.00    -0.269 OA
BRANCH  28  31
ATOM     31  C   UNL A   1      40.262  23.626  26.955  1.00  0.00     0.039 A 
ATOM     32  C   UNL A   1      39.451  24.743  26.728  1.00  0.00     0.014 A 
ATOM     33  C   UNL A   1      41.413  23.755  27.723  1.00  0.00     0.014 A 
ATOM     34  C   UNL A   1      39.766  25.965  27.337  1.00  0.00     0.010 A 
ATOM     35  C   UNL A   1      41.652  24.925  28.418  1.00  0.00     0.010 A 
ATOM     36  C   UNL A   1      40.864  26.061  28.206  1.00  0.00    -0.014 A 
BRANCH  36  37
ATOM     37  C   UNL A   1      41.137  27.305  28.954  1.00  0.00     0.031 A 
ATOM     38  C   UNL A   1      42.312  28.141  28.516  1.00  0.00     0.074 A 
ATOM     39  C   UNL A   1      40.256  27.845  29.833  1.00  0.00     0.049 A 
ATOM     40  N   UNL A   1      43.209  28.729  29.244  1.00  0.00    -0.248 NA
ATOM     41  C   UNL A   1      42.507  28.357  27.073  1.00  0.00     0.031 C 
ATOM     42  C   UNL A   1      38.923  27.348  30.208  1.00  0.00     0.029 A 
ATOM     43  N   UNL A   1      40.318  29.041  30.493  1.00  0.00    -0.354 N 
ATOM     44  C   UNL A   1      43.953  29.539  28.382  1.00  0.00     0.074 A 
ATOM     45  C   UNL A   1      43.500  29.246  27.048  1.00  0.00     0.031 C 
ATOM     46  C   UNL A   1      38.223  28.330  30.815  1.00  0.00     0.029 A 
ATOM     47  C   UNL A   1      39.109  29.453  31.046  1.00  0.00     0.049 A 
ATOM     48  H   UNL A   1      41.147  29.566  30.572  1.00  0.00     0.167 HD
ATOM     49  C   UNL A   1      44.811  30.501  28.822  1.00  0.00     0.037 A 
ATOM     50  C   UNL A   1      38.830  30.627  31.663  1.00  0.00     0.037 A 
ATOM     51  C   UNL A   1      45.275  30.237  30.154  1.00  0.00     0.049 A 
ATOM     52  C   UNL A   1      40.115  31.216  32.093  1.00  0.00     0.074 A 
ATOM     53  C   UNL A   1      45.936  29.177  30.747  1.00  0.00     0.029 A 
ATOM     54  N   UNL A   1      44.787  30.984  31.195  1.00  0.00    -0.354 N 
ATOM     55  N   UNL A   1      40.877  30.722  33.029  1.00  0.00    -0.248 NA
ATOM     56  C   UNL A   1      40.743  32.203  31.230  1.00  0.00     0.031 C 
ATOM     57  C   UNL A   1      45.354  29.061  32.042  1.00  0.00     0.029 A 
ATOM     58  C   UNL A   1      44.419  30.089  32.170  1.00  0.00     0.049 A 
ATOM     59  H   UNL A   1      44.713  31.964  31.235  1.00  0.00     0.167 HD
ATOM     60  C   UNL A   1      42.167  31.008  32.619  1.00  0.00     0.074 A 
ATOM     61  C   UNL A   1      42.017  32.028  31.587  1.00  0.00     0.031 C 
ATOM     62  C   UNL A   1      43.215  30.203  32.964  1.00  0.00     0.037 A 
BRANCH  49  63
ATOM     63  C   UNL A   1      45.022  31.819  28.120  1.00  0.00     0.058 A 
ATOM     64  C   UNL A   1      46.286  32.166  27.605  1.00  0.00     0.135 A 
ATOM     65  C   UNL A   1      44.075  32.867  28.182  1.00  0.00     0.135 A 
ATOM     66  F   UNL A   1      47.264  31.251  27.521  1.00  0.00    -0.206 F 
ATOM     67  C   UNL A   1      46.604  33.473  27.222  1.00  0.00     0.059 A 
ATOM     68  C   UNL A   1      44.358  34.167  27.771  1.00  0.00     0.059 A 
ATOM     69  F   UNL A   1      42.863  32.683  28.725  1.00  0.00    -0.206 F 
ATOM     70  C   UNL A   1      45.637  34.469  27.328  1.00  0.00     0.060 A 
BRANCH  70  71
ATOM     71  S   UNL A   1      46.079  36.176  26.938  1.00  0.00     0.124 S 
ATOM     72  O   UNL A   1      44.765  36.800  26.835  1.00  0.00    -0.237 OA
ATOM     73  O   UNL A   1      46.877  36.557  28.099  1.00  0.00    -0.237 OA
ATOM     74  O   UNL A   1      46.823  36.052  25.689  1.00  0.00    -0.744 OA
ENDBRANCH  70  71
ENDBRANCH  49  63
BRANCH  50  75
ATOM     75  C   UNL A   1      37.551  31.372  31.752  1.00  0.00     0.058 A 
ATOM     76  C   UNL A   1      36.977  31.677  32.999  1.00  0.00     0.135 A 
ATOM     77  C   UNL A   1      37.017  32.047  30.636  1.00  0.00     0.135 A 
ATOM     78  F   UNL A   1      37.434  31.090  34.115  1.00  0.00    -0.206 F 
ATOM     79  C   UNL A   1      35.979  32.643  33.141  1.00  0.00     0.059 A 
ATOM     80  C   UNL A   1      36.012  33.006  30.751  1.00  0.00     0.059 A 
ATOM     81  F   UNL A   1      37.529  31.858  29.409  1.00  0.00    -0.206 F 
ATOM     82  C   UNL A   1      35.520  33.322  32.014  1.00  0.00     0.060 A 
BRANCH  82  83
ATOM     83  S   UNL A   1      34.382  34.710  32.231  1.00  0.00     0.124 S 
ATOM     84  O   UNL A   1      34.128  35.111  30.852  1.00  0.00    -0.237 OA
ATOM     85  O   UNL A   1      33.264  34.084  32.928  1.00  0.00    -0.237 OA
ATOM     86  O   UNL A   1      35.154  35.661  33.026  1.00  0.00    -0.744 OA
ENDBRANCH  82  83
ENDBRANCH  50  75
BRANCH  62  87
ATOM     87  C   UNL A   1      43.011  29.183  34.060  1.00  0.00     0.058 A 
ATOM     88  C   UNL A   1      43.113  29.455  35.437  1.00  0.00     0.135 A 
ATOM     89  C   UNL A   1      42.564  27.901  33.702  1.00  0.00     0.135 A 
ATOM     90  F   UNL A   1      43.416  30.684  35.879  1.00  0.00    -0.206 F 
ATOM     91  C   UNL A   1      42.845  28.487  36.406  1.00  0.00     0.059 A 
ATOM     92  C   UNL A   1      42.253  26.930  34.652  1.00  0.00     0.059 A 
ATOM     93  F   UNL A   1      42.377  27.590  32.408  1.00  0.00    -0.206 F 
ATOM     94  C   UNL A   1      42.415  27.224  36.004  1.00  0.00     0.060 A 
BRANCH  94  95
ATOM     95  S   UNL A   1      41.999  25.994  37.260  1.00  0.00     0.124 S 
ATOM     96  O   UNL A   1      42.933  26.322  38.332  1.00  0.00    -0.237 OA
ATOM     97  O   UNL A   1      40.593  26.278  37.534  1.00  0.00    -0.237 OA
ATOM     98  O   UNL A   1      42.246  24.721  36.585  1.00  0.00    -0.744 OA
ENDBRANCH  94  95
ENDBRANCH  62  87
ENDBRANCH  36  37
ENDBRANCH  28  31
ENDBRANCH  26  27
ENDBRANCH   1  26
TORSDOF 16
ENDMDL
