MODEL 1
REMARK VINA RESULT:     -12.7      0.000      0.000
REMARK SMILES COc1ccc(-c2nc3ccc(C)cc3[nH]2)c(C(=O)NCCCNC(=O)c2ccc(-c3c4nc(c(-c5c(F)cc(S(=O)(=O)[O-])cc5F)c5ccc([nH]5)c(-c5c(F)cc(S(=O)(=O)[O-])cc5F)c5nc(c(-c6c(F)cc(S(=O)(=O)[O-])cc6F)c6ccc3[nH]6)C=C5)C=C4)cc2)c1OC
REMARK SMILES IDX 23 1 22 2 21 3 20 4 18 5 19 6 17 8 3 9 4 10 93 11 5 12 6 13
REMARK SMILES IDX 2 14 1 15 94 16 95 17 7 18 8 19 16 20 9 21 15 22 10 24 14 25
REMARK SMILES IDX 11 26 12 27 13 28 24 29 25 30 26 32 27 33 28 34 92 35 29 36
REMARK SMILES IDX 91 37 30 38 31 39 32 40 85 41 33 42 90 43 84 44 86 45 34 46
REMARK SMILES IDX 89 47 83 48 82 49 35 51 69 52 48 53 68 54 49 55 52 56 67 57
REMARK SMILES IDX 87 58 50 59 51 60 66 62 88 63 53 64 36 65 37 66 46 67 38 68
REMARK SMILES IDX 39 69 45 70 47 71 40 72 41 73 42 74 43 75 44 76 70 77 71 78
REMARK SMILES IDX 80 79 72 80 73 81 79 82 81 83 74 84 75 85 76 86 77 87 78 88
REMARK SMILES IDX 54 89 55 90 64 91 56 92 57 93 63 94 65 95 58 96 59 97 60 98
REMARK SMILES IDX 61 99 62 100
REMARK H PARENT 20 7 16 23 24 31 86 50 52 61
REMARK Flexibility Score: inf
ROOT
ATOM      1  C   UNL A   1      35.337  30.014  27.688  1.00  0.00     0.118 C 
ENDROOT
BRANCH   1   2
ATOM      2  C   UNL A   1      34.437  28.909  27.174  1.00  0.00     0.042 C 
BRANCH   2   3
ATOM      3  C   UNL A   1      33.693  29.220  25.898  1.00  0.00     0.118 C 
BRANCH   3   4
ATOM      4  N   UNL A   1      34.135  28.636  24.658  1.00  0.00    -0.352 N 
ATOM      5  C   UNL A   1      33.331  27.850  23.845  1.00  0.00     0.255 C 
ATOM      6  O   UNL A   1      33.471  27.875  22.625  1.00  0.00    -0.269 OA
ATOM      7  H   UNL A   1      35.061  28.805  24.371  1.00  0.00     0.163 HD
BRANCH   5   8
ATOM      8  C   UNL A   1      32.372  26.882  24.460  1.00  0.00     0.096 A 
ATOM      9  C   UNL A   1      31.820  24.722  25.435  1.00  0.00     0.161 A 
ATOM     10  C   UNL A   1      30.464  25.088  25.358  1.00  0.00     0.051 A 
ATOM     11  C   UNL A   1      32.802  25.649  25.048  1.00  0.00     0.174 A 
ATOM     12  C   UNL A   1      30.056  26.339  24.898  1.00  0.00     0.017 A 
ATOM     13  C   UNL A   1      31.000  27.242  24.412  1.00  0.00     0.034 A 
BRANCH   9  14
ATOM     14  O   UNL A   1      31.931  23.411  25.796  1.00  0.00    -0.493 OA
ATOM     15  C   UNL A   1      30.801  22.651  26.170  1.00  0.00     0.278 C 
ENDBRANCH   9  14
BRANCH  11  16
ATOM     16  O   UNL A   1      34.148  25.544  25.303  1.00  0.00    -0.492 OA
ATOM     17  C   UNL A   1      34.918  24.577  24.594  1.00  0.00     0.278 C 
ENDBRANCH  11  16
BRANCH  13  18
ATOM     18  C   UNL A   1      30.531  28.516  23.848  1.00  0.00     0.139 A 
ATOM     19  N   UNL A   1      30.355  29.646  24.506  1.00  0.00    -0.228 NA
ATOM     20  N   UNL A   1      30.161  28.677  22.527  1.00  0.00    -0.338 N 
ATOM     21  C   UNL A   1      29.723  30.497  23.633  1.00  0.00     0.089 A 
ATOM     22  C   UNL A   1      29.603  29.923  22.374  1.00  0.00     0.066 A 
ATOM     23  H   UNL A   1      30.279  28.010  21.813  1.00  0.00     0.168 HD
ATOM     24  C   UNL A   1      29.198  31.776  23.855  1.00  0.00     0.031 A 
ATOM     25  C   UNL A   1      28.989  30.567  21.291  1.00  0.00     0.031 A 
ATOM     26  C   UNL A   1      28.549  32.431  22.800  1.00  0.00     0.006 A 
ATOM     27  C   UNL A   1      28.441  31.841  21.530  1.00  0.00    -0.049 A 
ATOM     28  C   UNL A   1      27.721  32.585  20.440  1.00  0.00     0.044 C 
ENDBRANCH  13  18
ENDBRANCH   5   8
ENDBRANCH   3   4
ENDBRANCH   2   3
ENDBRANCH   1   2
BRANCH   1  29
ATOM     29  N   UNL A   1      35.328  30.184  29.140  1.00  0.00    -0.352 N 
ATOM     30  C   UNL A   1      36.324  30.108  30.092  1.00  0.00     0.251 C 
ATOM     31  H   UNL A   1      34.439  30.392  29.509  1.00  0.00     0.163 HD
ATOM     32  O   UNL A   1      36.026  30.222  31.273  1.00  0.00    -0.269 OA
BRANCH  30  33
ATOM     33  C   UNL A   1      37.737  29.848  29.712  1.00  0.00     0.039 A 
ATOM     34  C   UNL A   1      38.656  29.486  30.704  1.00  0.00     0.014 A 
ATOM     35  C   UNL A   1      38.171  29.958  28.396  1.00  0.00     0.014 A 
ATOM     36  C   UNL A   1      39.968  29.149  30.353  1.00  0.00     0.010 A 
ATOM     37  C   UNL A   1      39.419  29.474  28.028  1.00  0.00     0.010 A 
ATOM     38  C   UNL A   1      40.349  29.090  29.003  1.00  0.00    -0.014 A 
BRANCH  38  39
ATOM     39  C   UNL A   1      41.718  28.688  28.579  1.00  0.00     0.031 A 
ATOM     40  C   UNL A   1      42.815  29.723  28.510  1.00  0.00     0.074 A 
ATOM     41  C   UNL A   1      41.960  27.420  28.189  1.00  0.00     0.049 A 
ATOM     42  N   UNL A   1      44.044  29.600  28.079  1.00  0.00    -0.248 NA
ATOM     43  C   UNL A   1      42.473  31.090  28.940  1.00  0.00     0.031 C 
ATOM     44  C   UNL A   1      40.969  26.341  28.143  1.00  0.00     0.029 A 
ATOM     45  N   UNL A   1      43.114  26.823  27.748  1.00  0.00    -0.354 N 
ATOM     46  C   UNL A   1      44.605  30.870  28.162  1.00  0.00     0.074 A 
ATOM     47  C   UNL A   1      43.561  31.765  28.605  1.00  0.00     0.031 C 
ATOM     48  C   UNL A   1      41.568  25.207  27.741  1.00  0.00     0.029 A 
ATOM     49  C   UNL A   1      42.971  25.486  27.458  1.00  0.00     0.049 A 
ATOM     50  H   UNL A   1      43.966  27.307  27.649  1.00  0.00     0.167 HD
ATOM     51  C   UNL A   1      45.882  31.254  27.932  1.00  0.00     0.037 A 
ATOM     52  C   UNL A   1      43.872  24.586  27.015  1.00  0.00     0.037 A 
ATOM     53  C   UNL A   1      46.929  30.350  27.537  1.00  0.00     0.049 A 
ATOM     54  C   UNL A   1      45.294  25.029  26.792  1.00  0.00     0.074 A 
ATOM     55  C   UNL A   1      48.271  30.620  27.335  1.00  0.00     0.029 A 
ATOM     56  N   UNL A   1      46.752  28.995  27.296  1.00  0.00    -0.354 N 
ATOM     57  N   UNL A   1      45.818  26.223  26.933  1.00  0.00    -0.248 NA
ATOM     58  C   UNL A   1      46.249  23.999  26.361  1.00  0.00     0.031 C 
ATOM     59  C   UNL A   1      48.897  29.437  26.931  1.00  0.00     0.029 A 
ATOM     60  C   UNL A   1      47.958  28.418  26.936  1.00  0.00     0.049 A 
ATOM     61  H   UNL A   1      45.895  28.515  27.370  1.00  0.00     0.167 HD
ATOM     62  C   UNL A   1      47.172  26.081  26.646  1.00  0.00     0.074 A 
ATOM     63  C   UNL A   1      47.385  24.682  26.332  1.00  0.00     0.031 C 
ATOM     64  C   UNL A   1      48.152  27.019  26.643  1.00  0.00     0.037 A 
BRANCH  51  65
ATOM     65  C   UNL A   1      46.220  32.710  28.122  1.00  0.00     0.058 A 
ATOM     66  C   UNL A   1      46.696  33.203  29.349  1.00  0.00     0.135 A 
ATOM     67  C   UNL A   1      46.087  33.621  27.062  1.00  0.00     0.135 A 
ATOM     68  F   UNL A   1      46.826  32.383  30.404  1.00  0.00    -0.206 F 
ATOM     69  C   UNL A   1      46.995  34.550  29.527  1.00  0.00     0.059 A 
ATOM     70  C   UNL A   1      46.413  34.968  27.208  1.00  0.00     0.059 A 
ATOM     71  F   UNL A   1      45.635  33.208  25.867  1.00  0.00    -0.206 F 
ATOM     72  C   UNL A   1      46.850  35.425  28.450  1.00  0.00     0.060 A 
BRANCH  72  73
ATOM     73  S   UNL A   1      47.252  37.167  28.697  1.00  0.00     0.124 S 
ATOM     74  O   UNL A   1      47.495  37.209  30.136  1.00  0.00    -0.237 OA
ATOM     75  O   UNL A   1      48.431  37.338  27.852  1.00  0.00    -0.237 OA
ATOM     76  O   UNL A   1      46.052  37.862  28.243  1.00  0.00    -0.744 OA
ENDBRANCH  72  73
ENDBRANCH  51  65
BRANCH  52  77
ATOM     77  C   UNL A   1      43.470  23.168  26.799  1.00  0.00     0.058 A 
ATOM     78  C   UNL A   1      43.213  22.317  27.885  1.00  0.00     0.135 A 
ATOM     79  C   UNL A   1      43.328  22.636  25.507  1.00  0.00     0.135 A 
ATOM     80  F   UNL A   1      43.338  22.777  29.140  1.00  0.00    -0.206 F 
ATOM     81  C   UNL A   1      42.854  20.985  27.701  1.00  0.00     0.059 A 
ATOM     82  C   UNL A   1      42.943  21.315  25.298  1.00  0.00     0.059 A 
ATOM     83  F   UNL A   1      43.542  23.411  24.433  1.00  0.00    -0.206 F 
ATOM     84  C   UNL A   1      42.721  20.494  26.403  1.00  0.00     0.060 A 
BRANCH  84  85
ATOM     85  S   UNL A   1      42.215  18.775  26.176  1.00  0.00     0.124 S 
ATOM     86  O   UNL A   1      42.393  18.236  27.519  1.00  0.00    -0.237 OA
ATOM     87  O   UNL A   1      40.834  18.919  25.723  1.00  0.00    -0.237 OA
ATOM     88  O   UNL A   1      43.148  18.280  25.168  1.00  0.00    -0.744 OA
ENDBRANCH  84  85
ENDBRANCH  52  77
BRANCH  64  89
ATOM     89  C   UNL A   1      49.550  26.556  26.347  1.00  0.00     0.058 A 
ATOM     90  C   UNL A   1      50.118  26.675  25.068  1.00  0.00     0.135 A 
ATOM     91  C   UNL A   1      50.347  26.017  27.371  1.00  0.00     0.135 A 
ATOM     92  F   UNL A   1      49.400  27.182  24.054  1.00  0.00    -0.206 F 
ATOM     93  C   UNL A   1      51.414  26.241  24.808  1.00  0.00     0.059 A 
ATOM     94  C   UNL A   1      51.656  25.608  27.139  1.00  0.00     0.059 A 
ATOM     95  F   UNL A   1      49.858  25.896  28.615  1.00  0.00    -0.206 F 
ATOM     96  C   UNL A   1      52.174  25.707  25.850  1.00  0.00     0.060 A 
BRANCH  96  97
ATOM     97  S   UNL A   1      53.856  25.157  25.500  1.00  0.00     0.124 S 
ATOM     98  O   UNL A   1      53.685  23.708  25.439  1.00  0.00    -0.237 OA
ATOM     99  O   UNL A   1      54.144  25.815  24.230  1.00  0.00    -0.237 OA
ATOM    100  O   UNL A   1      54.620  25.650  26.642  1.00  0.00    -0.744 OA
ENDBRANCH  96  97
ENDBRANCH  64  89
ENDBRANCH  38  39
ENDBRANCH  30  33
ENDBRANCH   1  29
TORSDOF 16
ENDMDL
MODEL 2
REMARK VINA RESULT:     -12.6      2.824      3.639
REMARK SMILES COc1ccc(-c2nc3ccc(C)cc3[nH]2)c(C(=O)NCCCNC(=O)c2ccc(-c3c4nc(c(-c5c(F)cc(S(=O)(=O)[O-])cc5F)c5ccc([nH]5)c(-c5c(F)cc(S(=O)(=O)[O-])cc5F)c5nc(c(-c6c(F)cc(S(=O)(=O)[O-])cc6F)c6ccc3[nH]6)C=C5)C=C4)cc2)c1OC
REMARK SMILES IDX 23 1 22 2 21 3 20 4 18 5 19 6 17 8 3 9 4 10 93 11 5 12 6 13
REMARK SMILES IDX 2 14 1 15 94 16 95 17 7 18 8 19 16 20 9 21 15 22 10 24 14 25
REMARK SMILES IDX 11 26 12 27 13 28 24 29 25 30 26 32 27 33 28 34 92 35 29 36
REMARK SMILES IDX 91 37 30 38 31 39 32 40 85 41 33 42 90 43 84 44 86 45 34 46
REMARK SMILES IDX 89 47 83 48 82 49 35 51 69 52 48 53 68 54 49 55 52 56 67 57
REMARK SMILES IDX 87 58 50 59 51 60 66 62 88 63 53 64 36 65 37 66 46 67 38 68
REMARK SMILES IDX 39 69 45 70 47 71 40 72 41 73 42 74 43 75 44 76 70 77 71 78
REMARK SMILES IDX 80 79 72 80 73 81 79 82 81 83 74 84 75 85 76 86 77 87 78 88
REMARK SMILES IDX 54 89 55 90 64 91 56 92 57 93 63 94 65 95 58 96 59 97 60 98
REMARK SMILES IDX 61 99 62 100
REMARK H PARENT 20 7 16 23 24 31 86 50 52 61
REMARK Flexibility Score: inf
ROOT
ATOM      1  C   UNL A   1      33.442  28.399  27.290  1.00  0.00     0.118 C 
ENDROOT
BRANCH   1   2
ATOM      2  C   UNL A   1      34.177  28.122  25.994  1.00  0.00     0.042 C 
BRANCH   2   3
ATOM      3  C   UNL A   1      33.341  27.521  24.890  1.00  0.00     0.118 C 
BRANCH   3   4
ATOM      4  N   UNL A   1      33.908  27.365  23.576  1.00  0.00    -0.352 N 
ATOM      5  C   UNL A   1      33.302  26.649  22.554  1.00  0.00     0.255 C 
ATOM      6  O   UNL A   1      33.440  27.001  21.385  1.00  0.00    -0.269 OA
ATOM      7  H   UNL A   1      34.776  27.792  23.392  1.00  0.00     0.163 HD
BRANCH   5   8
ATOM      8  C   UNL A   1      32.577  25.380  22.864  1.00  0.00     0.096 A 
ATOM      9  C   UNL A   1      32.468  22.958  23.073  1.00  0.00     0.161 A 
ATOM     10  C   UNL A   1      31.074  23.082  23.221  1.00  0.00     0.051 A 
ATOM     11  C   UNL A   1      33.250  24.120  22.961  1.00  0.00     0.174 A 
ATOM     12  C   UNL A   1      30.436  24.321  23.248  1.00  0.00     0.017 A 
ATOM     13  C   UNL A   1      31.172  25.486  23.037  1.00  0.00     0.034 A 
BRANCH   9  14
ATOM     14  O   UNL A   1      32.810  21.642  22.953  1.00  0.00    -0.493 OA
ATOM     15  C   UNL A   1      32.794  20.771  24.064  1.00  0.00     0.278 C 
ENDBRANCH   9  14
BRANCH  11  16
ATOM     16  O   UNL A   1      34.618  24.177  23.070  1.00  0.00    -0.492 OA
ATOM     17  C   UNL A   1      35.224  23.991  24.345  1.00  0.00     0.278 C 
ENDBRANCH  11  16
BRANCH  13  18
ATOM     18  C   UNL A   1      30.458  26.769  22.979  1.00  0.00     0.139 A 
ATOM     19  N   UNL A   1      29.328  27.065  23.593  1.00  0.00    -0.228 NA
ATOM     20  N   UNL A   1      30.872  27.840  22.213  1.00  0.00    -0.338 N 
ATOM     21  C   UNL A   1      28.935  28.282  23.095  1.00  0.00     0.089 A 
ATOM     22  C   UNL A   1      29.894  28.805  22.238  1.00  0.00     0.066 A 
ATOM     23  H   UNL A   1      31.727  27.903  21.728  1.00  0.00     0.168 HD
ATOM     24  C   UNL A   1      27.750  28.998  23.314  1.00  0.00     0.031 A 
ATOM     25  C   UNL A   1      29.750  30.034  21.580  1.00  0.00     0.031 A 
ATOM     26  C   UNL A   1      27.564  30.214  22.644  1.00  0.00     0.006 A 
ATOM     27  C   UNL A   1      28.545  30.734  21.786  1.00  0.00    -0.049 A 
ATOM     28  C   UNL A   1      28.283  32.036  21.082  1.00  0.00     0.044 C 
ENDBRANCH  13  18
ENDBRANCH   5   8
ENDBRANCH   3   4
ENDBRANCH   2   3
ENDBRANCH   1   2
BRANCH   1  29
ATOM     29  N   UNL A   1      33.454  29.798  27.712  1.00  0.00    -0.352 N 
ATOM     30  C   UNL A   1      34.445  30.605  28.232  1.00  0.00     0.251 C 
ATOM     31  H   UNL A   1      32.587  30.253  27.605  1.00  0.00     0.163 HD
ATOM     32  O   UNL A   1      34.164  31.744  28.576  1.00  0.00    -0.269 OA
BRANCH  30  33
ATOM     33  C   UNL A   1      35.830  30.101  28.420  1.00  0.00     0.039 A 
ATOM     34  C   UNL A   1      36.734  30.171  27.353  1.00  0.00     0.014 A 
ATOM     35  C   UNL A   1      36.251  29.557  29.629  1.00  0.00     0.014 A 
ATOM     36  C   UNL A   1      38.067  29.785  27.540  1.00  0.00     0.010 A 
ATOM     37  C   UNL A   1      37.601  29.326  29.860  1.00  0.00     0.010 A 
ATOM     38  C   UNL A   1      38.525  29.406  28.811  1.00  0.00    -0.014 A 
BRANCH  38  39
ATOM     39  C   UNL A   1      39.944  29.037  29.068  1.00  0.00     0.031 A 
ATOM     40  C   UNL A   1      40.885  30.051  29.675  1.00  0.00     0.074 A 
ATOM     41  C   UNL A   1      40.407  27.827  28.692  1.00  0.00     0.049 A 
ATOM     42  N   UNL A   1      42.172  29.962  29.891  1.00  0.00    -0.248 NA
ATOM     43  C   UNL A   1      40.310  31.356  30.048  1.00  0.00     0.031 C 
ATOM     44  C   UNL A   1      39.619  26.783  28.032  1.00  0.00     0.029 A 
ATOM     45  N   UNL A   1      41.657  27.272  28.804  1.00  0.00    -0.354 N 
ATOM     46  C   UNL A   1      42.558  31.200  30.396  1.00  0.00     0.074 A 
ATOM     47  C   UNL A   1      41.389  32.048  30.377  1.00  0.00     0.031 C 
ATOM     48  C   UNL A   1      40.391  25.701  27.838  1.00  0.00     0.029 A 
ATOM     49  C   UNL A   1      41.739  25.987  28.318  1.00  0.00     0.049 A 
ATOM     50  H   UNL A   1      42.424  27.748  29.197  1.00  0.00     0.167 HD
ATOM     51  C   UNL A   1      43.765  31.586  30.872  1.00  0.00     0.037 A 
ATOM     52  C   UNL A   1      42.783  25.137  28.266  1.00  0.00     0.037 A 
ATOM     53  C   UNL A   1      44.913  30.722  30.933  1.00  0.00     0.049 A 
ATOM     54  C   UNL A   1      44.110  25.578  28.826  1.00  0.00     0.074 A 
ATOM     55  C   UNL A   1      46.168  30.991  31.450  1.00  0.00     0.029 A 
ATOM     56  N   UNL A   1      44.942  29.415  30.469  1.00  0.00    -0.354 N 
ATOM     57  N   UNL A   1      44.440  26.733  29.354  1.00  0.00    -0.248 NA
ATOM     58  C   UNL A   1      45.202  24.596  28.795  1.00  0.00     0.031 C 
ATOM     59  C   UNL A   1      46.968  29.859  31.262  1.00  0.00     0.029 A 
ATOM     60  C   UNL A   1      46.196  28.866  30.679  1.00  0.00     0.049 A 
ATOM     61  H   UNL A   1      44.183  28.945  30.053  1.00  0.00     0.167 HD
ATOM     62  C   UNL A   1      45.766  26.604  29.752  1.00  0.00     0.074 A 
ATOM     63  C   UNL A   1      46.173  25.255  29.413  1.00  0.00     0.031 C 
ATOM     64  C   UNL A   1      46.576  27.516  30.347  1.00  0.00     0.037 A 
BRANCH  51  65
ATOM     65  C   UNL A   1      43.896  32.997  31.382  1.00  0.00     0.058 A 
ATOM     66  C   UNL A   1      44.233  34.063  30.530  1.00  0.00     0.135 A 
ATOM     67  C   UNL A   1      43.662  33.295  32.734  1.00  0.00     0.135 A 
ATOM     68  F   UNL A   1      44.486  33.836  29.231  1.00  0.00    -0.206 F 
ATOM     69  C   UNL A   1      44.367  35.363  31.005  1.00  0.00     0.059 A 
ATOM     70  C   UNL A   1      43.757  34.595  33.225  1.00  0.00     0.059 A 
ATOM     71  F   UNL A   1      43.339  32.318  33.596  1.00  0.00    -0.206 F 
ATOM     72  C   UNL A   1      44.127  35.620  32.355  1.00  0.00     0.060 A 
BRANCH  72  73
ATOM     73  S   UNL A   1      44.295  37.315  32.952  1.00  0.00     0.124 S 
ATOM     74  O   UNL A   1      43.121  37.439  33.810  1.00  0.00    -0.237 OA
ATOM     75  O   UNL A   1      45.581  37.277  33.640  1.00  0.00    -0.237 OA
ATOM     76  O   UNL A   1      44.264  38.111  31.729  1.00  0.00    -0.744 OA
ENDBRANCH  72  73
ENDBRANCH  51  65
BRANCH  52  77
ATOM     77  C   UNL A   1      42.607  23.768  27.706  1.00  0.00     0.058 A 
ATOM     78  C   UNL A   1      42.414  22.663  28.549  1.00  0.00     0.135 A 
ATOM     79  C   UNL A   1      42.622  23.536  26.321  1.00  0.00     0.135 A 
ATOM     80  F   UNL A   1      42.395  22.831  29.880  1.00  0.00    -0.206 F 
ATOM     81  C   UNL A   1      42.266  21.375  28.043  1.00  0.00     0.059 A 
ATOM     82  C   UNL A   1      42.448  22.261  25.791  1.00  0.00     0.059 A 
ATOM     83  F   UNL A   1      42.783  24.560  25.469  1.00  0.00    -0.206 F 
ATOM     84  C   UNL A   1      42.284  21.185  26.661  1.00  0.00     0.060 A 
BRANCH  84  85
ATOM     85  S   UNL A   1      42.050  19.514  26.015  1.00  0.00     0.124 S 
ATOM     86  O   UNL A   1      42.876  19.546  24.813  1.00  0.00    -0.237 OA
ATOM     87  O   UNL A   1      42.549  18.689  27.111  1.00  0.00    -0.237 OA
ATOM     88  O   UNL A   1      40.610  19.440  25.789  1.00  0.00    -0.744 OA
ENDBRANCH  84  85
ENDBRANCH  52  77
BRANCH  64  89
ATOM     89  C   UNL A   1      47.962  27.069  30.721  1.00  0.00     0.058 A 
ATOM     90  C   UNL A   1      48.227  26.394  31.922  1.00  0.00     0.135 A 
ATOM     91  C   UNL A   1      49.035  27.290  29.841  1.00  0.00     0.135 A 
ATOM     92  F   UNL A   1      47.238  26.159  32.798  1.00  0.00    -0.206 F 
ATOM     93  C   UNL A   1      49.515  25.988  32.256  1.00  0.00     0.059 A 
ATOM     94  C   UNL A   1      50.324  26.863  30.141  1.00  0.00     0.059 A 
ATOM     95  F   UNL A   1      48.833  27.917  28.672  1.00  0.00    -0.206 F 
ATOM     96  C   UNL A   1      50.557  26.229  31.359  1.00  0.00     0.060 A 
BRANCH  96  97
ATOM     97  S   UNL A   1      52.221  25.688  31.800  1.00  0.00     0.124 S 
ATOM     98  O   UNL A   1      52.949  25.935  30.559  1.00  0.00    -0.237 OA
ATOM     99  O   UNL A   1      52.552  26.570  32.915  1.00  0.00    -0.237 OA
ATOM    100  O   UNL A   1      52.040  24.283  32.153  1.00  0.00    -0.744 OA
ENDBRANCH  96  97
ENDBRANCH  64  89
ENDBRANCH  38  39
ENDBRANCH  30  33
ENDBRANCH   1  29
TORSDOF 16
ENDMDL
MODEL 3
REMARK VINA RESULT:     -12.4      0.618      8.120
REMARK SMILES COc1ccc(-c2nc3ccc(C)cc3[nH]2)c(C(=O)NCCCNC(=O)c2ccc(-c3c4nc(c(-c5c(F)cc(S(=O)(=O)[O-])cc5F)c5ccc([nH]5)c(-c5c(F)cc(S(=O)(=O)[O-])cc5F)c5nc(c(-c6c(F)cc(S(=O)(=O)[O-])cc6F)c6ccc3[nH]6)C=C5)C=C4)cc2)c1OC
REMARK SMILES IDX 23 1 22 2 21 3 20 4 18 5 19 6 17 8 3 9 4 10 93 11 5 12 6 13
REMARK SMILES IDX 2 14 1 15 94 16 95 17 7 18 8 19 16 20 9 21 15 22 10 24 14 25
REMARK SMILES IDX 11 26 12 27 13 28 24 29 25 30 26 32 27 33 28 34 92 35 29 36
REMARK SMILES IDX 91 37 30 38 31 39 32 40 85 41 33 42 90 43 84 44 86 45 34 46
REMARK SMILES IDX 89 47 83 48 82 49 35 51 69 52 48 53 68 54 49 55 52 56 67 57
REMARK SMILES IDX 87 58 50 59 51 60 66 62 88 63 53 64 36 65 37 66 46 67 38 68
REMARK SMILES IDX 39 69 45 70 47 71 40 72 41 73 42 74 43 75 44 76 70 77 71 78
REMARK SMILES IDX 80 79 72 80 73 81 79 82 81 83 74 84 75 85 76 86 77 87 78 88
REMARK SMILES IDX 54 89 55 90 64 91 56 92 57 93 63 94 65 95 58 96 59 97 60 98
REMARK SMILES IDX 61 99 62 100
REMARK H PARENT 20 7 16 23 24 31 86 50 52 61
REMARK Flexibility Score: inf
ROOT
ATOM      1  C   UNL A   1      35.414  29.567  27.461  1.00  0.00     0.118 C 
ENDROOT
BRANCH   1   2
ATOM      2  C   UNL A   1      34.349  28.639  26.911  1.00  0.00     0.042 C 
BRANCH   2   3
ATOM      3  C   UNL A   1      33.685  29.098  25.636  1.00  0.00     0.118 C 
BRANCH   3   4
ATOM      4  N   UNL A   1      34.134  28.570  24.373  1.00  0.00    -0.352 N 
ATOM      5  C   UNL A   1      33.344  27.797  23.535  1.00  0.00     0.255 C 
ATOM      6  O   UNL A   1      33.477  27.871  22.315  1.00  0.00    -0.269 OA
ATOM      7  H   UNL A   1      35.055  28.770  24.088  1.00  0.00     0.163 HD
BRANCH   5   8
ATOM      8  C   UNL A   1      32.410  26.786  24.116  1.00  0.00     0.096 A 
ATOM      9  C   UNL A   1      31.901  24.568  24.978  1.00  0.00     0.161 A 
ATOM     10  C   UNL A   1      30.541  24.925  24.957  1.00  0.00     0.051 A 
ATOM     11  C   UNL A   1      32.865  25.526  24.621  1.00  0.00     0.174 A 
ATOM     12  C   UNL A   1      30.110  26.196  24.581  1.00  0.00     0.017 A 
ATOM     13  C   UNL A   1      31.033  27.135  24.123  1.00  0.00     0.034 A 
BRANCH   9  14
ATOM     14  O   UNL A   1      32.032  23.240  25.260  1.00  0.00    -0.493 OA
ATOM     15  C   UNL A   1      32.005  22.263  24.240  1.00  0.00     0.278 C 
ENDBRANCH   9  14
BRANCH  11  16
ATOM     16  O   UNL A   1      34.218  25.419  24.835  1.00  0.00    -0.492 OA
ATOM     17  C   UNL A   1      34.971  24.475  24.080  1.00  0.00     0.278 C 
ENDBRANCH  11  16
BRANCH  13  18
ATOM     18  C   UNL A   1      30.539  28.434  23.646  1.00  0.00     0.139 A 
ATOM     19  N   UNL A   1      30.314  29.505  24.384  1.00  0.00    -0.228 NA
ATOM     20  N   UNL A   1      30.195  28.685  22.333  1.00  0.00    -0.338 N 
ATOM     21  C   UNL A   1      29.677  30.402  23.562  1.00  0.00     0.089 A 
ATOM     22  C   UNL A   1      29.603  29.923  22.261  1.00  0.00     0.066 A 
ATOM     23  H   UNL A   1      30.348  28.078  21.573  1.00  0.00     0.168 HD
ATOM     24  C   UNL A   1      29.108  31.645  23.867  1.00  0.00     0.031 A 
ATOM     25  C   UNL A   1      28.995  30.630  21.215  1.00  0.00     0.031 A 
ATOM     26  C   UNL A   1      28.464  32.360  22.848  1.00  0.00     0.006 A 
ATOM     27  C   UNL A   1      28.403  31.866  21.536  1.00  0.00    -0.049 A 
ATOM     28  C   UNL A   1      27.686  32.671  20.487  1.00  0.00     0.044 C 
ENDBRANCH  13  18
ENDBRANCH   5   8
ENDBRANCH   3   4
ENDBRANCH   2   3
ENDBRANCH   1   2
BRANCH   1  29
ATOM     29  N   UNL A   1      35.390  29.733  28.912  1.00  0.00    -0.352 N 
ATOM     30  C   UNL A   1      36.388  29.743  29.865  1.00  0.00     0.251 C 
ATOM     31  H   UNL A   1      34.486  29.863  29.282  1.00  0.00     0.163 HD
ATOM     32  O   UNL A   1      36.082  29.829  31.045  1.00  0.00    -0.269 OA
BRANCH  30  33
ATOM     33  C   UNL A   1      37.818  29.607  29.485  1.00  0.00     0.039 A 
ATOM     34  C   UNL A   1      38.762  29.301  30.473  1.00  0.00     0.014 A 
ATOM     35  C   UNL A   1      38.245  29.779  28.172  1.00  0.00     0.014 A 
ATOM     36  C   UNL A   1      40.098  29.080  30.119  1.00  0.00     0.010 A 
ATOM     37  C   UNL A   1      39.529  29.406  27.799  1.00  0.00     0.010 A 
ATOM     38  C   UNL A   1      40.485  29.080  28.770  1.00  0.00    -0.014 A 
BRANCH  38  39
ATOM     39  C   UNL A   1      41.883  28.800  28.343  1.00  0.00     0.031 A 
ATOM     40  C   UNL A   1      42.273  27.402  27.926  1.00  0.00     0.074 A 
ATOM     41  C   UNL A   1      42.816  29.773  28.398  1.00  0.00     0.049 A 
ATOM     42  N   UNL A   1      43.452  26.929  27.612  1.00  0.00    -0.248 NA
ATOM     43  C   UNL A   1      41.204  26.388  27.903  1.00  0.00     0.031 C 
ATOM     44  C   UNL A   1      42.583  31.148  28.849  1.00  0.00     0.029 A 
ATOM     45  N   UNL A   1      44.150  29.754  28.079  1.00  0.00    -0.354 N 
ATOM     46  C   UNL A   1      43.267  25.569  27.382  1.00  0.00     0.074 A 
ATOM     47  C   UNL A   1      41.883  25.276  27.673  1.00  0.00     0.031 C 
ATOM     48  C   UNL A   1      43.724  31.849  28.737  1.00  0.00     0.029 A 
ATOM     49  C   UNL A   1      44.778  30.966  28.250  1.00  0.00     0.049 A 
ATOM     50  H   UNL A   1      44.615  28.947  27.758  1.00  0.00     0.167 HD
ATOM     51  C   UNL A   1      44.156  24.653  26.931  1.00  0.00     0.037 A 
ATOM     52  C   UNL A   1      46.060  31.325  28.036  1.00  0.00     0.037 A 
ATOM     53  C   UNL A   1      45.521  24.962  26.597  1.00  0.00     0.049 A 
ATOM     54  C   UNL A   1      47.025  30.296  27.508  1.00  0.00     0.074 A 
ATOM     55  C   UNL A   1      46.491  24.125  26.075  1.00  0.00     0.029 A 
ATOM     56  N   UNL A   1      46.105  26.211  26.744  1.00  0.00    -0.354 N 
ATOM     57  N   UNL A   1      46.816  29.029  27.240  1.00  0.00    -0.248 NA
ATOM     58  C   UNL A   1      48.396  30.750  27.240  1.00  0.00     0.031 C 
ATOM     59  C   UNL A   1      47.674  24.859  25.945  1.00  0.00     0.029 A 
ATOM     60  C   UNL A   1      47.427  26.166  26.332  1.00  0.00     0.049 A 
ATOM     61  H   UNL A   1      45.649  27.013  27.089  1.00  0.00     0.167 HD
ATOM     62  C   UNL A   1      48.018  28.543  26.737  1.00  0.00     0.074 A 
ATOM     63  C   UNL A   1      48.945  29.657  26.729  1.00  0.00     0.031 C 
ATOM     64  C   UNL A   1      48.329  27.291  26.317  1.00  0.00     0.037 A 
BRANCH  51  65
ATOM     65  C   UNL A   1      43.672  23.239  26.753  1.00  0.00     0.058 A 
ATOM     66  C   UNL A   1      43.409  22.404  27.853  1.00  0.00     0.135 A 
ATOM     67  C   UNL A   1      43.446  22.714  25.470  1.00  0.00     0.135 A 
ATOM     68  F   UNL A   1      43.624  22.844  29.103  1.00  0.00    -0.206 F 
ATOM     69  C   UNL A   1      42.975  21.093  27.687  1.00  0.00     0.059 A 
ATOM     70  C   UNL A   1      42.979  21.415  25.281  1.00  0.00     0.059 A 
ATOM     71  F   UNL A   1      43.681  23.464  24.382  1.00  0.00    -0.206 F 
ATOM     72  C   UNL A   1      42.762  20.607  26.396  1.00  0.00     0.060 A 
BRANCH  72  73
ATOM     73  S   UNL A   1      42.188  18.907  26.200  1.00  0.00     0.124 S 
ATOM     74  O   UNL A   1      43.120  18.400  25.197  1.00  0.00    -0.237 OA
ATOM     75  O   UNL A   1      42.351  18.366  27.546  1.00  0.00    -0.237 OA
ATOM     76  O   UNL A   1      40.808  19.063  25.753  1.00  0.00    -0.744 OA
ENDBRANCH  72  73
ENDBRANCH  51  65
BRANCH  52  77
ATOM     77  C   UNL A   1      46.494  32.729  28.275  1.00  0.00     0.058 A 
ATOM     78  C   UNL A   1      47.040  33.114  29.509  1.00  0.00     0.135 A 
ATOM     79  C   UNL A   1      46.378  33.712  27.279  1.00  0.00     0.135 A 
ATOM     80  F   UNL A   1      47.169  32.213  30.495  1.00  0.00    -0.206 F 
ATOM     81  C   UNL A   1      47.434  34.426  29.757  1.00  0.00     0.059 A 
ATOM     82  C   UNL A   1      46.792  35.024  27.494  1.00  0.00     0.059 A 
ATOM     83  F   UNL A   1      45.881  33.393  26.074  1.00  0.00    -0.206 F 
ATOM     84  C   UNL A   1      47.306  35.373  28.741  1.00  0.00     0.060 A 
BRANCH  84  85
ATOM     85  S   UNL A   1      47.859  37.063  29.060  1.00  0.00     0.124 S 
ATOM     86  O   UNL A   1      47.828  37.113  30.517  1.00  0.00    -0.237 OA
ATOM     87  O   UNL A   1      49.185  37.073  28.449  1.00  0.00    -0.237 OA
ATOM     88  O   UNL A   1      46.857  37.878  28.379  1.00  0.00    -0.744 OA
ENDBRANCH  84  85
ENDBRANCH  52  77
BRANCH  64  89
ATOM     89  C   UNL A   1      49.708  27.071  25.761  1.00  0.00     0.058 A 
ATOM     90  C   UNL A   1      50.793  26.719  26.580  1.00  0.00     0.135 A 
ATOM     91  C   UNL A   1      49.937  27.181  24.380  1.00  0.00     0.135 A 
ATOM     92  F   UNL A   1      50.628  26.602  27.907  1.00  0.00    -0.206 F 
ATOM     93  C   UNL A   1      52.064  26.520  26.052  1.00  0.00     0.059 A 
ATOM     94  C   UNL A   1      51.193  26.954  23.827  1.00  0.00     0.059 A 
ATOM     95  F   UNL A   1      48.931  27.500  23.550  1.00  0.00    -0.206 F 
ATOM     96  C   UNL A   1      52.255  26.642  24.674  1.00  0.00     0.060 A 
BRANCH  96  97
ATOM     97  S   UNL A   1      53.907  26.372  24.002  1.00  0.00     0.124 S 
ATOM     98  O   UNL A   1      54.279  25.109  24.635  1.00  0.00    -0.237 OA
ATOM     99  O   UNL A   1      53.655  26.310  22.566  1.00  0.00    -0.237 OA
ATOM    100  O   UNL A   1      54.653  27.543  24.452  1.00  0.00    -0.744 OA
ENDBRANCH  96  97
ENDBRANCH  64  89
ENDBRANCH  38  39
ENDBRANCH  30  33
ENDBRANCH   1  29
TORSDOF 16
ENDMDL
