MODEL 1
REMARK VINA RESULT:     -10.6      0.000      0.000
REMARK SMILES C[C@H](Nc1nccc(-c2cc(C(=O)NCCCNC(=O)c3ccc(-c4c5nc(c(-c6c(F)cc(S(=O)(=O)[O-])cc6F)c6ccc([nH]6)c(-c6c(F)cc(S(=O)(=O)[O-])cc6F)c6nc(c(-c7c(F)cc(S(=O)(=O)[O-])cc7F)c7ccc4[nH]7)C=C6)C=C5)cc3)ccn2)n1)c1cn2ccsc2n1
REMARK SMILES IDX 15 1 14 2 12 3 13 4 11 6 9 7 10 8 89 9 88 10 87 11 8 12 4 13
REMARK SMILES IDX 5 14 90 15 6 16 7 17 3 18 2 20 1 21 91 22 92 23 98 24 93 25
REMARK SMILES IDX 97 26 94 27 96 28 95 29 16 30 17 31 18 32 19 33 20 35 21 36
REMARK SMILES IDX 22 37 86 38 23 39 85 40 24 41 25 42 26 43 79 44 27 45 84 46
REMARK SMILES IDX 78 47 80 48 28 49 83 50 77 51 76 52 29 54 63 55 42 56 62 57
REMARK SMILES IDX 43 58 46 59 61 60 81 61 44 62 45 63 60 65 82 66 47 67 30 68
REMARK SMILES IDX 31 69 40 70 32 71 33 72 39 73 41 74 34 75 35 76 36 77 37 78
REMARK SMILES IDX 38 79 64 80 65 81 74 82 66 83 67 84 73 85 75 86 68 87 69 88
REMARK SMILES IDX 70 89 71 90 72 91 48 92 49 93 58 94 50 95 51 96 57 97 59 98
REMARK SMILES IDX 52 99 53 100 54 101 55 102 56 103
REMARK H PARENT 14 5 3 19 18 34 80 53 46 64
REMARK Flexibility Score: inf
ROOT
ATOM      1  C   UNL A   1      41.027  19.659  26.256  1.00  0.00     0.118 C 
ENDROOT
BRANCH   1   2
ATOM      2  N   UNL A   1      41.960  18.616  26.563  1.00  0.00    -0.352 N 
ATOM      3  C   UNL A   1      43.306  18.504  26.214  1.00  0.00     0.251 C 
ATOM      4  O   UNL A   1      43.948  17.515  26.573  1.00  0.00    -0.269 OA
ATOM      5  H   UNL A   1      41.600  17.873  27.099  1.00  0.00     0.163 HD
BRANCH   3   6
ATOM      6  C   UNL A   1      44.017  19.583  25.409  1.00  0.00     0.043 A 
ATOM      7  C   UNL A   1      44.905  21.876  25.145  1.00  0.00     0.090 A 
ATOM      8  C   UNL A   1      44.255  20.883  25.829  1.00  0.00     0.044 A 
ATOM      9  N   UNL A   1      45.364  21.621  23.932  1.00  0.00    -0.255 NA
ATOM     10  C   UNL A   1      45.138  20.370  23.455  1.00  0.00     0.112 A 
ATOM     11  C   UNL A   1      44.500  19.332  24.140  1.00  0.00     0.034 A 
BRANCH   7  12
ATOM     12  C   UNL A   1      45.140  23.162  25.844  1.00  0.00     0.094 A 
ATOM     13  C   UNL A   1      45.328  25.454  25.757  1.00  0.00     0.223 A 
ATOM     14  N   UNL A   1      45.626  25.572  27.051  1.00  0.00    -0.222 NA
ATOM     15  N   UNL A   1      45.037  24.290  25.139  1.00  0.00    -0.211 NA
ATOM     16  C   UNL A   1      45.632  24.435  27.753  1.00  0.00     0.117 A 
ATOM     17  C   UNL A   1      45.383  23.204  27.204  1.00  0.00     0.051 A 
BRANCH  13  18
ATOM     18  N   UNL A   1      45.136  26.597  25.043  1.00  0.00    -0.346 N 
ATOM     19  H   UNL A   1      44.377  26.750  24.436  1.00  0.00     0.164 HD
BRANCH  18  20
ATOM     20  C   UNL A   1      46.185  27.556  25.288  1.00  0.00     0.130 C 
ATOM     21  C   UNL A   1      46.888  27.901  23.955  1.00  0.00     0.038 C 
BRANCH  20  22
ATOM     22  C   UNL A   1      45.779  28.829  25.931  1.00  0.00     0.082 A 
ATOM     23  C   UNL A   1      44.854  28.966  26.952  1.00  0.00     0.119 A 
ATOM     24  N   UNL A   1      46.325  30.034  25.572  1.00  0.00    -0.222 NA
ATOM     25  N   UNL A   1      44.850  30.271  27.234  1.00  0.00    -0.297 N 
ATOM     26  C   UNL A   1      45.730  30.844  26.389  1.00  0.00     0.193 A 
ATOM     27  C   UNL A   1      44.169  31.043  28.124  1.00  0.00     0.104 A 
ATOM     28  S   UNL A   1      45.828  32.502  26.596  1.00  0.00    -0.105 S 
ATOM     29  C   UNL A   1      44.486  32.336  28.032  1.00  0.00     0.087 A 
ENDBRANCH  20  22
ENDBRANCH  18  20
ENDBRANCH  13  18
ENDBRANCH   7  12
ENDBRANCH   3   6
ENDBRANCH   1   2
BRANCH   1  30
ATOM     30  C   UNL A   1      40.845  20.713  27.288  1.00  0.00     0.042 C 
BRANCH  30  31
ATOM     31  C   UNL A   1      40.778  21.955  26.484  1.00  0.00     0.118 C 
BRANCH  31  32
ATOM     32  N   UNL A   1      39.486  22.123  25.840  1.00  0.00    -0.352 N 
ATOM     33  C   UNL A   1      38.694  23.251  25.949  1.00  0.00     0.251 C 
ATOM     34  H   UNL A   1      39.151  21.382  25.286  1.00  0.00     0.163 HD
ATOM     35  O   UNL A   1      37.599  23.330  25.402  1.00  0.00    -0.269 OA
BRANCH  33  36
ATOM     36  C   UNL A   1      39.201  24.412  26.737  1.00  0.00     0.039 A 
ATOM     37  C   UNL A   1      38.863  24.563  28.071  1.00  0.00     0.014 A 
ATOM     38  C   UNL A   1      39.947  25.420  26.126  1.00  0.00     0.014 A 
ATOM     39  C   UNL A   1      39.142  25.775  28.709  1.00  0.00     0.010 A 
ATOM     40  C   UNL A   1      40.376  26.538  26.824  1.00  0.00     0.010 A 
ATOM     41  C   UNL A   1      40.000  26.716  28.144  1.00  0.00    -0.014 A 
BRANCH  41  42
ATOM     42  C   UNL A   1      40.523  27.840  28.947  1.00  0.00     0.031 A 
ATOM     43  C   UNL A   1      41.884  27.762  29.539  1.00  0.00     0.074 A 
ATOM     44  C   UNL A   1      39.756  28.930  29.170  1.00  0.00     0.049 A 
ATOM     45  N   UNL A   1      42.471  28.674  30.257  1.00  0.00    -0.248 NA
ATOM     46  C   UNL A   1      42.692  26.554  29.310  1.00  0.00     0.031 C 
ATOM     47  C   UNL A   1      38.409  29.096  28.631  1.00  0.00     0.029 A 
ATOM     48  N   UNL A   1      39.969  30.085  29.889  1.00  0.00    -0.354 N 
ATOM     49  C   UNL A   1      43.720  28.169  30.551  1.00  0.00     0.074 A 
ATOM     50  C   UNL A   1      43.810  26.847  29.964  1.00  0.00     0.031 C 
ATOM     51  C   UNL A   1      37.917  30.276  29.021  1.00  0.00     0.029 A 
ATOM     52  C   UNL A   1      38.901  30.951  29.858  1.00  0.00     0.049 A 
ATOM     53  H   UNL A   1      40.803  30.272  30.376  1.00  0.00     0.167 HD
ATOM     54  C   UNL A   1      44.691  28.794  31.248  1.00  0.00     0.037 A 
ATOM     55  C   UNL A   1      38.697  32.158  30.420  1.00  0.00     0.037 A 
ATOM     56  C   UNL A   1      44.557  30.073  31.854  1.00  0.00     0.049 A 
ATOM     57  C   UNL A   1      39.754  32.775  31.269  1.00  0.00     0.074 A 
ATOM     58  C   UNL A   1      45.533  30.727  32.578  1.00  0.00     0.029 A 
ATOM     59  N   UNL A   1      43.439  30.879  31.826  1.00  0.00    -0.354 N 
ATOM     60  N   UNL A   1      40.937  32.279  31.503  1.00  0.00    -0.248 NA
ATOM     61  C   UNL A   1      39.498  34.069  31.927  1.00  0.00     0.031 C 
ATOM     62  C   UNL A   1      45.011  31.917  33.020  1.00  0.00     0.029 A 
ATOM     63  C   UNL A   1      43.717  32.020  32.548  1.00  0.00     0.049 A 
ATOM     64  H   UNL A   1      42.590  30.677  31.370  1.00  0.00     0.167 HD
ATOM     65  C   UNL A   1      41.577  33.200  32.304  1.00  0.00     0.074 A 
ATOM     66  C   UNL A   1      40.656  34.296  32.537  1.00  0.00     0.031 C 
ATOM     67  C   UNL A   1      42.832  33.107  32.787  1.00  0.00     0.037 A 
BRANCH  54  68
ATOM     68  C   UNL A   1      45.987  28.090  31.438  1.00  0.00     0.058 A 
ATOM     69  C   UNL A   1      46.203  27.195  32.472  1.00  0.00     0.135 A 
ATOM     70  C   UNL A   1      47.051  28.329  30.564  1.00  0.00     0.135 A 
ATOM     71  F   UNL A   1      45.164  26.776  33.217  1.00  0.00    -0.206 F 
ATOM     72  C   UNL A   1      47.498  26.750  32.760  1.00  0.00     0.059 A 
ATOM     73  C   UNL A   1      48.313  27.772  30.762  1.00  0.00     0.059 A 
ATOM     74  F   UNL A   1      46.853  29.072  29.463  1.00  0.00    -0.206 F 
ATOM     75  C   UNL A   1      48.543  26.951  31.855  1.00  0.00     0.060 A 
BRANCH  75  76
ATOM     76  S   UNL A   1      50.171  26.060  32.062  1.00  0.00     0.124 S 
ATOM     77  O   UNL A   1      50.308  25.345  30.798  1.00  0.00    -0.237 OA
ATOM     78  O   UNL A   1      51.123  27.151  32.252  1.00  0.00    -0.237 OA
ATOM     79  O   UNL A   1      49.975  25.209  33.235  1.00  0.00    -0.744 OA
ENDBRANCH  75  76
ENDBRANCH  54  68
BRANCH  55  80
ATOM     80  C   UNL A   1      37.418  32.862  30.222  1.00  0.00     0.058 A 
ATOM     81  C   UNL A   1      36.282  32.568  30.967  1.00  0.00     0.135 A 
ATOM     82  C   UNL A   1      37.289  33.798  29.200  1.00  0.00     0.135 A 
ATOM     83  F   UNL A   1      36.388  31.799  32.064  1.00  0.00    -0.206 F 
ATOM     84  C   UNL A   1      35.032  33.069  30.580  1.00  0.00     0.059 A 
ATOM     85  C   UNL A   1      36.074  34.408  28.900  1.00  0.00     0.059 A 
ATOM     86  F   UNL A   1      38.383  34.188  28.528  1.00  0.00    -0.206 F 
ATOM     87  C   UNL A   1      34.932  34.071  29.612  1.00  0.00     0.060 A 
BRANCH  87  88
ATOM     88  S   UNL A   1      33.330  34.997  29.351  1.00  0.00     0.124 S 
ATOM     89  O   UNL A   1      32.625  34.154  28.394  1.00  0.00    -0.237 OA
ATOM     90  O   UNL A   1      32.749  35.027  30.691  1.00  0.00    -0.237 OA
ATOM     91  O   UNL A   1      33.748  36.304  28.840  1.00  0.00    -0.744 OA
ENDBRANCH  87  88
ENDBRANCH  55  80
BRANCH  67  92
ATOM     92  C   UNL A   1      43.359  34.233  33.603  1.00  0.00     0.058 A 
ATOM     93  C   UNL A   1      43.278  34.243  34.985  1.00  0.00     0.135 A 
ATOM     94  C   UNL A   1      43.948  35.341  32.986  1.00  0.00     0.135 A 
ATOM     95  F   UNL A   1      42.905  33.128  35.637  1.00  0.00    -0.206 F 
ATOM     96  C   UNL A   1      43.551  35.416  35.698  1.00  0.00     0.059 A 
ATOM     97  C   UNL A   1      44.362  36.459  33.708  1.00  0.00     0.059 A 
ATOM     98  F   UNL A   1      44.188  35.319  31.665  1.00  0.00    -0.206 F 
ATOM     99  C   UNL A   1      44.188  36.498  35.083  1.00  0.00     0.060 A 
BRANCH  99 100
ATOM    100  S   UNL A   1      44.872  37.904  36.102  1.00  0.00     0.124 S 
ATOM    101  O   UNL A   1      44.988  38.982  35.125  1.00  0.00    -0.237 OA
ATOM    102  O   UNL A   1      43.842  38.109  37.117  1.00  0.00    -0.237 OA
ATOM    103  O   UNL A   1      46.144  37.398  36.617  1.00  0.00    -0.744 OA
ENDBRANCH  99 100
ENDBRANCH  67  92
ENDBRANCH  41  42
ENDBRANCH  33  36
ENDBRANCH  31  32
ENDBRANCH  30  31
ENDBRANCH   1  30
TORSDOF 17
ENDMDL
MODEL 2
REMARK VINA RESULT:     -10.6      5.181     11.618
REMARK SMILES C[C@H](Nc1nccc(-c2cc(C(=O)NCCCNC(=O)c3ccc(-c4c5nc(c(-c6c(F)cc(S(=O)(=O)[O-])cc6F)c6ccc([nH]6)c(-c6c(F)cc(S(=O)(=O)[O-])cc6F)c6nc(c(-c7c(F)cc(S(=O)(=O)[O-])cc7F)c7ccc4[nH]7)C=C6)C=C5)cc3)ccn2)n1)c1cn2ccsc2n1
REMARK SMILES IDX 15 1 14 2 12 3 13 4 11 6 9 7 10 8 89 9 88 10 87 11 8 12 4 13
REMARK SMILES IDX 5 14 90 15 6 16 7 17 3 18 2 20 1 21 91 22 92 23 98 24 93 25
REMARK SMILES IDX 97 26 94 27 96 28 95 29 16 30 17 31 18 32 19 33 20 35 21 36
REMARK SMILES IDX 22 37 86 38 23 39 85 40 24 41 25 42 26 43 79 44 27 45 84 46
REMARK SMILES IDX 78 47 80 48 28 49 83 50 77 51 76 52 29 54 63 55 42 56 62 57
REMARK SMILES IDX 43 58 46 59 61 60 81 61 44 62 45 63 60 65 82 66 47 67 30 68
REMARK SMILES IDX 31 69 40 70 32 71 33 72 39 73 41 74 34 75 35 76 36 77 37 78
REMARK SMILES IDX 38 79 64 80 65 81 74 82 66 83 67 84 73 85 75 86 68 87 69 88
REMARK SMILES IDX 70 89 71 90 72 91 48 92 49 93 58 94 50 95 51 96 57 97 59 98
REMARK SMILES IDX 52 99 53 100 54 101 55 102 56 103
REMARK H PARENT 14 5 3 19 18 34 80 53 46 64
REMARK Flexibility Score: inf
ROOT
ATOM      1  C   UNL A   1      33.508  29.381  26.058  1.00  0.00     0.118 C 
ENDROOT
BRANCH   1   2
ATOM      2  N   UNL A   1      33.962  29.335  24.700  1.00  0.00    -0.352 N 
ATOM      3  C   UNL A   1      33.392  28.697  23.599  1.00  0.00     0.251 C 
ATOM      4  O   UNL A   1      33.943  28.771  22.499  1.00  0.00    -0.269 OA
ATOM      5  H   UNL A   1      34.797  29.826  24.518  1.00  0.00     0.163 HD
BRANCH   3   6
ATOM      6  C   UNL A   1      32.088  27.920  23.710  1.00  0.00     0.043 A 
ATOM      7  C   UNL A   1      30.807  25.878  24.267  1.00  0.00     0.090 A 
ATOM      8  C   UNL A   1      31.961  26.606  24.136  1.00  0.00     0.044 A 
ATOM      9  N   UNL A   1      29.656  26.444  23.947  1.00  0.00    -0.255 NA
ATOM     10  C   UNL A   1      29.718  27.724  23.498  1.00  0.00     0.112 A 
ATOM     11  C   UNL A   1      30.877  28.496  23.378  1.00  0.00     0.034 A 
BRANCH   7  12
ATOM     12  C   UNL A   1      30.906  24.519  24.850  1.00  0.00     0.094 A 
ATOM     13  C   UNL A   1      31.550  22.320  24.640  1.00  0.00     0.223 A 
ATOM     14  N   UNL A   1      31.068  21.968  25.832  1.00  0.00    -0.222 NA
ATOM     15  N   UNL A   1      31.530  23.575  24.144  1.00  0.00    -0.211 NA
ATOM     16  C   UNL A   1      30.531  22.953  26.557  1.00  0.00     0.117 A 
ATOM     17  C   UNL A   1      30.435  24.250  26.121  1.00  0.00     0.051 A 
BRANCH  13  18
ATOM     18  N   UNL A   1      32.263  21.392  23.944  1.00  0.00    -0.346 N 
ATOM     19  H   UNL A   1      32.229  21.286  22.966  1.00  0.00     0.164 HD
BRANCH  18  20
ATOM     20  C   UNL A   1      33.076  20.585  24.820  1.00  0.00     0.130 C 
ATOM     21  C   UNL A   1      33.182  19.152  24.249  1.00  0.00     0.038 C 
BRANCH  20  22
ATOM     22  C   UNL A   1      34.451  21.073  25.083  1.00  0.00     0.082 A 
ATOM     23  C   UNL A   1      35.611  20.324  25.001  1.00  0.00     0.119 A 
ATOM     24  N   UNL A   1      34.709  22.376  25.423  1.00  0.00    -0.222 NA
ATOM     25  N   UNL A   1      36.594  21.185  25.274  1.00  0.00    -0.297 N 
ATOM     26  C   UNL A   1      36.001  22.370  25.518  1.00  0.00     0.193 A 
ATOM     27  C   UNL A   1      37.948  21.078  25.358  1.00  0.00     0.104 A 
ATOM     28  S   UNL A   1      37.103  23.569  25.907  1.00  0.00    -0.105 S 
ATOM     29  C   UNL A   1      38.535  22.231  25.688  1.00  0.00     0.087 A 
ENDBRANCH  20  22
ENDBRANCH  18  20
ENDBRANCH  13  18
ENDBRANCH   7  12
ENDBRANCH   3   6
ENDBRANCH   1   2
BRANCH   1  30
ATOM     30  C   UNL A   1      34.253  28.548  27.037  1.00  0.00     0.042 C 
BRANCH  30  31
ATOM     31  C   UNL A   1      35.374  29.430  27.436  1.00  0.00     0.118 C 
BRANCH  31  32
ATOM     32  N   UNL A   1      35.173  30.014  28.751  1.00  0.00    -0.352 N 
ATOM     33  C   UNL A   1      36.169  30.196  29.691  1.00  0.00     0.251 C 
ATOM     34  H   UNL A   1      34.262  30.301  28.989  1.00  0.00     0.163 HD
ATOM     35  O   UNL A   1      35.938  30.674  30.798  1.00  0.00    -0.269 OA
BRANCH  33  36
ATOM     36  C   UNL A   1      37.569  29.821  29.338  1.00  0.00     0.039 A 
ATOM     37  C   UNL A   1      38.511  29.590  30.325  1.00  0.00     0.014 A 
ATOM     38  C   UNL A   1      37.985  29.786  28.006  1.00  0.00     0.014 A 
ATOM     39  C   UNL A   1      39.858  29.486  29.968  1.00  0.00     0.010 A 
ATOM     40  C   UNL A   1      39.296  29.500  27.657  1.00  0.00     0.010 A 
ATOM     41  C   UNL A   1      40.250  29.315  28.642  1.00  0.00    -0.014 A 
BRANCH  41  42
ATOM     42  C   UNL A   1      41.630  28.907  28.309  1.00  0.00     0.031 A 
ATOM     43  C   UNL A   1      41.935  27.484  28.013  1.00  0.00     0.074 A 
ATOM     44  C   UNL A   1      42.625  29.822  28.298  1.00  0.00     0.049 A 
ATOM     45  N   UNL A   1      43.095  26.987  27.700  1.00  0.00    -0.248 NA
ATOM     46  C   UNL A   1      40.843  26.497  28.058  1.00  0.00     0.031 C 
ATOM     47  C   UNL A   1      42.422  31.242  28.576  1.00  0.00     0.029 A 
ATOM     48  N   UNL A   1      43.977  29.722  28.059  1.00  0.00    -0.354 N 
ATOM     49  C   UNL A   1      42.880  25.642  27.489  1.00  0.00     0.074 A 
ATOM     50  C   UNL A   1      41.478  25.375  27.741  1.00  0.00     0.031 C 
ATOM     51  C   UNL A   1      43.592  31.883  28.482  1.00  0.00     0.029 A 
ATOM     52  C   UNL A   1      44.639  30.923  28.160  1.00  0.00     0.049 A 
ATOM     53  H   UNL A   1      44.425  28.874  27.838  1.00  0.00     0.167 HD
ATOM     54  C   UNL A   1      43.801  24.735  27.106  1.00  0.00     0.037 A 
ATOM     55  C   UNL A   1      45.935  31.259  28.012  1.00  0.00     0.037 A 
ATOM     56  C   UNL A   1      45.182  25.016  26.912  1.00  0.00     0.049 A 
ATOM     57  C   UNL A   1      46.945  30.212  27.687  1.00  0.00     0.074 A 
ATOM     58  C   UNL A   1      46.143  24.103  26.529  1.00  0.00     0.029 A 
ATOM     59  N   UNL A   1      45.798  26.238  27.072  1.00  0.00    -0.354 N 
ATOM     60  N   UNL A   1      46.700  28.950  27.468  1.00  0.00    -0.248 NA
ATOM     61  C   UNL A   1      48.369  30.579  27.587  1.00  0.00     0.031 C 
ATOM     62  C   UNL A   1      47.351  24.752  26.481  1.00  0.00     0.029 A 
ATOM     63  C   UNL A   1      47.141  26.076  26.807  1.00  0.00     0.049 A 
ATOM     64  H   UNL A   1      45.357  27.080  27.330  1.00  0.00     0.167 HD
ATOM     65  C   UNL A   1      47.919  28.378  27.176  1.00  0.00     0.074 A 
ATOM     66  C   UNL A   1      48.924  29.420  27.252  1.00  0.00     0.031 C 
ATOM     67  C   UNL A   1      48.144  27.083  26.873  1.00  0.00     0.037 A 
BRANCH  54  68
ATOM     68  C   UNL A   1      43.365  23.328  26.904  1.00  0.00     0.058 A 
ATOM     69  C   UNL A   1      43.153  22.456  27.960  1.00  0.00     0.135 A 
ATOM     70  C   UNL A   1      43.164  22.832  25.614  1.00  0.00     0.135 A 
ATOM     71  F   UNL A   1      43.135  22.928  29.219  1.00  0.00    -0.206 F 
ATOM     72  C   UNL A   1      42.989  21.087  27.721  1.00  0.00     0.059 A 
ATOM     73  C   UNL A   1      42.855  21.494  25.372  1.00  0.00     0.059 A 
ATOM     74  F   UNL A   1      43.212  23.669  24.565  1.00  0.00    -0.206 F 
ATOM     75  C   UNL A   1      42.739  20.609  26.433  1.00  0.00     0.060 A 
BRANCH  75  76
ATOM     76  S   UNL A   1      42.169  18.851  26.160  1.00  0.00     0.124 S 
ATOM     77  O   UNL A   1      43.074  18.380  25.117  1.00  0.00    -0.237 OA
ATOM     78  O   UNL A   1      42.368  18.232  27.467  1.00  0.00    -0.237 OA
ATOM     79  O   UNL A   1      40.771  18.980  25.751  1.00  0.00    -0.744 OA
ENDBRANCH  75  76
ENDBRANCH  54  68
BRANCH  55  80
ATOM     80  C   UNL A   1      46.367  32.655  28.199  1.00  0.00     0.058 A 
ATOM     81  C   UNL A   1      46.701  33.172  29.444  1.00  0.00     0.135 A 
ATOM     82  C   UNL A   1      46.364  33.534  27.119  1.00  0.00     0.135 A 
ATOM     83  F   UNL A   1      46.878  32.338  30.483  1.00  0.00    -0.206 F 
ATOM     84  C   UNL A   1      46.854  34.553  29.620  1.00  0.00     0.059 A 
ATOM     85  C   UNL A   1      46.655  34.888  27.264  1.00  0.00     0.059 A 
ATOM     86  F   UNL A   1      46.151  33.054  25.885  1.00  0.00    -0.206 F 
ATOM     87  C   UNL A   1      46.935  35.409  28.519  1.00  0.00     0.060 A 
BRANCH  87  88
ATOM     88  S   UNL A   1      47.499  37.179  28.720  1.00  0.00     0.124 S 
ATOM     89  O   UNL A   1      46.975  37.536  30.032  1.00  0.00    -0.237 OA
ATOM     90  O   UNL A   1      48.953  37.068  28.646  1.00  0.00    -0.237 OA
ATOM     91  O   UNL A   1      46.885  37.883  27.592  1.00  0.00    -0.744 OA
ENDBRANCH  87  88
ENDBRANCH  55  80
BRANCH  67  92
ATOM     92  C   UNL A   1      49.533  26.667  26.544  1.00  0.00     0.058 A 
ATOM     93  C   UNL A   1      50.056  26.787  25.268  1.00  0.00     0.135 A 
ATOM     94  C   UNL A   1      50.361  26.119  27.529  1.00  0.00     0.135 A 
ATOM     95  F   UNL A   1      49.381  27.482  24.336  1.00  0.00    -0.206 F 
ATOM     96  C   UNL A   1      51.263  26.160  24.940  1.00  0.00     0.059 A 
ATOM     97  C   UNL A   1      51.631  25.625  27.238  1.00  0.00     0.059 A 
ATOM     98  F   UNL A   1      49.961  26.118  28.811  1.00  0.00    -0.206 F 
ATOM     99  C   UNL A   1      52.108  25.663  25.937  1.00  0.00     0.060 A 
BRANCH  99 100
ATOM    100  S   UNL A   1      53.860  25.159  25.537  1.00  0.00     0.124 S 
ATOM    101  O   UNL A   1      54.633  25.831  26.577  1.00  0.00    -0.237 OA
ATOM    102  O   UNL A   1      53.821  23.704  25.651  1.00  0.00    -0.237 OA
ATOM    103  O   UNL A   1      54.083  25.659  24.180  1.00  0.00    -0.744 OA
ENDBRANCH  99 100
ENDBRANCH  67  92
ENDBRANCH  41  42
ENDBRANCH  33  36
ENDBRANCH  31  32
ENDBRANCH  30  31
ENDBRANCH   1  30
TORSDOF 17
ENDMDL
MODEL 3
REMARK VINA RESULT:     -10.5      5.158     11.976
REMARK SMILES C[C@H](Nc1nccc(-c2cc(C(=O)NCCCNC(=O)c3ccc(-c4c5nc(c(-c6c(F)cc(S(=O)(=O)[O-])cc6F)c6ccc([nH]6)c(-c6c(F)cc(S(=O)(=O)[O-])cc6F)c6nc(c(-c7c(F)cc(S(=O)(=O)[O-])cc7F)c7ccc4[nH]7)C=C6)C=C5)cc3)ccn2)n1)c1cn2ccsc2n1
REMARK SMILES IDX 15 1 14 2 12 3 13 4 11 6 9 7 10 8 89 9 88 10 87 11 8 12 4 13
REMARK SMILES IDX 5 14 90 15 6 16 7 17 3 18 2 20 1 21 91 22 92 23 98 24 93 25
REMARK SMILES IDX 97 26 94 27 96 28 95 29 16 30 17 31 18 32 19 33 20 35 21 36
REMARK SMILES IDX 22 37 86 38 23 39 85 40 24 41 25 42 26 43 79 44 27 45 84 46
REMARK SMILES IDX 78 47 80 48 28 49 83 50 77 51 76 52 29 54 63 55 42 56 62 57
REMARK SMILES IDX 43 58 46 59 61 60 81 61 44 62 45 63 60 65 82 66 47 67 30 68
REMARK SMILES IDX 31 69 40 70 32 71 33 72 39 73 41 74 34 75 35 76 36 77 37 78
REMARK SMILES IDX 38 79 64 80 65 81 74 82 66 83 67 84 73 85 75 86 68 87 69 88
REMARK SMILES IDX 70 89 71 90 72 91 48 92 49 93 58 94 50 95 51 96 57 97 59 98
REMARK SMILES IDX 52 99 53 100 54 101 55 102 56 103
REMARK H PARENT 14 5 3 19 18 34 80 53 46 64
REMARK Flexibility Score: inf
ROOT
ATOM      1  C   UNL A   1      33.579  29.300  26.008  1.00  0.00     0.118 C 
ENDROOT
BRANCH   1   2
ATOM      2  N   UNL A   1      33.944  29.338  24.623  1.00  0.00    -0.352 N 
ATOM      3  C   UNL A   1      33.315  28.746  23.527  1.00  0.00     0.251 C 
ATOM      4  O   UNL A   1      33.792  28.892  22.400  1.00  0.00    -0.269 OA
ATOM      5  H   UNL A   1      34.755  29.857  24.415  1.00  0.00     0.163 HD
BRANCH   3   6
ATOM      6  C   UNL A   1      32.037  27.933  23.680  1.00  0.00     0.043 A 
ATOM      7  C   UNL A   1      30.831  25.862  24.289  1.00  0.00     0.090 A 
ATOM      8  C   UNL A   1      31.959  26.621  24.122  1.00  0.00     0.044 A 
ATOM      9  N   UNL A   1      29.655  26.391  23.994  1.00  0.00    -0.255 NA
ATOM     10  C   UNL A   1      29.670  27.667  23.531  1.00  0.00     0.112 A 
ATOM     11  C   UNL A   1      30.803  28.471  23.373  1.00  0.00     0.034 A 
BRANCH   7  12
ATOM     12  C   UNL A   1      30.983  24.512  24.883  1.00  0.00     0.094 A 
ATOM     13  C   UNL A   1      31.854  22.386  24.762  1.00  0.00     0.223 A 
ATOM     14  N   UNL A   1      31.261  21.978  25.883  1.00  0.00    -0.222 NA
ATOM     15  N   UNL A   1      31.779  23.639  24.264  1.00  0.00    -0.211 NA
ATOM     16  C   UNL A   1      30.545  22.901  26.532  1.00  0.00     0.117 A 
ATOM     17  C   UNL A   1      30.383  24.187  26.084  1.00  0.00     0.051 A 
BRANCH  13  18
ATOM     18  N   UNL A   1      32.735  21.537  24.164  1.00  0.00    -0.346 N 
ATOM     19  H   UNL A   1      32.782  21.379  23.194  1.00  0.00     0.164 HD
BRANCH  18  20
ATOM     20  C   UNL A   1      33.592  20.897  25.132  1.00  0.00     0.130 C 
ATOM     21  C   UNL A   1      33.852  19.435  24.702  1.00  0.00     0.038 C 
BRANCH  20  22
ATOM     22  C   UNL A   1      34.904  21.540  25.380  1.00  0.00     0.082 A 
ATOM     23  C   UNL A   1      35.110  22.864  25.729  1.00  0.00     0.119 A 
ATOM     24  N   UNL A   1      36.083  20.844  25.306  1.00  0.00    -0.222 NA
ATOM     25  N   UNL A   1      36.430  22.973  25.889  1.00  0.00    -0.297 N 
ATOM     26  C   UNL A   1      36.945  21.757  25.623  1.00  0.00     0.193 A 
ATOM     27  C   UNL A   1      37.259  23.999  26.223  1.00  0.00     0.104 A 
ATOM     28  S   UNL A   1      38.614  21.726  25.755  1.00  0.00    -0.105 S 
ATOM     29  C   UNL A   1      38.544  23.636  26.243  1.00  0.00     0.087 A 
ENDBRANCH  20  22
ENDBRANCH  18  20
ENDBRANCH  13  18
ENDBRANCH   7  12
ENDBRANCH   3   6
ENDBRANCH   1   2
BRANCH   1  30
ATOM     30  C   UNL A   1      34.398  28.426  26.888  1.00  0.00     0.042 C 
BRANCH  30  31
ATOM     31  C   UNL A   1      35.417  29.357  27.422  1.00  0.00     0.118 C 
BRANCH  31  32
ATOM     32  N   UNL A   1      35.164  29.714  28.808  1.00  0.00    -0.352 N 
ATOM     33  C   UNL A   1      36.128  29.758  29.797  1.00  0.00     0.251 C 
ATOM     34  H   UNL A   1      34.240  29.941  29.060  1.00  0.00     0.163 HD
ATOM     35  O   UNL A   1      35.853  30.043  30.959  1.00  0.00    -0.269 OA
BRANCH  33  36
ATOM     36  C   UNL A   1      37.546  29.472  29.433  1.00  0.00     0.039 A 
ATOM     37  C   UNL A   1      38.450  29.045  30.390  1.00  0.00     0.014 A 
ATOM     38  C   UNL A   1      38.016  29.719  28.143  1.00  0.00     0.014 A 
ATOM     39  C   UNL A   1      39.812  29.026  30.077  1.00  0.00     0.010 A 
ATOM     40  C   UNL A   1      39.344  29.519  27.798  1.00  0.00     0.010 A 
ATOM     41  C   UNL A   1      40.260  29.138  28.763  1.00  0.00    -0.014 A 
BRANCH  41  42
ATOM     42  C   UNL A   1      41.658  28.816  28.410  1.00  0.00     0.031 A 
ATOM     43  C   UNL A   1      42.687  29.887  28.394  1.00  0.00     0.074 A 
ATOM     44  C   UNL A   1      42.000  27.553  28.074  1.00  0.00     0.049 A 
ATOM     45  N   UNL A   1      43.949  29.748  28.111  1.00  0.00    -0.248 NA
ATOM     46  C   UNL A   1      42.289  31.263  28.735  1.00  0.00     0.031 C 
ATOM     47  C   UNL A   1      41.059  26.436  28.061  1.00  0.00     0.029 A 
ATOM     48  N   UNL A   1      43.192  26.986  27.681  1.00  0.00    -0.354 N 
ATOM     49  C   UNL A   1      44.504  31.001  28.257  1.00  0.00     0.074 A 
ATOM     50  C   UNL A   1      43.440  31.914  28.624  1.00  0.00     0.031 C 
ATOM     51  C   UNL A   1      41.700  25.321  27.694  1.00  0.00     0.029 A 
ATOM     52  C   UNL A   1      43.095  25.638  27.422  1.00  0.00     0.049 A 
ATOM     53  H   UNL A   1      44.029  27.495  27.594  1.00  0.00     0.167 HD
ATOM     54  C   UNL A   1      45.804  31.323  28.100  1.00  0.00     0.037 A 
ATOM     55  C   UNL A   1      44.000  24.727  27.017  1.00  0.00     0.037 A 
ATOM     56  C   UNL A   1      46.820  30.414  27.693  1.00  0.00     0.049 A 
ATOM     57  C   UNL A   1      45.408  25.138  26.755  1.00  0.00     0.074 A 
ATOM     58  C   UNL A   1      48.153  30.722  27.518  1.00  0.00     0.029 A 
ATOM     59  N   UNL A   1      46.652  29.077  27.403  1.00  0.00    -0.354 N 
ATOM     60  N   UNL A   1      45.905  26.330  26.930  1.00  0.00    -0.248 NA
ATOM     61  C   UNL A   1      46.376  24.145  26.254  1.00  0.00     0.031 C 
ATOM     62  C   UNL A   1      48.800  29.589  27.094  1.00  0.00     0.029 A 
ATOM     63  C   UNL A   1      47.877  28.565  27.031  1.00  0.00     0.049 A 
ATOM     64  H   UNL A   1      45.807  28.574  27.453  1.00  0.00     0.167 HD
ATOM     65  C   UNL A   1      47.238  26.233  26.594  1.00  0.00     0.074 A 
ATOM     66  C   UNL A   1      47.491  24.864  26.189  1.00  0.00     0.031 C 
ATOM     67  C   UNL A   1      48.149  27.227  26.633  1.00  0.00     0.037 A 
BRANCH  54  68
ATOM     68  C   UNL A   1      46.215  32.733  28.328  1.00  0.00     0.058 A 
ATOM     69  C   UNL A   1      46.208  33.683  27.320  1.00  0.00     0.135 A 
ATOM     70  C   UNL A   1      46.640  33.146  29.594  1.00  0.00     0.135 A 
ATOM     71  F   UNL A   1      45.624  33.398  26.142  1.00  0.00    -0.206 F 
ATOM     72  C   UNL A   1      46.832  34.921  27.513  1.00  0.00     0.059 A 
ATOM     73  C   UNL A   1      47.130  34.430  29.830  1.00  0.00     0.059 A 
ATOM     74  F   UNL A   1      46.528  32.309  30.638  1.00  0.00    -0.206 F 
ATOM     75  C   UNL A   1      47.207  35.343  28.791  1.00  0.00     0.060 A 
BRANCH  75  76
ATOM     76  S   UNL A   1      47.704  37.116  29.103  1.00  0.00     0.124 S 
ATOM     77  O   UNL A   1      49.005  37.203  28.449  1.00  0.00    -0.237 OA
ATOM     78  O   UNL A   1      46.641  37.877  28.452  1.00  0.00    -0.237 OA
ATOM     79  O   UNL A   1      47.737  37.235  30.560  1.00  0.00    -0.744 OA
ENDBRANCH  75  76
ENDBRANCH  54  68
BRANCH  55  80
ATOM     80  C   UNL A   1      43.598  23.326  26.802  1.00  0.00     0.058 A 
ATOM     81  C   UNL A   1      43.296  22.821  25.544  1.00  0.00     0.135 A 
ATOM     82  C   UNL A   1      43.419  22.478  27.893  1.00  0.00     0.135 A 
ATOM     83  F   UNL A   1      43.605  23.538  24.450  1.00  0.00    -0.206 F 
ATOM     84  C   UNL A   1      42.674  21.572  25.411  1.00  0.00     0.059 A 
ATOM     85  C   UNL A   1      42.933  21.181  27.753  1.00  0.00     0.059 A 
ATOM     86  F   UNL A   1      43.799  22.891  29.111  1.00  0.00    -0.206 F 
ATOM     87  C   UNL A   1      42.583  20.701  26.500  1.00  0.00     0.060 A 
BRANCH  87  88
ATOM     88  S   UNL A   1      42.095  18.913  26.258  1.00  0.00     0.124 S 
ATOM     89  O   UNL A   1      42.213  18.364  27.603  1.00  0.00    -0.237 OA
ATOM     90  O   UNL A   1      40.729  19.014  25.750  1.00  0.00    -0.237 OA
ATOM     91  O   UNL A   1      43.068  18.402  25.290  1.00  0.00    -0.744 OA
ENDBRANCH  87  88
ENDBRANCH  55  80
BRANCH  67  92
ATOM     92  C   UNL A   1      49.555  26.908  26.271  1.00  0.00     0.058 A 
ATOM     93  C   UNL A   1      50.467  26.434  27.200  1.00  0.00     0.135 A 
ATOM     94  C   UNL A   1      50.011  27.096  24.963  1.00  0.00     0.135 A 
ATOM     95  F   UNL A   1      50.038  26.050  28.415  1.00  0.00    -0.206 F 
ATOM     96  C   UNL A   1      51.830  26.387  26.888  1.00  0.00     0.059 A 
ATOM     97  C   UNL A   1      51.346  26.906  24.608  1.00  0.00     0.059 A 
ATOM     98  F   UNL A   1      49.138  27.410  23.991  1.00  0.00    -0.206 F 
ATOM     99  C   UNL A   1      52.269  26.524  25.568  1.00  0.00     0.060 A 
BRANCH  99 100
ATOM    100  S   UNL A   1      54.027  26.105  25.101  1.00  0.00     0.124 S 
ATOM    101  O   UNL A   1      54.260  24.851  25.812  1.00  0.00    -0.237 OA
ATOM    102  O   UNL A   1      53.963  25.978  23.648  1.00  0.00    -0.237 OA
ATOM    103  O   UNL A   1      54.814  27.242  25.581  1.00  0.00    -0.744 OA
ENDBRANCH  99 100
ENDBRANCH  67  92
ENDBRANCH  41  42
ENDBRANCH  33  36
ENDBRANCH  31  32
ENDBRANCH  30  31
ENDBRANCH   1  30
TORSDOF 17
ENDMDL
