MODEL 1
REMARK VINA RESULT:     -12.2      0.000      0.000
REMARK SMILES O=C(CCc1cccnc1)Nc1ccsc1C(=O)NCCCNC(=O)c1ccc(-c2c3nc(c(-c4c(F)cc(S(=O)(=O)[O-])cc4F)c4ccc([nH]4)c(-c4c(F)cc(S(=O)(=O)[O-])cc4F)c4nc(c(-c5c(F)cc(S(=O)(=O)[O-])cc5F)c5ccc2[nH]5)C=C4)C=C3)cc1
REMARK SMILES IDX 20 1 19 2 17 3 18 4 16 6 12 7 13 8 14 9 15 10 11 11 1 12
REMARK SMILES IDX 2 13 3 15 4 16 5 17 6 18 10 19 7 20 9 21 8 22 21 23 22 24
REMARK SMILES IDX 23 25 24 26 25 28 26 29 27 30 91 31 28 32 90 33 29 34 30 35
REMARK SMILES IDX 31 36 84 37 32 38 89 39 83 40 85 41 33 42 88 43 82 44 81 45
REMARK SMILES IDX 34 47 68 48 47 49 67 50 48 51 51 52 66 53 86 54 49 55 50 56
REMARK SMILES IDX 65 58 87 59 52 60 35 61 36 62 45 63 37 64 38 65 44 66 46 67
REMARK SMILES IDX 39 68 40 69 41 70 42 71 43 72 69 73 70 74 79 75 71 76 72 77
REMARK SMILES IDX 78 78 80 79 73 80 74 81 75 82 76 83 77 84 53 85 54 86 63 87
REMARK SMILES IDX 55 88 56 89 62 90 64 91 57 92 58 93 59 94 60 95 61 96
REMARK H PARENT 19 5 11 14 23 27 85 46 51 57
REMARK Flexibility Score: inf
ROOT
ATOM      1  C   UNL A   1      32.235  26.332  26.312  1.00  0.00     0.118 C 
ENDROOT
BRANCH   1   2
ATOM      2  N   UNL A   1      31.230  25.407  26.784  1.00  0.00    -0.351 N 
ATOM      3  C   UNL A   1      30.955  24.097  26.473  1.00  0.00     0.263 C 
ATOM      4  O   UNL A   1      30.112  23.582  27.221  1.00  0.00    -0.268 OA
ATOM      5  H   UNL A   1      30.625  25.791  27.460  1.00  0.00     0.163 HD
BRANCH   3   6
ATOM      6  C   UNL A   1      31.546  23.379  25.341  1.00  0.00     0.115 A 
ATOM      7  C   UNL A   1      31.566  23.524  23.954  1.00  0.00     0.065 A 
ATOM      8  C   UNL A   1      32.266  22.443  23.319  1.00  0.00     0.038 A 
ATOM      9  C   UNL A   1      32.835  21.566  24.207  1.00  0.00     0.068 A 
ATOM     10  S   UNL A   1      32.488  21.989  25.810  1.00  0.00    -0.137 S 
BRANCH   7  11
ATOM     11  N   UNL A   1      31.054  24.618  23.255  1.00  0.00    -0.325 N 
ATOM     12  O   UNL A   1      33.025  25.705  22.742  1.00  0.00    -0.275 OA
ATOM     13  C   UNL A   1      31.795  25.683  22.780  1.00  0.00     0.224 C 
ATOM     14  H   UNL A   1      30.085  24.633  23.085  1.00  0.00     0.169 HD
BRANCH  13  15
ATOM     15  C   UNL A   1      31.024  26.940  22.371  1.00  0.00     0.105 C 
BRANCH  15  16
ATOM     16  C   UNL A   1      29.842  27.417  23.213  1.00  0.00     0.047 C 
BRANCH  16  17
ATOM     17  C   UNL A   1      29.140  28.690  22.805  1.00  0.00    -0.029 A 
ATOM     18  C   UNL A   1      29.765  29.803  22.237  1.00  0.00     0.007 A 
ATOM     19  C   UNL A   1      27.792  28.829  23.118  1.00  0.00     0.114 A 
ATOM     20  C   UNL A   1      29.089  31.020  22.173  1.00  0.00     0.020 A 
ATOM     21  N   UNL A   1      27.120  30.001  23.083  1.00  0.00    -0.264 NA
ATOM     22  C   UNL A   1      27.786  31.076  22.626  1.00  0.00     0.111 A 
ENDBRANCH  16  17
ENDBRANCH  15  16
ENDBRANCH  13  15
ENDBRANCH   7  11
ENDBRANCH   3   6
ENDBRANCH   1   2
BRANCH   1  23
ATOM     23  C   UNL A   1      32.206  27.732  26.912  1.00  0.00     0.042 C 
BRANCH  23  24
ATOM     24  C   UNL A   1      33.570  28.384  27.120  1.00  0.00     0.118 C 
BRANCH  24  25
ATOM     25  N   UNL A   1      33.553  29.718  27.703  1.00  0.00    -0.352 N 
ATOM     26  C   UNL A   1      34.537  30.546  28.200  1.00  0.00     0.251 C 
ATOM     27  H   UNL A   1      32.651  30.110  27.754  1.00  0.00     0.163 HD
ATOM     28  O   UNL A   1      34.252  31.677  28.561  1.00  0.00    -0.269 OA
BRANCH  26  29
ATOM     29  C   UNL A   1      35.923  30.080  28.409  1.00  0.00     0.039 A 
ATOM     30  C   UNL A   1      36.285  29.647  29.695  1.00  0.00     0.014 A 
ATOM     31  C   UNL A   1      36.881  30.128  27.406  1.00  0.00     0.014 A 
ATOM     32  C   UNL A   1      37.592  29.228  29.959  1.00  0.00     0.010 A 
ATOM     33  C   UNL A   1      38.147  29.612  27.636  1.00  0.00     0.010 A 
ATOM     34  C   UNL A   1      38.527  29.193  28.921  1.00  0.00    -0.014 A 
BRANCH  34  35
ATOM     35  C   UNL A   1      39.954  28.851  29.121  1.00  0.00     0.031 A 
ATOM     36  C   UNL A   1      40.892  29.957  29.525  1.00  0.00     0.074 A 
ATOM     37  C   UNL A   1      40.418  27.631  28.800  1.00  0.00     0.049 A 
ATOM     38  N   UNL A   1      42.191  30.025  29.423  1.00  0.00    -0.248 NA
ATOM     39  C   UNL A   1      40.264  31.187  30.044  1.00  0.00     0.031 C 
ATOM     40  C   UNL A   1      39.600  26.488  28.389  1.00  0.00     0.029 A 
ATOM     41  N   UNL A   1      41.705  27.163  28.726  1.00  0.00    -0.354 N 
ATOM     42  C   UNL A   1      42.528  31.321  29.798  1.00  0.00     0.074 A 
ATOM     43  C   UNL A   1      41.294  32.017  30.086  1.00  0.00     0.031 C 
ATOM     44  C   UNL A   1      40.406  25.454  28.097  1.00  0.00     0.029 A 
ATOM     45  C   UNL A   1      41.795  25.877  28.246  1.00  0.00     0.049 A 
ATOM     46  H   UNL A   1      42.490  27.696  28.990  1.00  0.00     0.167 HD
ATOM     47  C   UNL A   1      43.760  31.872  29.906  1.00  0.00     0.037 A 
ATOM     48  C   UNL A   1      42.879  25.142  27.935  1.00  0.00     0.037 A 
ATOM     49  C   UNL A   1      44.973  31.131  29.685  1.00  0.00     0.049 A 
ATOM     50  C   UNL A   1      44.243  25.756  28.109  1.00  0.00     0.074 A 
ATOM     51  C   UNL A   1      46.281  31.553  29.832  1.00  0.00     0.029 A 
ATOM     52  N   UNL A   1      45.020  29.800  29.290  1.00  0.00    -0.354 N 
ATOM     53  N   UNL A   1      44.555  26.978  28.474  1.00  0.00    -0.248 NA
ATOM     54  C   UNL A   1      45.401  24.897  27.833  1.00  0.00     0.031 C 
ATOM     55  C   UNL A   1      47.121  30.485  29.499  1.00  0.00     0.029 A 
ATOM     56  C   UNL A   1      46.335  29.385  29.191  1.00  0.00     0.049 A 
ATOM     57  H   UNL A   1      44.233  29.237  29.107  1.00  0.00     0.167 HD
ATOM     58  C   UNL A   1      45.944  27.022  28.514  1.00  0.00     0.074 A 
ATOM     59  C   UNL A   1      46.411  25.703  28.132  1.00  0.00     0.031 C 
ATOM     60  C   UNL A   1      46.762  28.053  28.840  1.00  0.00     0.037 A 
BRANCH  47  61
ATOM     61  C   UNL A   1      43.852  33.325  30.287  1.00  0.00     0.058 A 
ATOM     62  C   UNL A   1      43.852  34.347  29.324  1.00  0.00     0.135 A 
ATOM     63  C   UNL A   1      43.923  33.705  31.637  1.00  0.00     0.135 A 
ATOM     64  F   UNL A   1      43.804  34.044  28.016  1.00  0.00    -0.206 F 
ATOM     65  C   UNL A   1      43.958  35.687  29.681  1.00  0.00     0.059 A 
ATOM     66  C   UNL A   1      43.994  35.042  32.020  1.00  0.00     0.059 A 
ATOM     67  F   UNL A   1      43.929  32.773  32.604  1.00  0.00    -0.206 F 
ATOM     68  C   UNL A   1      44.028  36.025  31.033  1.00  0.00     0.060 A 
BRANCH  68  69
ATOM     69  S   UNL A   1      44.155  37.769  31.478  1.00  0.00     0.124 S 
ATOM     70  O   UNL A   1      45.602  37.943  31.566  1.00  0.00    -0.237 OA
ATOM     71  O   UNL A   1      43.506  38.428  30.349  1.00  0.00    -0.237 OA
ATOM     72  O   UNL A   1      43.436  37.850  32.746  1.00  0.00    -0.744 OA
ENDBRANCH  68  69
ENDBRANCH  47  61
BRANCH  48  73
ATOM     73  C   UNL A   1      42.717  23.743  27.456  1.00  0.00     0.058 A 
ATOM     74  C   UNL A   1      42.626  22.683  28.370  1.00  0.00     0.135 A 
ATOM     75  C   UNL A   1      42.623  23.435  26.090  1.00  0.00     0.135 A 
ATOM     76  F   UNL A   1      42.713  22.925  29.687  1.00  0.00    -0.206 F 
ATOM     77  C   UNL A   1      42.461  21.367  27.949  1.00  0.00     0.059 A 
ATOM     78  C   UNL A   1      42.433  22.129  25.645  1.00  0.00     0.059 A 
ATOM     79  F   UNL A   1      42.684  24.414  25.174  1.00  0.00    -0.206 F 
ATOM     80  C   UNL A   1      42.363  21.101  26.584  1.00  0.00     0.060 A 
BRANCH  80  81
ATOM     81  S   UNL A   1      42.097  19.394  26.056  1.00  0.00     0.124 S 
ATOM     82  O   UNL A   1      40.655  19.376  25.837  1.00  0.00    -0.237 OA
ATOM     83  O   UNL A   1      42.928  19.311  24.860  1.00  0.00    -0.237 OA
ATOM     84  O   UNL A   1      42.572  18.614  27.195  1.00  0.00    -0.744 OA
ENDBRANCH  80  81
ENDBRANCH  48  73
BRANCH  60  85
ATOM     85  C   UNL A   1      48.240  27.783  28.872  1.00  0.00     0.058 A 
ATOM     86  C   UNL A   1      48.872  27.256  30.007  1.00  0.00     0.135 A 
ATOM     87  C   UNL A   1      49.012  27.978  27.715  1.00  0.00     0.135 A 
ATOM     88  F   UNL A   1      48.176  27.058  31.138  1.00  0.00    -0.206 F 
ATOM     89  C   UNL A   1      50.226  26.940  29.998  1.00  0.00     0.059 A 
ATOM     90  C   UNL A   1      50.360  27.644  27.676  1.00  0.00     0.059 A 
ATOM     91  F   UNL A   1      48.449  28.470  26.600  1.00  0.00    -0.206 F 
ATOM     92  C   UNL A   1      50.960  27.132  28.825  1.00  0.00     0.060 A 
BRANCH  92  93
ATOM     93  S   UNL A   1      52.702  26.662  28.810  1.00  0.00     0.124 S 
ATOM     94  O   UNL A   1      52.750  25.751  27.670  1.00  0.00    -0.237 OA
ATOM     95  O   UNL A   1      53.370  27.946  28.624  1.00  0.00    -0.237 OA
ATOM     96  O   UNL A   1      52.899  26.043  30.117  1.00  0.00    -0.744 OA
ENDBRANCH  92  93
ENDBRANCH  60  85
ENDBRANCH  34  35
ENDBRANCH  26  29
ENDBRANCH  24  25
ENDBRANCH  23  24
ENDBRANCH   1  23
TORSDOF 17
ENDMDL
MODEL 2
REMARK VINA RESULT:     -12.1      1.434      3.468
REMARK SMILES O=C(CCc1cccnc1)Nc1ccsc1C(=O)NCCCNC(=O)c1ccc(-c2c3nc(c(-c4c(F)cc(S(=O)(=O)[O-])cc4F)c4ccc([nH]4)c(-c4c(F)cc(S(=O)(=O)[O-])cc4F)c4nc(c(-c5c(F)cc(S(=O)(=O)[O-])cc5F)c5ccc2[nH]5)C=C4)C=C3)cc1
REMARK SMILES IDX 20 1 19 2 17 3 18 4 16 6 12 7 13 8 14 9 15 10 11 11 1 12
REMARK SMILES IDX 2 13 3 15 4 16 5 17 6 18 10 19 7 20 9 21 8 22 21 23 22 24
REMARK SMILES IDX 23 25 24 26 25 28 26 29 27 30 91 31 28 32 90 33 29 34 30 35
REMARK SMILES IDX 31 36 84 37 32 38 89 39 83 40 85 41 33 42 88 43 82 44 81 45
REMARK SMILES IDX 34 47 68 48 47 49 67 50 48 51 51 52 66 53 86 54 49 55 50 56
REMARK SMILES IDX 65 58 87 59 52 60 35 61 36 62 45 63 37 64 38 65 44 66 46 67
REMARK SMILES IDX 39 68 40 69 41 70 42 71 43 72 69 73 70 74 79 75 71 76 72 77
REMARK SMILES IDX 78 78 80 79 73 80 74 81 75 82 76 83 77 84 53 85 54 86 63 87
REMARK SMILES IDX 55 88 56 89 62 90 64 91 57 92 58 93 59 94 60 95 61 96
REMARK H PARENT 19 5 11 14 23 27 85 46 51 57
REMARK Flexibility Score: inf
ROOT
ATOM      1  C   UNL A   1      33.077  28.584  24.716  1.00  0.00     0.118 C 
ENDROOT
BRANCH   1   2
ATOM      2  N   UNL A   1      33.115  27.651  23.613  1.00  0.00    -0.351 N 
ATOM      3  C   UNL A   1      32.129  27.099  22.830  1.00  0.00     0.263 C 
ATOM      4  O   UNL A   1      32.568  26.466  21.861  1.00  0.00    -0.268 OA
ATOM      5  H   UNL A   1      34.023  27.354  23.376  1.00  0.00     0.163 HD
BRANCH   3   6
ATOM      6  C   UNL A   1      30.697  27.190  23.127  1.00  0.00     0.115 A 
ATOM      7  C   UNL A   1      29.733  26.369  23.713  1.00  0.00     0.065 A 
ATOM      8  C   UNL A   1      28.429  26.968  23.667  1.00  0.00     0.038 A 
ATOM      9  C   UNL A   1      28.431  28.239  23.150  1.00  0.00     0.068 A 
ATOM     10  S   UNL A   1      29.981  28.708  22.656  1.00  0.00    -0.137 S 
BRANCH   7  11
ATOM     11  N   UNL A   1      29.994  25.154  24.349  1.00  0.00    -0.325 N 
ATOM     12  O   UNL A   1      30.567  25.931  26.445  1.00  0.00    -0.275 OA
ATOM     13  C   UNL A   1      30.484  25.011  25.631  1.00  0.00     0.224 C 
ATOM     14  H   UNL A   1      29.813  24.331  23.840  1.00  0.00     0.169 HD
BRANCH  13  15
ATOM     15  C   UNL A   1      31.044  23.638  26.014  1.00  0.00     0.105 C 
BRANCH  15  16
ATOM     16  C   UNL A   1      32.142  23.531  27.069  1.00  0.00     0.047 C 
BRANCH  16  17
ATOM     17  C   UNL A   1      33.578  23.474  26.605  1.00  0.00    -0.029 A 
ATOM     18  C   UNL A   1      34.207  24.447  25.826  1.00  0.00     0.007 A 
ATOM     19  C   UNL A   1      34.309  22.319  26.866  1.00  0.00     0.114 A 
ATOM     20  C   UNL A   1      35.425  24.162  25.212  1.00  0.00     0.020 A 
ATOM     21  N   UNL A   1      35.482  22.012  26.268  1.00  0.00    -0.264 NA
ATOM     22  C   UNL A   1      36.009  22.932  25.442  1.00  0.00     0.111 A 
ENDBRANCH  16  17
ENDBRANCH  15  16
ENDBRANCH  13  15
ENDBRANCH   7  11
ENDBRANCH   3   6
ENDBRANCH   1   2
BRANCH   1  23
ATOM     23  C   UNL A   1      34.088  28.356  25.833  1.00  0.00     0.042 C 
BRANCH  23  24
ATOM     24  C   UNL A   1      33.533  28.465  27.251  1.00  0.00     0.118 C 
BRANCH  24  25
ATOM     25  N   UNL A   1      33.532  29.800  27.831  1.00  0.00    -0.352 N 
ATOM     26  C   UNL A   1      34.529  30.626  28.304  1.00  0.00     0.251 C 
ATOM     27  H   UNL A   1      32.633  30.195  27.899  1.00  0.00     0.163 HD
ATOM     28  O   UNL A   1      34.256  31.759  28.668  1.00  0.00    -0.269 OA
BRANCH  26  29
ATOM     29  C   UNL A   1      35.918  30.157  28.485  1.00  0.00     0.039 A 
ATOM     30  C   UNL A   1      36.294  29.688  29.755  1.00  0.00     0.014 A 
ATOM     31  C   UNL A   1      36.865  30.235  27.473  1.00  0.00     0.014 A 
ATOM     32  C   UNL A   1      37.604  29.264  29.992  1.00  0.00     0.010 A 
ATOM     33  C   UNL A   1      38.134  29.715  27.675  1.00  0.00     0.010 A 
ATOM     34  C   UNL A   1      38.528  29.260  28.943  1.00  0.00    -0.014 A 
BRANCH  34  35
ATOM     35  C   UNL A   1      39.958  28.914  29.118  1.00  0.00     0.031 A 
ATOM     36  C   UNL A   1      40.908  30.021  29.494  1.00  0.00     0.074 A 
ATOM     37  C   UNL A   1      40.412  27.690  28.798  1.00  0.00     0.049 A 
ATOM     38  N   UNL A   1      42.205  30.082  29.367  1.00  0.00    -0.248 NA
ATOM     39  C   UNL A   1      40.294  31.257  30.016  1.00  0.00     0.031 C 
ATOM     40  C   UNL A   1      39.582  26.547  28.413  1.00  0.00     0.029 A 
ATOM     41  N   UNL A   1      41.696  27.217  28.702  1.00  0.00    -0.354 N 
ATOM     42  C   UNL A   1      42.553  31.381  29.725  1.00  0.00     0.074 A 
ATOM     43  C   UNL A   1      41.328  32.083  30.031  1.00  0.00     0.031 C 
ATOM     44  C   UNL A   1      40.379  25.507  28.113  1.00  0.00     0.029 A 
ATOM     45  C   UNL A   1      41.772  25.927  28.232  1.00  0.00     0.049 A 
ATOM     46  H   UNL A   1      42.487  27.749  28.947  1.00  0.00     0.167 HD
ATOM     47  C   UNL A   1      43.788  31.928  29.804  1.00  0.00     0.037 A 
ATOM     48  C   UNL A   1      42.847  25.185  27.905  1.00  0.00     0.037 A 
ATOM     49  C   UNL A   1      44.995  31.181  29.565  1.00  0.00     0.049 A 
ATOM     50  C   UNL A   1      44.215  25.796  28.047  1.00  0.00     0.074 A 
ATOM     51  C   UNL A   1      46.306  31.599  29.683  1.00  0.00     0.029 A 
ATOM     52  N   UNL A   1      45.029  29.847  29.180  1.00  0.00    -0.354 N 
ATOM     53  N   UNL A   1      44.540  27.020  28.397  1.00  0.00    -0.248 NA
ATOM     54  C   UNL A   1      45.366  24.931  27.756  1.00  0.00     0.031 C 
ATOM     55  C   UNL A   1      47.136  30.526  29.342  1.00  0.00     0.029 A 
ATOM     56  C   UNL A   1      46.341  29.426  29.059  1.00  0.00     0.049 A 
ATOM     57  H   UNL A   1      44.237  29.285  29.017  1.00  0.00     0.167 HD
ATOM     58  C   UNL A   1      45.929  27.059  28.409  1.00  0.00     0.074 A 
ATOM     59  C   UNL A   1      46.384  25.736  28.029  1.00  0.00     0.031 C 
ATOM     60  C   UNL A   1      46.757  28.090  28.710  1.00  0.00     0.037 A 
BRANCH  47  61
ATOM     61  C   UNL A   1      43.893  33.384  30.171  1.00  0.00     0.058 A 
ATOM     62  C   UNL A   1      44.089  33.804  31.496  1.00  0.00     0.135 A 
ATOM     63  C   UNL A   1      43.813  34.376  29.180  1.00  0.00     0.135 A 
ATOM     64  F   UNL A   1      44.156  32.901  32.489  1.00  0.00    -0.206 F 
ATOM     65  C   UNL A   1      44.165  35.152  31.831  1.00  0.00     0.059 A 
ATOM     66  C   UNL A   1      43.921  35.730  29.487  1.00  0.00     0.059 A 
ATOM     67  F   UNL A   1      43.624  34.037  27.894  1.00  0.00    -0.206 F 
ATOM     68  C   UNL A   1      44.080  36.108  30.819  1.00  0.00     0.060 A 
BRANCH  68  69
ATOM     69  S   UNL A   1      44.189  37.852  31.271  1.00  0.00     0.124 S 
ATOM     70  O   UNL A   1      45.634  38.059  31.289  1.00  0.00    -0.237 OA
ATOM     71  O   UNL A   1      43.470  38.502  30.180  1.00  0.00    -0.237 OA
ATOM     72  O   UNL A   1      43.531  37.907  32.573  1.00  0.00    -0.744 OA
ENDBRANCH  68  69
ENDBRANCH  47  61
BRANCH  48  73
ATOM     73  C   UNL A   1      42.671  23.783  27.441  1.00  0.00     0.058 A 
ATOM     74  C   UNL A   1      42.542  22.737  28.366  1.00  0.00     0.135 A 
ATOM     75  C   UNL A   1      42.600  23.459  26.077  1.00  0.00     0.135 A 
ATOM     76  F   UNL A   1      42.607  22.995  29.682  1.00  0.00    -0.206 F 
ATOM     77  C   UNL A   1      42.364  21.419  27.959  1.00  0.00     0.059 A 
ATOM     78  C   UNL A   1      42.396  22.151  25.645  1.00  0.00     0.059 A 
ATOM     79  F   UNL A   1      42.696  24.425  25.150  1.00  0.00    -0.206 F 
ATOM     80  C   UNL A   1      42.289  21.136  26.595  1.00  0.00     0.060 A 
BRANCH  80  81
ATOM     81  S   UNL A   1      42.005  19.427  26.084  1.00  0.00     0.124 S 
ATOM     82  O   UNL A   1      42.866  19.324  24.912  1.00  0.00    -0.237 OA
ATOM     83  O   UNL A   1      42.435  18.681  27.262  1.00  0.00    -0.237 OA
ATOM     84  O   UNL A   1      40.569  19.392  25.820  1.00  0.00    -0.744 OA
ENDBRANCH  80  81
ENDBRANCH  48  73
BRANCH  60  85
ATOM     85  C   UNL A   1      48.234  27.816  28.715  1.00  0.00     0.058 A 
ATOM     86  C   UNL A   1      48.890  27.315  29.850  1.00  0.00     0.135 A 
ATOM     87  C   UNL A   1      48.980  27.977  27.537  1.00  0.00     0.135 A 
ATOM     88  F   UNL A   1      48.219  27.150  31.000  1.00  0.00    -0.206 F 
ATOM     89  C   UNL A   1      50.242  26.994  29.818  1.00  0.00     0.059 A 
ATOM     90  C   UNL A   1      50.326  27.637  27.476  1.00  0.00     0.059 A 
ATOM     91  F   UNL A   1      48.393  28.442  26.423  1.00  0.00    -0.206 F 
ATOM     92  C   UNL A   1      50.950  27.152  28.624  1.00  0.00     0.060 A 
BRANCH  92  93
ATOM     93  S   UNL A   1      52.690  26.675  28.581  1.00  0.00     0.124 S 
ATOM     94  O   UNL A   1      53.337  27.952  28.293  1.00  0.00    -0.237 OA
ATOM     95  O   UNL A   1      52.901  26.145  29.924  1.00  0.00    -0.237 OA
ATOM     96  O   UNL A   1      52.745  25.688  27.507  1.00  0.00    -0.744 OA
ENDBRANCH  92  93
ENDBRANCH  60  85
ENDBRANCH  34  35
ENDBRANCH  26  29
ENDBRANCH  24  25
ENDBRANCH  23  24
ENDBRANCH   1  23
TORSDOF 17
ENDMDL
MODEL 3
REMARK VINA RESULT:     -11.8      4.016     10.122
REMARK SMILES O=C(CCc1cccnc1)Nc1ccsc1C(=O)NCCCNC(=O)c1ccc(-c2c3nc(c(-c4c(F)cc(S(=O)(=O)[O-])cc4F)c4ccc([nH]4)c(-c4c(F)cc(S(=O)(=O)[O-])cc4F)c4nc(c(-c5c(F)cc(S(=O)(=O)[O-])cc5F)c5ccc2[nH]5)C=C4)C=C3)cc1
REMARK SMILES IDX 20 1 19 2 17 3 18 4 16 6 12 7 13 8 14 9 15 10 11 11 1 12
REMARK SMILES IDX 2 13 3 15 4 16 5 17 6 18 10 19 7 20 9 21 8 22 21 23 22 24
REMARK SMILES IDX 23 25 24 26 25 28 26 29 27 30 91 31 28 32 90 33 29 34 30 35
REMARK SMILES IDX 31 36 84 37 32 38 89 39 83 40 85 41 33 42 88 43 82 44 81 45
REMARK SMILES IDX 34 47 68 48 47 49 67 50 48 51 51 52 66 53 86 54 49 55 50 56
REMARK SMILES IDX 65 58 87 59 52 60 35 61 36 62 45 63 37 64 38 65 44 66 46 67
REMARK SMILES IDX 39 68 40 69 41 70 42 71 43 72 69 73 70 74 79 75 71 76 72 77
REMARK SMILES IDX 78 78 80 79 73 80 74 81 75 82 76 83 77 84 53 85 54 86 63 87
REMARK SMILES IDX 55 88 56 89 62 90 64 91 57 92 58 93 59 94 60 95 61 96
REMARK H PARENT 19 5 11 14 23 27 85 46 51 57
REMARK Flexibility Score: inf
ROOT
ATOM      1  C   UNL A   1      34.736  24.752  25.185  1.00  0.00     0.118 C 
ENDROOT
BRANCH   1   2
ATOM      2  N   UNL A   1      34.553  25.033  23.780  1.00  0.00    -0.351 N 
ATOM      3  C   UNL A   1      33.488  25.528  23.064  1.00  0.00     0.263 C 
ATOM      4  O   UNL A   1      33.770  25.795  21.888  1.00  0.00    -0.268 OA
ATOM      5  H   UNL A   1      35.343  24.831  23.229  1.00  0.00     0.163 HD
BRANCH   3   6
ATOM      6  C   UNL A   1      32.135  25.679  23.603  1.00  0.00     0.115 A 
ATOM      7  C   UNL A   1      31.120  24.826  24.038  1.00  0.00     0.065 A 
ATOM      8  C   UNL A   1      29.937  25.554  24.403  1.00  0.00     0.038 A 
ATOM      9  C   UNL A   1      30.092  26.915  24.335  1.00  0.00     0.068 A 
ATOM     10  S   UNL A   1      31.633  27.340  23.776  1.00  0.00    -0.137 S 
BRANCH   7  11
ATOM     11  N   UNL A   1      31.245  23.445  24.192  1.00  0.00    -0.325 N 
ATOM     12  O   UNL A   1      31.598  23.340  26.470  1.00  0.00    -0.275 OA
ATOM     13  C   UNL A   1      31.571  22.796  25.366  1.00  0.00     0.224 C 
ATOM     14  H   UNL A   1      31.088  22.886  23.396  1.00  0.00     0.169 HD
BRANCH  13  15
ATOM     15  C   UNL A   1      32.015  21.335  25.255  1.00  0.00     0.105 C 
BRANCH  15  16
ATOM     16  C   UNL A   1      32.496  20.785  23.914  1.00  0.00     0.047 C 
BRANCH  16  17
ATOM     17  C   UNL A   1      32.967  19.352  23.856  1.00  0.00    -0.029 A 
ATOM     18  C   UNL A   1      33.993  18.813  24.636  1.00  0.00     0.007 A 
ATOM     19  C   UNL A   1      32.431  18.521  22.877  1.00  0.00     0.114 A 
ATOM     20  C   UNL A   1      34.542  17.577  24.302  1.00  0.00     0.020 A 
ATOM     21  N   UNL A   1      32.957  17.328  22.521  1.00  0.00    -0.264 NA
ATOM     22  C   UNL A   1      34.011  16.887  23.229  1.00  0.00     0.111 A 
ENDBRANCH  16  17
ENDBRANCH  15  16
ENDBRANCH  13  15
ENDBRANCH   7  11
ENDBRANCH   3   6
ENDBRANCH   1   2
BRANCH   1  23
ATOM     23  C   UNL A   1      35.762  23.681  25.535  1.00  0.00     0.042 C 
BRANCH  23  24
ATOM     24  C   UNL A   1      37.061  23.732  24.736  1.00  0.00     0.118 C 
BRANCH  24  25
ATOM     25  N   UNL A   1      38.103  22.807  25.159  1.00  0.00    -0.352 N 
ATOM     26  C   UNL A   1      39.088  22.868  26.121  1.00  0.00     0.251 C 
ATOM     27  H   UNL A   1      38.104  21.963  24.652  1.00  0.00     0.163 HD
ATOM     28  O   UNL A   1      39.793  21.893  26.329  1.00  0.00    -0.269 OA
BRANCH  26  29
ATOM     29  C   UNL A   1      39.397  24.114  26.851  1.00  0.00     0.039 A 
ATOM     30  C   UNL A   1      40.284  25.025  26.254  1.00  0.00     0.014 A 
ATOM     31  C   UNL A   1      38.901  24.372  28.122  1.00  0.00     0.014 A 
ATOM     32  C   UNL A   1      40.638  26.204  26.915  1.00  0.00     0.010 A 
ATOM     33  C   UNL A   1      39.164  25.589  28.731  1.00  0.00     0.010 A 
ATOM     34  C   UNL A   1      40.063  26.499  28.154  1.00  0.00    -0.014 A 
BRANCH  34  35
ATOM     35  C   UNL A   1      40.443  27.676  28.969  1.00  0.00     0.031 A 
ATOM     36  C   UNL A   1      41.678  27.571  29.824  1.00  0.00     0.074 A 
ATOM     37  C   UNL A   1      39.625  28.740  29.060  1.00  0.00     0.049 A 
ATOM     38  N   UNL A   1      42.033  28.275  30.863  1.00  0.00    -0.248 NA
ATOM     39  C   UNL A   1      42.601  26.465  29.501  1.00  0.00     0.031 C 
ATOM     40  C   UNL A   1      38.400  28.942  28.285  1.00  0.00     0.029 A 
ATOM     41  N   UNL A   1      39.683  29.834  29.884  1.00  0.00    -0.354 N 
ATOM     42  C   UNL A   1      43.177  27.658  31.359  1.00  0.00     0.074 A 
ATOM     43  C   UNL A   1      43.430  26.500  30.533  1.00  0.00     0.031 C 
ATOM     44  C   UNL A   1      37.816  30.087  28.677  1.00  0.00     0.029 A 
ATOM     45  C   UNL A   1      38.595  30.668  29.767  1.00  0.00     0.049 A 
ATOM     46  H   UNL A   1      40.431  30.007  30.500  1.00  0.00     0.167 HD
ATOM     47  C   UNL A   1      43.952  28.038  32.401  1.00  0.00     0.037 A 
ATOM     48  C   UNL A   1      38.256  31.757  30.482  1.00  0.00     0.037 A 
ATOM     49  C   UNL A   1      43.716  29.239  33.158  1.00  0.00     0.049 A 
ATOM     50  C   UNL A   1      39.158  32.191  31.606  1.00  0.00     0.074 A 
ATOM     51  C   UNL A   1      44.468  29.771  34.188  1.00  0.00     0.029 A 
ATOM     52  N   UNL A   1      42.653  30.106  32.944  1.00  0.00    -0.354 N 
ATOM     53  N   UNL A   1      40.244  31.611  32.063  1.00  0.00    -0.248 NA
ATOM     54  C   UNL A   1      38.796  33.428  32.312  1.00  0.00     0.031 C 
ATOM     55  C   UNL A   1      43.844  30.948  34.617  1.00  0.00     0.029 A 
ATOM     56  C   UNL A   1      42.731  31.172  33.822  1.00  0.00     0.049 A 
ATOM     57  H   UNL A   1      41.948  29.980  32.268  1.00  0.00     0.167 HD
ATOM     58  C   UNL A   1      40.718  32.433  33.079  1.00  0.00     0.074 A 
ATOM     59  C   UNL A   1      39.798  33.550  33.172  1.00  0.00     0.031 C 
ATOM     60  C   UNL A   1      41.814  32.285  33.863  1.00  0.00     0.037 A 
BRANCH  47  61
ATOM     61  C   UNL A   1      45.118  27.161  32.769  1.00  0.00     0.058 A 
ATOM     62  C   UNL A   1      44.964  26.016  33.567  1.00  0.00     0.135 A 
ATOM     63  C   UNL A   1      46.410  27.459  32.302  1.00  0.00     0.135 A 
ATOM     64  F   UNL A   1      43.757  25.691  34.058  1.00  0.00    -0.206 F 
ATOM     65  C   UNL A   1      46.050  25.222  33.921  1.00  0.00     0.059 A 
ATOM     66  C   UNL A   1      47.505  26.658  32.614  1.00  0.00     0.059 A 
ATOM     67  F   UNL A   1      46.620  28.542  31.537  1.00  0.00    -0.206 F 
ATOM     68  C   UNL A   1      47.317  25.550  33.438  1.00  0.00     0.060 A 
BRANCH  68  69
ATOM     69  S   UNL A   1      48.712  24.502  33.900  1.00  0.00     0.124 S 
ATOM     70  O   UNL A   1      49.305  25.270  34.990  1.00  0.00    -0.237 OA
ATOM     71  O   UNL A   1      48.053  23.259  34.286  1.00  0.00    -0.237 OA
ATOM     72  O   UNL A   1      49.506  24.434  32.676  1.00  0.00    -0.744 OA
ENDBRANCH  68  69
ENDBRANCH  47  61
BRANCH  48  73
ATOM     73  C   UNL A   1      37.026  32.520  30.138  1.00  0.00     0.058 A 
ATOM     74  C   UNL A   1      37.056  33.506  29.141  1.00  0.00     0.135 A 
ATOM     75  C   UNL A   1      35.799  32.268  30.770  1.00  0.00     0.135 A 
ATOM     76  F   UNL A   1      38.206  33.787  28.510  1.00  0.00    -0.206 F 
ATOM     77  C   UNL A   1      35.918  34.226  28.791  1.00  0.00     0.059 A 
ATOM     78  C   UNL A   1      34.640  32.956  30.419  1.00  0.00     0.059 A 
ATOM     79  F   UNL A   1      35.711  31.320  31.716  1.00  0.00    -0.206 F 
ATOM     80  C   UNL A   1      34.713  33.941  29.435  1.00  0.00     0.060 A 
BRANCH  80  81
ATOM     81  S   UNL A   1      33.233  34.847  28.932  1.00  0.00     0.124 S 
ATOM     82  O   UNL A   1      32.636  33.925  27.974  1.00  0.00    -0.237 OA
ATOM     83  O   UNL A   1      32.526  35.002  30.199  1.00  0.00    -0.237 OA
ATOM     84  O   UNL A   1      33.772  36.082  28.369  1.00  0.00    -0.744 OA
ENDBRANCH  80  81
ENDBRANCH  48  73
BRANCH  60  85
ATOM     85  C   UNL A   1      42.125  33.384  34.838  1.00  0.00     0.058 A 
ATOM     86  C   UNL A   1      41.752  33.305  36.187  1.00  0.00     0.135 A 
ATOM     87  C   UNL A   1      42.884  34.491  34.425  1.00  0.00     0.135 A 
ATOM     88  F   UNL A   1      41.021  32.269  36.627  1.00  0.00    -0.206 F 
ATOM     89  C   UNL A   1      42.112  34.294  37.095  1.00  0.00     0.059 A 
ATOM     90  C   UNL A   1      43.279  35.478  35.321  1.00  0.00     0.059 A 
ATOM     91  F   UNL A   1      43.275  34.605  33.146  1.00  0.00    -0.206 F 
ATOM     92  C   UNL A   1      42.882  35.374  36.653  1.00  0.00     0.060 A 
BRANCH  92  93
ATOM     93  S   UNL A   1      43.393  36.620  37.855  1.00  0.00     0.124 S 
ATOM     94  O   UNL A   1      42.107  37.180  38.260  1.00  0.00    -0.237 OA
ATOM     95  O   UNL A   1      44.081  35.819  38.861  1.00  0.00    -0.237 OA
ATOM     96  O   UNL A   1      44.249  37.510  37.077  1.00  0.00    -0.744 OA
ENDBRANCH  92  93
ENDBRANCH  60  85
ENDBRANCH  34  35
ENDBRANCH  26  29
ENDBRANCH  24  25
ENDBRANCH  23  24
ENDBRANCH   1  23
TORSDOF 17
ENDMDL
