MODEL 1
REMARK VINA RESULT:     -13.5      0.000      0.000
REMARK SMILES O=C(NCCCNC(=O)[C@@H]1C[C@@H]1C(=O)N1CCN(c2ncc(C(F)(F)F)cc2Cl)CC1)c1ccc(-c2c3nc(c(-c4c(F)cc(S(=O)(=O)[O-])cc4F)c4ccc([nH]4)c(-c4c(F)cc(S(=O)(=O)[O-])cc4F)c4nc(c(-c5c(F)cc(S(=O)(=O)[O-])cc5F)c5ccc2[nH]5)C=C4)C=C3)cc1
REMARK SMILES IDX 5 1 4 2 3 3 1 4 2 5 32 7 33 8 97 9 34 10 96 11 35 12 36 13
REMARK SMILES IDX 37 14 90 15 38 16 95 17 89 18 91 19 39 20 94 21 88 22 87 23
REMARK SMILES IDX 40 25 74 26 53 27 73 28 54 29 57 30 72 31 92 32 55 33 56 34
REMARK SMILES IDX 71 36 93 37 58 38 41 39 42 40 51 41 43 42 44 43 50 44 52 45
REMARK SMILES IDX 45 46 46 47 47 48 48 49 49 50 75 51 76 52 85 53 77 54 78 55
REMARK SMILES IDX 84 56 86 57 79 58 80 59 81 60 82 61 83 62 59 63 60 64 69 65
REMARK SMILES IDX 61 66 62 67 68 68 70 69 63 70 64 71 65 72 66 73 67 74 6 75
REMARK SMILES IDX 7 76 8 77 9 79 10 80 11 81 12 82 13 83 14 84 15 85 16 86
REMARK SMILES IDX 31 87 17 88 30 89 18 90 19 91 20 92 28 93 21 94 27 95 29 96
REMARK SMILES IDX 22 97 23 98 24 99 25 100 26 101
REMARK H PARENT 3 6 91 24 57 35 7 78
REMARK Flexibility Score: inf
ROOT
ATOM      1  C   UNL A   1      39.966  21.804  26.670  1.00  0.00     0.042 C 
ENDROOT
BRANCH   1   2
ATOM      2  C   UNL A   1      40.248  23.202  27.182  1.00  0.00     0.118 C 
BRANCH   2   3
ATOM      3  N   UNL A   1      40.798  24.064  26.143  1.00  0.00    -0.352 N 
ATOM      4  O   UNL A   1      41.242  25.979  25.058  1.00  0.00    -0.269 OA
ATOM      5  C   UNL A   1      40.971  25.430  26.123  1.00  0.00     0.251 C 
ATOM      6  H   UNL A   1      41.092  23.597  25.327  1.00  0.00     0.163 HD
BRANCH   5   7
ATOM      7  C   UNL A   1      40.830  26.235  27.362  1.00  0.00     0.039 A 
ATOM      8  C   UNL A   1      41.701  27.287  27.635  1.00  0.00     0.014 A 
ATOM      9  C   UNL A   1      39.774  25.970  28.245  1.00  0.00     0.014 A 
ATOM     10  C   UNL A   1      41.629  27.957  28.849  1.00  0.00     0.010 A 
ATOM     11  C   UNL A   1      39.623  26.734  29.410  1.00  0.00     0.010 A 
ATOM     12  C   UNL A   1      40.562  27.724  29.731  1.00  0.00    -0.014 A 
BRANCH  12  13
ATOM     13  C   UNL A   1      40.418  28.624  30.905  1.00  0.00     0.031 A 
ATOM     14  C   UNL A   1      41.342  28.540  32.087  1.00  0.00     0.074 A 
ATOM     15  C   UNL A   1      39.470  29.584  30.846  1.00  0.00     0.049 A 
ATOM     16  N   UNL A   1      41.381  29.304  33.149  1.00  0.00    -0.248 NA
ATOM     17  C   UNL A   1      42.339  27.459  32.091  1.00  0.00     0.031 C 
ATOM     18  C   UNL A   1      38.498  29.739  29.757  1.00  0.00     0.029 A 
ATOM     19  N   UNL A   1      39.190  30.631  31.684  1.00  0.00    -0.354 N 
ATOM     20  C   UNL A   1      42.394  28.794  33.952  1.00  0.00     0.074 A 
ATOM     21  C   UNL A   1      42.930  27.637  33.266  1.00  0.00     0.031 C 
ATOM     22  C   UNL A   1      37.786  30.856  29.952  1.00  0.00     0.029 A 
ATOM     23  C   UNL A   1      38.196  31.458  31.214  1.00  0.00     0.049 A 
ATOM     24  H   UNL A   1      39.655  30.778  32.539  1.00  0.00     0.167 HD
ATOM     25  C   UNL A   1      42.837  29.257  35.147  1.00  0.00     0.037 A 
ATOM     26  C   UNL A   1      37.661  32.574  31.742  1.00  0.00     0.037 A 
ATOM     27  C   UNL A   1      42.305  30.422  35.811  1.00  0.00     0.049 A 
ATOM     28  C   UNL A   1      38.186  33.071  33.056  1.00  0.00     0.074 A 
ATOM     29  C   UNL A   1      42.688  30.974  37.022  1.00  0.00     0.029 A 
ATOM     30  N   UNL A   1      41.284  31.221  35.316  1.00  0.00    -0.354 N 
ATOM     31  N   UNL A   1      39.146  32.571  33.798  1.00  0.00    -0.248 NA
ATOM     32  C   UNL A   1      37.555  34.274  33.609  1.00  0.00     0.031 C 
ATOM     33  C   UNL A   1      41.879  32.089  37.272  1.00  0.00     0.029 A 
ATOM     34  C   UNL A   1      41.018  32.255  36.200  1.00  0.00     0.049 A 
ATOM     35  H   UNL A   1      40.817  31.074  34.462  1.00  0.00     0.167 HD
ATOM     36  C   UNL A   1      39.229  33.395  34.911  1.00  0.00     0.074 A 
ATOM     37  C   UNL A   1      38.250  34.449  34.724  1.00  0.00     0.031 C 
ATOM     38  C   UNL A   1      40.030  33.284  35.998  1.00  0.00     0.037 A 
BRANCH  25  39
ATOM     39  C   UNL A   1      43.951  28.506  35.825  1.00  0.00     0.058 A 
ATOM     40  C   UNL A   1      43.695  27.421  36.678  1.00  0.00     0.135 A 
ATOM     41  C   UNL A   1      45.293  28.830  35.565  1.00  0.00     0.135 A 
ATOM     42  F   UNL A   1      42.430  27.078  36.972  1.00  0.00    -0.206 F 
ATOM     43  C   UNL A   1      44.727  26.689  37.256  1.00  0.00     0.059 A 
ATOM     44  C   UNL A   1      46.342  28.099  36.116  1.00  0.00     0.059 A 
ATOM     45  F   UNL A   1      45.595  29.859  34.758  1.00  0.00    -0.206 F 
ATOM     46  C   UNL A   1      46.049  27.034  36.968  1.00  0.00     0.060 A 
BRANCH  46  47
ATOM     47  S   UNL A   1      47.378  26.056  37.700  1.00  0.00     0.124 S 
ATOM     48  O   UNL A   1      48.468  27.026  37.740  1.00  0.00    -0.237 OA
ATOM     49  O   UNL A   1      46.817  25.681  38.995  1.00  0.00    -0.237 OA
ATOM     50  O   UNL A   1      47.553  24.956  36.756  1.00  0.00    -0.744 OA
ENDBRANCH  46  47
ENDBRANCH  25  39
BRANCH  26  51
ATOM     51  C   UNL A   1      36.551  33.270  31.040  1.00  0.00     0.058 A 
ATOM     52  C   UNL A   1      35.228  33.184  31.500  1.00  0.00     0.135 A 
ATOM     53  C   UNL A   1      36.798  34.052  29.900  1.00  0.00     0.135 A 
ATOM     54  F   UNL A   1      34.941  32.448  32.584  1.00  0.00    -0.206 F 
ATOM     55  C   UNL A   1      34.187  33.831  30.842  1.00  0.00     0.059 A 
ATOM     56  C   UNL A   1      35.779  34.731  29.243  1.00  0.00     0.059 A 
ATOM     57  F   UNL A   1      38.050  34.184  29.433  1.00  0.00    -0.206 F 
ATOM     58  C   UNL A   1      34.472  34.601  29.713  1.00  0.00     0.060 A 
BRANCH  58  59
ATOM     59  S   UNL A   1      33.126  35.470  28.881  1.00  0.00     0.124 S 
ATOM     60  O   UNL A   1      32.364  35.979  30.015  1.00  0.00    -0.237 OA
ATOM     61  O   UNL A   1      33.841  36.469  28.091  1.00  0.00    -0.237 OA
ATOM     62  O   UNL A   1      32.480  34.417  28.104  1.00  0.00    -0.744 OA
ENDBRANCH  58  59
ENDBRANCH  26  51
BRANCH  38  63
ATOM     63  C   UNL A   1      39.871  34.334  37.058  1.00  0.00     0.058 A 
ATOM     64  C   UNL A   1      39.013  34.141  38.153  1.00  0.00     0.135 A 
ATOM     65  C   UNL A   1      40.578  35.544  36.979  1.00  0.00     0.135 A 
ATOM     66  F   UNL A   1      38.309  33.005  38.267  1.00  0.00    -0.206 F 
ATOM     67  C   UNL A   1      38.833  35.130  39.114  1.00  0.00     0.059 A 
ATOM     68  C   UNL A   1      40.431  36.536  37.943  1.00  0.00     0.059 A 
ATOM     69  F   UNL A   1      41.416  35.771  35.956  1.00  0.00    -0.206 F 
ATOM     70  C   UNL A   1      39.540  36.327  38.996  1.00  0.00     0.060 A 
BRANCH  70  71
ATOM     71  S   UNL A   1      39.297  37.605  40.247  1.00  0.00     0.124 S 
ATOM     72  O   UNL A   1      40.627  38.199  40.320  1.00  0.00    -0.237 OA
ATOM     73  O   UNL A   1      38.261  38.440  39.648  1.00  0.00    -0.237 OA
ATOM     74  O   UNL A   1      38.881  36.850  41.425  1.00  0.00    -0.744 OA
ENDBRANCH  70  71
ENDBRANCH  38  63
ENDBRANCH  12  13
ENDBRANCH   5   7
ENDBRANCH   2   3
ENDBRANCH   1   2
BRANCH   1  75
ATOM     75  C   UNL A   1      38.737  21.724  25.781  1.00  0.00     0.117 C 
BRANCH  75  76
ATOM     76  N   UNL A   1      37.659  22.531  26.289  1.00  0.00    -0.356 N 
ATOM     77  C   UNL A   1      36.423  22.837  25.798  1.00  0.00     0.223 C 
ATOM     78  H   UNL A   1      37.851  22.946  27.161  1.00  0.00     0.163 HD
ATOM     79  O   UNL A   1      35.754  23.616  26.478  1.00  0.00    -0.275 OA
BRANCH  77  80
ATOM     80  C   UNL A   1      35.765  22.266  24.595  1.00  0.00     0.091 C 
ATOM     81  C   UNL A   1      35.420  23.131  23.403  1.00  0.00     0.028 C 
ATOM     82  C   UNL A   1      34.376  22.251  24.028  1.00  0.00     0.092 C 
BRANCH  82  83
ATOM     83  C   UNL A   1      33.132  22.733  24.649  1.00  0.00     0.226 C 
ATOM     84  O   UNL A   1      32.437  21.954  25.293  1.00  0.00    -0.275 OA
ATOM     85  N   UNL A   1      32.664  23.934  24.132  1.00  0.00    -0.339 N 
ATOM     86  C   UNL A   1      32.851  25.168  24.908  1.00  0.00     0.141 C 
ATOM     87  C   UNL A   1      31.357  23.853  23.471  1.00  0.00     0.141 C 
ATOM     88  C   UNL A   1      32.492  26.453  24.133  1.00  0.00     0.139 C 
ATOM     89  C   UNL A   1      31.058  25.112  22.645  1.00  0.00     0.139 C 
ATOM     90  N   UNL A   1      31.178  26.287  23.517  1.00  0.00    -0.352 N 
BRANCH  90  91
ATOM     91  C   UNL A   1      30.462  27.415  23.164  1.00  0.00     0.147 A 
ATOM     92  N   UNL A   1      31.137  28.444  22.594  1.00  0.00    -0.237 NA
ATOM     93  C   UNL A   1      29.077  27.505  23.398  1.00  0.00     0.084 A 
ATOM     94  C   UNL A   1      30.437  29.541  22.215  1.00  0.00     0.126 A 
ATOM     95  C   UNL A   1      28.383  28.647  23.003  1.00  0.00     0.039 A 
ATOM     96  Cl  UNL A   1      28.189  26.277  24.232  1.00  0.00    -0.080 Cl
ATOM     97  C   UNL A   1      29.069  29.691  22.386  1.00  0.00     0.075 A 
BRANCH  97  98
ATOM     98  C   UNL A   1      28.385  30.933  21.912  1.00  0.00     0.417 C 
ATOM     99  F   UNL A   1      29.244  31.977  21.756  1.00  0.00    -0.166 F 
ATOM    100  F   UNL A   1      27.784  30.762  20.702  1.00  0.00    -0.166 F 
ATOM    101  F   UNL A   1      27.410  31.373  22.753  1.00  0.00    -0.166 F 
ENDBRANCH  97  98
ENDBRANCH  90  91
ENDBRANCH  82  83
ENDBRANCH  77  80
ENDBRANCH  75  76
ENDBRANCH   1  75
TORSDOF 16
ENDMDL
MODEL 2
REMARK VINA RESULT:     -13.4      7.270     12.416
REMARK SMILES O=C(NCCCNC(=O)[C@@H]1C[C@@H]1C(=O)N1CCN(c2ncc(C(F)(F)F)cc2Cl)CC1)c1ccc(-c2c3nc(c(-c4c(F)cc(S(=O)(=O)[O-])cc4F)c4ccc([nH]4)c(-c4c(F)cc(S(=O)(=O)[O-])cc4F)c4nc(c(-c5c(F)cc(S(=O)(=O)[O-])cc5F)c5ccc2[nH]5)C=C4)C=C3)cc1
REMARK SMILES IDX 5 1 4 2 3 3 1 4 2 5 32 7 33 8 97 9 34 10 96 11 35 12 36 13
REMARK SMILES IDX 37 14 90 15 38 16 95 17 89 18 91 19 39 20 94 21 88 22 87 23
REMARK SMILES IDX 40 25 74 26 53 27 73 28 54 29 57 30 72 31 92 32 55 33 56 34
REMARK SMILES IDX 71 36 93 37 58 38 41 39 42 40 51 41 43 42 44 43 50 44 52 45
REMARK SMILES IDX 45 46 46 47 47 48 48 49 49 50 75 51 76 52 85 53 77 54 78 55
REMARK SMILES IDX 84 56 86 57 79 58 80 59 81 60 82 61 83 62 59 63 60 64 69 65
REMARK SMILES IDX 61 66 62 67 68 68 70 69 63 70 64 71 65 72 66 73 67 74 6 75
REMARK SMILES IDX 7 76 8 77 9 79 10 80 11 81 12 82 13 83 14 84 15 85 16 86
REMARK SMILES IDX 31 87 17 88 30 89 18 90 19 91 20 92 28 93 21 94 27 95 29 96
REMARK SMILES IDX 22 97 23 98 24 99 25 100 26 101
REMARK H PARENT 3 6 91 24 57 35 7 78
REMARK Flexibility Score: inf
ROOT
ATOM      1  C   UNL A   1      34.361  30.626  27.409  1.00  0.00     0.042 C 
ENDROOT
BRANCH   1   2
ATOM      2  C   UNL A   1      35.596  31.100  28.149  1.00  0.00     0.118 C 
BRANCH   2   3
ATOM      3  N   UNL A   1      35.563  30.732  29.560  1.00  0.00    -0.352 N 
ATOM      4  O   UNL A   1      36.161  29.651  31.435  1.00  0.00    -0.269 OA
ATOM      5  C   UNL A   1      36.489  30.055  30.321  1.00  0.00     0.251 C 
ATOM      6  H   UNL A   1      34.753  31.012  30.044  1.00  0.00     0.163 HD
BRANCH   5   7
ATOM      7  C   UNL A   1      37.861  29.806  29.812  1.00  0.00     0.039 A 
ATOM      8  C   UNL A   1      38.902  29.495  30.684  1.00  0.00     0.014 A 
ATOM      9  C   UNL A   1      38.104  29.829  28.433  1.00  0.00     0.014 A 
ATOM     10  C   UNL A   1      40.200  29.377  30.208  1.00  0.00     0.010 A 
ATOM     11  C   UNL A   1      39.393  29.581  27.941  1.00  0.00     0.010 A 
ATOM     12  C   UNL A   1      40.457  29.370  28.828  1.00  0.00    -0.014 A 
BRANCH  12  13
ATOM     13  C   UNL A   1      41.829  29.020  28.375  1.00  0.00     0.031 A 
ATOM     14  C   UNL A   1      42.955  30.014  28.416  1.00  0.00     0.074 A 
ATOM     15  C   UNL A   1      42.057  27.745  27.994  1.00  0.00     0.049 A 
ATOM     16  N   UNL A   1      44.217  29.831  28.120  1.00  0.00    -0.248 NA
ATOM     17  C   UNL A   1      42.630  31.388  28.826  1.00  0.00     0.031 C 
ATOM     18  C   UNL A   1      41.028  26.703  27.887  1.00  0.00     0.029 A 
ATOM     19  N   UNL A   1      43.216  27.092  27.667  1.00  0.00    -0.354 N 
ATOM     20  C   UNL A   1      44.835  31.063  28.296  1.00  0.00     0.074 A 
ATOM     21  C   UNL A   1      43.804  31.995  28.700  1.00  0.00     0.031 C 
ATOM     22  C   UNL A   1      41.609  25.531  27.601  1.00  0.00     0.029 A 
ATOM     23  C   UNL A   1      43.040  25.749  27.429  1.00  0.00     0.049 A 
ATOM     24  H   UNL A   1      44.090  27.541  27.608  1.00  0.00     0.167 HD
ATOM     25  C   UNL A   1      46.144  31.379  28.139  1.00  0.00     0.037 A 
ATOM     26  C   UNL A   1      43.927  24.793  27.098  1.00  0.00     0.037 A 
ATOM     27  C   UNL A   1      47.165  30.436  27.753  1.00  0.00     0.049 A 
ATOM     28  C   UNL A   1      45.370  25.171  26.952  1.00  0.00     0.074 A 
ATOM     29  C   UNL A   1      48.520  30.657  27.572  1.00  0.00     0.029 A 
ATOM     30  N   UNL A   1      46.945  29.089  27.499  1.00  0.00    -0.354 N 
ATOM     31  N   UNL A   1      45.932  26.344  27.123  1.00  0.00    -0.248 NA
ATOM     32  C   UNL A   1      46.299  24.105  26.562  1.00  0.00     0.031 C 
ATOM     33  C   UNL A   1      49.114  29.451  27.179  1.00  0.00     0.029 A 
ATOM     34  C   UNL A   1      48.136  28.470  27.154  1.00  0.00     0.049 A 
ATOM     35  H   UNL A   1      46.071  28.639  27.555  1.00  0.00     0.167 HD
ATOM     36  C   UNL A   1      47.281  26.159  26.853  1.00  0.00     0.074 A 
ATOM     37  C   UNL A   1      47.455  24.752  26.548  1.00  0.00     0.031 C 
ATOM     38  C   UNL A   1      48.283  27.071  26.842  1.00  0.00     0.037 A 
BRANCH  25  39
ATOM     39  C   UNL A   1      46.559  32.806  28.381  1.00  0.00     0.058 A 
ATOM     40  C   UNL A   1      47.032  33.233  29.631  1.00  0.00     0.135 A 
ATOM     41  C   UNL A   1      46.548  33.741  27.332  1.00  0.00     0.135 A 
ATOM     42  F   UNL A   1      47.049  32.385  30.672  1.00  0.00    -0.206 F 
ATOM     43  C   UNL A   1      47.473  34.537  29.836  1.00  0.00     0.059 A 
ATOM     44  C   UNL A   1      47.004  35.045  27.510  1.00  0.00     0.059 A 
ATOM     45  F   UNL A   1      46.104  33.386  26.116  1.00  0.00    -0.206 F 
ATOM     46  C   UNL A   1      47.457  35.436  28.769  1.00  0.00     0.060 A 
BRANCH  46  47
ATOM     47  S   UNL A   1      48.061  37.116  29.043  1.00  0.00     0.124 S 
ATOM     48  O   UNL A   1      48.135  37.166  30.499  1.00  0.00    -0.237 OA
ATOM     49  O   UNL A   1      49.343  37.106  28.344  1.00  0.00    -0.237 OA
ATOM     50  O   UNL A   1      47.029  37.952  28.437  1.00  0.00    -0.744 OA
ENDBRANCH  46  47
ENDBRANCH  25  39
BRANCH  26  51
ATOM     51  C   UNL A   1      43.464  23.401  26.854  1.00  0.00     0.058 A 
ATOM     52  C   UNL A   1      43.359  22.884  25.555  1.00  0.00     0.135 A 
ATOM     53  C   UNL A   1      43.133  22.555  27.924  1.00  0.00     0.135 A 
ATOM     54  F   UNL A   1      43.664  23.654  24.499  1.00  0.00    -0.206 F 
ATOM     55  C   UNL A   1      42.922  21.584  25.324  1.00  0.00     0.059 A 
ATOM     56  C   UNL A   1      42.722  21.243  27.720  1.00  0.00     0.059 A 
ATOM     57  F   UNL A   1      43.237  22.996  29.188  1.00  0.00    -0.206 F 
ATOM     58  C   UNL A   1      42.604  20.771  26.413  1.00  0.00     0.060 A 
BRANCH  58  59
ATOM     59  S   UNL A   1      42.072  19.072  26.115  1.00  0.00     0.124 S 
ATOM     60  O   UNL A   1      40.651  19.256  25.840  1.00  0.00    -0.237 OA
ATOM     61  O   UNL A   1      42.898  18.682  24.976  1.00  0.00    -0.237 OA
ATOM     62  O   UNL A   1      42.392  18.398  27.369  1.00  0.00    -0.744 OA
ENDBRANCH  58  59
ENDBRANCH  26  51
BRANCH  38  63
ATOM     63  C   UNL A   1      49.650  26.560  26.489  1.00  0.00     0.058 A 
ATOM     64  C   UNL A   1      50.493  26.002  27.462  1.00  0.00     0.135 A 
ATOM     65  C   UNL A   1      50.121  26.631  25.169  1.00  0.00     0.135 A 
ATOM     66  F   UNL A   1      50.090  25.921  28.740  1.00  0.00    -0.206 F 
ATOM     67  C   UNL A   1      51.775  25.567  27.145  1.00  0.00     0.059 A 
ATOM     68  C   UNL A   1      51.391  26.178  24.826  1.00  0.00     0.059 A 
ATOM     69  F   UNL A   1      49.348  27.149  24.202  1.00  0.00    -0.206 F 
ATOM     70  C   UNL A   1      52.217  25.666  25.826  1.00  0.00     0.060 A 
BRANCH  70  71
ATOM     71  S   UNL A   1      53.884  25.101  25.425  1.00  0.00     0.124 S 
ATOM     72  O   UNL A   1      54.646  25.609  26.560  1.00  0.00    -0.237 OA
ATOM     73  O   UNL A   1      53.722  23.651  25.368  1.00  0.00    -0.237 OA
ATOM     74  O   UNL A   1      54.160  25.745  24.144  1.00  0.00    -0.744 OA
ENDBRANCH  70  71
ENDBRANCH  38  63
ENDBRANCH  12  13
ENDBRANCH   5   7
ENDBRANCH   2   3
ENDBRANCH   1   2
BRANCH   1  75
ATOM     75  C   UNL A   1      34.313  29.120  27.220  1.00  0.00     0.117 C 
BRANCH  75  76
ATOM     76  N   UNL A   1      33.133  28.546  27.813  1.00  0.00    -0.356 N 
ATOM     77  C   UNL A   1      31.912  28.212  27.306  1.00  0.00     0.223 C 
ATOM     78  H   UNL A   1      33.226  28.357  28.776  1.00  0.00     0.163 HD
ATOM     79  O   UNL A   1      31.094  27.779  28.118  1.00  0.00    -0.275 OA
BRANCH  77  80
ATOM     80  C   UNL A   1      31.495  28.226  25.880  1.00  0.00     0.091 C 
ATOM     81  C   UNL A   1      30.758  27.057  25.266  1.00  0.00     0.028 C 
ATOM     82  C   UNL A   1      31.987  27.609  24.605  1.00  0.00     0.092 C 
BRANCH  82  83
ATOM     83  C   UNL A   1      33.230  26.855  24.375  1.00  0.00     0.226 C 
ATOM     84  O   UNL A   1      34.177  27.403  23.820  1.00  0.00    -0.275 OA
ATOM     85  N   UNL A   1      33.087  25.476  24.469  1.00  0.00    -0.339 N 
ATOM     86  C   UNL A   1      33.570  24.788  25.675  1.00  0.00     0.141 C 
ATOM     87  C   UNL A   1      33.361  24.743  23.229  1.00  0.00     0.141 C 
ATOM     88  C   UNL A   1      33.155  23.303  25.753  1.00  0.00     0.139 C 
ATOM     89  C   UNL A   1      32.870  23.291  23.306  1.00  0.00     0.139 C 
ATOM     90  N   UNL A   1      33.470  22.652  24.484  1.00  0.00    -0.352 N 
BRANCH  90  91
ATOM     91  C   UNL A   1      33.610  21.278  24.459  1.00  0.00     0.147 A 
ATOM     92  N   UNL A   1      32.540  20.537  24.075  1.00  0.00    -0.237 NA
ATOM     93  C   UNL A   1      34.818  20.658  24.831  1.00  0.00     0.084 A 
ATOM     94  C   UNL A   1      32.679  19.190  24.016  1.00  0.00     0.126 A 
ATOM     95  C   UNL A   1      34.930  19.271  24.766  1.00  0.00     0.039 A 
ATOM     96  Cl  UNL A   1      36.171  21.543  25.445  1.00  0.00    -0.080 Cl
ATOM     97  C   UNL A   1      33.843  18.511  24.338  1.00  0.00     0.075 A 
BRANCH  97  98
ATOM     98  C   UNL A   1      33.902  17.022  24.218  1.00  0.00     0.417 C 
ATOM     99  F   UNL A   1      32.674  16.441  24.301  1.00  0.00    -0.166 F 
ATOM    100  F   UNL A   1      34.424  16.620  23.025  1.00  0.00    -0.166 F 
ATOM    101  F   UNL A   1      34.663  16.427  25.176  1.00  0.00    -0.166 F 
ENDBRANCH  97  98
ENDBRANCH  90  91
ENDBRANCH  82  83
ENDBRANCH  77  80
ENDBRANCH  75  76
ENDBRANCH   1  75
TORSDOF 16
ENDMDL
MODEL 3
REMARK VINA RESULT:     -13.3      5.943     10.512
REMARK SMILES O=C(NCCCNC(=O)[C@@H]1C[C@@H]1C(=O)N1CCN(c2ncc(C(F)(F)F)cc2Cl)CC1)c1ccc(-c2c3nc(c(-c4c(F)cc(S(=O)(=O)[O-])cc4F)c4ccc([nH]4)c(-c4c(F)cc(S(=O)(=O)[O-])cc4F)c4nc(c(-c5c(F)cc(S(=O)(=O)[O-])cc5F)c5ccc2[nH]5)C=C4)C=C3)cc1
REMARK SMILES IDX 5 1 4 2 3 3 1 4 2 5 32 7 33 8 97 9 34 10 96 11 35 12 36 13
REMARK SMILES IDX 37 14 90 15 38 16 95 17 89 18 91 19 39 20 94 21 88 22 87 23
REMARK SMILES IDX 40 25 74 26 53 27 73 28 54 29 57 30 72 31 92 32 55 33 56 34
REMARK SMILES IDX 71 36 93 37 58 38 41 39 42 40 51 41 43 42 44 43 50 44 52 45
REMARK SMILES IDX 45 46 46 47 47 48 48 49 49 50 75 51 76 52 85 53 77 54 78 55
REMARK SMILES IDX 84 56 86 57 79 58 80 59 81 60 82 61 83 62 59 63 60 64 69 65
REMARK SMILES IDX 61 66 62 67 68 68 70 69 63 70 64 71 65 72 66 73 67 74 6 75
REMARK SMILES IDX 7 76 8 77 9 79 10 80 11 81 12 82 13 83 14 84 15 85 16 86
REMARK SMILES IDX 31 87 17 88 30 89 18 90 19 91 20 92 28 93 21 94 27 95 29 96
REMARK SMILES IDX 22 97 23 98 24 99 25 100 26 101
REMARK H PARENT 3 6 91 24 57 35 7 78
REMARK Flexibility Score: inf
ROOT
ATOM      1  C   UNL A   1      33.491  27.731  26.727  1.00  0.00     0.042 C 
ENDROOT
BRANCH   1   2
ATOM      2  C   UNL A   1      34.218  28.929  26.152  1.00  0.00     0.118 C 
BRANCH   2   3
ATOM      3  N   UNL A   1      33.979  30.139  26.930  1.00  0.00    -0.352 N 
ATOM      4  O   UNL A   1      34.218  31.598  28.620  1.00  0.00    -0.269 OA
ATOM      5  C   UNL A   1      34.718  30.700  27.947  1.00  0.00     0.251 C 
ATOM      6  H   UNL A   1      33.161  30.633  26.691  1.00  0.00     0.163 HD
BRANCH   5   7
ATOM      7  C   UNL A   1      36.096  30.230  28.237  1.00  0.00     0.039 A 
ATOM      8  C   UNL A   1      37.109  30.354  27.288  1.00  0.00     0.014 A 
ATOM      9  C   UNL A   1      36.399  29.705  29.500  1.00  0.00     0.014 A 
ATOM     10  C   UNL A   1      38.362  29.808  27.529  1.00  0.00     0.010 A 
ATOM     11  C   UNL A   1      37.701  29.273  29.789  1.00  0.00     0.010 A 
ATOM     12  C   UNL A   1      38.690  29.304  28.797  1.00  0.00    -0.014 A 
BRANCH  12  13
ATOM     13  C   UNL A   1      40.107  28.939  29.058  1.00  0.00     0.031 A 
ATOM     14  C   UNL A   1      40.667  27.601  28.664  1.00  0.00     0.074 A 
ATOM     15  C   UNL A   1      40.909  29.883  29.594  1.00  0.00     0.049 A 
ATOM     16  N   UNL A   1      41.899  27.170  28.765  1.00  0.00    -0.248 NA
ATOM     17  C   UNL A   1      39.732  26.616  28.102  1.00  0.00     0.031 C 
ATOM     18  C   UNL A   1      40.463  31.209  30.042  1.00  0.00     0.029 A 
ATOM     19  N   UNL A   1      42.261  29.902  29.818  1.00  0.00    -0.354 N 
ATOM     20  C   UNL A   1      41.887  25.863  28.290  1.00  0.00     0.074 A 
ATOM     21  C   UNL A   1      40.520  25.562  27.924  1.00  0.00     0.031 C 
ATOM     22  C   UNL A   1      41.527  31.935  30.408  1.00  0.00     0.029 A 
ATOM     23  C   UNL A   1      42.721  31.108  30.295  1.00  0.00     0.049 A 
ATOM     24  H   UNL A   1      42.846  29.128  29.652  1.00  0.00     0.167 HD
ATOM     25  C   UNL A   1      42.927  25.003  28.166  1.00  0.00     0.037 A 
ATOM     26  C   UNL A   1      43.964  31.506  30.619  1.00  0.00     0.037 A 
ATOM     27  C   UNL A   1      44.289  25.322  28.518  1.00  0.00     0.049 A 
ATOM     28  C   UNL A   1      45.096  30.536  30.452  1.00  0.00     0.074 A 
ATOM     29  C   UNL A   1      45.415  24.520  28.426  1.00  0.00     0.029 A 
ATOM     30  N   UNL A   1      44.713  26.545  29.019  1.00  0.00    -0.354 N 
ATOM     31  N   UNL A   1      45.061  29.305  30.000  1.00  0.00    -0.248 NA
ATOM     32  C   UNL A   1      46.431  31.002  30.843  1.00  0.00     0.031 C 
ATOM     33  C   UNL A   1      46.513  25.248  28.899  1.00  0.00     0.029 A 
ATOM     34  C   UNL A   1      46.080  26.516  29.250  1.00  0.00     0.049 A 
ATOM     35  H   UNL A   1      44.129  27.320  29.187  1.00  0.00     0.167 HD
ATOM     36  C   UNL A   1      46.369  28.845  30.060  1.00  0.00     0.074 A 
ATOM     37  C   UNL A   1      47.176  29.945  30.553  1.00  0.00     0.031 C 
ATOM     38  C   UNL A   1      46.859  27.620  29.752  1.00  0.00     0.037 A 
BRANCH  25  39
ATOM     39  C   UNL A   1      42.643  23.625  27.631  1.00  0.00     0.058 A 
ATOM     40  C   UNL A   1      42.615  23.363  26.252  1.00  0.00     0.135 A 
ATOM     41  C   UNL A   1      42.464  22.541  28.506  1.00  0.00     0.135 A 
ATOM     42  F   UNL A   1      42.764  24.365  25.371  1.00  0.00    -0.206 F 
ATOM     43  C   UNL A   1      42.413  22.077  25.760  1.00  0.00     0.059 A 
ATOM     44  C   UNL A   1      42.281  21.243  28.035  1.00  0.00     0.059 A 
ATOM     45  F   UNL A   1      42.480  22.736  29.834  1.00  0.00    -0.206 F 
ATOM     46  C   UNL A   1      42.248  21.022  26.659  1.00  0.00     0.060 A 
BRANCH  46  47
ATOM     47  S   UNL A   1      42.018  19.355  26.005  1.00  0.00     0.124 S 
ATOM     48  O   UNL A   1      42.890  19.377  24.835  1.00  0.00    -0.237 OA
ATOM     49  O   UNL A   1      42.468  18.517  27.114  1.00  0.00    -0.237 OA
ATOM     50  O   UNL A   1      40.588  19.295  25.721  1.00  0.00    -0.744 OA
ENDBRANCH  46  47
ENDBRANCH  25  39
BRANCH  26  51
ATOM     51  C   UNL A   1      44.190  32.872  31.158  1.00  0.00     0.058 A 
ATOM     52  C   UNL A   1      44.137  33.131  32.536  1.00  0.00     0.135 A 
ATOM     53  C   UNL A   1      44.483  33.946  30.302  1.00  0.00     0.135 A 
ATOM     54  F   UNL A   1      43.859  32.138  33.395  1.00  0.00    -0.206 F 
ATOM     55  C   UNL A   1      44.343  34.410  33.044  1.00  0.00     0.059 A 
ATOM     56  C   UNL A   1      44.722  35.226  30.788  1.00  0.00     0.059 A 
ATOM     57  F   UNL A   1      44.568  33.746  28.977  1.00  0.00    -0.206 F 
ATOM     58  C   UNL A   1      44.633  35.451  32.161  1.00  0.00     0.060 A 
BRANCH  58  59
ATOM     59  S   UNL A   1      44.938  37.103  32.823  1.00  0.00     0.124 S 
ATOM     60  O   UNL A   1      43.696  37.361  33.543  1.00  0.00    -0.237 OA
ATOM     61  O   UNL A   1      46.124  36.895  33.649  1.00  0.00    -0.237 OA
ATOM     62  O   UNL A   1      45.154  37.907  31.624  1.00  0.00    -0.744 OA
ENDBRANCH  58  59
ENDBRANCH  26  51
BRANCH  38  63
ATOM     63  C   UNL A   1      48.334  27.420  29.943  1.00  0.00     0.058 A 
ATOM     64  C   UNL A   1      48.850  26.893  31.137  1.00  0.00     0.135 A 
ATOM     65  C   UNL A   1      49.239  27.760  28.926  1.00  0.00     0.135 A 
ATOM     66  F   UNL A   1      48.025  26.560  32.141  1.00  0.00    -0.206 F 
ATOM     67  C   UNL A   1      50.219  26.746  31.331  1.00  0.00     0.059 A 
ATOM     68  C   UNL A   1      50.611  27.598  29.091  1.00  0.00     0.059 A 
ATOM     69  F   UNL A   1      48.794  28.260  27.763  1.00  0.00    -0.206 F 
ATOM     70  C   UNL A   1      51.092  27.108  30.305  1.00  0.00     0.060 A 
BRANCH  70  71
ATOM     71  S   UNL A   1      52.867  26.917  30.567  1.00  0.00     0.124 S 
ATOM     72  O   UNL A   1      53.291  26.343  29.295  1.00  0.00    -0.237 OA
ATOM     73  O   UNL A   1      53.299  28.288  30.820  1.00  0.00    -0.237 OA
ATOM     74  O   UNL A   1      52.944  26.021  31.718  1.00  0.00    -0.744 OA
ENDBRANCH  70  71
ENDBRANCH  38  63
ENDBRANCH  12  13
ENDBRANCH   5   7
ENDBRANCH   2   3
ENDBRANCH   1   2
BRANCH   1  75
ATOM     75  C   UNL A   1      32.113  28.066  27.271  1.00  0.00     0.117 C 
BRANCH  75  76
ATOM     76  N   UNL A   1      31.191  26.974  27.098  1.00  0.00    -0.356 N 
ATOM     77  C   UNL A   1      30.447  26.553  26.035  1.00  0.00     0.223 C 
ATOM     78  H   UNL A   1      31.074  26.423  27.906  1.00  0.00     0.163 HD
ATOM     79  O   UNL A   1      29.706  25.591  26.247  1.00  0.00    -0.275 OA
BRANCH  77  80
ATOM     80  C   UNL A   1      30.499  27.060  24.641  1.00  0.00     0.091 C 
ATOM     81  C   UNL A   1      30.064  26.201  23.474  1.00  0.00     0.028 C 
ATOM     82  C   UNL A   1      31.404  26.878  23.458  1.00  0.00     0.092 C 
BRANCH  82  83
ATOM     83  C   UNL A   1      32.699  26.181  23.398  1.00  0.00     0.226 C 
ATOM     84  O   UNL A   1      33.653  26.724  22.850  1.00  0.00    -0.275 OA
ATOM     85  N   UNL A   1      32.623  24.815  23.635  1.00  0.00    -0.339 N 
ATOM     86  C   UNL A   1      33.052  24.290  24.939  1.00  0.00     0.141 C 
ATOM     87  C   UNL A   1      33.026  23.971  22.505  1.00  0.00     0.141 C 
ATOM     88  C   UNL A   1      32.712  22.800  25.154  1.00  0.00     0.139 C 
ATOM     89  C   UNL A   1      32.609  22.508  22.709  1.00  0.00     0.139 C 
ATOM     90  N   UNL A   1      33.153  22.037  23.989  1.00  0.00    -0.352 N 
BRANCH  90  91
ATOM     91  C   UNL A   1      33.368  20.679  24.126  1.00  0.00     0.147 A 
ATOM     92  N   UNL A   1      32.371  19.838  23.754  1.00  0.00    -0.237 NA
ATOM     93  C   UNL A   1      34.575  20.178  24.647  1.00  0.00     0.084 A 
ATOM     94  C   UNL A   1      32.585  18.503  23.854  1.00  0.00     0.126 A 
ATOM     95  C   UNL A   1      34.766  18.800  24.744  1.00  0.00     0.039 A 
ATOM     96  Cl  UNL A   1      35.829  21.204  25.252  1.00  0.00    -0.080 Cl
ATOM     97  C   UNL A   1      33.757  17.934  24.329  1.00  0.00     0.075 A 
BRANCH  97  98
ATOM     98  C   UNL A   1      33.904  16.447  24.380  1.00  0.00     0.417 C 
ATOM     99  F   UNL A   1      32.722  15.812  24.611  1.00  0.00    -0.166 F 
ATOM    100  F   UNL A   1      34.378  15.935  23.210  1.00  0.00    -0.166 F 
ATOM    101  F   UNL A   1      34.757  16.016  25.348  1.00  0.00    -0.166 F 
ENDBRANCH  97  98
ENDBRANCH  90  91
ENDBRANCH  82  83
ENDBRANCH  77  80
ENDBRANCH  75  76
ENDBRANCH   1  75
TORSDOF 16
ENDMDL
