MODEL 1
REMARK VINA RESULT:     -13.4      0.000      0.000
REMARK SMILES NS(=O)(=O)c1ccc(C(=O)N2CC[C@H](c3ccccc3C(=O)NCCCNC(=O)c3ccc(-c4c5nc(c(-c6c(F)cc(S(=O)(=O)[O-])cc6F)c6ccc([nH]6)c(-c6c(F)cc(S(=O)(=O)[O-])cc6F)c6nc(c(-c7c(F)cc(S(=O)(=O)[O-])cc7F)c7ccc4[nH]7)C=C6)C=C5)cc3)C2)cc1
REMARK SMILES IDX 24 1 23 2 21 3 22 4 20 6 15 7 16 8 17 9 19 10 18 11 14 12
REMARK SMILES IDX 11 13 12 14 96 15 13 16 9 17 10 18 8 19 5 20 6 21 98 22 7 23
REMARK SMILES IDX 97 24 2 25 3 26 4 27 1 28 25 31 26 32 27 33 28 34 29 36
REMARK SMILES IDX 30 37 31 38 95 39 32 40 94 41 33 42 34 43 35 44 88 45 36 46
REMARK SMILES IDX 93 47 87 48 89 49 37 50 92 51 86 52 85 53 38 55 72 56 51 57
REMARK SMILES IDX 71 58 52 59 55 60 70 61 90 62 53 63 54 64 69 66 91 67 56 68
REMARK SMILES IDX 39 69 40 70 49 71 41 72 42 73 48 74 50 75 43 76 44 77 45 78
REMARK SMILES IDX 46 79 47 80 73 81 74 82 83 83 75 84 76 85 82 86 84 87 77 88
REMARK SMILES IDX 78 89 79 90 80 91 81 92 57 93 58 94 67 95 59 96 60 97 66 98
REMARK SMILES IDX 68 99 61 100 62 101 63 102 64 103 65 104
REMARK H PARENT 23 5 1 29 1 30 27 35 89 54 55 65
REMARK Flexibility Score: inf
ROOT
ATOM      1  C   UNL A   1      36.817  23.715  26.267  1.00  0.00     0.118 C 
ENDROOT
BRANCH   1   2
ATOM      2  N   UNL A   1      36.575  22.293  26.137  1.00  0.00    -0.352 N 
ATOM      3  C   UNL A   1      36.311  21.683  24.935  1.00  0.00     0.251 C 
ATOM      4  O   UNL A   1      37.246  21.211  24.290  1.00  0.00    -0.269 OA
ATOM      5  H   UNL A   1      36.602  21.736  26.949  1.00  0.00     0.163 HD
BRANCH   3   6
ATOM      6  C   UNL A   1      34.900  21.301  24.598  1.00  0.00     0.043 A 
ATOM      7  C   UNL A   1      33.869  22.123  24.070  1.00  0.00    -0.030 A 
ATOM      8  C   UNL A   1      32.626  21.513  23.796  1.00  0.00     0.005 A 
ATOM      9  C   UNL A   1      32.409  20.148  23.998  1.00  0.00     0.000 A 
ATOM     10  C   UNL A   1      34.653  19.925  24.804  1.00  0.00     0.014 A 
ATOM     11  C   UNL A   1      33.422  19.351  24.501  1.00  0.00     0.001 A 
BRANCH   7  12
ATOM     12  C   UNL A   1      34.064  23.584  23.736  1.00  0.00     0.041 C 
ATOM     13  N   UNL A   1      33.311  25.837  24.061  1.00  0.00    -0.338 N 
ATOM     14  C   UNL A   1      33.350  25.555  22.641  1.00  0.00     0.120 C 
ATOM     15  C   UNL A   1      33.878  24.709  24.803  1.00  0.00     0.128 C 
ATOM     16  C   UNL A   1      33.089  24.057  22.640  1.00  0.00     0.032 C 
BRANCH  13  17
ATOM     17  C   UNL A   1      32.569  26.787  24.746  1.00  0.00     0.253 C 
ATOM     18  O   UNL A   1      32.719  26.970  25.953  1.00  0.00    -0.269 OA
BRANCH  17  19
ATOM     19  C   UNL A   1      31.425  27.478  24.067  1.00  0.00     0.040 A 
ATOM     20  C   UNL A   1      29.160  28.882  23.172  1.00  0.00     0.082 A 
ATOM     21  C   UNL A   1      30.353  29.569  23.420  1.00  0.00     0.022 A 
ATOM     22  C   UNL A   1      29.092  27.507  23.354  1.00  0.00     0.022 A 
ATOM     23  C   UNL A   1      31.485  28.864  23.858  1.00  0.00     0.015 A 
ATOM     24  C   UNL A   1      30.207  26.828  23.832  1.00  0.00     0.015 A 
BRANCH  20  25
ATOM     25  S   UNL A   1      27.709  29.781  22.719  1.00  0.00     0.238 S 
ATOM     26  O   UNL A   1      27.763  30.071  21.311  1.00  0.00    -0.207 OA
ATOM     27  O   UNL A   1      27.464  30.791  23.728  1.00  0.00    -0.207 OA
BRANCH  25  28
ATOM     28  N   UNL A   1      26.456  28.669  22.904  1.00  0.00    -0.225 NA
ATOM     29  H   UNL A   1      25.587  29.076  22.562  1.00  0.00     0.137 HD
ATOM     30  H   UNL A   1      26.356  28.431  23.891  1.00  0.00     0.137 HD
ENDBRANCH  25  28
ENDBRANCH  20  25
ENDBRANCH  17  19
ENDBRANCH  13  17
ENDBRANCH   7  12
ENDBRANCH   3   6
ENDBRANCH   1   2
BRANCH   1  31
ATOM     31  C   UNL A   1      38.228  24.076  25.849  1.00  0.00     0.042 C 
BRANCH  31  32
ATOM     32  C   UNL A   1      39.249  23.597  26.857  1.00  0.00     0.118 C 
BRANCH  32  33
ATOM     33  N   UNL A   1      40.633  23.715  26.414  1.00  0.00    -0.352 N 
ATOM     34  C   UNL A   1      41.541  24.714  26.693  1.00  0.00     0.251 C 
ATOM     35  H   UNL A   1      40.962  22.986  25.841  1.00  0.00     0.163 HD
ATOM     36  O   UNL A   1      42.658  24.683  26.187  1.00  0.00    -0.269 OA
BRANCH  34  37
ATOM     37  C   UNL A   1      41.130  25.841  27.559  1.00  0.00     0.039 A 
ATOM     38  C   UNL A   1      40.160  25.626  28.540  1.00  0.00     0.014 A 
ATOM     39  C   UNL A   1      41.775  27.076  27.468  1.00  0.00     0.014 A 
ATOM     40  C   UNL A   1      39.923  26.615  29.498  1.00  0.00     0.010 A 
ATOM     41  C   UNL A   1      41.635  27.998  28.493  1.00  0.00     0.010 A 
ATOM     42  C   UNL A   1      40.709  27.779  29.521  1.00  0.00    -0.014 A 
BRANCH  42  43
ATOM     43  C   UNL A   1      40.597  28.781  30.611  1.00  0.00     0.031 A 
ATOM     44  C   UNL A   1      41.461  28.649  31.837  1.00  0.00     0.074 A 
ATOM     45  C   UNL A   1      39.651  29.740  30.541  1.00  0.00     0.049 A 
ATOM     46  N   UNL A   1      41.433  29.342  32.945  1.00  0.00    -0.248 NA
ATOM     47  C   UNL A   1      42.461  27.567  31.834  1.00  0.00     0.031 C 
ATOM     48  C   UNL A   1      38.708  29.923  29.434  1.00  0.00     0.029 A 
ATOM     49  N   UNL A   1      39.315  30.735  31.423  1.00  0.00    -0.354 N 
ATOM     50  C   UNL A   1      42.390  28.768  33.773  1.00  0.00     0.074 A 
ATOM     51  C   UNL A   1      42.932  27.627  33.070  1.00  0.00     0.031 C 
ATOM     52  C   UNL A   1      37.925  30.982  29.689  1.00  0.00     0.029 A 
ATOM     53  C   UNL A   1      38.273  31.526  30.997  1.00  0.00     0.049 A 
ATOM     54  H   UNL A   1      39.777  30.870  32.283  1.00  0.00     0.167 HD
ATOM     55  C   UNL A   1      42.802  29.173  34.997  1.00  0.00     0.037 A 
ATOM     56  C   UNL A   1      37.660  32.563  31.599  1.00  0.00     0.037 A 
ATOM     57  C   UNL A   1      42.281  30.333  35.670  1.00  0.00     0.049 A 
ATOM     58  C   UNL A   1      38.139  32.999  32.956  1.00  0.00     0.074 A 
ATOM     59  C   UNL A   1      42.680  30.879  36.876  1.00  0.00     0.029 A 
ATOM     60  N   UNL A   1      41.245  31.124  35.194  1.00  0.00    -0.354 N 
ATOM     61  N   UNL A   1      39.100  32.492  33.692  1.00  0.00    -0.248 NA
ATOM     62  C   UNL A   1      37.454  34.146  33.567  1.00  0.00     0.031 C 
ATOM     63  C   UNL A   1      41.851  31.970  37.155  1.00  0.00     0.029 A 
ATOM     64  C   UNL A   1      40.971  32.137  36.096  1.00  0.00     0.049 A 
ATOM     65  H   UNL A   1      40.775  30.985  34.340  1.00  0.00     0.167 HD
ATOM     66  C   UNL A   1      39.147  33.269  34.844  1.00  0.00     0.074 A 
ATOM     67  C   UNL A   1      38.133  34.292  34.697  1.00  0.00     0.031 C 
ATOM     68  C   UNL A   1      39.952  33.144  35.929  1.00  0.00     0.037 A 
BRANCH  55  69
ATOM     69  C   UNL A   1      43.875  28.366  35.676  1.00  0.00     0.058 A 
ATOM     70  C   UNL A   1      43.563  27.327  36.570  1.00  0.00     0.135 A 
ATOM     71  C   UNL A   1      45.232  28.614  35.413  1.00  0.00     0.135 A 
ATOM     72  F   UNL A   1      42.284  27.057  36.874  1.00  0.00    -0.206 F 
ATOM     73  C   UNL A   1      44.557  26.585  37.199  1.00  0.00     0.059 A 
ATOM     74  C   UNL A   1      46.242  27.864  36.007  1.00  0.00     0.059 A 
ATOM     75  F   UNL A   1      45.588  29.597  34.572  1.00  0.00    -0.206 F 
ATOM     76  C   UNL A   1      45.894  26.860  36.910  1.00  0.00     0.060 A 
BRANCH  76  77
ATOM     77  S   UNL A   1      47.169  25.880  37.730  1.00  0.00     0.124 S 
ATOM     78  O   UNL A   1      48.373  26.331  37.038  1.00  0.00    -0.237 OA
ATOM     79  O   UNL A   1      47.041  26.304  39.120  1.00  0.00    -0.237 OA
ATOM     80  O   UNL A   1      46.769  24.504  37.457  1.00  0.00    -0.744 OA
ENDBRANCH  76  77
ENDBRANCH  55  69
BRANCH  56  81
ATOM     81  C   UNL A   1      36.543  33.270  30.914  1.00  0.00     0.058 A 
ATOM     82  C   UNL A   1      35.221  33.136  31.364  1.00  0.00     0.135 A 
ATOM     83  C   UNL A   1      36.773  34.105  29.808  1.00  0.00     0.135 A 
ATOM     84  F   UNL A   1      34.948  32.346  32.414  1.00  0.00    -0.206 F 
ATOM     85  C   UNL A   1      34.165  33.787  30.735  1.00  0.00     0.059 A 
ATOM     86  C   UNL A   1      35.737  34.788  29.179  1.00  0.00     0.059 A 
ATOM     87  F   UNL A   1      38.021  34.282  29.348  1.00  0.00    -0.206 F 
ATOM     88  C   UNL A   1      34.435  34.614  29.643  1.00  0.00     0.060 A 
BRANCH  88  89
ATOM     89  S   UNL A   1      33.061  35.486  28.859  1.00  0.00     0.124 S 
ATOM     90  O   UNL A   1      32.460  34.428  28.056  1.00  0.00    -0.237 OA
ATOM     91  O   UNL A   1      32.284  35.933  30.012  1.00  0.00    -0.237 OA
ATOM     92  O   UNL A   1      33.723  36.550  28.109  1.00  0.00    -0.744 OA
ENDBRANCH  88  89
ENDBRANCH  56  81
BRANCH  68  93
ATOM     93  C   UNL A   1      39.779  34.148  37.034  1.00  0.00     0.058 A 
ATOM     94  C   UNL A   1      38.956  33.885  38.141  1.00  0.00     0.135 A 
ATOM     95  C   UNL A   1      40.488  35.359  37.015  1.00  0.00     0.135 A 
ATOM     96  F   UNL A   1      38.251  32.744  38.203  1.00  0.00    -0.206 F 
ATOM     97  C   UNL A   1      38.826  34.799  39.180  1.00  0.00     0.059 A 
ATOM     98  C   UNL A   1      40.397  36.275  38.058  1.00  0.00     0.059 A 
ATOM     99  F   UNL A   1      41.296  35.654  35.984  1.00  0.00    -0.206 F 
ATOM    100  C   UNL A   1      39.554  35.990  39.132  1.00  0.00     0.060 A 
BRANCH 100 101
ATOM    101  S   UNL A   1      39.405  37.148  40.507  1.00  0.00     0.124 S 
ATOM    102  O   UNL A   1      38.671  36.352  41.485  1.00  0.00    -0.237 OA
ATOM    103  O   UNL A   1      40.799  37.426  40.833  1.00  0.00    -0.237 OA
ATOM    104  O   UNL A   1      38.667  38.268  39.929  1.00  0.00    -0.744 OA
ENDBRANCH 100 101
ENDBRANCH  68  93
ENDBRANCH  42  43
ENDBRANCH  34  37
ENDBRANCH  32  33
ENDBRANCH  31  32
ENDBRANCH   1  31
TORSDOF 18
ENDMDL
MODEL 2
REMARK VINA RESULT:     -12.9      6.593     12.241
REMARK SMILES NS(=O)(=O)c1ccc(C(=O)N2CC[C@H](c3ccccc3C(=O)NCCCNC(=O)c3ccc(-c4c5nc(c(-c6c(F)cc(S(=O)(=O)[O-])cc6F)c6ccc([nH]6)c(-c6c(F)cc(S(=O)(=O)[O-])cc6F)c6nc(c(-c7c(F)cc(S(=O)(=O)[O-])cc7F)c7ccc4[nH]7)C=C6)C=C5)cc3)C2)cc1
REMARK SMILES IDX 24 1 23 2 21 3 22 4 20 6 15 7 16 8 17 9 19 10 18 11 14 12
REMARK SMILES IDX 11 13 12 14 96 15 13 16 9 17 10 18 8 19 5 20 6 21 98 22 7 23
REMARK SMILES IDX 97 24 2 25 3 26 4 27 1 28 25 31 26 32 27 33 28 34 29 36
REMARK SMILES IDX 30 37 31 38 95 39 32 40 94 41 33 42 34 43 35 44 88 45 36 46
REMARK SMILES IDX 93 47 87 48 89 49 37 50 92 51 86 52 85 53 38 55 72 56 51 57
REMARK SMILES IDX 71 58 52 59 55 60 70 61 90 62 53 63 54 64 69 66 91 67 56 68
REMARK SMILES IDX 39 69 40 70 49 71 41 72 42 73 48 74 50 75 43 76 44 77 45 78
REMARK SMILES IDX 46 79 47 80 73 81 74 82 83 83 75 84 76 85 82 86 84 87 77 88
REMARK SMILES IDX 78 89 79 90 80 91 81 92 57 93 58 94 67 95 59 96 60 97 66 98
REMARK SMILES IDX 68 99 61 100 62 101 63 102 64 103 65 104
REMARK H PARENT 23 5 1 29 1 30 27 35 89 54 55 65
REMARK Flexibility Score: inf
ROOT
ATOM      1  C   UNL A   1      33.548  29.522  26.200  1.00  0.00     0.118 C 
ENDROOT
BRANCH   1   2
ATOM      2  N   UNL A   1      32.169  29.085  26.288  1.00  0.00    -0.352 N 
ATOM      3  C   UNL A   1      31.808  27.810  26.646  1.00  0.00     0.251 C 
ATOM      4  O   UNL A   1      31.576  27.568  27.830  1.00  0.00    -0.269 OA
ATOM      5  H   UNL A   1      31.457  29.734  26.082  1.00  0.00     0.163 HD
BRANCH   3   6
ATOM      6  C   UNL A   1      31.373  26.843  25.584  1.00  0.00     0.043 A 
ATOM      7  C   UNL A   1      31.861  25.532  25.337  1.00  0.00    -0.030 A 
ATOM      8  C   UNL A   1      31.254  24.798  24.295  1.00  0.00     0.005 A 
ATOM      9  C   UNL A   1      30.192  25.310  23.547  1.00  0.00     0.000 A 
ATOM     10  C   UNL A   1      30.304  27.344  24.807  1.00  0.00     0.014 A 
ATOM     11  C   UNL A   1      29.714  26.584  23.803  1.00  0.00     0.001 A 
BRANCH   7  12
ATOM     12  C   UNL A   1      32.941  24.879  26.169  1.00  0.00     0.041 C 
ATOM     13  N   UNL A   1      34.688  23.241  26.265  1.00  0.00    -0.338 N 
ATOM     14  C   UNL A   1      33.770  23.013  27.362  1.00  0.00     0.120 C 
ATOM     15  C   UNL A   1      34.321  24.472  25.563  1.00  0.00     0.128 C 
ATOM     16  C   UNL A   1      32.474  23.536  26.762  1.00  0.00     0.032 C 
BRANCH  13  17
ATOM     17  C   UNL A   1      35.562  22.354  25.655  1.00  0.00     0.253 C 
ATOM     18  O   UNL A   1      36.753  22.627  25.505  1.00  0.00    -0.269 OA
BRANCH  17  19
ATOM     19  C   UNL A   1      35.035  21.120  24.987  1.00  0.00     0.040 A 
ATOM     20  C   UNL A   1      33.848  18.735  24.089  1.00  0.00     0.082 A 
ATOM     21  C   UNL A   1      33.144  19.941  24.003  1.00  0.00     0.022 A 
ATOM     22  C   UNL A   1      35.138  18.713  24.605  1.00  0.00     0.022 A 
ATOM     23  C   UNL A   1      33.742  21.131  24.444  1.00  0.00     0.015 A 
ATOM     24  C   UNL A   1      35.701  19.892  25.080  1.00  0.00     0.015 A 
BRANCH  20  25
ATOM     25  S   UNL A   1      33.060  17.224  23.629  1.00  0.00     0.238 S 
ATOM     26  O   UNL A   1      34.008  16.149  23.748  1.00  0.00    -0.207 OA
ATOM     27  O   UNL A   1      32.277  17.463  22.434  1.00  0.00    -0.207 OA
BRANCH  25  28
ATOM     28  N   UNL A   1      31.923  16.961  24.846  1.00  0.00    -0.225 NA
ATOM     29  H   UNL A   1      31.895  17.770  25.465  1.00  0.00     0.137 HD
ATOM     30  H   UNL A   1      32.183  16.132  25.381  1.00  0.00     0.137 HD
ENDBRANCH  25  28
ENDBRANCH  20  25
ENDBRANCH  17  19
ENDBRANCH  13  17
ENDBRANCH   7  12
ENDBRANCH   3   6
ENDBRANCH   1   2
BRANCH   1  31
ATOM     31  C   UNL A   1      33.873  30.543  27.272  1.00  0.00     0.042 C 
BRANCH  31  32
ATOM     32  C   UNL A   1      35.198  30.250  27.940  1.00  0.00     0.118 C 
BRANCH  32  33
ATOM     33  N   UNL A   1      35.328  30.797  29.285  1.00  0.00    -0.352 N 
ATOM     34  C   UNL A   1      36.399  30.707  30.148  1.00  0.00     0.251 C 
ATOM     35  H   UNL A   1      34.549  31.297  29.620  1.00  0.00     0.163 HD
ATOM     36  O   UNL A   1      36.317  31.183  31.275  1.00  0.00    -0.269 OA
BRANCH  34  37
ATOM     37  C   UNL A   1      37.615  29.982  29.716  1.00  0.00     0.039 A 
ATOM     38  C   UNL A   1      38.027  30.080  28.385  1.00  0.00     0.014 A 
ATOM     39  C   UNL A   1      38.399  29.295  30.644  1.00  0.00     0.014 A 
ATOM     40  C   UNL A   1      39.280  29.585  28.017  1.00  0.00     0.010 A 
ATOM     41  C   UNL A   1      39.692  28.927  30.309  1.00  0.00     0.010 A 
ATOM     42  C   UNL A   1      40.149  29.067  28.992  1.00  0.00    -0.014 A 
BRANCH  42  43
ATOM     43  C   UNL A   1      41.545  28.676  28.673  1.00  0.00     0.031 A 
ATOM     44  C   UNL A   1      42.625  29.724  28.639  1.00  0.00     0.074 A 
ATOM     45  C   UNL A   1      41.815  27.403  28.314  1.00  0.00     0.049 A 
ATOM     46  N   UNL A   1      43.873  29.612  28.267  1.00  0.00    -0.248 NA
ATOM     47  C   UNL A   1      42.240  31.090  29.035  1.00  0.00     0.031 C 
ATOM     48  C   UNL A   1      40.836  26.315  28.241  1.00  0.00     0.029 A 
ATOM     49  N   UNL A   1      42.991  26.810  27.929  1.00  0.00    -0.354 N 
ATOM     50  C   UNL A   1      44.411  30.890  28.363  1.00  0.00     0.074 A 
ATOM     51  C   UNL A   1      43.339  31.774  28.760  1.00  0.00     0.031 C 
ATOM     52  C   UNL A   1      41.456  25.185  27.869  1.00  0.00     0.029 A 
ATOM     53  C   UNL A   1      42.865  25.474  27.628  1.00  0.00     0.049 A 
ATOM     54  H   UNL A   1      43.845  27.297  27.873  1.00  0.00     0.167 HD
ATOM     55  C   UNL A   1      45.691  31.285  28.168  1.00  0.00     0.037 A 
ATOM     56  C   UNL A   1      43.780  24.585  27.196  1.00  0.00     0.037 A 
ATOM     57  C   UNL A   1      46.756  30.387  27.810  1.00  0.00     0.049 A 
ATOM     58  C   UNL A   1      45.197  25.047  26.991  1.00  0.00     0.074 A 
ATOM     59  C   UNL A   1      48.103  30.666  27.663  1.00  0.00     0.029 A 
ATOM     60  N   UNL A   1      46.595  29.036  27.540  1.00  0.00    -0.354 N 
ATOM     61  N   UNL A   1      45.706  26.244  27.164  1.00  0.00    -0.248 NA
ATOM     62  C   UNL A   1      46.165  24.040  26.536  1.00  0.00     0.031 C 
ATOM     63  C   UNL A   1      48.748  29.495  27.255  1.00  0.00     0.029 A 
ATOM     64  C   UNL A   1      47.813  28.473  27.200  1.00  0.00     0.049 A 
ATOM     65  H   UNL A   1      45.740  28.549  27.585  1.00  0.00     0.167 HD
ATOM     66  C   UNL A   1      47.057  26.131  26.855  1.00  0.00     0.074 A 
ATOM     67  C   UNL A   1      47.289  24.744  26.507  1.00  0.00     0.031 C 
ATOM     68  C   UNL A   1      48.018  27.088  26.854  1.00  0.00     0.037 A 
BRANCH  55  69
ATOM     69  C   UNL A   1      46.008  32.745  28.353  1.00  0.00     0.058 A 
ATOM     70  C   UNL A   1      45.950  33.654  27.282  1.00  0.00     0.135 A 
ATOM     71  C   UNL A   1      46.348  33.248  29.618  1.00  0.00     0.135 A 
ATOM     72  F   UNL A   1      45.648  33.225  26.046  1.00  0.00    -0.206 F 
ATOM     73  C   UNL A   1      46.247  35.001  27.455  1.00  0.00     0.059 A 
ATOM     74  C   UNL A   1      46.619  34.598  29.820  1.00  0.00     0.059 A 
ATOM     75  F   UNL A   1      46.424  32.425  30.676  1.00  0.00    -0.206 F 
ATOM     76  C   UNL A   1      46.579  35.465  28.728  1.00  0.00     0.060 A 
BRANCH  76  77
ATOM     77  S   UNL A   1      46.952  37.219  28.933  1.00  0.00     0.124 S 
ATOM     78  O   UNL A   1      47.782  37.201  30.134  1.00  0.00    -0.237 OA
ATOM     79  O   UNL A   1      47.645  37.537  27.689  1.00  0.00    -0.237 OA
ATOM     80  O   UNL A   1      45.637  37.831  29.090  1.00  0.00    -0.744 OA
ENDBRANCH  76  77
ENDBRANCH  55  69
BRANCH  56  81
ATOM     81  C   UNL A   1      43.388  23.171  26.945  1.00  0.00     0.058 A 
ATOM     82  C   UNL A   1      43.290  22.670  25.638  1.00  0.00     0.135 A 
ATOM     83  C   UNL A   1      43.120  22.288  28.003  1.00  0.00     0.135 A 
ATOM     84  F   UNL A   1      43.532  23.476  24.593  1.00  0.00    -0.206 F 
ATOM     85  C   UNL A   1      42.923  21.352  25.386  1.00  0.00     0.059 A 
ATOM     86  C   UNL A   1      42.777  20.958  27.777  1.00  0.00     0.059 A 
ATOM     87  F   UNL A   1      43.216  22.710  29.273  1.00  0.00    -0.206 F 
ATOM     88  C   UNL A   1      42.670  20.503  26.464  1.00  0.00     0.060 A 
BRANCH  88  89
ATOM     89  S   UNL A   1      42.234  18.783  26.126  1.00  0.00     0.124 S 
ATOM     90  O   UNL A   1      42.401  18.173  27.439  1.00  0.00    -0.237 OA
ATOM     91  O   UNL A   1      40.860  18.904  25.648  1.00  0.00    -0.237 OA
ATOM     92  O   UNL A   1      43.209  18.382  25.114  1.00  0.00    -0.744 OA
ENDBRANCH  88  89
ENDBRANCH  56  81
BRANCH  68  93
ATOM     93  C   UNL A   1      49.411  26.665  26.479  1.00  0.00     0.058 A 
ATOM     94  C   UNL A   1      50.258  26.030  27.401  1.00  0.00     0.135 A 
ATOM     95  C   UNL A   1      49.882  26.843  25.168  1.00  0.00     0.135 A 
ATOM     96  F   UNL A   1      49.857  25.843  28.669  1.00  0.00    -0.206 F 
ATOM     97  C   UNL A   1      51.532  25.606  27.042  1.00  0.00     0.059 A 
ATOM     98  C   UNL A   1      51.142  26.399  24.779  1.00  0.00     0.059 A 
ATOM     99  F   UNL A   1      49.108  27.435  24.245  1.00  0.00    -0.206 F 
ATOM    100  C   UNL A   1      51.964  25.791  25.727  1.00  0.00     0.060 A 
BRANCH 100 101
ATOM    101  S   UNL A   1      53.605  25.199  25.267  1.00  0.00     0.124 S 
ATOM    102  O   UNL A   1      53.698  25.636  23.879  1.00  0.00    -0.237 OA
ATOM    103  O   UNL A   1      54.465  25.902  26.213  1.00  0.00    -0.237 OA
ATOM    104  O   UNL A   1      53.514  23.755  25.466  1.00  0.00    -0.744 OA
ENDBRANCH 100 101
ENDBRANCH  68  93
ENDBRANCH  42  43
ENDBRANCH  34  37
ENDBRANCH  32  33
ENDBRANCH  31  32
ENDBRANCH   1  31
TORSDOF 18
ENDMDL
MODEL 3
REMARK VINA RESULT:     -12.8      2.840      9.252
REMARK SMILES NS(=O)(=O)c1ccc(C(=O)N2CC[C@H](c3ccccc3C(=O)NCCCNC(=O)c3ccc(-c4c5nc(c(-c6c(F)cc(S(=O)(=O)[O-])cc6F)c6ccc([nH]6)c(-c6c(F)cc(S(=O)(=O)[O-])cc6F)c6nc(c(-c7c(F)cc(S(=O)(=O)[O-])cc7F)c7ccc4[nH]7)C=C6)C=C5)cc3)C2)cc1
REMARK SMILES IDX 24 1 23 2 21 3 22 4 20 6 15 7 16 8 17 9 19 10 18 11 14 12
REMARK SMILES IDX 11 13 12 14 96 15 13 16 9 17 10 18 8 19 5 20 6 21 98 22 7 23
REMARK SMILES IDX 97 24 2 25 3 26 4 27 1 28 25 31 26 32 27 33 28 34 29 36
REMARK SMILES IDX 30 37 31 38 95 39 32 40 94 41 33 42 34 43 35 44 88 45 36 46
REMARK SMILES IDX 93 47 87 48 89 49 37 50 92 51 86 52 85 53 38 55 72 56 51 57
REMARK SMILES IDX 71 58 52 59 55 60 70 61 90 62 53 63 54 64 69 66 91 67 56 68
REMARK SMILES IDX 39 69 40 70 49 71 41 72 42 73 48 74 50 75 43 76 44 77 45 78
REMARK SMILES IDX 46 79 47 80 73 81 74 82 83 83 75 84 76 85 82 86 84 87 77 88
REMARK SMILES IDX 78 89 79 90 80 91 81 92 57 93 58 94 67 95 59 96 60 97 66 98
REMARK SMILES IDX 68 99 61 100 62 101 63 102 64 103 65 104
REMARK H PARENT 23 5 1 29 1 30 27 35 89 54 55 65
REMARK Flexibility Score: inf
ROOT
ATOM      1  C   UNL A   1      32.158  30.057  27.268  1.00  0.00     0.118 C 
ENDROOT
BRANCH   1   2
ATOM      2  N   UNL A   1      32.227  29.020  26.259  1.00  0.00    -0.352 N 
ATOM      3  C   UNL A   1      32.163  29.279  24.912  1.00  0.00     0.251 C 
ATOM      4  O   UNL A   1      33.211  29.445  24.289  1.00  0.00    -0.269 OA
ATOM      5  H   UNL A   1      32.325  28.085  26.552  1.00  0.00     0.163 HD
BRANCH   3   6
ATOM      6  C   UNL A   1      30.884  29.019  24.172  1.00  0.00     0.043 A 
ATOM      7  C   UNL A   1      30.269  27.770  23.892  1.00  0.00    -0.030 A 
ATOM      8  C   UNL A   1      29.034  27.792  23.209  1.00  0.00     0.005 A 
ATOM      9  C   UNL A   1      28.409  28.986  22.845  1.00  0.00     0.000 A 
ATOM     10  C   UNL A   1      30.237  30.214  23.785  1.00  0.00     0.014 A 
ATOM     11  C   UNL A   1      29.008  30.200  23.133  1.00  0.00     0.001 A 
BRANCH   7  12
ATOM     12  C   UNL A   1      30.842  26.445  24.341  1.00  0.00     0.041 C 
ATOM     13  N   UNL A   1      31.971  24.427  23.709  1.00  0.00    -0.338 N 
ATOM     14  C   UNL A   1      30.750  24.083  24.407  1.00  0.00     0.120 C 
ATOM     15  C   UNL A   1      32.173  25.876  23.754  1.00  0.00     0.128 C 
ATOM     16  C   UNL A   1      29.876  25.278  24.060  1.00  0.00     0.032 C 
BRANCH  13  17
ATOM     17  C   UNL A   1      32.707  23.673  22.807  1.00  0.00     0.253 C 
ATOM     18  O   UNL A   1      33.052  24.132  21.719  1.00  0.00    -0.269 OA
BRANCH  17  19
ATOM     19  C   UNL A   1      32.933  22.213  23.058  1.00  0.00     0.040 A 
ATOM     20  C   UNL A   1      33.023  19.494  23.768  1.00  0.00     0.082 A 
ATOM     21  C   UNL A   1      32.216  19.911  22.704  1.00  0.00     0.022 A 
ATOM     22  C   UNL A   1      33.791  20.416  24.468  1.00  0.00     0.022 A 
ATOM     23  C   UNL A   1      32.180  21.268  22.346  1.00  0.00     0.015 A 
ATOM     24  C   UNL A   1      33.711  21.763  24.132  1.00  0.00     0.015 A 
BRANCH  20  25
ATOM     25  S   UNL A   1      32.992  17.805  24.283  1.00  0.00     0.238 S 
ATOM     26  O   UNL A   1      32.913  16.966  23.117  1.00  0.00    -0.207 OA
ATOM     27  O   UNL A   1      32.088  17.688  25.408  1.00  0.00    -0.207 OA
BRANCH  25  28
ATOM     28  N   UNL A   1      34.526  17.539  24.929  1.00  0.00    -0.225 NA
ATOM     29  H   UNL A   1      35.231  17.916  24.297  1.00  0.00     0.137 HD
ATOM     30  H   UNL A   1      34.676  16.538  25.047  1.00  0.00     0.137 HD
ENDBRANCH  25  28
ENDBRANCH  20  25
ENDBRANCH  17  19
ENDBRANCH  13  17
ENDBRANCH   7  12
ENDBRANCH   3   6
ENDBRANCH   1   2
BRANCH   1  31
ATOM     31  C   UNL A   1      32.384  31.429  26.667  1.00  0.00     0.042 C 
BRANCH  31  32
ATOM     32  C   UNL A   1      33.283  32.280  27.536  1.00  0.00     0.118 C 
BRANCH  32  33
ATOM     33  N   UNL A   1      32.815  33.647  27.731  1.00  0.00    -0.352 N 
ATOM     34  C   UNL A   1      33.267  34.589  28.630  1.00  0.00     0.251 C 
ATOM     35  H   UNL A   1      32.079  33.934  27.143  1.00  0.00     0.163 HD
ATOM     36  O   UNL A   1      32.716  35.683  28.697  1.00  0.00    -0.269 OA
BRANCH  34  37
ATOM     37  C   UNL A   1      34.380  34.241  29.541  1.00  0.00     0.039 A 
ATOM     38  C   UNL A   1      34.090  33.652  30.773  1.00  0.00     0.014 A 
ATOM     39  C   UNL A   1      35.706  34.404  29.135  1.00  0.00     0.014 A 
ATOM     40  C   UNL A   1      35.130  33.123  31.541  1.00  0.00     0.010 A 
ATOM     41  C   UNL A   1      36.718  33.764  29.832  1.00  0.00     0.010 A 
ATOM     42  C   UNL A   1      36.444  33.115  31.043  1.00  0.00    -0.014 A 
BRANCH  42  43
ATOM     43  C   UNL A   1      37.550  32.427  31.754  1.00  0.00     0.031 A 
ATOM     44  C   UNL A   1      38.046  32.971  33.067  1.00  0.00     0.074 A 
ATOM     45  C   UNL A   1      38.171  31.382  31.168  1.00  0.00     0.049 A 
ATOM     46  N   UNL A   1      39.072  32.593  33.783  1.00  0.00    -0.248 NA
ATOM     47  C   UNL A   1      37.316  34.121  33.629  1.00  0.00     0.031 C 
ATOM     48  C   UNL A   1      37.824  30.810  29.864  1.00  0.00     0.029 A 
ATOM     49  N   UNL A   1      39.233  30.620  31.587  1.00  0.00    -0.354 N 
ATOM     50  C   UNL A   1      39.122  33.468  34.862  1.00  0.00     0.074 A 
ATOM     51  C   UNL A   1      38.068  34.439  34.671  1.00  0.00     0.031 C 
ATOM     52  C   UNL A   1      38.635  29.773  29.605  1.00  0.00     0.029 A 
ATOM     53  C   UNL A   1      39.591  29.633  30.698  1.00  0.00     0.049 A 
ATOM     54  H   UNL A   1      39.696  30.768  32.443  1.00  0.00     0.167 HD
ATOM     55  C   UNL A   1      39.952  33.446  35.930  1.00  0.00     0.037 A 
ATOM     56  C   UNL A   1      40.585  28.726  30.753  1.00  0.00     0.037 A 
ATOM     57  C   UNL A   1      40.972  32.451  36.127  1.00  0.00     0.049 A 
ATOM     58  C   UNL A   1      41.491  28.717  31.953  1.00  0.00     0.074 A 
ATOM     59  C   UNL A   1      41.817  32.288  37.209  1.00  0.00     0.029 A 
ATOM     60  N   UNL A   1      41.287  31.451  35.218  1.00  0.00    -0.354 N 
ATOM     61  N   UNL A   1      41.474  29.504  33.003  1.00  0.00    -0.248 NA
ATOM     62  C   UNL A   1      42.550  27.699  31.980  1.00  0.00     0.031 C 
ATOM     63  C   UNL A   1      42.677  31.221  36.932  1.00  0.00     0.029 A 
ATOM     64  C   UNL A   1      42.332  30.684  35.701  1.00  0.00     0.049 A 
ATOM     65  H   UNL A   1      40.832  31.307  34.356  1.00  0.00     0.167 HD
ATOM     66  C   UNL A   1      42.508  29.066  33.824  1.00  0.00     0.074 A 
ATOM     67  C   UNL A   1      43.114  27.931  33.158  1.00  0.00     0.031 C 
ATOM     68  C   UNL A   1      42.922  29.560  35.018  1.00  0.00     0.037 A 
BRANCH  55  69
ATOM     69  C   UNL A   1      39.780  34.519  36.972  1.00  0.00     0.058 A 
ATOM     70  C   UNL A   1      38.929  34.345  38.077  1.00  0.00     0.135 A 
ATOM     71  C   UNL A   1      40.494  35.724  36.881  1.00  0.00     0.135 A 
ATOM     72  F   UNL A   1      38.208  33.220  38.206  1.00  0.00    -0.206 F 
ATOM     73  C   UNL A   1      38.770  35.340  39.036  1.00  0.00     0.059 A 
ATOM     74  C   UNL A   1      40.373  36.721  37.845  1.00  0.00     0.059 A 
ATOM     75  F   UNL A   1      41.317  35.947  35.844  1.00  0.00    -0.206 F 
ATOM     76  C   UNL A   1      39.497  36.524  38.912  1.00  0.00     0.060 A 
BRANCH  76  77
ATOM     77  S   UNL A   1      39.283  37.799  40.172  1.00  0.00     0.124 S 
ATOM     78  O   UNL A   1      40.573  38.481  40.117  1.00  0.00    -0.237 OA
ATOM     79  O   UNL A   1      38.145  38.554  39.660  1.00  0.00    -0.237 OA
ATOM     80  O   UNL A   1      39.030  37.036  41.389  1.00  0.00    -0.744 OA
ENDBRANCH  76  77
ENDBRANCH  55  69
BRANCH  56  81
ATOM     81  C   UNL A   1      40.762  27.743  29.649  1.00  0.00     0.058 A 
ATOM     82  C   UNL A   1      41.827  27.859  28.744  1.00  0.00     0.135 A 
ATOM     83  C   UNL A   1      39.882  26.661  29.485  1.00  0.00     0.135 A 
ATOM     84  F   UNL A   1      42.691  28.879  28.854  1.00  0.00    -0.206 F 
ATOM     85  C   UNL A   1      42.005  26.951  27.705  1.00  0.00     0.059 A 
ATOM     86  C   UNL A   1      40.055  25.724  28.471  1.00  0.00     0.059 A 
ATOM     87  F   UNL A   1      38.857  26.492  30.334  1.00  0.00    -0.206 F 
ATOM     88  C   UNL A   1      41.114  25.884  27.578  1.00  0.00     0.060 A 
BRANCH  88  89
ATOM     89  S   UNL A   1      41.379  24.689  26.250  1.00  0.00     0.124 S 
ATOM     90  O   UNL A   1      41.463  25.559  25.084  1.00  0.00    -0.237 OA
ATOM     91  O   UNL A   1      42.625  24.048  26.660  1.00  0.00    -0.237 OA
ATOM     92  O   UNL A   1      40.193  23.839  26.322  1.00  0.00    -0.744 OA
ENDBRANCH  88  89
ENDBRANCH  56  81
BRANCH  68  93
ATOM     93  C   UNL A   1      44.076  28.867  35.686  1.00  0.00     0.058 A 
ATOM     94  C   UNL A   1      43.874  27.797  36.574  1.00  0.00     0.135 A 
ATOM     95  C   UNL A   1      45.398  29.236  35.392  1.00  0.00     0.135 A 
ATOM     96  F   UNL A   1      42.629  27.411  36.894  1.00  0.00    -0.206 F 
ATOM     97  C   UNL A   1      44.944  27.134  37.163  1.00  0.00     0.059 A 
ATOM     98  C   UNL A   1      46.483  28.565  35.946  1.00  0.00     0.059 A 
ATOM     99  F   UNL A   1      45.645  30.244  34.542  1.00  0.00    -0.206 F 
ATOM    100  C   UNL A   1      46.245  27.522  36.840  1.00  0.00     0.060 A 
BRANCH 100 101
ATOM    101  S   UNL A   1      47.623  26.623  37.582  1.00  0.00     0.124 S 
ATOM    102  O   UNL A   1      47.241  25.238  37.332  1.00  0.00    -0.237 OA
ATOM    103  O   UNL A   1      48.763  27.116  36.817  1.00  0.00    -0.237 OA
ATOM    104  O   UNL A   1      47.587  27.042  38.981  1.00  0.00    -0.744 OA
ENDBRANCH 100 101
ENDBRANCH  68  93
ENDBRANCH  42  43
ENDBRANCH  34  37
ENDBRANCH  32  33
ENDBRANCH  31  32
ENDBRANCH   1  31
TORSDOF 18
ENDMDL
