MODEL 1
REMARK VINA RESULT:     -11.4      0.000      0.000
REMARK SMILES CN(Cc1csc(Br)c1)c1cccc(F)c1C(=O)NCCCNC(=O)c1ccc(-c2c3nc(c(-c4c(F)cc(S(=O)(=O)[O-])cc4F)c4ccc([nH]4)c(-c4c(F)cc(S(=O)(=O)[O-])cc4F)c4nc(c(-c5c(F)cc(S(=O)(=O)[O-])cc5F)c5ccc2[nH]5)C=C4)C=C3)cc1
REMARK SMILES IDX 21 1 20 2 19 3 17 4 18 5 16 7 10 8 11 9 12 10 14 11 13 12
REMARK SMILES IDX 15 13 2 14 1 15 3 16 4 17 5 18 9 19 6 20 7 21 8 22 22 23
REMARK SMILES IDX 23 24 24 25 25 27 26 28 27 29 91 30 28 31 90 32 29 33 30 34
REMARK SMILES IDX 31 35 84 36 32 37 89 38 83 39 85 40 33 41 88 42 82 43 81 44
REMARK SMILES IDX 34 46 68 47 47 48 67 49 48 50 51 51 66 52 86 53 49 54 50 55
REMARK SMILES IDX 65 57 87 58 52 59 35 60 36 61 45 62 37 63 38 64 44 65 46 66
REMARK SMILES IDX 39 67 40 68 41 69 42 70 43 71 69 72 70 73 79 74 71 75 72 76
REMARK SMILES IDX 78 77 80 78 73 79 74 80 75 81 76 82 77 83 53 84 54 85 63 86
REMARK SMILES IDX 55 87 56 88 62 89 64 90 57 91 58 92 59 93 60 94 61 95
REMARK H PARENT 19 6 23 26 85 45 51 56
REMARK Flexibility Score: inf
ROOT
ATOM      1  C   UNL A   1      33.006  28.065  25.945  1.00  0.00     0.042 C 
ENDROOT
BRANCH   1   2
ATOM      2  C   UNL A   1      33.710  26.819  25.425  1.00  0.00     0.118 C 
BRANCH   2   3
ATOM      3  N   UNL A   1      33.176  25.544  25.880  1.00  0.00    -0.352 N 
ATOM      4  C   UNL A   1      33.829  24.329  26.014  1.00  0.00     0.256 C 
ATOM      5  O   UNL A   1      33.542  23.603  26.966  1.00  0.00    -0.269 OA
ATOM      6  H   UNL A   1      32.223  25.545  26.126  1.00  0.00     0.163 HD
BRANCH   4   7
ATOM      7  C   UNL A   1      34.807  23.851  25.010  1.00  0.00     0.098 A 
ATOM      8  C   UNL A   1      34.390  23.395  23.731  1.00  0.00     0.053 A 
ATOM      9  C   UNL A   1      35.381  22.896  22.857  1.00  0.00     0.027 A 
ATOM     10  C   UNL A   1      36.724  22.820  23.226  1.00  0.00     0.005 A 
ATOM     11  C   UNL A   1      36.143  23.685  25.391  1.00  0.00     0.138 A 
ATOM     12  C   UNL A   1      37.103  23.209  24.502  1.00  0.00     0.040 A 
ATOM     13  F   UNL A   1      36.540  23.925  26.650  1.00  0.00    -0.206 F 
BRANCH   8  14
ATOM     14  N   UNL A   1      33.063  23.365  23.302  1.00  0.00    -0.370 N 
ATOM     15  C   UNL A   1      32.313  22.131  23.488  1.00  0.00     0.144 C 
BRANCH  14  16
ATOM     16  C   UNL A   1      32.590  24.335  22.313  1.00  0.00     0.152 C 
BRANCH  16  17
ATOM     17  C   UNL A   1      31.575  25.344  22.777  1.00  0.00    -0.017 A 
ATOM     18  C   UNL A   1      30.524  25.069  23.637  1.00  0.00     0.071 A 
ATOM     19  C   UNL A   1      31.550  26.726  22.376  1.00  0.00     0.033 A 
ATOM     20  S   UNL A   1      29.527  26.433  23.919  1.00  0.00    -0.136 S 
ATOM     21  C   UNL A   1      30.465  27.390  22.887  1.00  0.00     0.070 A 
ATOM     22  Br  UNL A   1      30.043  29.166  22.468  1.00  0.00    -0.039 Br
ENDBRANCH  16  17
ENDBRANCH  14  16
ENDBRANCH   8  14
ENDBRANCH   4   7
ENDBRANCH   2   3
ENDBRANCH   1   2
BRANCH   1  23
ATOM     23  C   UNL A   1      33.271  28.444  27.397  1.00  0.00     0.118 C 
BRANCH  23  24
ATOM     24  N   UNL A   1      33.324  29.880  27.637  1.00  0.00    -0.352 N 
ATOM     25  C   UNL A   1      34.329  30.698  28.094  1.00  0.00     0.251 C 
ATOM     26  H   UNL A   1      32.484  30.352  27.433  1.00  0.00     0.163 HD
ATOM     27  O   UNL A   1      34.067  31.879  28.336  1.00  0.00    -0.269 OA
BRANCH  25  28
ATOM     28  C   UNL A   1      35.703  30.197  28.331  1.00  0.00     0.039 A 
ATOM     29  C   UNL A   1      36.604  30.172  27.260  1.00  0.00     0.014 A 
ATOM     30  C   UNL A   1      36.108  29.711  29.575  1.00  0.00     0.014 A 
ATOM     31  C   UNL A   1      37.921  29.744  27.458  1.00  0.00     0.010 A 
ATOM     32  C   UNL A   1      37.443  29.374  29.796  1.00  0.00     0.010 A 
ATOM     33  C   UNL A   1      38.367  29.387  28.741  1.00  0.00    -0.014 A 
BRANCH  33  34
ATOM     34  C   UNL A   1      39.790  29.034  29.003  1.00  0.00     0.031 A 
ATOM     35  C   UNL A   1      40.735  30.056  29.580  1.00  0.00     0.074 A 
ATOM     36  C   UNL A   1      40.248  27.813  28.661  1.00  0.00     0.049 A 
ATOM     37  N   UNL A   1      42.023  29.964  29.788  1.00  0.00    -0.248 NA
ATOM     38  C   UNL A   1      40.162  31.363  29.944  1.00  0.00     0.031 C 
ATOM     39  C   UNL A   1      39.443  26.746  28.059  1.00  0.00     0.029 A 
ATOM     40  N   UNL A   1      41.502  27.260  28.758  1.00  0.00    -0.354 N 
ATOM     41  C   UNL A   1      42.416  31.197  30.296  1.00  0.00     0.074 A 
ATOM     42  C   UNL A   1      41.241  32.041  30.310  1.00  0.00     0.031 C 
ATOM     43  C   UNL A   1      40.213  25.663  27.873  1.00  0.00     0.029 A 
ATOM     44  C   UNL A   1      41.577  25.967  28.292  1.00  0.00     0.049 A 
ATOM     45  H   UNL A   1      42.276  27.745  29.127  1.00  0.00     0.167 HD
ATOM     46  C   UNL A   1      43.637  31.583  30.736  1.00  0.00     0.037 A 
ATOM     47  C   UNL A   1      42.625  25.124  28.203  1.00  0.00     0.037 A 
ATOM     48  C   UNL A   1      44.796  30.729  30.746  1.00  0.00     0.049 A 
ATOM     49  C   UNL A   1      43.976  25.581  28.679  1.00  0.00     0.074 A 
ATOM     50  C   UNL A   1      46.066  31.011  31.217  1.00  0.00     0.029 A 
ATOM     51  N   UNL A   1      44.828  29.426  30.269  1.00  0.00    -0.354 N 
ATOM     52  N   UNL A   1      44.318  26.738  29.195  1.00  0.00    -0.248 NA
ATOM     53  C   UNL A   1      45.086  24.624  28.562  1.00  0.00     0.031 C 
ATOM     54  C   UNL A   1      46.879  29.899  30.979  1.00  0.00     0.029 A 
ATOM     55  C   UNL A   1      46.101  28.901  30.412  1.00  0.00     0.049 A 
ATOM     56  H   UNL A   1      44.059  28.947  29.883  1.00  0.00     0.167 HD
ATOM     57  C   UNL A   1      45.674  26.638  29.488  1.00  0.00     0.074 A 
ATOM     58  C   UNL A   1      46.088  25.305  29.103  1.00  0.00     0.031 C 
ATOM     59  C   UNL A   1      46.500  27.569  30.029  1.00  0.00     0.037 A 
BRANCH  46  60
ATOM     60  C   UNL A   1      43.789  32.985  31.264  1.00  0.00     0.058 A 
ATOM     61  C   UNL A   1      43.612  33.259  32.630  1.00  0.00     0.135 A 
ATOM     62  C   UNL A   1      44.037  34.070  30.408  1.00  0.00     0.135 A 
ATOM     63  F   UNL A   1      43.377  32.262  33.496  1.00  0.00    -0.206 F 
ATOM     64  C   UNL A   1      43.660  34.560  33.123  1.00  0.00     0.059 A 
ATOM     65  C   UNL A   1      44.119  35.375  30.884  1.00  0.00     0.059 A 
ATOM     66  F   UNL A   1      44.234  33.863  29.096  1.00  0.00    -0.206 F 
ATOM     67  C   UNL A   1      43.913  35.612  32.242  1.00  0.00     0.060 A 
BRANCH  67  68
ATOM     68  S   UNL A   1      43.994  37.290  32.903  1.00  0.00     0.124 S 
ATOM     69  O   UNL A   1      43.883  38.096  31.693  1.00  0.00    -0.237 OA
ATOM     70  O   UNL A   1      42.840  37.322  33.797  1.00  0.00    -0.237 OA
ATOM     71  O   UNL A   1      45.293  37.329  33.569  1.00  0.00    -0.744 OA
ENDBRANCH  67  68
ENDBRANCH  46  60
BRANCH  47  72
ATOM     72  C   UNL A   1      42.423  23.750  27.665  1.00  0.00     0.058 A 
ATOM     73  C   UNL A   1      42.309  22.640  28.517  1.00  0.00     0.135 A 
ATOM     74  C   UNL A   1      42.383  23.517  26.283  1.00  0.00     0.135 A 
ATOM     75  F   UNL A   1      42.351  22.805  29.848  1.00  0.00    -0.206 F 
ATOM     76  C   UNL A   1      42.193  21.347  28.017  1.00  0.00     0.059 A 
ATOM     77  C   UNL A   1      42.239  22.236  25.758  1.00  0.00     0.059 A 
ATOM     78  F   UNL A   1      42.475  24.548  25.427  1.00  0.00    -0.206 F 
ATOM     79  C   UNL A   1      42.163  21.155  26.636  1.00  0.00     0.060 A 
BRANCH  79  80
ATOM     80  S   UNL A   1      42.031  19.466  26.009  1.00  0.00     0.124 S 
ATOM     81  O   UNL A   1      42.497  18.692  27.156  1.00  0.00    -0.237 OA
ATOM     82  O   UNL A   1      40.607  19.363  25.711  1.00  0.00    -0.237 OA
ATOM     83  O   UNL A   1      42.916  19.465  24.849  1.00  0.00    -0.744 OA
ENDBRANCH  79  80
ENDBRANCH  47  72
BRANCH  59  84
ATOM     84  C   UNL A   1      47.935  27.183  30.265  1.00  0.00     0.058 A 
ATOM     85  C   UNL A   1      48.325  26.613  31.486  1.00  0.00     0.135 A 
ATOM     86  C   UNL A   1      48.936  27.467  29.323  1.00  0.00     0.135 A 
ATOM     87  F   UNL A   1      47.408  26.327  32.425  1.00  0.00    -0.206 F 
ATOM     88  C   UNL A   1      49.661  26.360  31.778  1.00  0.00     0.059 A 
ATOM     89  C   UNL A   1      50.276  27.194  29.581  1.00  0.00     0.059 A 
ATOM     90  F   UNL A   1      48.614  28.002  28.135  1.00  0.00    -0.206 F 
ATOM     91  C   UNL A   1      50.630  26.659  30.820  1.00  0.00     0.060 A 
BRANCH  91  92
ATOM     92  S   UNL A   1      52.360  26.327  31.217  1.00  0.00     0.124 S 
ATOM     93  O   UNL A   1      52.690  27.452  32.085  1.00  0.00    -0.237 OA
ATOM     94  O   UNL A   1      52.281  25.023  31.867  1.00  0.00    -0.237 OA
ATOM     95  O   UNL A   1      53.014  26.329  29.911  1.00  0.00    -0.744 OA
ENDBRANCH  91  92
ENDBRANCH  59  84
ENDBRANCH  33  34
ENDBRANCH  25  28
ENDBRANCH  23  24
ENDBRANCH   1  23
TORSDOF 16
ENDMDL
MODEL 2
REMARK VINA RESULT:     -11.1      3.169      4.397
REMARK SMILES CN(Cc1csc(Br)c1)c1cccc(F)c1C(=O)NCCCNC(=O)c1ccc(-c2c3nc(c(-c4c(F)cc(S(=O)(=O)[O-])cc4F)c4ccc([nH]4)c(-c4c(F)cc(S(=O)(=O)[O-])cc4F)c4nc(c(-c5c(F)cc(S(=O)(=O)[O-])cc5F)c5ccc2[nH]5)C=C4)C=C3)cc1
REMARK SMILES IDX 21 1 20 2 19 3 17 4 18 5 16 7 10 8 11 9 12 10 14 11 13 12
REMARK SMILES IDX 15 13 2 14 1 15 3 16 4 17 5 18 9 19 6 20 7 21 8 22 22 23
REMARK SMILES IDX 23 24 24 25 25 27 26 28 27 29 91 30 28 31 90 32 29 33 30 34
REMARK SMILES IDX 31 35 84 36 32 37 89 38 83 39 85 40 33 41 88 42 82 43 81 44
REMARK SMILES IDX 34 46 68 47 47 48 67 49 48 50 51 51 66 52 86 53 49 54 50 55
REMARK SMILES IDX 65 57 87 58 52 59 35 60 36 61 45 62 37 63 38 64 44 65 46 66
REMARK SMILES IDX 39 67 40 68 41 69 42 70 43 71 69 72 70 73 79 74 71 75 72 76
REMARK SMILES IDX 78 77 80 78 73 79 74 80 75 81 76 82 77 83 53 84 54 85 63 86
REMARK SMILES IDX 55 87 56 88 62 89 64 90 57 91 58 92 59 93 60 94 61 95
REMARK H PARENT 19 6 23 26 85 45 51 56
REMARK Flexibility Score: inf
ROOT
ATOM      1  C   UNL A   1      33.793  28.585  26.825  1.00  0.00     0.042 C 
ENDROOT
BRANCH   1   2
ATOM      2  C   UNL A   1      33.363  28.925  25.404  1.00  0.00     0.118 C 
BRANCH   2   3
ATOM      3  N   UNL A   1      33.554  27.880  24.408  1.00  0.00    -0.352 N 
ATOM      4  C   UNL A   1      32.740  27.542  23.339  1.00  0.00     0.256 C 
ATOM      5  O   UNL A   1      33.265  27.201  22.279  1.00  0.00    -0.269 OA
ATOM      6  H   UNL A   1      34.373  27.343  24.508  1.00  0.00     0.163 HD
BRANCH   4   7
ATOM      7  C   UNL A   1      31.264  27.512  23.459  1.00  0.00     0.098 A 
ATOM      8  C   UNL A   1      30.589  26.381  23.989  1.00  0.00     0.053 A 
ATOM      9  C   UNL A   1      29.176  26.408  24.007  1.00  0.00     0.027 A 
ATOM     10  C   UNL A   1      28.450  27.488  23.505  1.00  0.00     0.005 A 
ATOM     11  C   UNL A   1      30.516  28.544  22.882  1.00  0.00     0.138 A 
ATOM     12  C   UNL A   1      29.125  28.556  22.932  1.00  0.00     0.040 A 
ATOM     13  F   UNL A   1      31.113  29.537  22.204  1.00  0.00    -0.206 F 
BRANCH   8  14
ATOM     14  N   UNL A   1      31.227  25.228  24.446  1.00  0.00    -0.370 N 
ATOM     15  C   UNL A   1      31.020  23.992  23.704  1.00  0.00     0.144 C 
BRANCH  14  16
ATOM     16  C   UNL A   1      31.692  25.148  25.832  1.00  0.00     0.152 C 
BRANCH  16  17
ATOM     17  C   UNL A   1      32.848  24.226  26.112  1.00  0.00    -0.017 A 
ATOM     18  C   UNL A   1      32.773  23.075  26.878  1.00  0.00     0.071 A 
ATOM     19  C   UNL A   1      34.192  24.428  25.636  1.00  0.00     0.033 A 
ATOM     20  S   UNL A   1      34.285  22.287  27.038  1.00  0.00    -0.136 S 
ATOM     21  C   UNL A   1      35.054  23.477  26.116  1.00  0.00     0.070 A 
ATOM     22  Br  UNL A   1      36.902  23.502  25.807  1.00  0.00    -0.039 Br
ENDBRANCH  16  17
ENDBRANCH  14  16
ENDBRANCH   8  14
ENDBRANCH   4   7
ENDBRANCH   2   3
ENDBRANCH   1   2
BRANCH   1  23
ATOM     23  C   UNL A   1      35.156  29.101  27.267  1.00  0.00     0.118 C 
BRANCH  23  24
ATOM     24  N   UNL A   1      35.144  29.785  28.554  1.00  0.00    -0.352 N 
ATOM     25  C   UNL A   1      36.148  30.086  29.442  1.00  0.00     0.251 C 
ATOM     26  H   UNL A   1      34.252  30.088  28.838  1.00  0.00     0.163 HD
ATOM     27  O   UNL A   1      35.845  30.564  30.539  1.00  0.00    -0.269 OA
BRANCH  25  28
ATOM     28  C   UNL A   1      37.575  29.830  29.134  1.00  0.00     0.039 A 
ATOM     29  C   UNL A   1      38.475  29.674  30.194  1.00  0.00     0.014 A 
ATOM     30  C   UNL A   1      38.050  29.786  27.822  1.00  0.00     0.014 A 
ATOM     31  C   UNL A   1      39.821  29.391  29.938  1.00  0.00     0.010 A 
ATOM     32  C   UNL A   1      39.369  29.412  27.567  1.00  0.00     0.010 A 
ATOM     33  C   UNL A   1      40.271  29.207  28.621  1.00  0.00    -0.014 A 
BRANCH  33  34
ATOM     34  C   UNL A   1      41.671  28.797  28.324  1.00  0.00     0.031 A 
ATOM     35  C   UNL A   1      42.779  29.818  28.318  1.00  0.00     0.074 A 
ATOM     36  C   UNL A   1      41.935  27.517  27.993  1.00  0.00     0.049 A 
ATOM     37  N   UNL A   1      44.037  29.669  27.992  1.00  0.00    -0.248 NA
ATOM     38  C   UNL A   1      42.421  31.193  28.703  1.00  0.00     0.031 C 
ATOM     39  C   UNL A   1      40.944  26.440  27.926  1.00  0.00     0.029 A 
ATOM     40  N   UNL A   1      43.112  26.900  27.644  1.00  0.00    -0.354 N 
ATOM     41  C   UNL A   1      44.616  30.926  28.121  1.00  0.00     0.074 A 
ATOM     42  C   UNL A   1      43.560  31.839  28.499  1.00  0.00     0.031 C 
ATOM     43  C   UNL A   1      41.557  25.294  27.590  1.00  0.00     0.029 A 
ATOM     44  C   UNL A   1      42.976  25.558  27.369  1.00  0.00     0.049 A 
ATOM     45  H   UNL A   1      43.973  27.374  27.594  1.00  0.00     0.167 HD
ATOM     46  C   UNL A   1      45.914  31.282  27.966  1.00  0.00     0.037 A 
ATOM     47  C   UNL A   1      43.885  24.644  26.974  1.00  0.00     0.037 A 
ATOM     48  C   UNL A   1      46.965  30.362  27.617  1.00  0.00     0.049 A 
ATOM     49  C   UNL A   1      45.316  25.067  26.789  1.00  0.00     0.074 A 
ATOM     50  C   UNL A   1      48.319  30.617  27.484  1.00  0.00     0.029 A 
ATOM     51  N   UNL A   1      46.784  29.012  27.351  1.00  0.00    -0.354 N 
ATOM     52  N   UNL A   1      45.852  26.254  26.957  1.00  0.00    -0.248 NA
ATOM     53  C   UNL A   1      46.269  24.033  26.360  1.00  0.00     0.031 C 
ATOM     54  C   UNL A   1      48.949  29.434  27.088  1.00  0.00     0.029 A 
ATOM     55  C   UNL A   1      47.998  28.427  27.030  1.00  0.00     0.049 A 
ATOM     56  H   UNL A   1      45.920  28.540  27.383  1.00  0.00     0.167 HD
ATOM     57  C   UNL A   1      47.206  26.102  26.680  1.00  0.00     0.074 A 
ATOM     58  C   UNL A   1      47.411  24.708  26.344  1.00  0.00     0.031 C 
ATOM     59  C   UNL A   1      48.190  27.035  26.703  1.00  0.00     0.037 A 
BRANCH  46  60
ATOM     60  C   UNL A   1      46.283  32.725  28.189  1.00  0.00     0.058 A 
ATOM     61  C   UNL A   1      46.638  33.184  29.467  1.00  0.00     0.135 A 
ATOM     62  C   UNL A   1      46.216  33.669  27.152  1.00  0.00     0.135 A 
ATOM     63  F   UNL A   1      46.724  32.326  30.495  1.00  0.00    -0.206 F 
ATOM     64  C   UNL A   1      46.896  34.529  29.712  1.00  0.00     0.059 A 
ATOM     65  C   UNL A   1      46.499  35.015  27.368  1.00  0.00     0.059 A 
ATOM     66  F   UNL A   1      45.901  33.283  25.905  1.00  0.00    -0.206 F 
ATOM     67  C   UNL A   1      46.823  35.438  28.656  1.00  0.00     0.060 A 
BRANCH  67  68
ATOM     68  S   UNL A   1      47.182  37.176  28.987  1.00  0.00     0.124 S 
ATOM     69  O   UNL A   1      48.029  37.530  27.853  1.00  0.00    -0.237 OA
ATOM     70  O   UNL A   1      45.848  37.768  28.995  1.00  0.00    -0.237 OA
ATOM     71  O   UNL A   1      47.852  37.142  30.285  1.00  0.00    -0.744 OA
ENDBRANCH  67  68
ENDBRANCH  46  60
BRANCH  47  72
ATOM     72  C   UNL A   1      43.466  23.232  26.759  1.00  0.00     0.058 A 
ATOM     73  C   UNL A   1      43.136  22.393  27.836  1.00  0.00     0.135 A 
ATOM     74  C   UNL A   1      43.429  22.681  25.470  1.00  0.00     0.135 A 
ATOM     75  F   UNL A   1      43.164  22.866  29.091  1.00  0.00    -0.206 F 
ATOM     76  C   UNL A   1      42.814  21.054  27.645  1.00  0.00     0.059 A 
ATOM     77  C   UNL A   1      43.082  21.351  25.250  1.00  0.00     0.059 A 
ATOM     78  F   UNL A   1      43.723  23.446  24.406  1.00  0.00    -0.206 F 
ATOM     79  C   UNL A   1      42.794  20.540  26.347  1.00  0.00     0.060 A 
BRANCH  79  80
ATOM     80  S   UNL A   1      42.393  18.793  26.124  1.00  0.00     0.124 S 
ATOM     81  O   UNL A   1      43.320  18.415  25.061  1.00  0.00    -0.237 OA
ATOM     82  O   UNL A   1      42.682  18.244  27.444  1.00  0.00    -0.237 OA
ATOM     83  O   UNL A   1      40.983  18.815  25.750  1.00  0.00    -0.744 OA
ENDBRANCH  79  80
ENDBRANCH  47  72
BRANCH  59  84
ATOM     84  C   UNL A   1      49.590  26.589  26.381  1.00  0.00     0.058 A 
ATOM     85  C   UNL A   1      50.130  26.813  25.105  1.00  0.00     0.135 A 
ATOM     86  C   UNL A   1      50.358  25.857  27.300  1.00  0.00     0.135 A 
ATOM     87  F   UNL A   1      49.435  27.503  24.186  1.00  0.00    -0.206 F 
ATOM     88  C   UNL A   1      51.373  26.306  24.741  1.00  0.00     0.059 A 
ATOM     89  C   UNL A   1      51.617  25.366  26.967  1.00  0.00     0.059 A 
ATOM     90  F   UNL A   1      49.892  25.626  28.537  1.00  0.00    -0.206 F 
ATOM     91  C   UNL A   1      52.107  25.578  25.679  1.00  0.00     0.060 A 
BRANCH  91  92
ATOM     92  S   UNL A   1      53.716  24.924  25.188  1.00  0.00     0.124 S 
ATOM     93  O   UNL A   1      53.941  25.605  23.916  1.00  0.00    -0.237 OA
ATOM     94  O   UNL A   1      54.570  25.345  26.294  1.00  0.00    -0.237 OA
ATOM     95  O   UNL A   1      53.484  23.485  25.097  1.00  0.00    -0.744 OA
ENDBRANCH  91  92
ENDBRANCH  59  84
ENDBRANCH  33  34
ENDBRANCH  25  28
ENDBRANCH  23  24
ENDBRANCH   1  23
TORSDOF 16
ENDMDL
MODEL 3
REMARK VINA RESULT:     -11.0      4.804     10.275
REMARK SMILES CN(Cc1csc(Br)c1)c1cccc(F)c1C(=O)NCCCNC(=O)c1ccc(-c2c3nc(c(-c4c(F)cc(S(=O)(=O)[O-])cc4F)c4ccc([nH]4)c(-c4c(F)cc(S(=O)(=O)[O-])cc4F)c4nc(c(-c5c(F)cc(S(=O)(=O)[O-])cc5F)c5ccc2[nH]5)C=C4)C=C3)cc1
REMARK SMILES IDX 21 1 20 2 19 3 17 4 18 5 16 7 10 8 11 9 12 10 14 11 13 12
REMARK SMILES IDX 15 13 2 14 1 15 3 16 4 17 5 18 9 19 6 20 7 21 8 22 22 23
REMARK SMILES IDX 23 24 24 25 25 27 26 28 27 29 91 30 28 31 90 32 29 33 30 34
REMARK SMILES IDX 31 35 84 36 32 37 89 38 83 39 85 40 33 41 88 42 82 43 81 44
REMARK SMILES IDX 34 46 68 47 47 48 67 49 48 50 51 51 66 52 86 53 49 54 50 55
REMARK SMILES IDX 65 57 87 58 52 59 35 60 36 61 45 62 37 63 38 64 44 65 46 66
REMARK SMILES IDX 39 67 40 68 41 69 42 70 43 71 69 72 70 73 79 74 71 75 72 76
REMARK SMILES IDX 78 77 80 78 73 79 74 80 75 81 76 82 77 83 53 84 54 85 63 86
REMARK SMILES IDX 55 87 56 88 62 89 64 90 57 91 58 92 59 93 60 94 61 95
REMARK H PARENT 19 6 23 26 85 45 51 56
REMARK Flexibility Score: inf
ROOT
ATOM      1  C   UNL A   1      37.413  23.655  25.600  1.00  0.00     0.042 C 
ENDROOT
BRANCH   1   2
ATOM      2  C   UNL A   1      36.665  22.341  25.782  1.00  0.00     0.118 C 
BRANCH   2   3
ATOM      3  N   UNL A   1      35.557  22.359  26.726  1.00  0.00    -0.352 N 
ATOM      4  C   UNL A   1      34.267  21.881  26.557  1.00  0.00     0.256 C 
ATOM      5  O   UNL A   1      33.706  21.341  27.510  1.00  0.00    -0.269 OA
ATOM      6  H   UNL A   1      35.751  22.764  27.601  1.00  0.00     0.163 HD
BRANCH   4   7
ATOM      7  C   UNL A   1      33.524  22.065  25.289  1.00  0.00     0.098 A 
ATOM      8  C   UNL A   1      32.971  23.323  24.933  1.00  0.00     0.053 A 
ATOM      9  C   UNL A   1      32.221  23.397  23.738  1.00  0.00     0.027 A 
ATOM     10  C   UNL A   1      31.998  22.278  22.934  1.00  0.00     0.005 A 
ATOM     11  C   UNL A   1      33.215  20.940  24.516  1.00  0.00     0.138 A 
ATOM     12  C   UNL A   1      32.491  21.045  23.332  1.00  0.00     0.040 A 
ATOM     13  F   UNL A   1      33.557  19.707  24.919  1.00  0.00    -0.206 F 
BRANCH   8  14
ATOM     14  N   UNL A   1      33.080  24.478  25.709  1.00  0.00    -0.370 N 
ATOM     15  C   UNL A   1      31.907  24.913  26.454  1.00  0.00     0.144 C 
BRANCH  14  16
ATOM     16  C   UNL A   1      34.140  25.448  25.434  1.00  0.00     0.152 C 
BRANCH  16  17
ATOM     17  C   UNL A   1      33.746  26.901  25.406  1.00  0.00    -0.017 A 
ATOM     18  C   UNL A   1      33.171  27.542  24.322  1.00  0.00     0.071 A 
ATOM     19  C   UNL A   1      33.930  27.822  26.497  1.00  0.00     0.033 A 
ATOM     20  S   UNL A   1      32.895  29.208  24.609  1.00  0.00    -0.136 S 
ATOM     21  C   UNL A   1      33.558  29.097  26.160  1.00  0.00     0.070 A 
ATOM     22  Br  UNL A   1      33.781  30.575  27.289  1.00  0.00    -0.039 Br
ENDBRANCH  16  17
ENDBRANCH  14  16
ENDBRANCH   8  14
ENDBRANCH   4   7
ENDBRANCH   2   3
ENDBRANCH   1   2
BRANCH   1  23
ATOM     23  C   UNL A   1      38.473  23.987  26.642  1.00  0.00     0.118 C 
BRANCH  23  24
ATOM     24  N   UNL A   1      39.824  24.091  26.103  1.00  0.00    -0.352 N 
ATOM     25  C   UNL A   1      40.881  24.905  26.428  1.00  0.00     0.251 C 
ATOM     26  H   UNL A   1      40.013  23.459  25.372  1.00  0.00     0.163 HD
ATOM     27  O   UNL A   1      41.889  24.880  25.717  1.00  0.00    -0.269 OA
BRANCH  25  28
ATOM     28  C   UNL A   1      40.835  25.830  27.586  1.00  0.00     0.039 A 
ATOM     29  C   UNL A   1      41.841  26.794  27.717  1.00  0.00     0.014 A 
ATOM     30  C   UNL A   1      39.847  25.735  28.567  1.00  0.00     0.014 A 
ATOM     31  C   UNL A   1      41.806  27.708  28.777  1.00  0.00     0.010 A 
ATOM     32  C   UNL A   1      39.758  26.703  29.567  1.00  0.00     0.010 A 
ATOM     33  C   UNL A   1      40.735  27.702  29.684  1.00  0.00    -0.014 A 
BRANCH  33  34
ATOM     34  C   UNL A   1      40.612  28.731  30.754  1.00  0.00     0.031 A 
ATOM     35  C   UNL A   1      41.495  28.670  31.974  1.00  0.00     0.074 A 
ATOM     36  C   UNL A   1      39.661  29.682  30.659  1.00  0.00     0.049 A 
ATOM     37  N   UNL A   1      41.471  29.417  33.048  1.00  0.00    -0.248 NA
ATOM     38  C   UNL A   1      42.521  27.615  32.003  1.00  0.00     0.031 C 
ATOM     39  C   UNL A   1      38.718  29.826  29.546  1.00  0.00     0.029 A 
ATOM     40  N   UNL A   1      39.320  30.704  31.511  1.00  0.00    -0.354 N 
ATOM     41  C   UNL A   1      42.465  28.918  33.881  1.00  0.00     0.074 A 
ATOM     42  C   UNL A   1      43.035  27.768  33.214  1.00  0.00     0.031 C 
ATOM     43  C   UNL A   1      37.931  30.890  29.769  1.00  0.00     0.029 A 
ATOM     44  C   UNL A   1      38.274  31.478  31.061  1.00  0.00     0.049 A 
ATOM     45  H   UNL A   1      39.780  30.868  32.366  1.00  0.00     0.167 HD
ATOM     46  C   UNL A   1      42.883  29.391  35.079  1.00  0.00     0.037 A 
ATOM     47  C   UNL A   1      37.654  32.533  31.624  1.00  0.00     0.037 A 
ATOM     48  C   UNL A   1      42.330  30.553  35.724  1.00  0.00     0.049 A 
ATOM     49  C   UNL A   1      38.123  33.028  32.965  1.00  0.00     0.074 A 
ATOM     50  C   UNL A   1      42.718  31.140  36.916  1.00  0.00     0.029 A 
ATOM     51  N   UNL A   1      41.275  31.309  35.232  1.00  0.00    -0.354 N 
ATOM     52  N   UNL A   1      39.093  32.568  33.718  1.00  0.00    -0.248 NA
ATOM     53  C   UNL A   1      37.415  34.184  33.536  1.00  0.00     0.031 C 
ATOM     54  C   UNL A   1      41.867  32.219  37.170  1.00  0.00     0.029 A 
ATOM     55  C   UNL A   1      40.984  32.341  36.108  1.00  0.00     0.049 A 
ATOM     56  H   UNL A   1      40.802  31.135  34.386  1.00  0.00     0.167 HD
ATOM     57  C   UNL A   1      39.130  33.392  34.838  1.00  0.00     0.074 A 
ATOM     58  C   UNL A   1      38.092  34.386  34.659  1.00  0.00     0.031 C 
ATOM     59  C   UNL A   1      39.951  33.329  35.915  1.00  0.00     0.037 A 
BRANCH  46  60
ATOM     60  C   UNL A   1      44.008  28.668  35.772  1.00  0.00     0.058 A 
ATOM     61  C   UNL A   1      45.341  29.058  35.572  1.00  0.00     0.135 A 
ATOM     62  C   UNL A   1      43.771  27.542  36.577  1.00  0.00     0.135 A 
ATOM     63  F   UNL A   1      45.627  30.129  34.816  1.00  0.00    -0.206 F 
ATOM     64  C   UNL A   1      46.400  28.348  36.131  1.00  0.00     0.059 A 
ATOM     65  C   UNL A   1      44.813  26.835  37.171  1.00  0.00     0.059 A 
ATOM     66  F   UNL A   1      42.514  27.136  36.819  1.00  0.00    -0.206 F 
ATOM     67  C   UNL A   1      46.125  27.236  36.929  1.00  0.00     0.060 A 
BRANCH  67  68
ATOM     68  S   UNL A   1      47.509  26.340  37.665  1.00  0.00     0.124 S 
ATOM     69  O   UNL A   1      47.882  25.427  36.591  1.00  0.00    -0.237 OA
ATOM     70  O   UNL A   1      48.456  27.416  37.943  1.00  0.00    -0.237 OA
ATOM     71  O   UNL A   1      46.919  25.716  38.846  1.00  0.00    -0.744 OA
ENDBRANCH  67  68
ENDBRANCH  46  60
BRANCH  47  72
ATOM     72  C   UNL A   1      36.541  33.208  30.900  1.00  0.00     0.058 A 
ATOM     73  C   UNL A   1      36.784  34.045  29.800  1.00  0.00     0.135 A 
ATOM     74  C   UNL A   1      35.213  33.062  31.326  1.00  0.00     0.135 A 
ATOM     75  F   UNL A   1      38.038  34.229  29.357  1.00  0.00    -0.206 F 
ATOM     76  C   UNL A   1      35.755  34.734  29.167  1.00  0.00     0.059 A 
ATOM     77  C   UNL A   1      34.162  33.718  30.692  1.00  0.00     0.059 A 
ATOM     78  F   UNL A   1      34.928  32.262  32.367  1.00  0.00    -0.206 F 
ATOM     79  C   UNL A   1      34.447  34.567  29.623  1.00  0.00     0.060 A 
BRANCH  79  80
ATOM     80  S   UNL A   1      33.129  35.487  28.798  1.00  0.00     0.124 S 
ATOM     81  O   UNL A   1      33.893  36.467  28.033  1.00  0.00    -0.237 OA
ATOM     82  O   UNL A   1      32.473  34.443  28.018  1.00  0.00    -0.237 OA
ATOM     83  O   UNL A   1      32.347  36.025  29.907  1.00  0.00    -0.744 OA
ENDBRANCH  79  80
ENDBRANCH  47  72
BRANCH  59  84
ATOM     84  C   UNL A   1      39.788  34.374  36.985  1.00  0.00     0.058 A 
ATOM     85  C   UNL A   1      40.483  35.591  36.901  1.00  0.00     0.135 A 
ATOM     86  C   UNL A   1      39.024  34.134  38.138  1.00  0.00     0.135 A 
ATOM     87  F   UNL A   1      41.234  35.869  35.823  1.00  0.00    -0.206 F 
ATOM     88  C   UNL A   1      40.447  36.523  37.932  1.00  0.00     0.059 A 
ATOM     89  C   UNL A   1      38.949  35.065  39.169  1.00  0.00     0.059 A 
ATOM     90  F   UNL A   1      38.331  32.991  38.262  1.00  0.00    -0.206 F 
ATOM     91  C   UNL A   1      39.681  36.248  39.065  1.00  0.00     0.060 A 
BRANCH  91  92
ATOM     92  S   UNL A   1      39.649  37.468  40.396  1.00  0.00     0.124 S 
ATOM     93  O   UNL A   1      40.751  38.349  40.022  1.00  0.00    -0.237 OA
ATOM     94  O   UNL A   1      38.310  38.034  40.262  1.00  0.00    -0.237 OA
ATOM     95  O   UNL A   1      39.866  36.666  41.597  1.00  0.00    -0.744 OA
ENDBRANCH  91  92
ENDBRANCH  59  84
ENDBRANCH  33  34
ENDBRANCH  25  28
ENDBRANCH  23  24
ENDBRANCH   1  23
TORSDOF 16
ENDMDL
