MODEL 1
REMARK VINA RESULT:     -11.7      0.000      0.000
REMARK SMILES CCC1C[NH+]([C@@H](Cc2c[nH]c3ccccc23)C(=O)NCCCNC(=O)c2ccc(-c3c4nc(c(-c5c(F)cc(S(=O)(=O)[O-])cc5F)c5ccc([nH]5)c(-c5c(F)cc(S(=O)(=O)[O-])cc5F)c5nc(c(-c6c(F)cc(S(=O)(=O)[O-])cc6F)c6ccc3[nH]6)C=C5)C=C4)cc2)C1
REMARK SMILES IDX 21 1 20 2 19 3 17 4 18 5 6 7 5 8 3 9 4 10 92 11 2 13 1 14
REMARK SMILES IDX 7 15 8 16 9 17 16 18 10 19 11 20 15 21 12 23 14 24 13 25
REMARK SMILES IDX 22 26 23 27 24 28 25 30 26 31 27 32 91 33 28 34 90 35 29 36
REMARK SMILES IDX 30 37 31 38 84 39 32 40 89 41 83 42 85 43 33 44 88 45 82 46
REMARK SMILES IDX 81 47 34 49 68 50 47 51 67 52 48 53 51 54 66 55 86 56 49 57
REMARK SMILES IDX 50 58 65 60 87 61 52 62 35 63 36 64 45 65 37 66 38 67 44 68
REMARK SMILES IDX 46 69 39 70 40 71 41 72 42 73 43 74 69 75 70 76 79 77 71 78
REMARK SMILES IDX 72 79 78 80 80 81 73 82 74 83 75 84 76 85 77 86 53 87 54 88
REMARK SMILES IDX 63 89 55 90 56 91 62 92 64 93 57 94 58 95 59 96 60 97 61 98
REMARK H PARENT 19 6 5 12 10 22 23 29 85 48 51 59
REMARK Flexibility Score: inf
ROOT
ATOM      1  C   UNL A   1      32.243  27.854  26.840  1.00  0.00     0.042 C 
ENDROOT
BRANCH   1   2
ATOM      2  C   UNL A   1      32.303  26.419  26.355  1.00  0.00     0.118 C 
BRANCH   2   3
ATOM      3  N   UNL A   1      31.194  25.607  26.774  1.00  0.00    -0.351 N 
ATOM      4  C   UNL A   1      30.827  24.351  26.412  1.00  0.00     0.278 C 
ATOM      5  O   UNL A   1      29.994  23.814  27.158  1.00  0.00    -0.268 OA
ATOM      6  H   UNL A   1      30.600  26.033  27.434  1.00  0.00     0.163 HD
BRANCH   4   7
ATOM      7  C   UNL A   1      31.323  23.607  25.133  1.00  0.00     0.278 C 
BRANCH   7   8
ATOM      8  N   UNL A   1      31.718  22.222  25.529  1.00  0.00    -0.324 N 
ATOM      9  C   UNL A   1      33.737  21.899  24.982  1.00  0.00     0.099 C 
ATOM     10  C   UNL A   1      32.346  21.421  24.476  1.00  0.00     0.272 C 
ATOM     11  C   UNL A   1      32.983  22.150  26.307  1.00  0.00     0.272 C 
ATOM     12  H   UNL A   1      30.829  21.931  25.934  1.00  0.00     0.348 HD
BRANCH   9  13
ATOM     13  C   UNL A   1      34.890  20.919  24.854  1.00  0.00     0.012 C 
ATOM     14  C   UNL A   1      36.168  21.681  24.507  1.00  0.00     0.004 C 
ENDBRANCH   9  13
ENDBRANCH   7   8
BRANCH   7  15
ATOM     15  C   UNL A   1      30.811  24.111  23.742  1.00  0.00     0.113 C 
BRANCH  15  16
ATOM     16  C   UNL A   1      31.070  25.479  23.127  1.00  0.00    -0.016 A 
ATOM     17  C   UNL A   1      32.197  25.986  22.503  1.00  0.00     0.087 A 
ATOM     18  C   UNL A   1      30.136  26.588  23.143  1.00  0.00     0.003 A 
ATOM     19  N   UNL A   1      31.951  27.249  22.042  1.00  0.00    -0.361 N 
ATOM     20  C   UNL A   1      30.710  27.653  22.443  1.00  0.00     0.046 A 
ATOM     21  C   UNL A   1      28.849  26.787  23.688  1.00  0.00     0.010 A 
ATOM     22  H   UNL A   1      32.575  27.786  21.502  1.00  0.00     0.166 HD
ATOM     23  C   UNL A   1      30.071  28.878  22.234  1.00  0.00     0.026 A 
ATOM     24  C   UNL A   1      28.201  28.019  23.510  1.00  0.00     0.001 A 
ATOM     25  C   UNL A   1      28.804  29.046  22.788  1.00  0.00     0.002 A 
ENDBRANCH  15  16
ENDBRANCH   7  15
ENDBRANCH   4   7
ENDBRANCH   2   3
ENDBRANCH   1   2
BRANCH   1  26
ATOM     26  C   UNL A   1      33.625  28.476  26.939  1.00  0.00     0.118 C 
BRANCH  26  27
ATOM     27  N   UNL A   1      33.616  29.818  27.515  1.00  0.00    -0.352 N 
ATOM     28  C   UNL A   1      34.595  30.524  28.179  1.00  0.00     0.251 C 
ATOM     29  H   UNL A   1      32.764  30.301  27.411  1.00  0.00     0.163 HD
ATOM     30  O   UNL A   1      34.318  31.607  28.672  1.00  0.00    -0.269 OA
BRANCH  28  31
ATOM     31  C   UNL A   1      35.953  29.951  28.354  1.00  0.00     0.039 A 
ATOM     32  C   UNL A   1      36.868  30.057  27.300  1.00  0.00     0.014 A 
ATOM     33  C   UNL A   1      36.346  29.342  29.544  1.00  0.00     0.014 A 
ATOM     34  C   UNL A   1      38.193  29.650  27.485  1.00  0.00     0.010 A 
ATOM     35  C   UNL A   1      37.689  29.072  29.773  1.00  0.00     0.010 A 
ATOM     36  C   UNL A   1      38.629  29.210  28.744  1.00  0.00    -0.014 A 
BRANCH  36  37
ATOM     37  C   UNL A   1      40.051  28.870  29.012  1.00  0.00     0.031 A 
ATOM     38  C   UNL A   1      40.972  29.910  29.598  1.00  0.00     0.074 A 
ATOM     39  C   UNL A   1      40.537  27.667  28.646  1.00  0.00     0.049 A 
ATOM     40  N   UNL A   1      42.265  29.857  29.790  1.00  0.00    -0.248 NA
ATOM     41  C   UNL A   1      40.368  31.200  29.971  1.00  0.00     0.031 C 
ATOM     42  C   UNL A   1      39.765  26.597  28.006  1.00  0.00     0.029 A 
ATOM     43  N   UNL A   1      41.801  27.141  28.749  1.00  0.00    -0.354 N 
ATOM     44  C   UNL A   1      42.628  31.110  30.269  1.00  0.00     0.074 A 
ATOM     45  C   UNL A   1      41.434  31.924  30.274  1.00  0.00     0.031 C 
ATOM     46  C   UNL A   1      40.560  25.535  27.809  1.00  0.00     0.029 A 
ATOM     47  C   UNL A   1      41.908  25.859  28.265  1.00  0.00     0.049 A 
ATOM     48  H   UNL A   1      42.559  27.637  29.133  1.00  0.00     0.167 HD
ATOM     49  C   UNL A   1      43.839  31.538  30.699  1.00  0.00     0.037 A 
ATOM     50  C   UNL A   1      42.974  25.036  28.195  1.00  0.00     0.037 A 
ATOM     51  C   UNL A   1      45.010  30.706  30.745  1.00  0.00     0.049 A 
ATOM     52  C   UNL A   1      44.301  25.517  28.714  1.00  0.00     0.074 A 
ATOM     53  C   UNL A   1      46.266  31.012  31.237  1.00  0.00     0.029 A 
ATOM     54  N   UNL A   1      45.066  29.397  30.288  1.00  0.00    -0.354 N 
ATOM     55  N   UNL A   1      44.611  26.685  29.224  1.00  0.00    -0.248 NA
ATOM     56  C   UNL A   1      45.421  24.568  28.654  1.00  0.00     0.031 C 
ATOM     57  C   UNL A   1      47.092  29.899  31.045  1.00  0.00     0.029 A 
ATOM     58  C   UNL A   1      46.339  28.885  30.474  1.00  0.00     0.049 A 
ATOM     59  H   UNL A   1      44.312  28.904  29.891  1.00  0.00     0.167 HD
ATOM     60  C   UNL A   1      45.955  26.604  29.569  1.00  0.00     0.074 A 
ATOM     61  C   UNL A   1      46.395  25.269  29.219  1.00  0.00     0.031 C 
ATOM     62  C   UNL A   1      46.754  27.549  30.125  1.00  0.00     0.037 A 
BRANCH  49  63
ATOM     63  C   UNL A   1      43.945  32.966  31.166  1.00  0.00     0.058 A 
ATOM     64  C   UNL A   1      43.659  33.332  32.492  1.00  0.00     0.135 A 
ATOM     65  C   UNL A   1      44.335  33.981  30.278  1.00  0.00     0.135 A 
ATOM     66  F   UNL A   1      43.265  32.405  33.380  1.00  0.00    -0.206 F 
ATOM     67  C   UNL A   1      43.713  34.656  32.910  1.00  0.00     0.059 A 
ATOM     68  C   UNL A   1      44.427  35.309  30.683  1.00  0.00     0.059 A 
ATOM     69  F   UNL A   1      44.622  33.689  29.000  1.00  0.00    -0.206 F 
ATOM     70  C   UNL A   1      44.092  35.640  31.995  1.00  0.00     0.060 A 
BRANCH  70  71
ATOM     71  S   UNL A   1      44.140  37.358  32.549  1.00  0.00     0.124 S 
ATOM     72  O   UNL A   1      45.509  37.464  33.045  1.00  0.00    -0.237 OA
ATOM     73  O   UNL A   1      43.854  38.092  31.320  1.00  0.00    -0.237 OA
ATOM     74  O   UNL A   1      43.096  37.415  33.567  1.00  0.00    -0.744 OA
ENDBRANCH  70  71
ENDBRANCH  49  63
BRANCH  50  75
ATOM     75  C   UNL A   1      42.813  23.661  27.650  1.00  0.00     0.058 A 
ATOM     76  C   UNL A   1      42.552  22.579  28.503  1.00  0.00     0.135 A 
ATOM     77  C   UNL A   1      42.881  23.406  26.271  1.00  0.00     0.135 A 
ATOM     78  F   UNL A   1      42.483  22.772  29.829  1.00  0.00    -0.206 F 
ATOM     79  C   UNL A   1      42.374  21.290  28.012  1.00  0.00     0.059 A 
ATOM     80  C   UNL A   1      42.683  22.129  25.755  1.00  0.00     0.059 A 
ATOM     81  F   UNL A   1      43.110  24.410  25.412  1.00  0.00    -0.206 F 
ATOM     82  C   UNL A   1      42.435  21.076  26.634  1.00  0.00     0.060 A 
BRANCH  82  83
ATOM     83  S   UNL A   1      42.133  19.410  26.003  1.00  0.00     0.124 S 
ATOM     84  O   UNL A   1      42.952  19.400  24.797  1.00  0.00    -0.237 OA
ATOM     85  O   UNL A   1      42.607  18.576  27.104  1.00  0.00    -0.237 OA
ATOM     86  O   UNL A   1      40.690  19.391  25.789  1.00  0.00    -0.744 OA
ENDBRANCH  82  83
ENDBRANCH  50  75
BRANCH  62  87
ATOM     87  C   UNL A   1      48.176  27.165  30.420  1.00  0.00     0.058 A 
ATOM     88  C   UNL A   1      49.203  27.367  29.486  1.00  0.00     0.135 A 
ATOM     89  C   UNL A   1      48.522  26.641  31.677  1.00  0.00     0.135 A 
ATOM     90  F   UNL A   1      48.922  27.858  28.269  1.00  0.00    -0.206 F 
ATOM     91  C   UNL A   1      50.522  27.044  29.779  1.00  0.00     0.059 A 
ATOM     92  C   UNL A   1      49.840  26.337  32.001  1.00  0.00     0.059 A 
ATOM     93  F   UNL A   1      47.577  26.439  32.609  1.00  0.00    -0.206 F 
ATOM     94  C   UNL A   1      50.833  26.532  31.041  1.00  0.00     0.060 A 
BRANCH  94  95
ATOM     95  S   UNL A   1      52.555  26.154  31.424  1.00  0.00     0.124 S 
ATOM     96  O   UNL A   1      52.441  24.817  31.997  1.00  0.00    -0.237 OA
ATOM     97  O   UNL A   1      53.192  26.230  30.112  1.00  0.00    -0.237 OA
ATOM     98  O   UNL A   1      52.935  27.208  32.360  1.00  0.00    -0.744 OA
ENDBRANCH  94  95
ENDBRANCH  62  87
ENDBRANCH  36  37
ENDBRANCH  28  31
ENDBRANCH  26  27
ENDBRANCH   1  26
TORSDOF 17
ENDMDL
MODEL 2
REMARK VINA RESULT:     -11.6      1.385      3.084
REMARK SMILES CCC1C[NH+]([C@@H](Cc2c[nH]c3ccccc23)C(=O)NCCCNC(=O)c2ccc(-c3c4nc(c(-c5c(F)cc(S(=O)(=O)[O-])cc5F)c5ccc([nH]5)c(-c5c(F)cc(S(=O)(=O)[O-])cc5F)c5nc(c(-c6c(F)cc(S(=O)(=O)[O-])cc6F)c6ccc3[nH]6)C=C5)C=C4)cc2)C1
REMARK SMILES IDX 21 1 20 2 19 3 17 4 18 5 6 7 5 8 3 9 4 10 92 11 2 13 1 14
REMARK SMILES IDX 7 15 8 16 9 17 16 18 10 19 11 20 15 21 12 23 14 24 13 25
REMARK SMILES IDX 22 26 23 27 24 28 25 30 26 31 27 32 91 33 28 34 90 35 29 36
REMARK SMILES IDX 30 37 31 38 84 39 32 40 89 41 83 42 85 43 33 44 88 45 82 46
REMARK SMILES IDX 81 47 34 49 68 50 47 51 67 52 48 53 51 54 66 55 86 56 49 57
REMARK SMILES IDX 50 58 65 60 87 61 52 62 35 63 36 64 45 65 37 66 38 67 44 68
REMARK SMILES IDX 46 69 39 70 40 71 41 72 42 73 43 74 69 75 70 76 79 77 71 78
REMARK SMILES IDX 72 79 78 80 80 81 73 82 74 83 75 84 76 85 77 86 53 87 54 88
REMARK SMILES IDX 63 89 55 90 56 91 62 92 64 93 57 94 58 95 59 96 60 97 61 98
REMARK H PARENT 19 6 5 12 10 22 23 29 85 48 51 59
REMARK Flexibility Score: inf
ROOT
ATOM      1  C   UNL A   1      32.439  27.839  27.500  1.00  0.00     0.042 C 
ENDROOT
BRANCH   1   2
ATOM      2  C   UNL A   1      31.674  27.109  26.414  1.00  0.00     0.118 C 
BRANCH   2   3
ATOM      3  N   UNL A   1      31.085  25.869  26.837  1.00  0.00    -0.351 N 
ATOM      4  C   UNL A   1      31.333  24.591  26.451  1.00  0.00     0.278 C 
ATOM      5  O   UNL A   1      30.871  23.719  27.202  1.00  0.00    -0.268 OA
ATOM      6  H   UNL A   1      30.382  25.961  27.521  1.00  0.00     0.163 HD
BRANCH   4   7
ATOM      7  C   UNL A   1      32.076  24.179  25.142  1.00  0.00     0.278 C 
BRANCH   7   8
ATOM      8  N   UNL A   1      33.319  25.003  25.038  1.00  0.00    -0.324 N 
ATOM      9  C   UNL A   1      34.958  23.729  24.629  1.00  0.00     0.099 C 
ATOM     10  C   UNL A   1      34.447  24.545  25.850  1.00  0.00     0.272 C 
ATOM     11  C   UNL A   1      34.121  24.741  23.815  1.00  0.00     0.272 C 
ATOM     12  H   UNL A   1      32.898  25.916  25.212  1.00  0.00     0.348 HD
BRANCH   9  13
ATOM     13  C   UNL A   1      36.462  23.582  24.480  1.00  0.00     0.012 C 
ATOM     14  C   UNL A   1      36.770  22.732  23.249  1.00  0.00     0.004 C 
ENDBRANCH   9  13
ENDBRANCH   7   8
BRANCH   7  15
ATOM     15  C   UNL A   1      31.804  22.753  24.558  1.00  0.00     0.113 C 
BRANCH  15  16
ATOM     16  C   UNL A   1      32.396  21.444  25.059  1.00  0.00    -0.016 A 
ATOM     17  C   UNL A   1      32.996  21.132  26.268  1.00  0.00     0.087 A 
ATOM     18  C   UNL A   1      32.498  20.225  24.280  1.00  0.00     0.003 A 
ATOM     19  N   UNL A   1      33.319  19.804  26.303  1.00  0.00    -0.361 N 
ATOM     20  C   UNL A   1      33.052  19.232  25.092  1.00  0.00     0.046 A 
ATOM     21  C   UNL A   1      32.168  19.871  22.954  1.00  0.00     0.010 A 
ATOM     22  H   UNL A   1      33.688  19.332  27.083  1.00  0.00     0.166 HD
ATOM     23  C   UNL A   1      33.266  17.917  24.671  1.00  0.00     0.026 A 
ATOM     24  C   UNL A   1      32.399  18.562  22.505  1.00  0.00     0.001 A 
ATOM     25  C   UNL A   1      32.935  17.599  23.356  1.00  0.00     0.002 A 
ENDBRANCH  15  16
ENDBRANCH   7  15
ENDBRANCH   4   7
ENDBRANCH   2   3
ENDBRANCH   1   2
BRANCH   1  26
ATOM     26  C   UNL A   1      33.499  28.761  26.924  1.00  0.00     0.118 C 
BRANCH  26  27
ATOM     27  N   UNL A   1      33.504  30.088  27.532  1.00  0.00    -0.352 N 
ATOM     28  C   UNL A   1      34.485  30.761  28.229  1.00  0.00     0.251 C 
ATOM     29  H   UNL A   1      32.663  30.589  27.426  1.00  0.00     0.163 HD
ATOM     30  O   UNL A   1      34.218  31.836  28.744  1.00  0.00    -0.269 OA
BRANCH  28  31
ATOM     31  C   UNL A   1      35.829  30.159  28.413  1.00  0.00     0.039 A 
ATOM     32  C   UNL A   1      36.732  30.193  27.344  1.00  0.00     0.014 A 
ATOM     33  C   UNL A   1      36.222  29.593  29.624  1.00  0.00     0.014 A 
ATOM     34  C   UNL A   1      38.048  29.758  27.531  1.00  0.00     0.010 A 
ATOM     35  C   UNL A   1      37.560  29.297  29.848  1.00  0.00     0.010 A 
ATOM     36  C   UNL A   1      38.489  29.363  28.803  1.00  0.00    -0.014 A 
BRANCH  36  37
ATOM     37  C   UNL A   1      39.905  28.997  29.069  1.00  0.00     0.031 A 
ATOM     38  C   UNL A   1      40.847  30.020  29.650  1.00  0.00     0.074 A 
ATOM     39  C   UNL A   1      40.367  27.784  28.704  1.00  0.00     0.049 A 
ATOM     40  N   UNL A   1      42.139  29.943  29.839  1.00  0.00    -0.248 NA
ATOM     41  C   UNL A   1      40.268  31.323  30.021  1.00  0.00     0.031 C 
ATOM     42  C   UNL A   1      39.573  26.728  28.068  1.00  0.00     0.029 A 
ATOM     43  N   UNL A   1      41.621  27.234  28.805  1.00  0.00    -0.354 N 
ATOM     44  C   UNL A   1      42.527  31.190  30.315  1.00  0.00     0.074 A 
ATOM     45  C   UNL A   1      41.348  32.026  30.321  1.00  0.00     0.031 C 
ATOM     46  C   UNL A   1      40.348  25.650  27.871  1.00  0.00     0.029 A 
ATOM     47  C   UNL A   1      41.702  25.949  28.324  1.00  0.00     0.049 A 
ATOM     48  H   UNL A   1      42.389  27.716  29.186  1.00  0.00     0.167 HD
ATOM     49  C   UNL A   1      43.746  31.596  30.741  1.00  0.00     0.037 A 
ATOM     50  C   UNL A   1      42.752  25.106  28.252  1.00  0.00     0.037 A 
ATOM     51  C   UNL A   1      44.902  30.741  30.786  1.00  0.00     0.049 A 
ATOM     52  C   UNL A   1      44.089  25.563  28.767  1.00  0.00     0.074 A 
ATOM     53  C   UNL A   1      46.165  31.025  31.275  1.00  0.00     0.029 A 
ATOM     54  N   UNL A   1      44.932  29.430  30.332  1.00  0.00    -0.354 N 
ATOM     55  N   UNL A   1      44.422  26.726  29.275  1.00  0.00    -0.248 NA
ATOM     56  C   UNL A   1      45.191  24.593  28.707  1.00  0.00     0.031 C 
ATOM     57  C   UNL A   1      46.969  29.896  31.083  1.00  0.00     0.029 A 
ATOM     58  C   UNL A   1      46.196  28.895  30.516  1.00  0.00     0.049 A 
ATOM     59  H   UNL A   1      44.168  28.951  29.937  1.00  0.00     0.167 HD
ATOM     60  C   UNL A   1      45.766  26.620  29.616  1.00  0.00     0.074 A 
ATOM     61  C   UNL A   1      46.180  25.276  29.268  1.00  0.00     0.031 C 
ATOM     62  C   UNL A   1      46.584  27.550  30.169  1.00  0.00     0.037 A 
BRANCH  49  63
ATOM     63  C   UNL A   1      43.881  33.022  31.205  1.00  0.00     0.058 A 
ATOM     64  C   UNL A   1      43.817  33.365  32.566  1.00  0.00     0.135 A 
ATOM     65  C   UNL A   1      44.075  34.059  30.279  1.00  0.00     0.135 A 
ATOM     66  F   UNL A   1      43.617  32.416  33.494  1.00  0.00    -0.206 F 
ATOM     67  C   UNL A   1      43.895  34.686  32.989  1.00  0.00     0.059 A 
ATOM     68  C   UNL A   1      44.187  35.387  30.682  1.00  0.00     0.059 A 
ATOM     69  F   UNL A   1      44.145  33.790  28.966  1.00  0.00    -0.206 F 
ATOM     70  C   UNL A   1      44.074  35.692  32.038  1.00  0.00     0.060 A 
BRANCH  70  71
ATOM     71  S   UNL A   1      44.155  37.406  32.601  1.00  0.00     0.124 S 
ATOM     72  O   UNL A   1      43.024  37.461  33.522  1.00  0.00    -0.237 OA
ATOM     73  O   UNL A   1      45.477  37.472  33.216  1.00  0.00    -0.237 OA
ATOM     74  O   UNL A   1      44.001  38.175  31.370  1.00  0.00    -0.744 OA
ENDBRANCH  70  71
ENDBRANCH  49  63
BRANCH  50  75
ATOM     75  C   UNL A   1      42.564  23.734  27.711  1.00  0.00     0.058 A 
ATOM     76  C   UNL A   1      42.559  23.506  26.327  1.00  0.00     0.135 A 
ATOM     77  C   UNL A   1      42.424  22.623  28.557  1.00  0.00     0.135 A 
ATOM     78  F   UNL A   1      42.685  24.536  25.477  1.00  0.00    -0.206 F 
ATOM     79  C   UNL A   1      42.410  22.227  25.799  1.00  0.00     0.059 A 
ATOM     80  C   UNL A   1      42.297  21.332  28.053  1.00  0.00     0.059 A 
ATOM     81  F   UNL A   1      42.442  22.787  29.889  1.00  0.00    -0.206 F 
ATOM     82  C   UNL A   1      42.286  21.145  26.672  1.00  0.00     0.060 A 
BRANCH  82  83
ATOM     83  S   UNL A   1      42.163  19.482  25.976  1.00  0.00     0.124 S 
ATOM     84  O   UNL A   1      43.063  19.574  24.834  1.00  0.00    -0.237 OA
ATOM     85  O   UNL A   1      42.623  18.651  27.086  1.00  0.00    -0.237 OA
ATOM     86  O   UNL A   1      40.745  19.357  25.657  1.00  0.00    -0.744 OA
ENDBRANCH  82  83
ENDBRANCH  50  75
BRANCH  62  87
ATOM     87  C   UNL A   1      47.999  27.140  30.461  1.00  0.00     0.058 A 
ATOM     88  C   UNL A   1      49.046  27.420  29.571  1.00  0.00     0.135 A 
ATOM     89  C   UNL A   1      48.317  26.510  31.675  1.00  0.00     0.135 A 
ATOM     90  F   UNL A   1      48.793  28.014  28.395  1.00  0.00    -0.206 F 
ATOM     91  C   UNL A   1      50.359  27.071  29.865  1.00  0.00     0.059 A 
ATOM     92  C   UNL A   1      49.627  26.177  32.002  1.00  0.00     0.059 A 
ATOM     93  F   UNL A   1      47.352  26.229  32.565  1.00  0.00    -0.206 F 
ATOM     94  C   UNL A   1      50.641  26.452  31.084  1.00  0.00     0.060 A 
BRANCH  94  95
ATOM     95  S   UNL A   1      52.355  26.040  31.472  1.00  0.00     0.124 S 
ATOM     96  O   UNL A   1      52.212  24.709  32.053  1.00  0.00    -0.237 OA
ATOM     97  O   UNL A   1      52.995  26.094  30.161  1.00  0.00    -0.237 OA
ATOM     98  O   UNL A   1      52.756  27.090  32.402  1.00  0.00    -0.744 OA
ENDBRANCH  94  95
ENDBRANCH  62  87
ENDBRANCH  36  37
ENDBRANCH  28  31
ENDBRANCH  26  27
ENDBRANCH   1  26
TORSDOF 17
ENDMDL
MODEL 3
REMARK VINA RESULT:     -11.4      4.939     10.627
REMARK SMILES CCC1C[NH+]([C@@H](Cc2c[nH]c3ccccc23)C(=O)NCCCNC(=O)c2ccc(-c3c4nc(c(-c5c(F)cc(S(=O)(=O)[O-])cc5F)c5ccc([nH]5)c(-c5c(F)cc(S(=O)(=O)[O-])cc5F)c5nc(c(-c6c(F)cc(S(=O)(=O)[O-])cc6F)c6ccc3[nH]6)C=C5)C=C4)cc2)C1
REMARK SMILES IDX 21 1 20 2 19 3 17 4 18 5 6 7 5 8 3 9 4 10 92 11 2 13 1 14
REMARK SMILES IDX 7 15 8 16 9 17 16 18 10 19 11 20 15 21 12 23 14 24 13 25
REMARK SMILES IDX 22 26 23 27 24 28 25 30 26 31 27 32 91 33 28 34 90 35 29 36
REMARK SMILES IDX 30 37 31 38 84 39 32 40 89 41 83 42 85 43 33 44 88 45 82 46
REMARK SMILES IDX 81 47 34 49 68 50 47 51 67 52 48 53 51 54 66 55 86 56 49 57
REMARK SMILES IDX 50 58 65 60 87 61 52 62 35 63 36 64 45 65 37 66 38 67 44 68
REMARK SMILES IDX 46 69 39 70 40 71 41 72 42 73 43 74 69 75 70 76 79 77 71 78
REMARK SMILES IDX 72 79 78 80 80 81 73 82 74 83 75 84 76 85 77 86 53 87 54 88
REMARK SMILES IDX 63 89 55 90 56 91 62 92 64 93 57 94 58 95 59 96 60 97 61 98
REMARK H PARENT 19 6 5 12 10 22 23 29 85 48 51 59
REMARK Flexibility Score: inf
ROOT
ATOM      1  C   UNL A   1      38.172  22.770  26.008  1.00  0.00     0.042 C 
ENDROOT
BRANCH   1   2
ATOM      2  C   UNL A   1      37.098  23.759  25.604  1.00  0.00     0.118 C 
BRANCH   2   3
ATOM      3  N   UNL A   1      36.380  23.400  24.412  1.00  0.00    -0.351 N 
ATOM      4  C   UNL A   1      35.164  23.794  23.955  1.00  0.00     0.278 C 
ATOM      5  O   UNL A   1      34.945  23.537  22.761  1.00  0.00    -0.268 OA
ATOM      6  H   UNL A   1      36.849  22.759  23.829  1.00  0.00     0.163 HD
BRANCH   4   7
ATOM      7  C   UNL A   1      34.054  24.463  24.825  1.00  0.00     0.278 C 
BRANCH   7   8
ATOM      8  N   UNL A   1      33.937  25.892  24.405  1.00  0.00    -0.324 N 
ATOM      9  C   UNL A   1      32.885  26.965  25.895  1.00  0.00     0.099 C 
ATOM     10  C   UNL A   1      32.586  26.454  24.457  1.00  0.00     0.272 C 
ATOM     11  C   UNL A   1      34.359  26.867  25.444  1.00  0.00     0.272 C 
ATOM     12  H   UNL A   1      34.428  25.818  23.514  1.00  0.00     0.348 HD
BRANCH   9  13
ATOM     13  C   UNL A   1      32.226  28.267  26.314  1.00  0.00     0.012 C 
ATOM     14  C   UNL A   1      31.562  28.085  27.677  1.00  0.00     0.004 C 
ENDBRANCH   9  13
ENDBRANCH   7   8
BRANCH   7  15
ATOM     15  C   UNL A   1      32.956  23.542  25.455  1.00  0.00     0.113 C 
BRANCH  15  16
ATOM     16  C   UNL A   1      33.098  22.062  25.781  1.00  0.00    -0.016 A 
ATOM     17  C   UNL A   1      33.550  21.433  26.928  1.00  0.00     0.087 A 
ATOM     18  C   UNL A   1      32.822  20.977  24.859  1.00  0.00     0.003 A 
ATOM     19  N   UNL A   1      33.438  20.077  26.796  1.00  0.00    -0.361 N 
ATOM     20  C   UNL A   1      33.022  19.769  25.532  1.00  0.00     0.046 A 
ATOM     21  C   UNL A   1      32.417  20.909  23.508  1.00  0.00     0.010 A 
ATOM     22  H   UNL A   1      33.628  19.421  27.505  1.00  0.00     0.166 HD
ATOM     23  C   UNL A   1      32.818  18.515  24.952  1.00  0.00     0.026 A 
ATOM     24  C   UNL A   1      32.231  19.658  22.900  1.00  0.00     0.001 A 
ATOM     25  C   UNL A   1      32.423  18.480  23.616  1.00  0.00     0.002 A 
ENDBRANCH  15  16
ENDBRANCH   7  15
ENDBRANCH   4   7
ENDBRANCH   2   3
ENDBRANCH   1   2
BRANCH   1  26
ATOM     26  C   UNL A   1      39.219  23.405  26.904  1.00  0.00     0.118 C 
BRANCH  26  27
ATOM     27  N   UNL A   1      40.451  23.752  26.200  1.00  0.00    -0.352 N 
ATOM     28  C   UNL A   1      41.255  24.869  26.280  1.00  0.00     0.251 C 
ATOM     29  H   UNL A   1      40.760  23.072  25.559  1.00  0.00     0.163 HD
ATOM     30  O   UNL A   1      42.190  24.986  25.503  1.00  0.00    -0.269 OA
BRANCH  28  31
ATOM     31  C   UNL A   1      40.953  25.950  27.251  1.00  0.00     0.039 A 
ATOM     32  C   UNL A   1      39.987  25.717  28.237  1.00  0.00     0.014 A 
ATOM     33  C   UNL A   1      41.624  27.171  27.225  1.00  0.00     0.014 A 
ATOM     34  C   UNL A   1      39.780  26.662  29.246  1.00  0.00     0.010 A 
ATOM     35  C   UNL A   1      41.520  28.041  28.302  1.00  0.00     0.010 A 
ATOM     36  C   UNL A   1      40.589  27.806  29.321  1.00  0.00    -0.014 A 
BRANCH  36  37
ATOM     37  C   UNL A   1      40.475  28.782  30.437  1.00  0.00     0.031 A 
ATOM     38  C   UNL A   1      41.360  28.640  31.649  1.00  0.00     0.074 A 
ATOM     39  C   UNL A   1      39.520  29.733  30.405  1.00  0.00     0.049 A 
ATOM     40  N   UNL A   1      41.333  29.305  32.776  1.00  0.00    -0.248 NA
ATOM     41  C   UNL A   1      42.378  27.576  31.609  1.00  0.00     0.031 C 
ATOM     42  C   UNL A   1      38.554  29.932  29.320  1.00  0.00     0.029 A 
ATOM     43  N   UNL A   1      39.195  30.707  31.315  1.00  0.00    -0.354 N 
ATOM     44  C   UNL A   1      42.301  28.718  33.584  1.00  0.00     0.074 A 
ATOM     45  C   UNL A   1      42.848  27.602  32.846  1.00  0.00     0.031 C 
ATOM     46  C   UNL A   1      37.773  30.984  29.611  1.00  0.00     0.029 A 
ATOM     47  C   UNL A   1      38.149  31.507  30.920  1.00  0.00     0.049 A 
ATOM     48  H   UNL A   1      39.666  30.822  32.172  1.00  0.00     0.167 HD
ATOM     49  C   UNL A   1      42.721  29.092  34.815  1.00  0.00     0.037 A 
ATOM     50  C   UNL A   1      37.557  32.545  31.544  1.00  0.00     0.037 A 
ATOM     51  C   UNL A   1      42.211  30.238  35.519  1.00  0.00     0.049 A 
ATOM     52  C   UNL A   1      38.064  32.970  32.894  1.00  0.00     0.074 A 
ATOM     53  C   UNL A   1      42.622  30.755  36.735  1.00  0.00     0.029 A 
ATOM     54  N   UNL A   1      41.183  31.050  35.064  1.00  0.00    -0.354 N 
ATOM     55  N   UNL A   1      39.025  32.442  33.616  1.00  0.00    -0.248 NA
ATOM     56  C   UNL A   1      37.414  34.133  33.513  1.00  0.00     0.031 C 
ATOM     57  C   UNL A   1      41.817  31.860  37.031  1.00  0.00     0.029 A 
ATOM     58  C   UNL A   1      40.935  32.058  35.980  1.00  0.00     0.049 A 
ATOM     59  H   UNL A   1      40.701  30.929  34.214  1.00  0.00     0.167 HD
ATOM     60  C   UNL A   1      39.110  33.223  34.763  1.00  0.00     0.074 A 
ATOM     61  C   UNL A   1      38.112  34.265  34.633  1.00  0.00     0.031 C 
ATOM     62  C   UNL A   1      39.940  33.091  35.827  1.00  0.00     0.037 A 
BRANCH  49  63
ATOM     63  C   UNL A   1      43.793  28.260  35.466  1.00  0.00     0.058 A 
ATOM     64  C   UNL A   1      43.481  27.199  36.332  1.00  0.00     0.135 A 
ATOM     65  C   UNL A   1      45.150  28.525  35.222  1.00  0.00     0.135 A 
ATOM     66  F   UNL A   1      42.200  26.910  36.614  1.00  0.00    -0.206 F 
ATOM     67  C   UNL A   1      44.473  26.461  36.968  1.00  0.00     0.059 A 
ATOM     68  C   UNL A   1      46.160  27.779  35.823  1.00  0.00     0.059 A 
ATOM     69  F   UNL A   1      45.508  29.526  34.402  1.00  0.00    -0.206 F 
ATOM     70  C   UNL A   1      45.811  26.763  36.711  1.00  0.00     0.060 A 
BRANCH  70  71
ATOM     71  S   UNL A   1      47.087  25.807  37.558  1.00  0.00     0.124 S 
ATOM     72  O   UNL A   1      46.408  24.531  37.759  1.00  0.00    -0.237 OA
ATOM     73  O   UNL A   1      48.173  25.800  36.583  1.00  0.00    -0.237 OA
ATOM     74  O   UNL A   1      47.342  26.580  38.770  1.00  0.00    -0.744 OA
ENDBRANCH  70  71
ENDBRANCH  49  63
BRANCH  50  75
ATOM     75  C   UNL A   1      36.448  33.277  30.874  1.00  0.00     0.058 A 
ATOM     76  C   UNL A   1      35.133  33.175  31.350  1.00  0.00     0.135 A 
ATOM     77  C   UNL A   1      36.682  34.116  29.773  1.00  0.00     0.135 A 
ATOM     78  F   UNL A   1      34.858  32.381  32.396  1.00  0.00    -0.206 F 
ATOM     79  C   UNL A   1      34.086  33.871  30.754  1.00  0.00     0.059 A 
ATOM     80  C   UNL A   1      35.655  34.841  29.176  1.00  0.00     0.059 A 
ATOM     81  F   UNL A   1      37.926  34.262  29.292  1.00  0.00    -0.206 F 
ATOM     82  C   UNL A   1      34.359  34.707  29.670  1.00  0.00     0.060 A 
BRANCH  82  83
ATOM     83  S   UNL A   1      33.002  35.658  28.949  1.00  0.00     0.124 S 
ATOM     84  O   UNL A   1      32.256  36.053  30.137  1.00  0.00    -0.237 OA
ATOM     85  O   UNL A   1      33.714  36.729  28.257  1.00  0.00    -0.237 OA
ATOM     86  O   UNL A   1      32.342  34.691  28.078  1.00  0.00    -0.744 OA
ENDBRANCH  82  83
ENDBRANCH  50  75
BRANCH  62  87
ATOM     87  C   UNL A   1      39.829  34.114  36.922  1.00  0.00     0.058 A 
ATOM     88  C   UNL A   1      40.438  35.373  36.817  1.00  0.00     0.135 A 
ATOM     89  C   UNL A   1      39.055  33.849  38.063  1.00  0.00     0.135 A 
ATOM     90  F   UNL A   1      41.194  35.672  35.749  1.00  0.00    -0.206 F 
ATOM     91  C   UNL A   1      40.299  36.330  37.816  1.00  0.00     0.059 A 
ATOM     92  C   UNL A   1      38.881  34.801  39.062  1.00  0.00     0.059 A 
ATOM     93  F   UNL A   1      38.443  32.662  38.205  1.00  0.00    -0.206 F 
ATOM     94  C   UNL A   1      39.517  36.036  38.935  1.00  0.00     0.060 A 
BRANCH  94  95
ATOM     95  S   UNL A   1      39.312  37.299  40.207  1.00  0.00     0.124 S 
ATOM     96  O   UNL A   1      38.590  36.562  41.238  1.00  0.00    -0.237 OA
ATOM     97  O   UNL A   1      40.694  37.648  40.526  1.00  0.00    -0.237 OA
ATOM     98  O   UNL A   1      38.549  38.343  39.531  1.00  0.00    -0.744 OA
ENDBRANCH  94  95
ENDBRANCH  62  87
ENDBRANCH  36  37
ENDBRANCH  28  31
ENDBRANCH  26  27
ENDBRANCH   1  26
TORSDOF 17
ENDMDL
