MODEL 1
REMARK VINA RESULT:     -12.2      0.000      0.000
REMARK SMILES O=C1C[N@@H+](Cc2ccc(C(=O)NCCCNC(=O)c3ccc(-c4c5nc(c(-c6c(F)cc(S(=O)(=O)[O-])cc6F)c6ccc([nH]6)c(-c6c(F)cc(S(=O)(=O)[O-])cc6F)c6nc(c(-c7c(F)cc(S(=O)(=O)[O-])cc7F)c7ccc4[nH]7)C=C6)C=C5)cc3)cc2)CCN1
REMARK SMILES IDX 14 1 13 2 12 3 10 4 11 5 9 7 6 8 7 9 86 10 8 11 85 12 5 13
REMARK SMILES IDX 4 14 1 15 2 16 3 17 89 18 88 19 87 21 15 23 16 24 17 25
REMARK SMILES IDX 18 27 19 28 20 29 84 30 21 31 83 32 22 33 23 34 24 35 77 36
REMARK SMILES IDX 25 37 82 38 76 39 78 40 26 41 81 42 75 43 74 44 27 46 61 47
REMARK SMILES IDX 40 48 60 49 41 50 44 51 59 52 79 53 42 54 43 55 58 57 80 58
REMARK SMILES IDX 45 59 28 60 29 61 38 62 30 63 31 64 37 65 39 66 32 67 33 68
REMARK SMILES IDX 34 69 35 70 36 71 62 72 63 73 72 74 64 75 65 76 71 77 73 78
REMARK SMILES IDX 66 79 67 80 68 81 69 82 70 83 46 84 47 85 56 86 48 87 49 88
REMARK SMILES IDX 55 89 57 90 50 91 51 92 52 93 53 94 54 95
REMARK H PARENT 12 6 89 20 4 22 16 26 78 45 44 56
REMARK Flexibility Score: inf
ROOT
ATOM      1  C   UNL A   1      40.452  22.347  27.600  1.00  0.00     0.042 C 
ENDROOT
BRANCH   1   2
ATOM      2  C   UNL A   1      39.530  22.469  26.388  1.00  0.00     0.118 C 
BRANCH   2   3
ATOM      3  N   UNL A   1      39.096  21.168  25.905  1.00  0.00    -0.352 N 
ATOM      4  C   UNL A   1      37.958  20.803  25.226  1.00  0.00     0.251 C 
ATOM      5  O   UNL A   1      37.853  19.658  24.794  1.00  0.00    -0.269 OA
ATOM      6  H   UNL A   1      39.717  20.429  26.095  1.00  0.00     0.163 HD
BRANCH   4   7
ATOM      7  C   UNL A   1      36.897  21.792  24.940  1.00  0.00     0.039 A 
ATOM      8  C   UNL A   1      35.099  23.867  24.385  1.00  0.00     0.006 A 
ATOM      9  C   UNL A   1      35.977  23.406  23.394  1.00  0.00     0.010 A 
ATOM     10  C   UNL A   1      35.047  23.192  25.613  1.00  0.00     0.010 A 
ATOM     11  C   UNL A   1      36.874  22.374  23.671  1.00  0.00     0.014 A 
ATOM     12  C   UNL A   1      35.937  22.154  25.888  1.00  0.00     0.014 A 
BRANCH   8  13
ATOM     13  C   UNL A   1      34.246  25.090  24.154  1.00  0.00     0.299 C 
BRANCH  13  14
ATOM     14  N   UNL A   1      32.897  24.868  23.627  1.00  0.00    -0.322 N 
ATOM     15  O   UNL A   1      33.023  25.471  20.028  1.00  0.00    -0.269 OA
ATOM     16  C   UNL A   1      32.690  25.599  21.206  1.00  0.00     0.275 C 
ATOM     17  C   UNL A   1      32.828  24.457  22.215  1.00  0.00     0.363 C 
ATOM     18  N   UNL A   1      32.066  26.747  21.611  1.00  0.00    -0.346 N 
ATOM     19  C   UNL A   1      31.808  27.074  22.993  1.00  0.00     0.177 C 
ATOM     20  H   UNL A   1      31.777  27.386  20.920  1.00  0.00     0.163 HD
ATOM     21  C   UNL A   1      31.886  25.876  23.954  1.00  0.00     0.284 C 
ATOM     22  H   UNL A   1      32.629  24.050  24.175  1.00  0.00     0.348 HD
ENDBRANCH  13  14
ENDBRANCH   8  13
ENDBRANCH   4   7
ENDBRANCH   2   3
ENDBRANCH   1   2
BRANCH   1  23
ATOM     23  C   UNL A   1      41.797  23.045  27.426  1.00  0.00     0.118 C 
BRANCH  23  24
ATOM     24  N   UNL A   1      41.831  23.898  26.247  1.00  0.00    -0.352 N 
ATOM     25  C   UNL A   1      41.581  25.242  26.120  1.00  0.00     0.251 C 
ATOM     26  H   UNL A   1      42.072  23.439  25.411  1.00  0.00     0.163 HD
ATOM     27  O   UNL A   1      41.475  25.724  24.994  1.00  0.00    -0.269 OA
BRANCH  25  28
ATOM     28  C   UNL A   1      41.417  26.107  27.313  1.00  0.00     0.039 A 
ATOM     29  C   UNL A   1      42.406  27.056  27.590  1.00  0.00     0.014 A 
ATOM     30  C   UNL A   1      40.330  25.966  28.179  1.00  0.00     0.014 A 
ATOM     31  C   UNL A   1      42.274  27.898  28.698  1.00  0.00     0.010 A 
ATOM     32  C   UNL A   1      40.162  26.856  29.241  1.00  0.00     0.010 A 
ATOM     33  C   UNL A   1      41.134  27.829  29.515  1.00  0.00    -0.014 A 
BRANCH  33  34
ATOM     34  C   UNL A   1      40.941  28.776  30.645  1.00  0.00     0.031 A 
ATOM     35  C   UNL A   1      41.768  28.658  31.897  1.00  0.00     0.074 A 
ATOM     36  C   UNL A   1      39.967  29.705  30.569  1.00  0.00     0.049 A 
ATOM     37  N   UNL A   1      41.708  29.366  32.995  1.00  0.00    -0.248 NA
ATOM     38  C   UNL A   1      42.775  27.586  31.928  1.00  0.00     0.031 C 
ATOM     39  C   UNL A   1      39.053  29.877  29.437  1.00  0.00     0.029 A 
ATOM     40  N   UNL A   1      39.571  30.666  31.464  1.00  0.00    -0.354 N 
ATOM     41  C   UNL A   1      42.651  28.815  33.855  1.00  0.00     0.074 A 
ATOM     42  C   UNL A   1      43.236  27.684  33.167  1.00  0.00     0.031 C 
ATOM     43  C   UNL A   1      38.212  30.890  29.702  1.00  0.00     0.029 A 
ATOM     44  C   UNL A   1      38.503  31.416  31.032  1.00  0.00     0.049 A 
ATOM     45  H   UNL A   1      40.011  30.806  32.334  1.00  0.00     0.167 HD
ATOM     46  C   UNL A   1      43.007  29.222  35.098  1.00  0.00     0.037 A 
ATOM     47  C   UNL A   1      37.824  32.410  31.639  1.00  0.00     0.037 A 
ATOM     48  C   UNL A   1      42.436  30.364  35.768  1.00  0.00     0.049 A 
ATOM     49  C   UNL A   1      38.255  32.868  33.004  1.00  0.00     0.074 A 
ATOM     50  C   UNL A   1      42.790  30.912  36.988  1.00  0.00     0.029 A 
ATOM     51  N   UNL A   1      41.381  31.122  35.282  1.00  0.00    -0.354 N 
ATOM     52  N   UNL A   1      39.213  32.395  33.764  1.00  0.00    -0.248 NA
ATOM     53  C   UNL A   1      37.524  34.001  33.587  1.00  0.00     0.031 C 
ATOM     54  C   UNL A   1      41.918  31.972  37.263  1.00  0.00     0.029 A 
ATOM     55  C   UNL A   1      41.052  32.117  36.190  1.00  0.00     0.049 A 
ATOM     56  H   UNL A   1      40.931  30.977  34.418  1.00  0.00     0.167 HD
ATOM     57  C   UNL A   1      39.210  33.181  34.912  1.00  0.00     0.074 A 
ATOM     58  C   UNL A   1      38.167  34.171  34.735  1.00  0.00     0.031 C 
ATOM     59  C   UNL A   1      40.002  33.091  36.009  1.00  0.00     0.037 A 
BRANCH  46  60
ATOM     60  C   UNL A   1      44.056  28.419  35.821  1.00  0.00     0.058 A 
ATOM     61  C   UNL A   1      43.720  27.366  36.687  1.00  0.00     0.135 A 
ATOM     62  C   UNL A   1      45.420  28.698  35.633  1.00  0.00     0.135 A 
ATOM     63  F   UNL A   1      42.431  27.061  36.913  1.00  0.00    -0.206 F 
ATOM     64  C   UNL A   1      44.693  26.648  37.375  1.00  0.00     0.059 A 
ATOM     65  C   UNL A   1      46.413  27.972  36.287  1.00  0.00     0.059 A 
ATOM     66  F   UNL A   1      45.802  29.689  34.813  1.00  0.00    -0.206 F 
ATOM     67  C   UNL A   1      46.037  26.964  37.172  1.00  0.00     0.060 A 
BRANCH  67  68
ATOM     68  S   UNL A   1      47.289  26.039  38.089  1.00  0.00     0.124 S 
ATOM     69  O   UNL A   1      47.045  24.678  37.619  1.00  0.00    -0.237 OA
ATOM     70  O   UNL A   1      48.530  26.654  37.631  1.00  0.00    -0.237 OA
ATOM     71  O   UNL A   1      46.945  26.292  39.485  1.00  0.00    -0.744 OA
ENDBRANCH  67  68
ENDBRANCH  46  60
BRANCH  47  72
ATOM     72  C   UNL A   1      36.677  33.042  30.937  1.00  0.00     0.058 A 
ATOM     73  C   UNL A   1      35.355  32.777  31.323  1.00  0.00     0.135 A 
ATOM     74  C   UNL A   1      36.883  33.974  29.906  1.00  0.00     0.135 A 
ATOM     75  F   UNL A   1      35.107  31.890  32.298  1.00  0.00    -0.206 F 
ATOM     76  C   UNL A   1      34.277  33.416  30.718  1.00  0.00     0.059 A 
ATOM     77  C   UNL A   1      35.824  34.642  29.301  1.00  0.00     0.059 A 
ATOM     78  F   UNL A   1      38.130  34.274  29.512  1.00  0.00    -0.206 F 
ATOM     79  C   UNL A   1      34.523  34.355  29.714  1.00  0.00     0.060 A 
BRANCH  79  80
ATOM     80  S   UNL A   1      33.125  35.249  29.003  1.00  0.00     0.124 S 
ATOM     81  O   UNL A   1      33.783  36.417  28.427  1.00  0.00    -0.237 OA
ATOM     82  O   UNL A   1      32.593  34.279  28.049  1.00  0.00    -0.237 OA
ATOM     83  O   UNL A   1      32.272  35.510  30.159  1.00  0.00    -0.744 OA
ENDBRANCH  79  80
ENDBRANCH  47  72
BRANCH  59  84
ATOM     84  C   UNL A   1      39.780  34.096  37.106  1.00  0.00     0.058 A 
ATOM     85  C   UNL A   1      38.968  33.811  38.215  1.00  0.00     0.135 A 
ATOM     86  C   UNL A   1      40.423  35.344  37.069  1.00  0.00     0.135 A 
ATOM     87  F   UNL A   1      38.326  32.635  38.297  1.00  0.00    -0.206 F 
ATOM     88  C   UNL A   1      38.782  34.736  39.236  1.00  0.00     0.059 A 
ATOM     89  C   UNL A   1      40.272  36.275  38.092  1.00  0.00     0.059 A 
ATOM     90  F   UNL A   1      41.218  35.665  36.035  1.00  0.00    -0.206 F 
ATOM     91  C   UNL A   1      39.439  35.967  39.166  1.00  0.00     0.060 A 
BRANCH  91  92
ATOM     92  S   UNL A   1      39.208  37.150  40.509  1.00  0.00     0.124 S 
ATOM     93  O   UNL A   1      40.566  37.648  40.699  1.00  0.00    -0.237 OA
ATOM     94  O   UNL A   1      38.259  38.099  39.933  1.00  0.00    -0.237 OA
ATOM     95  O   UNL A   1      38.682  36.330  41.597  1.00  0.00    -0.744 OA
ENDBRANCH  91  92
ENDBRANCH  59  84
ENDBRANCH  33  34
ENDBRANCH  25  28
ENDBRANCH  23  24
ENDBRANCH   1  23
TORSDOF 15
ENDMDL
MODEL 2
REMARK VINA RESULT:     -11.8      4.865     10.733
REMARK SMILES O=C1C[N@@H+](Cc2ccc(C(=O)NCCCNC(=O)c3ccc(-c4c5nc(c(-c6c(F)cc(S(=O)(=O)[O-])cc6F)c6ccc([nH]6)c(-c6c(F)cc(S(=O)(=O)[O-])cc6F)c6nc(c(-c7c(F)cc(S(=O)(=O)[O-])cc7F)c7ccc4[nH]7)C=C6)C=C5)cc3)cc2)CCN1
REMARK SMILES IDX 14 1 13 2 12 3 10 4 11 5 9 7 6 8 7 9 86 10 8 11 85 12 5 13
REMARK SMILES IDX 4 14 1 15 2 16 3 17 89 18 88 19 87 21 15 23 16 24 17 25
REMARK SMILES IDX 18 27 19 28 20 29 84 30 21 31 83 32 22 33 23 34 24 35 77 36
REMARK SMILES IDX 25 37 82 38 76 39 78 40 26 41 81 42 75 43 74 44 27 46 61 47
REMARK SMILES IDX 40 48 60 49 41 50 44 51 59 52 79 53 42 54 43 55 58 57 80 58
REMARK SMILES IDX 45 59 28 60 29 61 38 62 30 63 31 64 37 65 39 66 32 67 33 68
REMARK SMILES IDX 34 69 35 70 36 71 62 72 63 73 72 74 64 75 65 76 71 77 73 78
REMARK SMILES IDX 66 79 67 80 68 81 69 82 70 83 46 84 47 85 56 86 48 87 49 88
REMARK SMILES IDX 55 89 57 90 50 91 51 92 52 93 53 94 54 95
REMARK H PARENT 12 6 89 20 4 22 16 26 78 45 44 56
REMARK Flexibility Score: inf
ROOT
ATOM      1  C   UNL A   1      33.074  27.861  25.635  1.00  0.00     0.042 C 
ENDROOT
BRANCH   1   2
ATOM      2  C   UNL A   1      31.561  27.695  25.511  1.00  0.00     0.118 C 
BRANCH   2   3
ATOM      3  N   UNL A   1      31.074  28.122  24.209  1.00  0.00    -0.352 N 
ATOM      4  C   UNL A   1      30.935  27.420  23.035  1.00  0.00     0.251 C 
ATOM      5  O   UNL A   1      30.374  27.948  22.079  1.00  0.00    -0.269 OA
ATOM      6  H   UNL A   1      30.801  29.066  24.159  1.00  0.00     0.163 HD
BRANCH   4   7
ATOM      7  C   UNL A   1      31.379  26.013  22.937  1.00  0.00     0.039 A 
ATOM      8  C   UNL A   1      32.225  23.345  23.044  1.00  0.00     0.006 A 
ATOM      9  C   UNL A   1      30.925  23.692  23.439  1.00  0.00     0.010 A 
ATOM     10  C   UNL A   1      33.049  24.329  22.478  1.00  0.00     0.010 A 
ATOM     11  C   UNL A   1      30.505  25.021  23.387  1.00  0.00     0.014 A 
ATOM     12  C   UNL A   1      32.625  25.657  22.418  1.00  0.00     0.014 A 
BRANCH   8  13
ATOM     13  C   UNL A   1      32.749  21.945  23.254  1.00  0.00     0.299 C 
BRANCH  13  14
ATOM     14  N   UNL A   1      32.979  21.524  24.638  1.00  0.00    -0.322 N 
ATOM     15  O   UNL A   1      36.512  20.651  24.934  1.00  0.00    -0.269 OA
ATOM     16  C   UNL A   1      35.288  20.521  24.953  1.00  0.00     0.275 C 
ATOM     17  C   UNL A   1      34.350  21.715  25.138  1.00  0.00     0.363 C 
ATOM     18  N   UNL A   1      34.742  19.267  24.933  1.00  0.00    -0.346 N 
ATOM     19  C   UNL A   1      33.331  19.011  24.763  1.00  0.00     0.177 C 
ATOM     20  H   UNL A   1      35.345  18.497  25.040  1.00  0.00     0.163 HD
ATOM     21  C   UNL A   1      32.429  20.225  25.033  1.00  0.00     0.284 C 
ATOM     22  H   UNL A   1      32.400  22.207  25.126  1.00  0.00     0.348 HD
ENDBRANCH  13  14
ENDBRANCH   8  13
ENDBRANCH   4   7
ENDBRANCH   2   3
ENDBRANCH   1   2
BRANCH   1  23
ATOM     23  C   UNL A   1      33.545  28.197  27.047  1.00  0.00     0.118 C 
BRANCH  23  24
ATOM     24  N   UNL A   1      33.430  29.615  27.347  1.00  0.00    -0.352 N 
ATOM     25  C   UNL A   1      34.314  30.464  27.967  1.00  0.00     0.251 C 
ATOM     26  H   UNL A   1      32.585  30.033  27.061  1.00  0.00     0.163 HD
ATOM     27  O   UNL A   1      33.933  31.586  28.295  1.00  0.00    -0.269 OA
BRANCH  25  28
ATOM     28  C   UNL A   1      35.704  30.040  28.260  1.00  0.00     0.039 A 
ATOM     29  C   UNL A   1      36.651  30.099  27.234  1.00  0.00     0.014 A 
ATOM     30  C   UNL A   1      36.073  29.549  29.515  1.00  0.00     0.014 A 
ATOM     31  C   UNL A   1      37.974  29.722  27.481  1.00  0.00     0.010 A 
ATOM     32  C   UNL A   1      37.408  29.244  29.782  1.00  0.00     0.010 A 
ATOM     33  C   UNL A   1      38.373  29.322  28.767  1.00  0.00    -0.014 A 
BRANCH  33  34
ATOM     34  C   UNL A   1      39.794  29.002  29.064  1.00  0.00     0.031 A 
ATOM     35  C   UNL A   1      40.709  30.042  29.654  1.00  0.00     0.074 A 
ATOM     36  C   UNL A   1      40.281  27.789  28.736  1.00  0.00     0.049 A 
ATOM     37  N   UNL A   1      41.983  29.955  29.938  1.00  0.00    -0.248 NA
ATOM     38  C   UNL A   1      40.120  31.360  29.936  1.00  0.00     0.031 C 
ATOM     39  C   UNL A   1      39.514  26.717  28.096  1.00  0.00     0.029 A 
ATOM     40  N   UNL A   1      41.538  27.257  28.878  1.00  0.00    -0.354 N 
ATOM     41  C   UNL A   1      42.354  31.208  30.410  1.00  0.00     0.074 A 
ATOM     42  C   UNL A   1      41.180  32.051  30.331  1.00  0.00     0.031 C 
ATOM     43  C   UNL A   1      40.312  25.654  27.912  1.00  0.00     0.029 A 
ATOM     44  C   UNL A   1      41.654  25.977  28.388  1.00  0.00     0.049 A 
ATOM     45  H   UNL A   1      42.286  27.746  29.291  1.00  0.00     0.167 HD
ATOM     46  C   UNL A   1      43.558  31.616  30.881  1.00  0.00     0.037 A 
ATOM     47  C   UNL A   1      42.721  25.156  28.319  1.00  0.00     0.037 A 
ATOM     48  C   UNL A   1      44.716  30.764  30.979  1.00  0.00     0.049 A 
ATOM     49  C   UNL A   1      44.039  25.615  28.876  1.00  0.00     0.074 A 
ATOM     50  C   UNL A   1      45.955  31.054  31.525  1.00  0.00     0.029 A 
ATOM     51  N   UNL A   1      44.785  29.461  30.508  1.00  0.00    -0.354 N 
ATOM     52  N   UNL A   1      44.348  26.774  29.407  1.00  0.00    -0.248 NA
ATOM     53  C   UNL A   1      45.149  24.654  28.837  1.00  0.00     0.031 C 
ATOM     54  C   UNL A   1      46.787  29.944  31.339  1.00  0.00     0.029 A 
ATOM     55  C   UNL A   1      46.053  28.943  30.723  1.00  0.00     0.049 A 
ATOM     56  H   UNL A   1      44.042  28.974  30.083  1.00  0.00     0.167 HD
ATOM     57  C   UNL A   1      45.685  26.678  29.778  1.00  0.00     0.074 A 
ATOM     58  C   UNL A   1      46.118  25.340  29.428  1.00  0.00     0.031 C 
ATOM     59  C   UNL A   1      46.478  27.612  30.359  1.00  0.00     0.037 A 
BRANCH  46  60
ATOM     60  C   UNL A   1      43.686  33.052  31.316  1.00  0.00     0.058 A 
ATOM     61  C   UNL A   1      44.037  34.072  30.416  1.00  0.00     0.135 A 
ATOM     62  C   UNL A   1      43.442  33.417  32.650  1.00  0.00     0.135 A 
ATOM     63  F   UNL A   1      44.292  33.780  29.129  1.00  0.00    -0.206 F 
ATOM     64  C   UNL A   1      44.184  35.392  30.830  1.00  0.00     0.059 A 
ATOM     65  C   UNL A   1      43.553  34.736  33.081  1.00  0.00     0.059 A 
ATOM     66  F   UNL A   1      43.099  32.486  33.554  1.00  0.00    -0.206 F 
ATOM     67  C   UNL A   1      43.945  35.713  32.167  1.00  0.00     0.060 A 
BRANCH  67  68
ATOM     68  S   UNL A   1      44.162  37.426  32.696  1.00  0.00     0.124 S 
ATOM     69  O   UNL A   1      43.058  37.579  33.639  1.00  0.00    -0.237 OA
ATOM     70  O   UNL A   1      45.498  37.405  33.282  1.00  0.00    -0.237 OA
ATOM     71  O   UNL A   1      44.036  38.183  31.455  1.00  0.00    -0.744 OA
ENDBRANCH  67  68
ENDBRANCH  46  60
BRANCH  47  72
ATOM     72  C   UNL A   1      42.565  23.810  27.710  1.00  0.00     0.058 A 
ATOM     73  C   UNL A   1      42.671  23.623  26.324  1.00  0.00     0.135 A 
ATOM     74  C   UNL A   1      42.369  22.672  28.510  1.00  0.00     0.135 A 
ATOM     75  F   UNL A   1      42.851  24.681  25.518  1.00  0.00    -0.206 F 
ATOM     76  C   UNL A   1      42.594  22.358  25.751  1.00  0.00     0.059 A 
ATOM     77  C   UNL A   1      42.312  21.394  27.963  1.00  0.00     0.059 A 
ATOM     78  F   UNL A   1      42.279  22.796  29.843  1.00  0.00    -0.206 F 
ATOM     79  C   UNL A   1      42.425  21.248  26.581  1.00  0.00     0.060 A 
BRANCH  79  80
ATOM     80  S   UNL A   1      42.425  19.602  25.837  1.00  0.00     0.124 S 
ATOM     81  O   UNL A   1      42.810  18.766  26.970  1.00  0.00    -0.237 OA
ATOM     82  O   UNL A   1      41.043  19.470  25.385  1.00  0.00    -0.237 OA
ATOM     83  O   UNL A   1      43.415  19.717  24.771  1.00  0.00    -0.744 OA
ENDBRANCH  79  80
ENDBRANCH  47  72
BRANCH  59  84
ATOM     84  C   UNL A   1      47.898  27.221  30.664  1.00  0.00     0.058 A 
ATOM     85  C   UNL A   1      48.230  26.493  31.817  1.00  0.00     0.135 A 
ATOM     86  C   UNL A   1      48.933  27.540  29.770  1.00  0.00     0.135 A 
ATOM     87  F   UNL A   1      47.279  26.167  32.708  1.00  0.00    -0.206 F 
ATOM     88  C   UNL A   1      49.542  26.116  32.086  1.00  0.00     0.059 A 
ATOM     89  C   UNL A   1      50.248  27.150  30.006  1.00  0.00     0.059 A 
ATOM     90  F   UNL A   1      48.669  28.227  28.647  1.00  0.00    -0.206 F 
ATOM     91  C   UNL A   1      50.545  26.450  31.173  1.00  0.00     0.060 A 
BRANCH  91  92
ATOM     92  S   UNL A   1      52.239  25.934  31.521  1.00  0.00     0.124 S 
ATOM     93  O   UNL A   1      52.032  24.600  32.075  1.00  0.00    -0.237 OA
ATOM     94  O   UNL A   1      52.860  25.983  30.201  1.00  0.00    -0.237 OA
ATOM     95  O   UNL A   1      52.712  26.941  32.467  1.00  0.00    -0.744 OA
ENDBRANCH  91  92
ENDBRANCH  59  84
ENDBRANCH  33  34
ENDBRANCH  25  28
ENDBRANCH  23  24
ENDBRANCH   1  23
TORSDOF 15
ENDMDL
MODEL 3
REMARK VINA RESULT:     -11.8      1.259      1.848
REMARK SMILES O=C1C[N@@H+](Cc2ccc(C(=O)NCCCNC(=O)c3ccc(-c4c5nc(c(-c6c(F)cc(S(=O)(=O)[O-])cc6F)c6ccc([nH]6)c(-c6c(F)cc(S(=O)(=O)[O-])cc6F)c6nc(c(-c7c(F)cc(S(=O)(=O)[O-])cc7F)c7ccc4[nH]7)C=C6)C=C5)cc3)cc2)CCN1
REMARK SMILES IDX 14 1 13 2 12 3 10 4 11 5 9 7 6 8 7 9 86 10 8 11 85 12 5 13
REMARK SMILES IDX 4 14 1 15 2 16 3 17 89 18 88 19 87 21 15 23 16 24 17 25
REMARK SMILES IDX 18 27 19 28 20 29 84 30 21 31 83 32 22 33 23 34 24 35 77 36
REMARK SMILES IDX 25 37 82 38 76 39 78 40 26 41 81 42 75 43 74 44 27 46 61 47
REMARK SMILES IDX 40 48 60 49 41 50 44 51 59 52 79 53 42 54 43 55 58 57 80 58
REMARK SMILES IDX 45 59 28 60 29 61 38 62 30 63 31 64 37 65 39 66 32 67 33 68
REMARK SMILES IDX 34 69 35 70 36 71 62 72 63 73 72 74 64 75 65 76 71 77 73 78
REMARK SMILES IDX 66 79 67 80 68 81 69 82 70 83 46 84 47 85 56 86 48 87 49 88
REMARK SMILES IDX 55 89 57 90 50 91 51 92 52 93 53 94 54 95
REMARK H PARENT 12 6 89 20 4 22 16 26 78 45 44 56
REMARK Flexibility Score: inf
ROOT
ATOM      1  C   UNL A   1      39.361  21.977  26.497  1.00  0.00     0.042 C 
ENDROOT
BRANCH   1   2
ATOM      2  C   UNL A   1      38.119  22.447  25.743  1.00  0.00     0.118 C 
BRANCH   2   3
ATOM      3  N   UNL A   1      37.163  21.368  25.549  1.00  0.00    -0.352 N 
ATOM      4  C   UNL A   1      35.835  21.406  25.196  1.00  0.00     0.251 C 
ATOM      5  O   UNL A   1      35.243  20.357  24.957  1.00  0.00    -0.269 OA
ATOM      6  H   UNL A   1      37.525  20.465  25.693  1.00  0.00     0.163 HD
BRANCH   4   7
ATOM      7  C   UNL A   1      35.134  22.696  25.023  1.00  0.00     0.039 A 
ATOM      8  C   UNL A   1      34.069  25.260  24.649  1.00  0.00     0.006 A 
ATOM      9  C   UNL A   1      34.611  24.553  23.566  1.00  0.00     0.010 A 
ATOM     10  C   UNL A   1      33.954  24.618  25.891  1.00  0.00     0.010 A 
ATOM     11  C   UNL A   1      35.142  23.277  23.753  1.00  0.00     0.014 A 
ATOM     12  C   UNL A   1      34.478  23.338  26.076  1.00  0.00     0.014 A 
BRANCH   8  13
ATOM     13  C   UNL A   1      33.647  26.701  24.498  1.00  0.00     0.299 C 
BRANCH  13  14
ATOM     14  N   UNL A   1      32.744  27.238  25.519  1.00  0.00    -0.322 N 
ATOM     15  O   UNL A   1      30.347  29.404  23.818  1.00  0.00    -0.269 OA
ATOM     16  C   UNL A   1      31.239  29.059  24.593  1.00  0.00     0.275 C 
ATOM     17  C   UNL A   1      31.400  27.606  25.045  1.00  0.00     0.363 C 
ATOM     18  N   UNL A   1      32.039  30.007  25.168  1.00  0.00    -0.346 N 
ATOM     19  C   UNL A   1      33.223  29.699  25.935  1.00  0.00     0.177 C 
ATOM     20  H   UNL A   1      31.794  30.953  25.053  1.00  0.00     0.163 HD
ATOM     21  C   UNL A   1      33.299  28.244  26.428  1.00  0.00     0.284 C 
ATOM     22  H   UNL A   1      32.624  26.408  26.099  1.00  0.00     0.348 HD
ENDBRANCH  13  14
ENDBRANCH   8  13
ENDBRANCH   4   7
ENDBRANCH   2   3
ENDBRANCH   1   2
BRANCH   1  23
ATOM     23  C   UNL A   1      40.173  23.110  27.117  1.00  0.00     0.118 C 
BRANCH  23  24
ATOM     24  N   UNL A   1      41.020  23.782  26.145  1.00  0.00    -0.352 N 
ATOM     25  C   UNL A   1      41.498  25.070  26.127  1.00  0.00     0.251 C 
ATOM     26  H   UNL A   1      41.294  23.228  25.380  1.00  0.00     0.163 HD
ATOM     27  O   UNL A   1      42.038  25.491  25.107  1.00  0.00    -0.269 OA
BRANCH  25  28
ATOM     28  C   UNL A   1      41.351  25.957  27.306  1.00  0.00     0.039 A 
ATOM     29  C   UNL A   1      42.361  26.886  27.573  1.00  0.00     0.014 A 
ATOM     30  C   UNL A   1      40.258  25.856  28.171  1.00  0.00     0.014 A 
ATOM     31  C   UNL A   1      42.247  27.748  28.667  1.00  0.00     0.010 A 
ATOM     32  C   UNL A   1      40.109  26.765  29.218  1.00  0.00     0.010 A 
ATOM     33  C   UNL A   1      41.103  27.718  29.482  1.00  0.00    -0.014 A 
BRANCH  33  34
ATOM     34  C   UNL A   1      40.930  28.688  30.596  1.00  0.00     0.031 A 
ATOM     35  C   UNL A   1      41.749  28.568  31.852  1.00  0.00     0.074 A 
ATOM     36  C   UNL A   1      39.979  29.638  30.502  1.00  0.00     0.049 A 
ATOM     37  N   UNL A   1      41.703  29.294  32.940  1.00  0.00    -0.248 NA
ATOM     38  C   UNL A   1      42.729  27.472  31.904  1.00  0.00     0.031 C 
ATOM     39  C   UNL A   1      39.074  29.816  29.365  1.00  0.00     0.029 A 
ATOM     40  N   UNL A   1      39.604  30.623  31.381  1.00  0.00    -0.354 N 
ATOM     41  C   UNL A   1      42.629  28.733  33.812  1.00  0.00     0.074 A 
ATOM     42  C   UNL A   1      43.189  27.578  33.143  1.00  0.00     0.031 C 
ATOM     43  C   UNL A   1      38.257  30.853  29.611  1.00  0.00     0.029 A 
ATOM     44  C   UNL A   1      38.556  31.392  30.934  1.00  0.00     0.049 A 
ATOM     45  H   UNL A   1      40.044  30.765  32.251  1.00  0.00     0.167 HD
ATOM     46  C   UNL A   1      42.991  29.150  35.050  1.00  0.00     0.037 A 
ATOM     47  C   UNL A   1      37.900  32.412  31.523  1.00  0.00     0.037 A 
ATOM     48  C   UNL A   1      42.445  30.315  35.700  1.00  0.00     0.049 A 
ATOM     49  C   UNL A   1      38.338  32.880  32.882  1.00  0.00     0.074 A 
ATOM     50  C   UNL A   1      42.810  30.874  36.913  1.00  0.00     0.029 A 
ATOM     51  N   UNL A   1      41.411  31.093  35.198  1.00  0.00    -0.354 N 
ATOM     52  N   UNL A   1      39.281  32.395  33.653  1.00  0.00    -0.248 NA
ATOM     53  C   UNL A   1      37.633  34.039  33.445  1.00  0.00     0.031 C 
ATOM     54  C   UNL A   1      41.963  31.958  37.168  1.00  0.00     0.029 A 
ATOM     55  C   UNL A   1      41.104  32.108  36.090  1.00  0.00     0.049 A 
ATOM     56  H   UNL A   1      40.961  30.945  34.335  1.00  0.00     0.167 HD
ATOM     57  C   UNL A   1      39.294  33.199  34.789  1.00  0.00     0.074 A 
ATOM     58  C   UNL A   1      38.276  34.211  34.593  1.00  0.00     0.031 C 
ATOM     59  C   UNL A   1      40.079  33.105  35.891  1.00  0.00     0.037 A 
BRANCH  46  60
ATOM     60  C   UNL A   1      44.017  28.333  35.788  1.00  0.00     0.058 A 
ATOM     61  C   UNL A   1      43.652  27.313  36.682  1.00  0.00     0.135 A 
ATOM     62  C   UNL A   1      45.389  28.563  35.588  1.00  0.00     0.135 A 
ATOM     63  F   UNL A   1      42.355  27.055  36.920  1.00  0.00    -0.206 F 
ATOM     64  C   UNL A   1      44.605  26.582  37.384  1.00  0.00     0.059 A 
ATOM     65  C   UNL A   1      46.361  27.824  36.257  1.00  0.00     0.059 A 
ATOM     66  F   UNL A   1      45.797  29.521  34.742  1.00  0.00    -0.206 F 
ATOM     67  C   UNL A   1      45.958  26.850  37.169  1.00  0.00     0.060 A 
BRANCH  67  68
ATOM     68  S   UNL A   1      47.184  25.909  38.104  1.00  0.00     0.124 S 
ATOM     69  O   UNL A   1      48.376  26.732  37.927  1.00  0.00    -0.237 OA
ATOM     70  O   UNL A   1      46.613  25.901  39.447  1.00  0.00    -0.237 OA
ATOM     71  O   UNL A   1      47.208  24.616  37.428  1.00  0.00    -0.744 OA
ENDBRANCH  67  68
ENDBRANCH  46  60
BRANCH  47  72
ATOM     72  C   UNL A   1      36.771  33.061  30.807  1.00  0.00     0.058 A 
ATOM     73  C   UNL A   1      35.442  32.839  31.196  1.00  0.00     0.135 A 
ATOM     74  C   UNL A   1      37.004  33.968  29.759  1.00  0.00     0.135 A 
ATOM     75  F   UNL A   1      35.170  31.977  32.186  1.00  0.00    -0.206 F 
ATOM     76  C   UNL A   1      34.383  33.495  30.576  1.00  0.00     0.059 A 
ATOM     77  C   UNL A   1      35.964  34.652  29.140  1.00  0.00     0.059 A 
ATOM     78  F   UNL A   1      38.259  34.227  29.363  1.00  0.00    -0.206 F 
ATOM     79  C   UNL A   1      34.655  34.408  29.555  1.00  0.00     0.060 A 
BRANCH  79  80
ATOM     80  S   UNL A   1      33.282  35.326  28.825  1.00  0.00     0.124 S 
ATOM     81  O   UNL A   1      33.983  36.396  28.124  1.00  0.00    -0.237 OA
ATOM     82  O   UNL A   1      32.652  34.315  27.982  1.00  0.00    -0.237 OA
ATOM     83  O   UNL A   1      32.499  35.737  29.987  1.00  0.00    -0.744 OA
ENDBRANCH  79  80
ENDBRANCH  47  72
BRANCH  59  84
ATOM     84  C   UNL A   1      39.879  34.132  36.971  1.00  0.00     0.058 A 
ATOM     85  C   UNL A   1      40.601  35.336  36.987  1.00  0.00     0.135 A 
ATOM     86  C   UNL A   1      38.921  33.929  37.979  1.00  0.00     0.135 A 
ATOM     87  F   UNL A   1      41.532  35.577  36.051  1.00  0.00    -0.206 F 
ATOM     88  C   UNL A   1      40.399  36.291  37.978  1.00  0.00     0.059 A 
ATOM     89  C   UNL A   1      38.684  34.883  38.964  1.00  0.00     0.059 A 
ATOM     90  F   UNL A   1      38.196  32.799  38.005  1.00  0.00    -0.206 F 
ATOM     91  C   UNL A   1      39.437  36.055  38.963  1.00  0.00     0.060 A 
BRANCH  91  92
ATOM     92  S   UNL A   1      39.167  37.314  40.228  1.00  0.00     0.124 S 
ATOM     93  O   UNL A   1      38.716  36.505  41.356  1.00  0.00    -0.237 OA
ATOM     94  O   UNL A   1      40.492  37.911  40.365  1.00  0.00    -0.237 OA
ATOM     95  O   UNL A   1      38.154  38.181  39.633  1.00  0.00    -0.744 OA
ENDBRANCH  91  92
ENDBRANCH  59  84
ENDBRANCH  33  34
ENDBRANCH  25  28
ENDBRANCH  23  24
ENDBRANCH   1  23
TORSDOF 15
ENDMDL
