MODEL 1
REMARK VINA RESULT:     -11.9      0.000      0.000
REMARK SMILES C[C@H](O)C[NH2+][C@H](CC(=O)Nc1cccc2ccccc12)C(=O)NCCCNC(=O)c1ccc(-c2c3nc(c(-c4c(F)cc(S(=O)(=O)[O-])cc4F)c4ccc([nH]4)c(-c4c(F)cc(S(=O)(=O)[O-])cc4F)c4nc(c(-c5c(F)cc(S(=O)(=O)[O-])cc5F)c5ccc2[nH]5)C=C4)C=C3)cc1
REMARK SMILES IDX 24 1 23 2 21 3 22 4 6 6 5 7 4 10 2 11 1 12 3 13 7 15 8 16
REMARK SMILES IDX 9 17 10 18 11 20 12 21 20 22 13 23 15 24 19 25 14 26 16 27
REMARK SMILES IDX 18 28 17 29 25 30 26 31 27 32 28 33 29 35 30 36 31 37 95 38
REMARK SMILES IDX 32 39 94 40 33 41 34 42 35 43 88 44 36 45 93 46 87 47 89 48
REMARK SMILES IDX 37 49 92 50 86 51 85 52 38 54 72 55 51 56 71 57 52 58 55 59
REMARK SMILES IDX 70 60 90 61 53 62 54 63 69 65 91 66 56 67 39 68 40 69 49 70
REMARK SMILES IDX 41 71 42 72 48 73 50 74 43 75 44 76 45 77 46 78 47 79 73 80
REMARK SMILES IDX 74 81 83 82 75 83 76 84 82 85 84 86 77 87 78 88 79 89 80 90
REMARK SMILES IDX 81 91 57 92 58 93 67 94 59 95 60 96 66 97 68 98 61 99 62 100
REMARK SMILES IDX 63 101 64 102 65 103
REMARK H PARENT 23 5 5 8 5 9 3 14 10 19 27 34 89 53 55 64
REMARK Flexibility Score: inf
ROOT
ATOM      1  C   UNL A   1      33.602  27.410  24.418  1.00  0.00     0.118 C 
ENDROOT
BRANCH   1   2
ATOM      2  N   UNL A   1      33.793  26.289  23.522  1.00  0.00    -0.351 N 
ATOM      3  C   UNL A   1      32.927  26.034  22.453  1.00  0.00     0.278 C 
ATOM      4  O   UNL A   1      33.449  25.952  21.336  1.00  0.00    -0.268 OA
ATOM      5  H   UNL A   1      34.557  25.685  23.669  1.00  0.00     0.163 HD
BRANCH   3   6
ATOM      6  C   UNL A   1      31.395  25.704  22.681  1.00  0.00     0.282 C 
BRANCH   6   7
ATOM      7  N   UNL A   1      30.436  26.858  22.941  1.00  0.00    -0.333 N 
ATOM      8  H   UNL A   1      29.517  26.595  22.586  1.00  0.00     0.347 HD
ATOM      9  H   UNL A   1      30.443  27.020  23.948  1.00  0.00     0.347 HD
BRANCH   7  10
ATOM     10  C   UNL A   1      30.825  28.121  22.313  1.00  0.00     0.292 C 
BRANCH  10  11
ATOM     11  C   UNL A   1      30.027  29.438  22.423  1.00  0.00     0.166 C 
ATOM     12  C   UNL A   1      28.555  29.074  22.715  1.00  0.00     0.044 C 
BRANCH  11  13
ATOM     13  O   UNL A   1      30.097  30.130  21.173  1.00  0.00    -0.388 OA
ATOM     14  H   UNL A   1      29.855  29.525  20.454  1.00  0.00     0.211 HD
ENDBRANCH  11  13
ENDBRANCH  10  11
ENDBRANCH   7  10
ENDBRANCH   6   7
BRANCH   6  15
ATOM     15  C   UNL A   1      31.057  24.350  23.298  1.00  0.00     0.175 C 
BRANCH  15  16
ATOM     16  C   UNL A   1      31.073  23.998  24.781  1.00  0.00     0.230 C 
ATOM     17  O   UNL A   1      30.384  24.729  25.518  1.00  0.00    -0.274 OA
ATOM     18  N   UNL A   1      31.582  22.923  25.437  1.00  0.00    -0.325 N 
ATOM     19  H   UNL A   1      31.147  22.858  26.318  1.00  0.00     0.169 HD
BRANCH  18  20
ATOM     20  C   UNL A   1      32.518  21.856  25.311  1.00  0.00     0.049 A 
ATOM     21  C   UNL A   1      32.173  20.530  25.036  1.00  0.00     0.027 A 
ATOM     22  C   UNL A   1      33.904  22.149  25.397  1.00  0.00     0.005 A 
ATOM     23  C   UNL A   1      33.089  19.525  24.746  1.00  0.00     0.003 A 
ATOM     24  C   UNL A   1      34.847  21.119  25.108  1.00  0.00    -0.016 A 
ATOM     25  C   UNL A   1      34.424  23.399  25.809  1.00  0.00     0.011 A 
ATOM     26  C   UNL A   1      34.430  19.830  24.765  1.00  0.00     0.009 A 
ATOM     27  C   UNL A   1      36.217  21.365  25.207  1.00  0.00     0.009 A 
ATOM     28  C   UNL A   1      35.796  23.622  25.918  1.00  0.00     0.001 A 
ATOM     29  C   UNL A   1      36.691  22.607  25.614  1.00  0.00     0.001 A 
ENDBRANCH  18  20
ENDBRANCH  15  16
ENDBRANCH   6  15
ENDBRANCH   3   6
ENDBRANCH   1   2
BRANCH   1  30
ATOM     30  C   UNL A   1      33.202  27.256  25.870  1.00  0.00     0.042 C 
BRANCH  30  31
ATOM     31  C   UNL A   1      34.130  27.979  26.857  1.00  0.00     0.118 C 
BRANCH  31  32
ATOM     32  N   UNL A   1      33.672  29.270  27.398  1.00  0.00    -0.352 N 
ATOM     33  C   UNL A   1      34.371  30.314  27.978  1.00  0.00     0.251 C 
ATOM     34  H   UNL A   1      32.701  29.416  27.336  1.00  0.00     0.163 HD
ATOM     35  O   UNL A   1      33.839  31.397  28.177  1.00  0.00    -0.269 OA
BRANCH  33  36
ATOM     36  C   UNL A   1      35.773  30.117  28.375  1.00  0.00     0.039 A 
ATOM     37  C   UNL A   1      36.081  29.618  29.646  1.00  0.00     0.014 A 
ATOM     38  C   UNL A   1      36.778  30.389  27.457  1.00  0.00     0.014 A 
ATOM     39  C   UNL A   1      37.405  29.286  29.948  1.00  0.00     0.010 A 
ATOM     40  C   UNL A   1      38.055  29.927  27.704  1.00  0.00     0.010 A 
ATOM     41  C   UNL A   1      38.391  29.385  28.956  1.00  0.00    -0.014 A 
BRANCH  41  42
ATOM     42  C   UNL A   1      39.807  28.996  29.163  1.00  0.00     0.031 A 
ATOM     43  C   UNL A   1      40.774  30.054  29.628  1.00  0.00     0.074 A 
ATOM     44  C   UNL A   1      40.242  27.775  28.794  1.00  0.00     0.049 A 
ATOM     45  N   UNL A   1      42.078  30.060  29.593  1.00  0.00    -0.248 NA
ATOM     46  C   UNL A   1      40.183  31.308  30.133  1.00  0.00     0.031 C 
ATOM     47  C   UNL A   1      39.405  26.683  28.290  1.00  0.00     0.029 A 
ATOM     48  N   UNL A   1      41.512  27.258  28.757  1.00  0.00    -0.354 N 
ATOM     49  C   UNL A   1      42.458  31.324  30.029  1.00  0.00     0.074 A 
ATOM     50  C   UNL A   1      41.248  32.085  30.241  1.00  0.00     0.031 C 
ATOM     51  C   UNL A   1      40.182  25.621  28.016  1.00  0.00     0.029 A 
ATOM     52  C   UNL A   1      41.574  25.973  28.267  1.00  0.00     0.049 A 
ATOM     53  H   UNL A   1      42.307  27.759  29.053  1.00  0.00     0.167 HD
ATOM     54  C   UNL A   1      43.702  31.796  30.272  1.00  0.00     0.037 A 
ATOM     55  C   UNL A   1      42.640  25.183  28.035  1.00  0.00     0.037 A 
ATOM     56  C   UNL A   1      44.891  31.003  30.115  1.00  0.00     0.049 A 
ATOM     57  C   UNL A   1      44.017  25.728  28.319  1.00  0.00     0.074 A 
ATOM     58  C   UNL A   1      46.202  31.354  30.376  1.00  0.00     0.029 A 
ATOM     59  N   UNL A   1      44.903  29.685  29.681  1.00  0.00    -0.354 N 
ATOM     60  N   UNL A   1      44.360  26.918  28.757  1.00  0.00    -0.248 NA
ATOM     61  C   UNL A   1      45.152  24.826  28.082  1.00  0.00     0.031 C 
ATOM     62  C   UNL A   1      47.012  30.256  30.071  1.00  0.00     0.029 A 
ATOM     63  C   UNL A   1      46.201  29.207  29.667  1.00  0.00     0.049 A 
ATOM     64  H   UNL A   1      44.108  29.167  29.420  1.00  0.00     0.167 HD
ATOM     65  C   UNL A   1      45.743  26.889  28.889  1.00  0.00     0.074 A 
ATOM     66  C   UNL A   1      46.173  25.564  28.491  1.00  0.00     0.031 C 
ATOM     67  C   UNL A   1      46.588  27.868  29.300  1.00  0.00     0.037 A 
BRANCH  54  68
ATOM     68  C   UNL A   1      43.830  33.210  30.769  1.00  0.00     0.058 A 
ATOM     69  C   UNL A   1      43.733  33.518  32.136  1.00  0.00     0.135 A 
ATOM     70  C   UNL A   1      44.080  34.268  29.879  1.00  0.00     0.135 A 
ATOM     71  F   UNL A   1      43.473  32.549  33.030  1.00  0.00    -0.206 F 
ATOM     72  C   UNL A   1      43.849  34.822  32.601  1.00  0.00     0.059 A 
ATOM     73  C   UNL A   1      44.234  35.578  30.327  1.00  0.00     0.059 A 
ATOM     74  F   UNL A   1      44.177  34.035  28.561  1.00  0.00    -0.206 F 
ATOM     75  C   UNL A   1      44.105  35.846  31.689  1.00  0.00     0.060 A 
BRANCH  75  76
ATOM     76  S   UNL A   1      44.279  37.528  32.318  1.00  0.00     0.124 S 
ATOM     77  O   UNL A   1      43.794  38.313  31.188  1.00  0.00    -0.237 OA
ATOM     78  O   UNL A   1      43.415  37.510  33.494  1.00  0.00    -0.237 OA
ATOM     79  O   UNL A   1      45.708  37.642  32.594  1.00  0.00    -0.744 OA
ENDBRANCH  75  76
ENDBRANCH  54  68
BRANCH  55  80
ATOM     80  C   UNL A   1      42.462  23.792  27.534  1.00  0.00     0.058 A 
ATOM     81  C   UNL A   1      42.398  22.713  28.431  1.00  0.00     0.135 A 
ATOM     82  C   UNL A   1      42.377  23.501  26.163  1.00  0.00     0.135 A 
ATOM     83  F   UNL A   1      42.474  22.937  29.752  1.00  0.00    -0.206 F 
ATOM     84  C   UNL A   1      42.298  21.398  27.990  1.00  0.00     0.059 A 
ATOM     85  C   UNL A   1      42.246  22.195  25.698  1.00  0.00     0.059 A 
ATOM     86  F   UNL A   1      42.410  24.494  25.260  1.00  0.00    -0.206 F 
ATOM     87  C   UNL A   1      42.228  21.148  26.620  1.00  0.00     0.060 A 
BRANCH  87  88
ATOM     88  S   UNL A   1      42.095  19.436  26.060  1.00  0.00     0.124 S 
ATOM     89  O   UNL A   1      40.662  19.316  25.821  1.00  0.00    -0.237 OA
ATOM     90  O   UNL A   1      42.944  19.436  24.872  1.00  0.00    -0.237 OA
ATOM     91  O   UNL A   1      42.613  18.673  27.191  1.00  0.00    -0.744 OA
ENDBRANCH  87  88
ENDBRANCH  55  80
BRANCH  67  92
ATOM     92  C   UNL A   1      48.047  27.523  29.407  1.00  0.00     0.058 A 
ATOM     93  C   UNL A   1      48.932  27.712  28.337  1.00  0.00     0.135 A 
ATOM     94  C   UNL A   1      48.571  27.060  30.624  1.00  0.00     0.135 A 
ATOM     95  F   UNL A   1      48.478  28.149  27.151  1.00  0.00    -0.206 F 
ATOM     96  C   UNL A   1      50.289  27.435  28.463  1.00  0.00     0.059 A 
ATOM     97  C   UNL A   1      49.928  26.805  30.783  1.00  0.00     0.059 A 
ATOM     98  F   UNL A   1      47.765  26.874  31.682  1.00  0.00    -0.206 F 
ATOM     99  C   UNL A   1      50.778  26.985  29.692  1.00  0.00     0.060 A 
BRANCH  99 100
ATOM    100  S   UNL A   1      52.547  26.673  29.854  1.00  0.00     0.124 S 
ATOM    101  O   UNL A   1      52.878  26.160  28.529  1.00  0.00    -0.237 OA
ATOM    102  O   UNL A   1      53.069  27.999  30.169  1.00  0.00    -0.237 OA
ATOM    103  O   UNL A   1      52.623  25.702  30.941  1.00  0.00    -0.744 OA
ENDBRANCH  99 100
ENDBRANCH  67  92
ENDBRANCH  41  42
ENDBRANCH  33  36
ENDBRANCH  31  32
ENDBRANCH  30  31
ENDBRANCH   1  30
TORSDOF 20
ENDMDL
MODEL 2
REMARK VINA RESULT:     -11.5      3.324      9.468
REMARK SMILES C[C@H](O)C[NH2+][C@H](CC(=O)Nc1cccc2ccccc12)C(=O)NCCCNC(=O)c1ccc(-c2c3nc(c(-c4c(F)cc(S(=O)(=O)[O-])cc4F)c4ccc([nH]4)c(-c4c(F)cc(S(=O)(=O)[O-])cc4F)c4nc(c(-c5c(F)cc(S(=O)(=O)[O-])cc5F)c5ccc2[nH]5)C=C4)C=C3)cc1
REMARK SMILES IDX 24 1 23 2 21 3 22 4 6 6 5 7 4 10 2 11 1 12 3 13 7 15 8 16
REMARK SMILES IDX 9 17 10 18 11 20 12 21 20 22 13 23 15 24 19 25 14 26 16 27
REMARK SMILES IDX 18 28 17 29 25 30 26 31 27 32 28 33 29 35 30 36 31 37 95 38
REMARK SMILES IDX 32 39 94 40 33 41 34 42 35 43 88 44 36 45 93 46 87 47 89 48
REMARK SMILES IDX 37 49 92 50 86 51 85 52 38 54 72 55 51 56 71 57 52 58 55 59
REMARK SMILES IDX 70 60 90 61 53 62 54 63 69 65 91 66 56 67 39 68 40 69 49 70
REMARK SMILES IDX 41 71 42 72 48 73 50 74 43 75 44 76 45 77 46 78 47 79 73 80
REMARK SMILES IDX 74 81 83 82 75 83 76 84 82 85 84 86 77 87 78 88 79 89 80 90
REMARK SMILES IDX 81 91 57 92 58 93 67 94 59 95 60 96 66 97 68 98 61 99 62 100
REMARK SMILES IDX 63 101 64 102 65 103
REMARK H PARENT 23 5 5 8 5 9 3 14 10 19 27 34 89 53 55 64
REMARK Flexibility Score: inf
ROOT
ATOM      1  C   UNL A   1      35.430  23.706  23.633  1.00  0.00     0.118 C 
ENDROOT
BRANCH   1   2
ATOM      2  N   UNL A   1      34.378  23.081  22.858  1.00  0.00    -0.351 N 
ATOM      3  C   UNL A   1      33.123  22.788  23.404  1.00  0.00     0.278 C 
ATOM      4  O   UNL A   1      32.147  23.258  22.812  1.00  0.00    -0.268 OA
ATOM      5  H   UNL A   1      34.550  22.854  21.916  1.00  0.00     0.163 HD
BRANCH   3   6
ATOM      6  C   UNL A   1      32.955  21.777  24.612  1.00  0.00     0.282 C 
BRANCH   6   7
ATOM      7  N   UNL A   1      33.333  20.318  24.394  1.00  0.00    -0.333 N 
ATOM      8  H   UNL A   1      34.218  20.291  23.887  1.00  0.00     0.347 HD
ATOM      9  H   UNL A   1      33.390  19.891  25.318  1.00  0.00     0.347 HD
BRANCH   7  10
ATOM     10  C   UNL A   1      32.349  19.544  23.635  1.00  0.00     0.292 C 
BRANCH  10  11
ATOM     11  C   UNL A   1      32.400  18.014  23.438  1.00  0.00     0.166 C 
ATOM     12  C   UNL A   1      33.871  17.568  23.585  1.00  0.00     0.044 C 
BRANCH  11  13
ATOM     13  O   UNL A   1      31.946  17.701  22.118  1.00  0.00    -0.388 OA
ATOM     14  H   UNL A   1      31.211  18.288  21.880  1.00  0.00     0.211 HD
ENDBRANCH  11  13
ENDBRANCH  10  11
ENDBRANCH   7  10
ENDBRANCH   6   7
BRANCH   6  15
ATOM     15  C   UNL A   1      31.858  22.079  25.627  1.00  0.00     0.175 C 
BRANCH  15  16
ATOM     16  C   UNL A   1      31.855  23.204  26.654  1.00  0.00     0.230 C 
ATOM     17  O   UNL A   1      32.143  22.874  27.821  1.00  0.00    -0.274 OA
ATOM     18  N   UNL A   1      31.747  24.550  26.503  1.00  0.00    -0.325 N 
ATOM     19  H   UNL A   1      32.097  24.986  27.313  1.00  0.00     0.169 HD
BRANCH  18  20
ATOM     20  C   UNL A   1      31.309  25.559  25.595  1.00  0.00     0.049 A 
ATOM     21  C   UNL A   1      30.210  25.430  24.741  1.00  0.00     0.027 A 
ATOM     22  C   UNL A   1      31.975  26.812  25.593  1.00  0.00     0.005 A 
ATOM     23  C   UNL A   1      29.681  26.469  23.983  1.00  0.00     0.003 A 
ATOM     24  C   UNL A   1      31.441  27.877  24.811  1.00  0.00    -0.016 A 
ATOM     25  C   UNL A   1      33.185  27.065  26.284  1.00  0.00     0.011 A 
ATOM     26  C   UNL A   1      30.291  27.700  24.035  1.00  0.00     0.009 A 
ATOM     27  C   UNL A   1      32.085  29.114  24.765  1.00  0.00     0.009 A 
ATOM     28  C   UNL A   1      33.823  28.303  26.213  1.00  0.00     0.001 A 
ATOM     29  C   UNL A   1      33.271  29.327  25.458  1.00  0.00     0.001 A 
ENDBRANCH  18  20
ENDBRANCH  15  16
ENDBRANCH   6  15
ENDBRANCH   3   6
ENDBRANCH   1   2
BRANCH   1  30
ATOM     30  C   UNL A   1      35.192  24.376  24.969  1.00  0.00     0.042 C 
BRANCH  30  31
ATOM     31  C   UNL A   1      36.291  24.113  26.007  1.00  0.00     0.118 C 
BRANCH  31  32
ATOM     32  N   UNL A   1      37.344  23.146  25.653  1.00  0.00    -0.352 N 
ATOM     33  C   UNL A   1      38.663  23.045  26.060  1.00  0.00     0.251 C 
ATOM     34  H   UNL A   1      37.061  22.451  25.017  1.00  0.00     0.163 HD
ATOM     35  O   UNL A   1      39.324  22.046  25.816  1.00  0.00    -0.269 OA
BRANCH  33  36
ATOM     36  C   UNL A   1      39.286  24.160  26.788  1.00  0.00     0.039 A 
ATOM     37  C   UNL A   1      40.052  25.108  26.100  1.00  0.00     0.014 A 
ATOM     38  C   UNL A   1      39.064  24.282  28.152  1.00  0.00     0.014 A 
ATOM     39  C   UNL A   1      40.501  26.246  26.776  1.00  0.00     0.010 A 
ATOM     40  C   UNL A   1      39.383  25.469  28.780  1.00  0.00     0.010 A 
ATOM     41  C   UNL A   1      40.118  26.460  28.108  1.00  0.00    -0.014 A 
BRANCH  41  42
ATOM     42  C   UNL A   1      40.491  27.665  28.887  1.00  0.00     0.031 A 
ATOM     43  C   UNL A   1      41.776  27.634  29.674  1.00  0.00     0.074 A 
ATOM     44  C   UNL A   1      39.629  28.694  29.012  1.00  0.00     0.049 A 
ATOM     45  N   UNL A   1      42.172  28.406  30.648  1.00  0.00    -0.248 NA
ATOM     46  C   UNL A   1      42.708  26.532  29.366  1.00  0.00     0.031 C 
ATOM     47  C   UNL A   1      38.337  28.817  28.331  1.00  0.00     0.029 A 
ATOM     48  N   UNL A   1      39.700  29.825  29.785  1.00  0.00    -0.354 N 
ATOM     49  C   UNL A   1      43.371  27.860  31.094  1.00  0.00     0.074 A 
ATOM     50  C   UNL A   1      43.594  26.646  30.342  1.00  0.00     0.031 C 
ATOM     51  C   UNL A   1      37.750  29.967  28.702  1.00  0.00     0.029 A 
ATOM     52  C   UNL A   1      38.591  30.635  29.687  1.00  0.00     0.049 A 
ATOM     53  H   UNL A   1      40.472  30.038  30.358  1.00  0.00     0.167 HD
ATOM     54  C   UNL A   1      44.230  28.348  32.017  1.00  0.00     0.037 A 
ATOM     55  C   UNL A   1      38.290  31.776  30.336  1.00  0.00     0.037 A 
ATOM     56  C   UNL A   1      44.022  29.591  32.709  1.00  0.00     0.049 A 
ATOM     57  C   UNL A   1      39.266  32.304  31.356  1.00  0.00     0.074 A 
ATOM     58  C   UNL A   1      44.844  30.213  33.630  1.00  0.00     0.029 A 
ATOM     59  N   UNL A   1      42.918  30.413  32.531  1.00  0.00    -0.354 N 
ATOM     60  N   UNL A   1      40.409  31.791  31.748  1.00  0.00    -0.248 NA
ATOM     61  C   UNL A   1      38.916  33.567  32.020  1.00  0.00     0.031 C 
ATOM     62  C   UNL A   1      44.223  31.399  34.031  1.00  0.00     0.029 A 
ATOM     63  C   UNL A   1      43.038  31.539  33.324  1.00  0.00     0.049 A 
ATOM     64  H   UNL A   1      42.162  30.223  31.930  1.00  0.00     0.167 HD
ATOM     65  C   UNL A   1      40.933  32.691  32.670  1.00  0.00     0.074 A 
ATOM     66  C   UNL A   1      39.986  33.782  32.771  1.00  0.00     0.031 C 
ATOM     67  C   UNL A   1      42.092  32.625  33.372  1.00  0.00     0.037 A 
BRANCH  54  68
ATOM     68  C   UNL A   1      45.482  27.562  32.293  1.00  0.00     0.058 A 
ATOM     69  C   UNL A   1      45.547  26.632  33.344  1.00  0.00     0.135 A 
ATOM     70  C   UNL A   1      46.623  27.714  31.487  1.00  0.00     0.135 A 
ATOM     71  F   UNL A   1      44.494  26.461  34.161  1.00  0.00    -0.206 F 
ATOM     72  C   UNL A   1      46.702  25.904  33.605  1.00  0.00     0.059 A 
ATOM     73  C   UNL A   1      47.779  26.970  31.709  1.00  0.00     0.059 A 
ATOM     74  F   UNL A   1      46.622  28.592  30.473  1.00  0.00    -0.206 F 
ATOM     75  C   UNL A   1      47.812  26.076  32.779  1.00  0.00     0.060 A 
BRANCH  75  76
ATOM     76  S   UNL A   1      49.291  25.101  33.120  1.00  0.00     0.124 S 
ATOM     77  O   UNL A   1      50.063  26.022  33.948  1.00  0.00    -0.237 OA
ATOM     78  O   UNL A   1      48.744  23.937  33.808  1.00  0.00    -0.237 OA
ATOM     79  O   UNL A   1      49.840  24.840  31.792  1.00  0.00    -0.744 OA
ENDBRANCH  75  76
ENDBRANCH  54  68
BRANCH  55  80
ATOM     80  C   UNL A   1      37.032  32.514  30.034  1.00  0.00     0.058 A 
ATOM     81  C   UNL A   1      37.018  33.531  29.065  1.00  0.00     0.135 A 
ATOM     82  C   UNL A   1      35.832  32.247  30.711  1.00  0.00     0.135 A 
ATOM     83  F   UNL A   1      38.138  33.825  28.388  1.00  0.00    -0.206 F 
ATOM     84  C   UNL A   1      35.875  34.281  28.807  1.00  0.00     0.059 A 
ATOM     85  C   UNL A   1      34.668  32.964  30.450  1.00  0.00     0.059 A 
ATOM     86  F   UNL A   1      35.781  31.271  31.632  1.00  0.00    -0.206 F 
ATOM     87  C   UNL A   1      34.705  33.994  29.509  1.00  0.00     0.060 A 
BRANCH  87  88
ATOM     88  S   UNL A   1      33.228  34.974  29.164  1.00  0.00     0.124 S 
ATOM     89  O   UNL A   1      32.587  35.008  30.473  1.00  0.00    -0.237 OA
ATOM     90  O   UNL A   1      33.798  36.234  28.698  1.00  0.00    -0.237 OA
ATOM     91  O   UNL A   1      32.538  34.191  28.144  1.00  0.00    -0.744 OA
ENDBRANCH  87  88
ENDBRANCH  55  80
BRANCH  67  92
ATOM     92  C   UNL A   1      42.431  33.792  34.257  1.00  0.00     0.058 A 
ATOM     93  C   UNL A   1      42.059  33.829  35.608  1.00  0.00     0.135 A 
ATOM     94  C   UNL A   1      43.201  34.853  33.754  1.00  0.00     0.135 A 
ATOM     95  F   UNL A   1      41.320  32.840  36.134  1.00  0.00    -0.206 F 
ATOM     96  C   UNL A   1      42.421  34.892  36.428  1.00  0.00     0.059 A 
ATOM     97  C   UNL A   1      43.600  35.910  34.562  1.00  0.00     0.059 A 
ATOM     98  F   UNL A   1      43.592  34.857  32.469  1.00  0.00    -0.206 F 
ATOM     99  C   UNL A   1      43.195  35.926  35.897  1.00  0.00     0.060 A 
BRANCH  99 100
ATOM    100  S   UNL A   1      43.696  37.275  36.985  1.00  0.00     0.124 S 
ATOM    101  O   UNL A   1      43.847  38.375  36.038  1.00  0.00    -0.237 OA
ATOM    102  O   UNL A   1      42.562  37.376  37.898  1.00  0.00    -0.237 OA
ATOM    103  O   UNL A   1      44.934  36.787  37.584  1.00  0.00    -0.744 OA
ENDBRANCH  99 100
ENDBRANCH  67  92
ENDBRANCH  41  42
ENDBRANCH  33  36
ENDBRANCH  31  32
ENDBRANCH  30  31
ENDBRANCH   1  30
TORSDOF 20
ENDMDL
MODEL 3
REMARK VINA RESULT:     -11.4      4.932     10.638
REMARK SMILES C[C@H](O)C[NH2+][C@H](CC(=O)Nc1cccc2ccccc12)C(=O)NCCCNC(=O)c1ccc(-c2c3nc(c(-c4c(F)cc(S(=O)(=O)[O-])cc4F)c4ccc([nH]4)c(-c4c(F)cc(S(=O)(=O)[O-])cc4F)c4nc(c(-c5c(F)cc(S(=O)(=O)[O-])cc5F)c5ccc2[nH]5)C=C4)C=C3)cc1
REMARK SMILES IDX 24 1 23 2 21 3 22 4 6 6 5 7 4 10 2 11 1 12 3 13 7 15 8 16
REMARK SMILES IDX 9 17 10 18 11 20 12 21 20 22 13 23 15 24 19 25 14 26 16 27
REMARK SMILES IDX 18 28 17 29 25 30 26 31 27 32 28 33 29 35 30 36 31 37 95 38
REMARK SMILES IDX 32 39 94 40 33 41 34 42 35 43 88 44 36 45 93 46 87 47 89 48
REMARK SMILES IDX 37 49 92 50 86 51 85 52 38 54 72 55 51 56 71 57 52 58 55 59
REMARK SMILES IDX 70 60 90 61 53 62 54 63 69 65 91 66 56 67 39 68 40 69 49 70
REMARK SMILES IDX 41 71 42 72 48 73 50 74 43 75 44 76 45 77 46 78 47 79 73 80
REMARK SMILES IDX 74 81 83 82 75 83 76 84 82 85 84 86 77 87 78 88 79 89 80 90
REMARK SMILES IDX 81 91 57 92 58 93 67 94 59 95 60 96 66 97 68 98 61 99 62 100
REMARK SMILES IDX 63 101 64 102 65 103
REMARK H PARENT 23 5 5 8 5 9 3 14 10 19 27 34 89 53 55 64
REMARK Flexibility Score: inf
ROOT
ATOM      1  C   UNL A   1      35.692  23.438  25.445  1.00  0.00     0.118 C 
ENDROOT
BRANCH   1   2
ATOM      2  N   UNL A   1      34.748  23.260  26.529  1.00  0.00    -0.351 N 
ATOM      3  C   UNL A   1      33.928  22.131  26.627  1.00  0.00     0.278 C 
ATOM      4  O   UNL A   1      33.998  21.495  27.683  1.00  0.00    -0.268 OA
ATOM      5  H   UNL A   1      34.681  23.957  27.222  1.00  0.00     0.163 HD
BRANCH   3   6
ATOM      6  C   UNL A   1      32.853  21.784  25.517  1.00  0.00     0.282 C 
BRANCH   6   7
ATOM      7  N   UNL A   1      33.335  21.180  24.204  1.00  0.00    -0.333 N 
ATOM      8  H   UNL A   1      33.360  21.920  23.504  1.00  0.00     0.347 HD
ATOM      9  H   UNL A   1      34.253  20.776  24.390  1.00  0.00     0.347 HD
BRANCH   7  10
ATOM     10  C   UNL A   1      32.497  20.094  23.693  1.00  0.00     0.292 C 
BRANCH  10  11
ATOM     11  C   UNL A   1      32.608  18.619  24.133  1.00  0.00     0.166 C 
ATOM     12  C   UNL A   1      34.090  18.335  24.462  1.00  0.00     0.044 C 
BRANCH  11  13
ATOM     13  O   UNL A   1      32.201  17.779  23.049  1.00  0.00    -0.388 OA
ATOM     14  H   UNL A   1      32.647  16.920  23.120  1.00  0.00     0.211 HD
ENDBRANCH  11  13
ENDBRANCH  10  11
ENDBRANCH   7  10
ENDBRANCH   6   7
BRANCH   6  15
ATOM     15  C   UNL A   1      31.587  22.634  25.482  1.00  0.00     0.175 C 
BRANCH  15  16
ATOM     16  C   UNL A   1      31.111  23.601  26.559  1.00  0.00     0.230 C 
ATOM     17  O   UNL A   1      30.512  23.086  27.523  1.00  0.00    -0.274 OA
ATOM     18  N   UNL A   1      31.360  24.923  26.742  1.00  0.00    -0.325 N 
ATOM     19  H   UNL A   1      31.169  25.151  27.682  1.00  0.00     0.169 HD
BRANCH  18  20
ATOM     20  C   UNL A   1      31.796  26.101  26.068  1.00  0.00     0.049 A 
ATOM     21  C   UNL A   1      33.025  26.728  26.288  1.00  0.00     0.027 A 
ATOM     22  C   UNL A   1      30.974  26.649  25.049  1.00  0.00     0.005 A 
ATOM     23  C   UNL A   1      33.523  27.771  25.514  1.00  0.00     0.003 A 
ATOM     24  C   UNL A   1      31.477  27.724  24.260  1.00  0.00    -0.016 A 
ATOM     25  C   UNL A   1      29.646  26.232  24.795  1.00  0.00     0.011 A 
ATOM     26  C   UNL A   1      32.750  28.256  24.485  1.00  0.00     0.009 A 
ATOM     27  C   UNL A   1      30.685  28.305  23.267  1.00  0.00     0.009 A 
ATOM     28  C   UNL A   1      28.864  26.835  23.810  1.00  0.00     0.001 A 
ATOM     29  C   UNL A   1      29.385  27.867  23.044  1.00  0.00     0.001 A 
ENDBRANCH  18  20
ENDBRANCH  15  16
ENDBRANCH   6  15
ENDBRANCH   3   6
ENDBRANCH   1   2
BRANCH   1  30
ATOM     30  C   UNL A   1      37.140  23.006  25.524  1.00  0.00     0.042 C 
BRANCH  30  31
ATOM     31  C   UNL A   1      38.064  24.029  26.200  1.00  0.00     0.118 C 
BRANCH  31  32
ATOM     32  N   UNL A   1      39.515  23.868  26.006  1.00  0.00    -0.352 N 
ATOM     33  C   UNL A   1      40.591  24.447  26.656  1.00  0.00     0.251 C 
ATOM     34  H   UNL A   1      39.762  23.239  25.290  1.00  0.00     0.163 HD
ATOM     35  O   UNL A   1      41.728  24.028  26.491  1.00  0.00    -0.269 OA
BRANCH  33  36
ATOM     36  C   UNL A   1      40.369  25.594  27.549  1.00  0.00     0.039 A 
ATOM     37  C   UNL A   1      39.450  25.500  28.600  1.00  0.00     0.014 A 
ATOM     38  C   UNL A   1      41.117  26.748  27.361  1.00  0.00     0.014 A 
ATOM     39  C   UNL A   1      39.370  26.537  29.533  1.00  0.00     0.010 A 
ATOM     40  C   UNL A   1      41.140  27.701  28.358  1.00  0.00     0.010 A 
ATOM     41  C   UNL A   1      40.258  27.620  29.448  1.00  0.00    -0.014 A 
BRANCH  41  42
ATOM     42  C   UNL A   1      40.292  28.734  30.426  1.00  0.00     0.031 A 
ATOM     43  C   UNL A   1      41.247  28.632  31.587  1.00  0.00     0.074 A 
ATOM     44  C   UNL A   1      39.384  29.728  30.362  1.00  0.00     0.049 A 
ATOM     45  N   UNL A   1      41.261  29.294  32.711  1.00  0.00    -0.248 NA
ATOM     46  C   UNL A   1      42.284  27.587  31.494  1.00  0.00     0.031 C 
ATOM     47  C   UNL A   1      38.382  29.909  29.308  1.00  0.00     0.029 A 
ATOM     48  N   UNL A   1      39.138  30.764  31.228  1.00  0.00    -0.354 N 
ATOM     49  C   UNL A   1      42.274  28.719  33.470  1.00  0.00     0.074 A 
ATOM     50  C   UNL A   1      42.794  27.602  32.715  1.00  0.00     0.031 C 
ATOM     51  C   UNL A   1      37.647  31.000  29.579  1.00  0.00     0.029 A 
ATOM     52  C   UNL A   1      38.083  31.563  30.851  1.00  0.00     0.049 A 
ATOM     53  H   UNL A   1      39.668  30.922  32.043  1.00  0.00     0.167 HD
ATOM     54  C   UNL A   1      42.757  29.111  34.671  1.00  0.00     0.037 A 
ATOM     55  C   UNL A   1      37.526  32.618  31.477  1.00  0.00     0.037 A 
ATOM     56  C   UNL A   1      42.269  30.264  35.379  1.00  0.00     0.049 A 
ATOM     57  C   UNL A   1      38.085  33.041  32.812  1.00  0.00     0.074 A 
ATOM     58  C   UNL A   1      42.709  30.789  36.579  1.00  0.00     0.029 A 
ATOM     59  N   UNL A   1      41.243  31.084  34.930  1.00  0.00    -0.354 N 
ATOM     60  N   UNL A   1      39.061  32.504  33.506  1.00  0.00    -0.248 NA
ATOM     61  C   UNL A   1      37.471  34.215  33.448  1.00  0.00     0.031 C 
ATOM     62  C   UNL A   1      41.930  31.912  36.871  1.00  0.00     0.029 A 
ATOM     63  C   UNL A   1      41.037  32.114  35.830  1.00  0.00     0.049 A 
ATOM     64  H   UNL A   1      40.736  30.952  34.096  1.00  0.00     0.167 HD
ATOM     65  C   UNL A   1      39.206  33.301  34.636  1.00  0.00     0.074 A 
ATOM     66  C   UNL A   1      38.223  34.358  34.530  1.00  0.00     0.031 C 
ATOM     67  C   UNL A   1      40.072  33.172  35.672  1.00  0.00     0.037 A 
BRANCH  54  68
ATOM     68  C   UNL A   1      43.888  28.318  35.265  1.00  0.00     0.058 A 
ATOM     69  C   UNL A   1      45.229  28.673  35.040  1.00  0.00     0.135 A 
ATOM     70  C   UNL A   1      43.637  27.208  36.088  1.00  0.00     0.135 A 
ATOM     71  F   UNL A   1      45.529  29.711  34.242  1.00  0.00    -0.206 F 
ATOM     72  C   UNL A   1      46.278  27.942  35.584  1.00  0.00     0.059 A 
ATOM     73  C   UNL A   1      44.673  26.482  36.672  1.00  0.00     0.059 A 
ATOM     74  F   UNL A   1      42.377  26.818  36.333  1.00  0.00    -0.206 F 
ATOM     75  C   UNL A   1      45.991  26.851  36.404  1.00  0.00     0.060 A 
BRANCH  75  76
ATOM     76  S   UNL A   1      47.369  25.934  37.122  1.00  0.00     0.124 S 
ATOM     77  O   UNL A   1      47.615  26.689  38.346  1.00  0.00    -0.237 OA
ATOM     78  O   UNL A   1      46.795  24.604  37.303  1.00  0.00    -0.237 OA
ATOM     79  O   UNL A   1      48.410  26.031  36.103  1.00  0.00    -0.744 OA
ENDBRANCH  75  76
ENDBRANCH  54  68
BRANCH  55  80
ATOM     80  C   UNL A   1      36.400  33.367  30.852  1.00  0.00     0.058 A 
ATOM     81  C   UNL A   1      36.627  34.205  29.748  1.00  0.00     0.135 A 
ATOM     82  C   UNL A   1      35.089  33.288  31.348  1.00  0.00     0.135 A 
ATOM     83  F   UNL A   1      37.862  34.316  29.235  1.00  0.00    -0.206 F 
ATOM     84  C   UNL A   1      35.608  34.967  29.185  1.00  0.00     0.059 A 
ATOM     85  C   UNL A   1      34.047  34.018  30.782  1.00  0.00     0.059 A 
ATOM     86  F   UNL A   1      34.809  32.486  32.387  1.00  0.00    -0.206 F 
ATOM     87  C   UNL A   1      34.321  34.870  29.713  1.00  0.00     0.060 A 
BRANCH  87  88
ATOM     88  S   UNL A   1      33.007  35.862  28.971  1.00  0.00     0.124 S 
ATOM     89  O   UNL A   1      33.772  36.904  28.296  1.00  0.00    -0.237 OA
ATOM     90  O   UNL A   1      32.344  34.893  28.105  1.00  0.00    -0.237 OA
ATOM     91  O   UNL A   1      32.226  36.299  30.124  1.00  0.00    -0.744 OA
ENDBRANCH  87  88
ENDBRANCH  55  80
BRANCH  67  92
ATOM     92  C   UNL A   1      40.042  34.235  36.734  1.00  0.00     0.058 A 
ATOM     93  C   UNL A   1      40.793  35.414  36.624  1.00  0.00     0.135 A 
ATOM     94  C   UNL A   1      39.191  34.096  37.843  1.00  0.00     0.135 A 
ATOM     95  F   UNL A   1      41.624  35.592  35.584  1.00  0.00    -0.206 F 
ATOM     96  C   UNL A   1      40.719  36.411  37.590  1.00  0.00     0.059 A 
ATOM     97  C   UNL A   1      39.078  35.093  38.804  1.00  0.00     0.059 A 
ATOM     98  F   UNL A   1      38.442  32.991  37.987  1.00  0.00    -0.206 F 
ATOM     99  C   UNL A   1      39.855  36.243  38.674  1.00  0.00     0.060 A 
BRANCH  99 100
ATOM    100  S   UNL A   1      39.735  37.567  39.894  1.00  0.00     0.124 S 
ATOM    101  O   UNL A   1      40.972  38.302  39.653  1.00  0.00    -0.237 OA
ATOM    102  O   UNL A   1      38.506  38.246  39.497  1.00  0.00    -0.237 OA
ATOM    103  O   UNL A   1      39.667  36.852  41.165  1.00  0.00    -0.744 OA
ENDBRANCH  99 100
ENDBRANCH  67  92
ENDBRANCH  41  42
ENDBRANCH  33  36
ENDBRANCH  31  32
ENDBRANCH  30  31
ENDBRANCH   1  30
TORSDOF 20
ENDMDL
