MODEL 1
REMARK VINA RESULT:     -12.5      0.000      0.000
REMARK SMILES CC(C)(Oc1ccc(Cl)cc1)C(=O)N1CCC[C@H](C(=O)NCCCNC(=O)c2ccc(-c3c4nc(c(-c5c(F)cc(S(=O)(=O)[O-])cc5F)c5ccc([nH]5)c(-c5c(F)cc(S(=O)(=O)[O-])cc5F)c5nc(c(-c6c(F)cc(S(=O)(=O)[O-])cc6F)c6ccc3[nH]6)C=C5)C=C4)cc2)C1
REMARK SMILES IDX 22 1 21 2 19 3 20 4 18 6 14 7 15 8 94 9 16 10 17 11 12 12
REMARK SMILES IDX 13 13 2 14 1 15 3 16 4 17 5 18 6 19 11 20 7 21 10 22 8 23
REMARK SMILES IDX 9 24 23 25 24 26 25 27 26 28 27 30 28 31 29 32 93 33 30 34
REMARK SMILES IDX 92 35 31 36 32 37 33 38 86 39 34 40 91 41 85 42 87 43 35 44
REMARK SMILES IDX 90 45 84 46 83 47 36 49 70 50 49 51 69 52 50 53 53 54 68 55
REMARK SMILES IDX 88 56 51 57 52 58 67 60 89 61 54 62 37 63 38 64 47 65 39 66
REMARK SMILES IDX 40 67 46 68 48 69 41 70 42 71 43 72 44 73 45 74 71 75 72 76
REMARK SMILES IDX 81 77 73 78 74 79 80 80 82 81 75 82 76 83 77 84 78 85 79 86
REMARK SMILES IDX 55 87 56 88 65 89 57 90 58 91 64 92 66 93 59 94 60 95 61 96
REMARK SMILES IDX 62 97 63 98
REMARK H PARENT 21 5 25 29 87 48 53 59
REMARK Flexibility Score: inf
ROOT
ATOM      1  C   UNL A   1      37.447  22.725  25.616  1.00  0.00     0.117 C 
ENDROOT
BRANCH   1   2
ATOM      2  N   UNL A   1      36.372  22.298  26.479  1.00  0.00    -0.356 N 
ATOM      3  C   UNL A   1      35.079  21.997  26.197  1.00  0.00     0.224 C 
ATOM      4  O   UNL A   1      34.433  21.461  27.106  1.00  0.00    -0.275 OA
ATOM      5  H   UNL A   1      36.617  22.209  27.428  1.00  0.00     0.163 HD
BRANCH   3   6
ATOM      6  C   UNL A   1      34.384  22.282  24.856  1.00  0.00     0.098 C 
ATOM      7  N   UNL A   1      32.505  23.934  25.051  1.00  0.00    -0.338 N 
ATOM      8  C   UNL A   1      31.537  22.977  24.503  1.00  0.00     0.119 C 
ATOM      9  C   UNL A   1      33.896  23.722  24.669  1.00  0.00     0.133 C 
ATOM     10  C   UNL A   1      31.934  21.509  24.652  1.00  0.00     0.022 C 
ATOM     11  C   UNL A   1      33.402  21.216  24.378  1.00  0.00     0.017 C 
BRANCH   7  12
ATOM     12  C   UNL A   1      32.065  24.887  25.977  1.00  0.00     0.266 C 
ATOM     13  O   UNL A   1      31.453  24.505  26.984  1.00  0.00    -0.270 OA
BRANCH  12  14
ATOM     14  C   UNL A   1      32.144  26.430  25.652  1.00  0.00     0.181 C 
ATOM     15  C   UNL A   1      33.536  26.932  26.091  1.00  0.00     0.067 C 
ATOM     16  C   UNL A   1      31.049  27.028  26.557  1.00  0.00     0.067 C 
BRANCH  14  17
ATOM     17  O   UNL A   1      31.984  26.735  24.260  1.00  0.00    -0.478 OA
BRANCH  17  18
ATOM     18  C   UNL A   1      30.926  27.500  23.863  1.00  0.00     0.121 A 
ATOM     19  C   UNL A   1      29.674  26.961  23.568  1.00  0.00     0.048 A 
ATOM     20  C   UNL A   1      31.097  28.886  23.875  1.00  0.00     0.048 A 
ATOM     21  C   UNL A   1      28.617  27.801  23.206  1.00  0.00     0.024 A 
ATOM     22  C   UNL A   1      30.039  29.729  23.526  1.00  0.00     0.024 A 
ATOM     23  C   UNL A   1      28.805  29.181  23.182  1.00  0.00     0.041 A 
ATOM     24  Cl  UNL A   1      27.501  30.214  22.745  1.00  0.00    -0.084 Cl
ENDBRANCH  17  18
ENDBRANCH  14  17
ENDBRANCH  12  14
ENDBRANCH   7  12
ENDBRANCH   3   6
ENDBRANCH   1   2
BRANCH   1  25
ATOM     25  C   UNL A   1      38.206  23.935  26.121  1.00  0.00     0.042 C 
BRANCH  25  26
ATOM     26  C   UNL A   1      39.457  23.568  26.884  1.00  0.00     0.118 C 
BRANCH  26  27
ATOM     27  N   UNL A   1      40.679  23.914  26.164  1.00  0.00    -0.352 N 
ATOM     28  C   UNL A   1      41.531  24.981  26.321  1.00  0.00     0.251 C 
ATOM     29  H   UNL A   1      40.933  23.283  25.451  1.00  0.00     0.163 HD
ATOM     30  O   UNL A   1      42.447  25.147  25.519  1.00  0.00    -0.269 OA
BRANCH  28  31
ATOM     31  C   UNL A   1      41.331  25.939  27.428  1.00  0.00     0.039 A 
ATOM     32  C   UNL A   1      42.100  27.105  27.470  1.00  0.00     0.014 A 
ATOM     33  C   UNL A   1      40.385  25.694  28.424  1.00  0.00     0.014 A 
ATOM     34  C   UNL A   1      41.888  28.034  28.489  1.00  0.00     0.010 A 
ATOM     35  C   UNL A   1      40.070  26.685  29.339  1.00  0.00     0.010 A 
ATOM     36  C   UNL A   1      40.854  27.840  29.420  1.00  0.00    -0.014 A 
BRANCH  36  37
ATOM     37  C   UNL A   1      40.632  28.777  30.546  1.00  0.00     0.031 A 
ATOM     38  C   UNL A   1      41.467  28.641  31.795  1.00  0.00     0.074 A 
ATOM     39  C   UNL A   1      39.652  29.696  30.475  1.00  0.00     0.049 A 
ATOM     40  N   UNL A   1      41.398  29.313  32.915  1.00  0.00    -0.248 NA
ATOM     41  C   UNL A   1      42.480  27.571  31.807  1.00  0.00     0.031 C 
ATOM     42  C   UNL A   1      38.731  29.867  29.348  1.00  0.00     0.029 A 
ATOM     43  N   UNL A   1      39.264  30.658  31.371  1.00  0.00    -0.354 N 
ATOM     44  C   UNL A   1      42.330  28.726  33.764  1.00  0.00     0.074 A 
ATOM     45  C   UNL A   1      42.885  27.591  33.065  1.00  0.00     0.031 C 
ATOM     46  C   UNL A   1      37.908  30.896  29.607  1.00  0.00     0.029 A 
ATOM     47  C   UNL A   1      38.221  31.434  30.928  1.00  0.00     0.049 A 
ATOM     48  H   UNL A   1      39.692  30.780  32.248  1.00  0.00     0.167 HD
ATOM     49  C   UNL A   1      42.719  29.119  35.000  1.00  0.00     0.037 A 
ATOM     50  C   UNL A   1      37.593  32.468  31.520  1.00  0.00     0.037 A 
ATOM     51  C   UNL A   1      42.188  30.278  35.663  1.00  0.00     0.049 A 
ATOM     52  C   UNL A   1      38.077  32.931  32.866  1.00  0.00     0.074 A 
ATOM     53  C   UNL A   1      42.554  30.820  36.882  1.00  0.00     0.029 A 
ATOM     54  N   UNL A   1      41.173  31.079  35.156  1.00  0.00    -0.354 N 
ATOM     55  N   UNL A   1      39.013  32.414  33.629  1.00  0.00    -0.248 NA
ATOM     56  C   UNL A   1      37.440  34.130  33.423  1.00  0.00     0.031 C 
ATOM     57  C   UNL A   1      41.727  31.920  37.132  1.00  0.00     0.029 A 
ATOM     58  C   UNL A   1      40.888  32.102  36.042  1.00  0.00     0.049 A 
ATOM     59  H   UNL A   1      40.722  30.938  34.292  1.00  0.00     0.167 HD
ATOM     60  C   UNL A   1      39.099  33.241  34.743  1.00  0.00     0.074 A 
ATOM     61  C   UNL A   1      38.124  34.298  34.546  1.00  0.00     0.031 C 
ATOM     62  C   UNL A   1      39.912  33.143  35.824  1.00  0.00     0.037 A 
BRANCH  49  63
ATOM     63  C   UNL A   1      43.761  28.279  35.696  1.00  0.00     0.058 A 
ATOM     64  C   UNL A   1      45.137  28.457  35.468  1.00  0.00     0.135 A 
ATOM     65  C   UNL A   1      43.377  27.259  36.581  1.00  0.00     0.135 A 
ATOM     66  F   UNL A   1      45.566  29.406  34.621  1.00  0.00    -0.206 F 
ATOM     67  C   UNL A   1      46.086  27.616  36.038  1.00  0.00     0.059 A 
ATOM     68  C   UNL A   1      44.312  26.429  37.194  1.00  0.00     0.059 A 
ATOM     69  F   UNL A   1      42.078  27.042  36.842  1.00  0.00    -0.206 F 
ATOM     70  C   UNL A   1      45.663  26.598  36.894  1.00  0.00     0.060 A 
BRANCH  70  71
ATOM     71  S   UNL A   1      46.902  25.489  37.595  1.00  0.00     0.124 S 
ATOM     72  O   UNL A   1      46.346  24.182  37.258  1.00  0.00    -0.237 OA
ATOM     73  O   UNL A   1      48.110  25.869  36.868  1.00  0.00    -0.237 OA
ATOM     74  O   UNL A   1      46.896  25.827  39.014  1.00  0.00    -0.744 OA
ENDBRANCH  70  71
ENDBRANCH  49  63
BRANCH  50  75
ATOM     75  C   UNL A   1      36.487  33.157  30.805  1.00  0.00     0.058 A 
ATOM     76  C   UNL A   1      35.153  32.998  31.210  1.00  0.00     0.135 A 
ATOM     77  C   UNL A   1      36.748  34.046  29.750  1.00  0.00     0.135 A 
ATOM     78  F   UNL A   1      34.853  32.159  32.212  1.00  0.00    -0.206 F 
ATOM     79  C   UNL A   1      34.117  33.696  30.597  1.00  0.00     0.059 A 
ATOM     80  C   UNL A   1      35.732  34.773  29.137  1.00  0.00     0.059 A 
ATOM     81  F   UNL A   1      38.008  34.248  29.339  1.00  0.00    -0.206 F 
ATOM     82  C   UNL A   1      34.418  34.590  29.568  1.00  0.00     0.060 A 
BRANCH  82  83
ATOM     83  S   UNL A   1      33.076  35.558  28.843  1.00  0.00     0.124 S 
ATOM     84  O   UNL A   1      32.375  36.027  30.032  1.00  0.00    -0.237 OA
ATOM     85  O   UNL A   1      33.806  36.573  28.089  1.00  0.00    -0.237 OA
ATOM     86  O   UNL A   1      32.358  34.581  28.030  1.00  0.00    -0.744 OA
ENDBRANCH  82  83
ENDBRANCH  50  75
BRANCH  62  87
ATOM     87  C   UNL A   1      39.817  34.231  36.858  1.00  0.00     0.058 A 
ATOM     88  C   UNL A   1      40.499  35.450  36.722  1.00  0.00     0.135 A 
ATOM     89  C   UNL A   1      38.998  34.058  37.987  1.00  0.00     0.135 A 
ATOM     90  F   UNL A   1      41.294  35.666  35.662  1.00  0.00    -0.206 F 
ATOM     91  C   UNL A   1      40.405  36.445  37.690  1.00  0.00     0.059 A 
ATOM     92  C   UNL A   1      38.864  35.052  38.950  1.00  0.00     0.059 A 
ATOM     93  F   UNL A   1      38.310  32.919  38.157  1.00  0.00    -0.206 F 
ATOM     94  C   UNL A   1      39.588  36.235  38.802  1.00  0.00     0.060 A 
BRANCH  94  95
ATOM     95  S   UNL A   1      39.472  37.532  40.050  1.00  0.00     0.124 S 
ATOM     96  O   UNL A   1      40.797  38.139  39.965  1.00  0.00    -0.237 OA
ATOM     97  O   UNL A   1      38.368  38.347  39.553  1.00  0.00    -0.237 OA
ATOM     98  O   UNL A   1      39.196  36.798  41.281  1.00  0.00    -0.744 OA
ENDBRANCH  94  95
ENDBRANCH  62  87
ENDBRANCH  36  37
ENDBRANCH  28  31
ENDBRANCH  26  27
ENDBRANCH  25  26
ENDBRANCH   1  25
TORSDOF 17
ENDMDL
MODEL 2
REMARK VINA RESULT:     -12.5      1.350      2.016
REMARK SMILES CC(C)(Oc1ccc(Cl)cc1)C(=O)N1CCC[C@H](C(=O)NCCCNC(=O)c2ccc(-c3c4nc(c(-c5c(F)cc(S(=O)(=O)[O-])cc5F)c5ccc([nH]5)c(-c5c(F)cc(S(=O)(=O)[O-])cc5F)c5nc(c(-c6c(F)cc(S(=O)(=O)[O-])cc6F)c6ccc3[nH]6)C=C5)C=C4)cc2)C1
REMARK SMILES IDX 22 1 21 2 19 3 20 4 18 6 14 7 15 8 94 9 16 10 17 11 12 12
REMARK SMILES IDX 13 13 2 14 1 15 3 16 4 17 5 18 6 19 11 20 7 21 10 22 8 23
REMARK SMILES IDX 9 24 23 25 24 26 25 27 26 28 27 30 28 31 29 32 93 33 30 34
REMARK SMILES IDX 92 35 31 36 32 37 33 38 86 39 34 40 91 41 85 42 87 43 35 44
REMARK SMILES IDX 90 45 84 46 83 47 36 49 70 50 49 51 69 52 50 53 53 54 68 55
REMARK SMILES IDX 88 56 51 57 52 58 67 60 89 61 54 62 37 63 38 64 47 65 39 66
REMARK SMILES IDX 40 67 46 68 48 69 41 70 42 71 43 72 44 73 45 74 71 75 72 76
REMARK SMILES IDX 81 77 73 78 74 79 80 80 82 81 75 82 76 83 77 84 78 85 79 86
REMARK SMILES IDX 55 87 56 88 65 89 57 90 58 91 64 92 66 93 59 94 60 95 61 96
REMARK SMILES IDX 62 97 63 98
REMARK H PARENT 21 5 25 29 87 48 53 59
REMARK Flexibility Score: inf
ROOT
ATOM      1  C   UNL A   1      36.447  22.950  25.876  1.00  0.00     0.117 C 
ENDROOT
BRANCH   1   2
ATOM      2  N   UNL A   1      35.347  23.765  26.330  1.00  0.00    -0.356 N 
ATOM      3  C   UNL A   1      34.048  23.796  25.935  1.00  0.00     0.224 C 
ATOM      4  O   UNL A   1      33.279  24.457  26.644  1.00  0.00    -0.275 OA
ATOM      5  H   UNL A   1      35.574  24.402  27.044  1.00  0.00     0.163 HD
BRANCH   3   6
ATOM      6  C   UNL A   1      33.492  23.086  24.692  1.00  0.00     0.098 C 
ATOM      7  N   UNL A   1      32.849  24.672  22.856  1.00  0.00    -0.338 N 
ATOM      8  C   UNL A   1      31.467  24.180  22.843  1.00  0.00     0.119 C 
ATOM      9  C   UNL A   1      33.852  23.739  23.353  1.00  0.00     0.133 C 
ATOM     10  C   UNL A   1      31.011  23.518  24.142  1.00  0.00     0.022 C 
ATOM     11  C   UNL A   1      32.045  22.609  24.790  1.00  0.00     0.017 C 
BRANCH   7  12
ATOM     12  C   UNL A   1      33.094  26.008  22.518  1.00  0.00     0.266 C 
ATOM     13  O   UNL A   1      34.001  26.266  21.714  1.00  0.00    -0.270 OA
BRANCH  12  14
ATOM     14  C   UNL A   1      32.389  27.185  23.301  1.00  0.00     0.181 C 
ATOM     15  C   UNL A   1      30.948  27.310  22.762  1.00  0.00     0.067 C 
ATOM     16  C   UNL A   1      33.223  28.415  22.894  1.00  0.00     0.067 C 
BRANCH  14  17
ATOM     17  O   UNL A   1      32.315  26.971  24.717  1.00  0.00    -0.478 OA
BRANCH  17  18
ATOM     18  C   UNL A   1      32.742  27.953  25.562  1.00  0.00     0.121 A 
ATOM     19  C   UNL A   1      34.035  27.991  26.082  1.00  0.00     0.048 A 
ATOM     20  C   UNL A   1      31.865  29.013  25.807  1.00  0.00     0.048 A 
ATOM     21  C   UNL A   1      34.426  29.047  26.910  1.00  0.00     0.024 A 
ATOM     22  C   UNL A   1      32.257  30.076  26.625  1.00  0.00     0.024 A 
ATOM     23  C   UNL A   1      33.534  30.082  27.183  1.00  0.00     0.041 A 
ATOM     24  Cl  UNL A   1      34.020  31.385  28.196  1.00  0.00    -0.084 Cl
ENDBRANCH  17  18
ENDBRANCH  14  17
ENDBRANCH  12  14
ENDBRANCH   7  12
ENDBRANCH   3   6
ENDBRANCH   1   2
BRANCH   1  25
ATOM     25  C   UNL A   1      37.643  23.738  25.383  1.00  0.00     0.042 C 
BRANCH  25  26
ATOM     26  C   UNL A   1      38.580  24.143  26.498  1.00  0.00     0.118 C 
BRANCH  26  27
ATOM     27  N   UNL A   1      39.985  24.070  26.107  1.00  0.00    -0.352 N 
ATOM     28  C   UNL A   1      41.063  24.809  26.529  1.00  0.00     0.251 C 
ATOM     29  H   UNL A   1      40.193  23.381  25.435  1.00  0.00     0.163 HD
ATOM     30  O   UNL A   1      42.152  24.662  25.976  1.00  0.00    -0.269 OA
BRANCH  28  31
ATOM     31  C   UNL A   1      40.912  25.795  27.619  1.00  0.00     0.039 A 
ATOM     32  C   UNL A   1      41.776  26.892  27.673  1.00  0.00     0.014 A 
ATOM     33  C   UNL A   1      39.918  25.645  28.587  1.00  0.00     0.014 A 
ATOM     34  C   UNL A   1      41.613  27.850  28.675  1.00  0.00     0.010 A 
ATOM     35  C   UNL A   1      39.660  26.672  29.480  1.00  0.00     0.010 A 
ATOM     36  C   UNL A   1      40.538  27.757  29.574  1.00  0.00    -0.014 A 
BRANCH  36  37
ATOM     37  C   UNL A   1      40.362  28.724  30.683  1.00  0.00     0.031 A 
ATOM     38  C   UNL A   1      41.216  28.593  31.920  1.00  0.00     0.074 A 
ATOM     39  C   UNL A   1      39.407  29.668  30.608  1.00  0.00     0.049 A 
ATOM     40  N   UNL A   1      41.185  29.291  33.026  1.00  0.00    -0.248 NA
ATOM     41  C   UNL A   1      42.198  27.496  31.939  1.00  0.00     0.031 C 
ATOM     42  C   UNL A   1      38.470  29.840  29.494  1.00  0.00     0.029 A 
ATOM     43  N   UNL A   1      39.061  30.660  31.489  1.00  0.00    -0.354 N 
ATOM     44  C   UNL A   1      42.115  28.697  33.871  1.00  0.00     0.074 A 
ATOM     45  C   UNL A   1      42.627  27.532  33.189  1.00  0.00     0.031 C 
ATOM     46  C   UNL A   1      37.680  30.896  29.744  1.00  0.00     0.029 A 
ATOM     47  C   UNL A   1      38.032  31.455  31.047  1.00  0.00     0.049 A 
ATOM     48  H   UNL A   1      39.508  30.789  32.356  1.00  0.00     0.167 HD
ATOM     49  C   UNL A   1      42.538  29.106  35.091  1.00  0.00     0.037 A 
ATOM     50  C   UNL A   1      37.443  32.519  31.626  1.00  0.00     0.037 A 
ATOM     51  C   UNL A   1      42.050  30.294  35.737  1.00  0.00     0.049 A 
ATOM     52  C   UNL A   1      37.963  32.997  32.954  1.00  0.00     0.074 A 
ATOM     53  C   UNL A   1      42.452  30.851  36.937  1.00  0.00     0.029 A 
ATOM     54  N   UNL A   1      41.049  31.111  35.230  1.00  0.00    -0.354 N 
ATOM     55  N   UNL A   1      38.898  32.472  33.711  1.00  0.00    -0.248 NA
ATOM     56  C   UNL A   1      37.370  34.226  33.494  1.00  0.00     0.031 C 
ATOM     57  C   UNL A   1      41.661  31.979  37.177  1.00  0.00     0.029 A 
ATOM     58  C   UNL A   1      40.807  32.160  36.098  1.00  0.00     0.049 A 
ATOM     59  H   UNL A   1      40.578  30.964  34.377  1.00  0.00     0.167 HD
ATOM     60  C   UNL A   1      39.027  33.320  34.804  1.00  0.00     0.074 A 
ATOM     61  C   UNL A   1      38.078  34.399  34.601  1.00  0.00     0.031 C 
ATOM     62  C   UNL A   1      39.857  33.223  35.873  1.00  0.00     0.037 A 
BRANCH  49  63
ATOM     63  C   UNL A   1      43.568  28.253  35.788  1.00  0.00     0.058 A 
ATOM     64  C   UNL A   1      44.947  28.421  35.568  1.00  0.00     0.135 A 
ATOM     65  C   UNL A   1      43.171  27.231  36.664  1.00  0.00     0.135 A 
ATOM     66  F   UNL A   1      45.388  29.372  34.729  1.00  0.00    -0.206 F 
ATOM     67  C   UNL A   1      45.886  27.568  36.139  1.00  0.00     0.059 A 
ATOM     68  C   UNL A   1      44.096  26.389  37.277  1.00  0.00     0.059 A 
ATOM     69  F   UNL A   1      41.869  27.023  36.916  1.00  0.00    -0.206 F 
ATOM     70  C   UNL A   1      45.449  26.549  36.985  1.00  0.00     0.060 A 
BRANCH  70  71
ATOM     71  S   UNL A   1      46.675  25.425  37.686  1.00  0.00     0.124 S 
ATOM     72  O   UNL A   1      46.904  24.511  36.571  1.00  0.00    -0.237 OA
ATOM     73  O   UNL A   1      47.780  26.325  38.004  1.00  0.00    -0.237 OA
ATOM     74  O   UNL A   1      45.989  24.850  38.838  1.00  0.00    -0.744 OA
ENDBRANCH  70  71
ENDBRANCH  49  63
BRANCH  50  75
ATOM     75  C   UNL A   1      36.343  33.222  30.916  1.00  0.00     0.058 A 
ATOM     76  C   UNL A   1      35.027  33.186  31.401  1.00  0.00     0.135 A 
ATOM     77  C   UNL A   1      36.599  34.006  29.779  1.00  0.00     0.135 A 
ATOM     78  F   UNL A   1      34.732  32.450  32.483  1.00  0.00    -0.206 F 
ATOM     79  C   UNL A   1      34.004  33.901  30.787  1.00  0.00     0.059 A 
ATOM     80  C   UNL A   1      35.597  34.748  29.162  1.00  0.00     0.059 A 
ATOM     81  F   UNL A   1      37.844  34.089  29.288  1.00  0.00    -0.206 F 
ATOM     82  C   UNL A   1      34.302  34.689  29.673  1.00  0.00     0.060 A 
BRANCH  82  83
ATOM     83  S   UNL A   1      32.984  35.685  28.942  1.00  0.00     0.124 S 
ATOM     84  O   UNL A   1      32.378  34.737  28.014  1.00  0.00    -0.237 OA
ATOM     85  O   UNL A   1      32.184  36.037  30.110  1.00  0.00    -0.237 OA
ATOM     86  O   UNL A   1      33.705  36.796  28.329  1.00  0.00    -0.744 OA
ENDBRANCH  82  83
ENDBRANCH  50  75
BRANCH  62  87
ATOM     87  C   UNL A   1      39.810  34.336  36.884  1.00  0.00     0.058 A 
ATOM     88  C   UNL A   1      40.460  35.562  36.673  1.00  0.00     0.135 A 
ATOM     89  C   UNL A   1      39.069  34.180  38.068  1.00  0.00     0.135 A 
ATOM     90  F   UNL A   1      41.181  35.762  35.559  1.00  0.00    -0.206 F 
ATOM     91  C   UNL A   1      40.413  36.579  37.621  1.00  0.00     0.059 A 
ATOM     92  C   UNL A   1      38.981  35.196  39.013  1.00  0.00     0.059 A 
ATOM     93  F   UNL A   1      38.414  33.034  38.310  1.00  0.00    -0.206 F 
ATOM     94  C   UNL A   1      39.673  36.386  38.788  1.00  0.00     0.060 A 
BRANCH  94  95
ATOM     95  S   UNL A   1      39.616  37.713  40.009  1.00  0.00     0.124 S 
ATOM     96  O   UNL A   1      40.934  38.319  39.843  1.00  0.00    -0.237 OA
ATOM     97  O   UNL A   1      38.487  38.514  39.547  1.00  0.00    -0.237 OA
ATOM     98  O   UNL A   1      39.404  37.008  41.269  1.00  0.00    -0.744 OA
ENDBRANCH  94  95
ENDBRANCH  62  87
ENDBRANCH  36  37
ENDBRANCH  28  31
ENDBRANCH  26  27
ENDBRANCH  25  26
ENDBRANCH   1  25
TORSDOF 17
ENDMDL
MODEL 3
REMARK VINA RESULT:     -12.4      6.532     12.229
REMARK SMILES CC(C)(Oc1ccc(Cl)cc1)C(=O)N1CCC[C@H](C(=O)NCCCNC(=O)c2ccc(-c3c4nc(c(-c5c(F)cc(S(=O)(=O)[O-])cc5F)c5ccc([nH]5)c(-c5c(F)cc(S(=O)(=O)[O-])cc5F)c5nc(c(-c6c(F)cc(S(=O)(=O)[O-])cc6F)c6ccc3[nH]6)C=C5)C=C4)cc2)C1
REMARK SMILES IDX 22 1 21 2 19 3 20 4 18 6 14 7 15 8 94 9 16 10 17 11 12 12
REMARK SMILES IDX 13 13 2 14 1 15 3 16 4 17 5 18 6 19 11 20 7 21 10 22 8 23
REMARK SMILES IDX 9 24 23 25 24 26 25 27 26 28 27 30 28 31 29 32 93 33 30 34
REMARK SMILES IDX 92 35 31 36 32 37 33 38 86 39 34 40 91 41 85 42 87 43 35 44
REMARK SMILES IDX 90 45 84 46 83 47 36 49 70 50 49 51 69 52 50 53 53 54 68 55
REMARK SMILES IDX 88 56 51 57 52 58 67 60 89 61 54 62 37 63 38 64 47 65 39 66
REMARK SMILES IDX 40 67 46 68 48 69 41 70 42 71 43 72 44 73 45 74 71 75 72 76
REMARK SMILES IDX 81 77 73 78 74 79 80 80 82 81 75 82 76 83 77 84 78 85 79 86
REMARK SMILES IDX 55 87 56 88 65 89 57 90 58 91 64 92 66 93 59 94 60 95 61 96
REMARK SMILES IDX 62 97 63 98
REMARK H PARENT 21 5 25 29 87 48 53 59
REMARK Flexibility Score: inf
ROOT
ATOM      1  C   UNL A   1      33.251  30.595  27.173  1.00  0.00     0.117 C 
ENDROOT
BRANCH   1   2
ATOM      2  N   UNL A   1      33.420  29.985  25.877  1.00  0.00    -0.356 N 
ATOM      3  C   UNL A   1      33.197  28.711  25.464  1.00  0.00     0.224 C 
ATOM      4  O   UNL A   1      33.236  28.519  24.242  1.00  0.00    -0.275 OA
ATOM      5  H   UNL A   1      33.751  30.591  25.176  1.00  0.00     0.163 HD
BRANCH   3   6
ATOM      6  C   UNL A   1      32.914  27.523  26.397  1.00  0.00     0.098 C 
ATOM      7  N   UNL A   1      32.785  25.328  25.188  1.00  0.00    -0.338 N 
ATOM      8  C   UNL A   1      31.423  25.080  25.674  1.00  0.00     0.119 C 
ATOM      9  C   UNL A   1      33.603  26.212  26.010  1.00  0.00     0.133 C 
ATOM     10  C   UNL A   1      30.650  26.334  26.079  1.00  0.00     0.022 C 
ATOM     11  C   UNL A   1      31.464  27.363  26.848  1.00  0.00     0.017 C 
BRANCH   7  12
ATOM     12  C   UNL A   1      33.162  24.818  23.940  1.00  0.00     0.266 C 
ATOM     13  O   UNL A   1      32.771  25.393  22.915  1.00  0.00    -0.270 OA
BRANCH  12  14
ATOM     14  C   UNL A   1      33.882  23.417  23.821  1.00  0.00     0.181 C 
ATOM     15  C   UNL A   1      35.400  23.655  23.975  1.00  0.00     0.067 C 
ATOM     16  C   UNL A   1      33.551  22.983  22.379  1.00  0.00     0.067 C 
BRANCH  14  17
ATOM     17  O   UNL A   1      33.478  22.474  24.823  1.00  0.00    -0.478 OA
BRANCH  17  18
ATOM     18  C   UNL A   1      33.562  21.139  24.554  1.00  0.00     0.121 A 
ATOM     19  C   UNL A   1      34.687  20.377  24.864  1.00  0.00     0.048 A 
ATOM     20  C   UNL A   1      32.417  20.513  24.055  1.00  0.00     0.048 A 
ATOM     21  C   UNL A   1      34.697  19.004  24.602  1.00  0.00     0.024 A 
ATOM     22  C   UNL A   1      32.420  19.139  23.803  1.00  0.00     0.024 A 
ATOM     23  C   UNL A   1      33.566  18.391  24.067  1.00  0.00     0.041 A 
ATOM     24  Cl  UNL A   1      33.577  16.700  23.753  1.00  0.00    -0.084 Cl
ENDBRANCH  17  18
ENDBRANCH  14  17
ENDBRANCH  12  14
ENDBRANCH   7  12
ENDBRANCH   3   6
ENDBRANCH   1   2
BRANCH   1  25
ATOM     25  C   UNL A   1      34.487  31.297  27.696  1.00  0.00     0.042 C 
BRANCH  25  26
ATOM     26  C   UNL A   1      35.432  30.364  28.418  1.00  0.00     0.118 C 
BRANCH  26  27
ATOM     27  N   UNL A   1      35.490  30.622  29.854  1.00  0.00    -0.352 N 
ATOM     28  C   UNL A   1      36.523  30.453  30.745  1.00  0.00     0.251 C 
ATOM     29  H   UNL A   1      34.658  30.973  30.247  1.00  0.00     0.163 HD
ATOM     30  O   UNL A   1      36.319  30.621  31.946  1.00  0.00    -0.269 OA
BRANCH  28  31
ATOM     31  C   UNL A   1      37.860  30.045  30.269  1.00  0.00     0.039 A 
ATOM     32  C   UNL A   1      38.745  29.434  31.161  1.00  0.00     0.014 A 
ATOM     33  C   UNL A   1      38.245  30.258  28.945  1.00  0.00     0.014 A 
ATOM     34  C   UNL A   1      39.995  29.007  30.709  1.00  0.00     0.010 A 
ATOM     35  C   UNL A   1      39.416  29.696  28.464  1.00  0.00     0.010 A 
ATOM     36  C   UNL A   1      40.330  29.116  29.350  1.00  0.00    -0.014 A 
BRANCH  36  37
ATOM     37  C   UNL A   1      41.666  28.723  28.841  1.00  0.00     0.031 A 
ATOM     38  C   UNL A   1      42.755  29.763  28.747  1.00  0.00     0.074 A 
ATOM     39  C   UNL A   1      41.880  27.467  28.410  1.00  0.00     0.049 A 
ATOM     40  N   UNL A   1      43.971  29.649  28.279  1.00  0.00    -0.248 NA
ATOM     41  C   UNL A   1      42.416  31.126  29.190  1.00  0.00     0.031 C 
ATOM     42  C   UNL A   1      40.877  26.399  28.380  1.00  0.00     0.029 A 
ATOM     43  N   UNL A   1      43.011  26.876  27.910  1.00  0.00    -0.354 N 
ATOM     44  C   UNL A   1      44.519  30.925  28.342  1.00  0.00     0.074 A 
ATOM     45  C   UNL A   1      43.480  31.812  28.808  1.00  0.00     0.031 C 
ATOM     46  C   UNL A   1      41.448  25.275  27.920  1.00  0.00     0.029 A 
ATOM     47  C   UNL A   1      42.844  25.550  27.593  1.00  0.00     0.049 A 
ATOM     48  H   UNL A   1      43.860  27.357  27.789  1.00  0.00     0.167 HD
ATOM     49  C   UNL A   1      45.788  31.319  28.075  1.00  0.00     0.037 A 
ATOM     50  C   UNL A   1      43.723  24.656  27.099  1.00  0.00     0.037 A 
ATOM     51  C   UNL A   1      46.822  30.415  27.656  1.00  0.00     0.049 A 
ATOM     52  C   UNL A   1      45.142  25.094  26.865  1.00  0.00     0.074 A 
ATOM     53  C   UNL A   1      48.160  30.679  27.427  1.00  0.00     0.029 A 
ATOM     54  N   UNL A   1      46.632  29.063  27.403  1.00  0.00    -0.354 N 
ATOM     55  N   UNL A   1      45.671  26.288  27.002  1.00  0.00    -0.248 NA
ATOM     56  C   UNL A   1      46.092  24.060  26.436  1.00  0.00     0.031 C 
ATOM     57  C   UNL A   1      48.767  29.497  26.990  1.00  0.00     0.029 A 
ATOM     58  C   UNL A   1      47.822  28.481  27.007  1.00  0.00     0.049 A 
ATOM     59  H   UNL A   1      45.773  28.587  27.494  1.00  0.00     0.167 HD
ATOM     60  C   UNL A   1      47.021  26.146  26.704  1.00  0.00     0.074 A 
ATOM     61  C   UNL A   1      47.227  24.744  26.390  1.00  0.00     0.031 C 
ATOM     62  C   UNL A   1      48.003  27.083  26.699  1.00  0.00     0.037 A 
BRANCH  49  63
ATOM     63  C   UNL A   1      46.102  32.786  28.231  1.00  0.00     0.058 A 
ATOM     64  C   UNL A   1      45.977  33.693  27.163  1.00  0.00     0.135 A 
ATOM     65  C   UNL A   1      46.567  33.288  29.456  1.00  0.00     0.135 A 
ATOM     66  F   UNL A   1      45.551  33.270  25.962  1.00  0.00    -0.206 F 
ATOM     67  C   UNL A   1      46.361  35.024  27.287  1.00  0.00     0.059 A 
ATOM     68  C   UNL A   1      46.921  34.625  29.614  1.00  0.00     0.059 A 
ATOM     69  F   UNL A   1      46.705  32.472  30.513  1.00  0.00    -0.206 F 
ATOM     70  C   UNL A   1      46.841  35.479  28.516  1.00  0.00     0.060 A 
BRANCH  70  71
ATOM     71  S   UNL A   1      47.373  37.198  28.651  1.00  0.00     0.124 S 
ATOM     72  O   UNL A   1      46.616  37.823  27.571  1.00  0.00    -0.237 OA
ATOM     73  O   UNL A   1      46.953  37.550  30.005  1.00  0.00    -0.237 OA
ATOM     74  O   UNL A   1      48.815  37.124  28.445  1.00  0.00    -0.744 OA
ENDBRANCH  70  71
ENDBRANCH  49  63
BRANCH  50  75
ATOM     75  C   UNL A   1      43.284  23.257  26.857  1.00  0.00     0.058 A 
ATOM     76  C   UNL A   1      43.224  22.730  25.559  1.00  0.00     0.135 A 
ATOM     77  C   UNL A   1      42.986  22.396  27.926  1.00  0.00     0.135 A 
ATOM     78  F   UNL A   1      43.498  23.514  24.505  1.00  0.00    -0.206 F 
ATOM     79  C   UNL A   1      42.887  21.401  25.326  1.00  0.00     0.059 A 
ATOM     80  C   UNL A   1      42.670  21.057  27.720  1.00  0.00     0.059 A 
ATOM     81  F   UNL A   1      43.048  22.846  29.188  1.00  0.00    -0.206 F 
ATOM     82  C   UNL A   1      42.622  20.568  26.415  1.00  0.00     0.060 A 
BRANCH  82  83
ATOM     83  S   UNL A   1      42.277  18.822  26.105  1.00  0.00     0.124 S 
ATOM     84  O   UNL A   1      43.222  18.520  25.036  1.00  0.00    -0.237 OA
ATOM     85  O   UNL A   1      42.566  18.220  27.403  1.00  0.00    -0.237 OA
ATOM     86  O   UNL A   1      40.868  18.821  25.723  1.00  0.00    -0.744 OA
ENDBRANCH  82  83
ENDBRANCH  50  75
BRANCH  62  87
ATOM     87  C   UNL A   1      49.398  26.616  26.386  1.00  0.00     0.058 A 
ATOM     88  C   UNL A   1      50.215  26.011  27.354  1.00  0.00     0.135 A 
ATOM     89  C   UNL A   1      49.907  26.746  25.083  1.00  0.00     0.135 A 
ATOM     90  F   UNL A   1      49.776  25.863  28.613  1.00  0.00    -0.206 F 
ATOM     91  C   UNL A   1      51.506  25.591  27.051  1.00  0.00     0.059 A 
ATOM     92  C   UNL A   1      51.182  26.302  24.751  1.00  0.00     0.059 A 
ATOM     93  F   UNL A   1      49.160  27.301  24.116  1.00  0.00    -0.206 F 
ATOM     94  C   UNL A   1      51.981  25.743  25.747  1.00  0.00     0.060 A 
BRANCH  94  95
ATOM     95  S   UNL A   1      53.656  25.191  25.365  1.00  0.00     0.124 S 
ATOM     96  O   UNL A   1      53.780  25.582  23.964  1.00  0.00    -0.237 OA
ATOM     97  O   UNL A   1      54.461  25.958  26.310  1.00  0.00    -0.237 OA
ATOM     98  O   UNL A   1      53.607  23.754  25.613  1.00  0.00    -0.744 OA
ENDBRANCH  94  95
ENDBRANCH  62  87
ENDBRANCH  36  37
ENDBRANCH  28  31
ENDBRANCH  26  27
ENDBRANCH  25  26
ENDBRANCH   1  25
TORSDOF 17
ENDMDL
