MODEL 1
REMARK VINA RESULT:     -11.7      0.000      0.000
REMARK SMILES Cc1cc(C(=O)N2CCO[C@H](C)C2)sc1/C=C/C(=O)NCCCNC(=O)c1ccc(-c2c3nc(c(-c4c(F)cc(S(=O)(=O)[O-])cc4F)c4ccc([nH]4)c(-c4c(F)cc(S(=O)(=O)[O-])cc4F)c4nc(c(-c5c(F)cc(S(=O)(=O)[O-])cc5F)c5ccc2[nH]5)C=C4)C=C3)cc1
REMARK SMILES IDX 22 1 21 2 20 3 18 4 19 5 17 7 16 8 15 9 1 10 2 11 3 12 4 13
REMARK SMILES IDX 14 14 5 15 6 16 7 17 8 18 13 19 9 20 11 21 10 22 12 23 23 24
REMARK SMILES IDX 24 25 25 26 26 28 27 29 28 30 92 31 29 32 91 33 30 34 31 35
REMARK SMILES IDX 32 36 85 37 33 38 90 39 84 40 86 41 34 42 89 43 83 44 82 45
REMARK SMILES IDX 35 47 69 48 48 49 68 50 49 51 52 52 67 53 87 54 50 55 51 56
REMARK SMILES IDX 66 58 88 59 53 60 36 61 37 62 46 63 38 64 39 65 45 66 47 67
REMARK SMILES IDX 40 68 41 69 42 70 43 71 44 72 70 73 71 74 80 75 72 76 73 77
REMARK SMILES IDX 79 78 81 79 74 80 75 81 76 82 77 83 78 84 54 85 55 86 64 87
REMARK SMILES IDX 56 88 57 89 63 90 65 91 58 92 59 93 60 94 61 95 62 96
REMARK H PARENT 20 6 24 27 86 46 52 57
REMARK Flexibility Score: inf
ROOT
ATOM      1  C   UNL A   1      34.351  30.923  27.253  1.00  0.00     0.042 C 
ENDROOT
BRANCH   1   2
ATOM      2  C   UNL A   1      33.407  30.110  26.370  1.00  0.00     0.118 C 
BRANCH   2   3
ATOM      3  N   UNL A   1      32.257  29.627  27.117  1.00  0.00    -0.352 N 
ATOM      4  C   UNL A   1      31.816  28.356  27.312  1.00  0.00     0.244 C 
ATOM      5  O   UNL A   1      30.894  28.135  28.092  1.00  0.00    -0.270 OA
ATOM      6  H   UNL A   1      31.715  30.327  27.546  1.00  0.00     0.163 HD
BRANCH   4   7
ATOM      7  C   UNL A   1      32.508  27.225  26.667  1.00  0.00     0.072 C 
ATOM      8  C   UNL A   1      32.135  26.711  25.484  1.00  0.00     0.025 C 
BRANCH   8   9
ATOM      9  C   UNL A   1      32.812  25.607  24.886  1.00  0.00     0.031 A 
ATOM     10  C   UNL A   1      33.591  26.652  22.664  1.00  0.00     0.046 C 
ATOM     11  C   UNL A   1      33.424  25.528  23.639  1.00  0.00    -0.032 A 
ATOM     12  C   UNL A   1      33.938  24.209  23.392  1.00  0.00     0.029 A 
ATOM     13  C   UNL A   1      33.746  23.331  24.442  1.00  0.00     0.093 A 
ATOM     14  S   UNL A   1      32.950  24.116  25.724  1.00  0.00    -0.130 S 
BRANCH  13  15
ATOM     15  C   UNL A   1      34.320  21.994  24.569  1.00  0.00     0.264 C 
ATOM     16  O   UNL A   1      33.780  21.030  24.022  1.00  0.00    -0.268 OA
BRANCH  15  17
ATOM     17  N   UNL A   1      35.534  21.808  25.227  1.00  0.00    -0.333 N 
ATOM     18  C   UNL A   1      36.169  20.496  25.182  1.00  0.00     0.148 C 
ATOM     19  C   UNL A   1      36.283  22.792  26.018  1.00  0.00     0.151 C 
ATOM     20  C   UNL A   1      37.605  20.661  24.670  1.00  0.00     0.182 C 
ATOM     21  C   UNL A   1      37.741  22.877  25.524  1.00  0.00     0.134 C 
ATOM     22  O   UNL A   1      38.348  21.566  25.506  1.00  0.00    -0.375 OA
ATOM     23  C   UNL A   1      38.582  23.760  26.434  1.00  0.00     0.040 C 
ENDBRANCH  15  17
ENDBRANCH  13  15
ENDBRANCH   8   9
ENDBRANCH   4   7
ENDBRANCH   2   3
ENDBRANCH   1   2
BRANCH   1  24
ATOM     24  C   UNL A   1      35.269  30.064  28.119  1.00  0.00     0.118 C 
BRANCH  24  25
ATOM     25  N   UNL A   1      35.333  30.548  29.489  1.00  0.00    -0.352 N 
ATOM     26  C   UNL A   1      36.362  30.496  30.396  1.00  0.00     0.251 C 
ATOM     27  H   UNL A   1      34.511  30.981  29.817  1.00  0.00     0.163 HD
ATOM     28  O   UNL A   1      36.134  30.765  31.572  1.00  0.00    -0.269 OA
BRANCH  26  29
ATOM     29  C   UNL A   1      37.729  30.114  29.976  1.00  0.00     0.039 A 
ATOM     30  C   UNL A   1      38.623  29.650  30.948  1.00  0.00     0.014 A 
ATOM     31  C   UNL A   1      38.156  30.261  28.653  1.00  0.00     0.014 A 
ATOM     32  C   UNL A   1      39.924  29.294  30.586  1.00  0.00     0.010 A 
ATOM     33  C   UNL A   1      39.434  29.848  28.281  1.00  0.00     0.010 A 
ATOM     34  C   UNL A   1      40.334  29.368  29.245  1.00  0.00    -0.014 A 
BRANCH  34  35
ATOM     35  C   UNL A   1      41.702  28.957  28.835  1.00  0.00     0.031 A 
ATOM     36  C   UNL A   1      42.811  29.971  28.776  1.00  0.00     0.074 A 
ATOM     37  C   UNL A   1      41.929  27.683  28.461  1.00  0.00     0.049 A 
ATOM     38  N   UNL A   1      44.045  29.821  28.368  1.00  0.00    -0.248 NA
ATOM     39  C   UNL A   1      42.483  31.338  29.208  1.00  0.00     0.031 C 
ATOM     40  C   UNL A   1      40.925  26.616  28.435  1.00  0.00     0.029 A 
ATOM     41  N   UNL A   1      43.075  27.072  28.020  1.00  0.00    -0.354 N 
ATOM     42  C   UNL A   1      44.635  31.076  28.476  1.00  0.00     0.074 A 
ATOM     43  C   UNL A   1      43.612  31.983  28.950  1.00  0.00     0.031 C 
ATOM     44  C   UNL A   1      41.503  25.481  28.012  1.00  0.00     0.029 A 
ATOM     45  C   UNL A   1      42.907  25.743  27.710  1.00  0.00     0.049 A 
ATOM     46  H   UNL A   1      43.937  27.540  27.932  1.00  0.00     0.167 HD
ATOM     47  C   UNL A   1      45.916  31.434  28.220  1.00  0.00     0.037 A 
ATOM     48  C   UNL A   1      43.783  24.839  27.231  1.00  0.00     0.037 A 
ATOM     49  C   UNL A   1      46.939  30.523  27.778  1.00  0.00     0.049 A 
ATOM     50  C   UNL A   1      45.206  25.254  26.981  1.00  0.00     0.074 A 
ATOM     51  C   UNL A   1      48.278  30.780  27.540  1.00  0.00     0.029 A 
ATOM     52  N   UNL A   1      46.738  29.176  27.513  1.00  0.00    -0.354 N 
ATOM     53  N   UNL A   1      45.757  26.434  27.129  1.00  0.00    -0.248 NA
ATOM     54  C   UNL A   1      46.128  24.213  26.506  1.00  0.00     0.031 C 
ATOM     55  C   UNL A   1      48.882  29.592  27.107  1.00  0.00     0.029 A 
ATOM     56  C   UNL A   1      47.925  28.591  27.108  1.00  0.00     0.049 A 
ATOM     57  H   UNL A   1      45.878  28.706  27.601  1.00  0.00     0.167 HD
ATOM     58  C   UNL A   1      47.094  26.275  26.785  1.00  0.00     0.074 A 
ATOM     59  C   UNL A   1      47.272  24.881  26.431  1.00  0.00     0.031 C 
ATOM     60  C   UNL A   1      48.084  27.200  26.764  1.00  0.00     0.037 A 
BRANCH  47  61
ATOM     61  C   UNL A   1      46.283  32.879  28.418  1.00  0.00     0.058 A 
ATOM     62  C   UNL A   1      46.745  33.355  29.656  1.00  0.00     0.135 A 
ATOM     63  C   UNL A   1      46.193  33.793  27.357  1.00  0.00     0.135 A 
ATOM     64  F   UNL A   1      46.834  32.526  30.707  1.00  0.00    -0.206 F 
ATOM     65  C   UNL A   1      47.074  34.693  29.843  1.00  0.00     0.059 A 
ATOM     66  C   UNL A   1      46.540  35.132  27.515  1.00  0.00     0.059 A 
ATOM     67  F   UNL A   1      45.759  33.390  26.152  1.00  0.00    -0.206 F 
ATOM     68  C   UNL A   1      46.962  35.576  28.767  1.00  0.00     0.060 A 
BRANCH  68  69
ATOM     69  S   UNL A   1      47.385  37.312  29.026  1.00  0.00     0.124 S 
ATOM     70  O   UNL A   1      47.208  37.441  30.469  1.00  0.00    -0.237 OA
ATOM     71  O   UNL A   1      48.762  37.376  28.548  1.00  0.00    -0.237 OA
ATOM     72  O   UNL A   1      46.407  38.024  28.207  1.00  0.00    -0.744 OA
ENDBRANCH  68  69
ENDBRANCH  47  61
BRANCH  48  73
ATOM     73  C   UNL A   1      43.339  23.444  26.983  1.00  0.00     0.058 A 
ATOM     74  C   UNL A   1      43.159  22.969  25.675  1.00  0.00     0.135 A 
ATOM     75  C   UNL A   1      43.115  22.551  28.042  1.00  0.00     0.135 A 
ATOM     76  F   UNL A   1      43.356  23.789  24.632  1.00  0.00    -0.206 F 
ATOM     77  C   UNL A   1      42.766  21.659  25.425  1.00  0.00     0.059 A 
ATOM     78  C   UNL A   1      42.741  21.230  27.815  1.00  0.00     0.059 A 
ATOM     79  F   UNL A   1      43.292  22.954  29.310  1.00  0.00    -0.206 F 
ATOM     80  C   UNL A   1      42.562  20.796  26.502  1.00  0.00     0.060 A 
BRANCH  80  81
ATOM     81  S   UNL A   1      42.119  19.077  26.167  1.00  0.00     0.124 S 
ATOM     82  O   UNL A   1      42.399  18.446  27.451  1.00  0.00    -0.237 OA
ATOM     83  O   UNL A   1      40.709  19.187  25.802  1.00  0.00    -0.237 OA
ATOM     84  O   UNL A   1      43.013  18.711  25.072  1.00  0.00    -0.744 OA
ENDBRANCH  80  81
ENDBRANCH  48  73
BRANCH  60  85
ATOM     85  C   UNL A   1      49.455  26.730  26.369  1.00  0.00     0.058 A 
ATOM     86  C   UNL A   1      50.305  26.095  27.287  1.00  0.00     0.135 A 
ATOM     87  C   UNL A   1      49.905  26.877  25.048  1.00  0.00     0.135 A 
ATOM     88  F   UNL A   1      49.924  25.937  28.564  1.00  0.00    -0.206 F 
ATOM     89  C   UNL A   1      51.565  25.638  26.913  1.00  0.00     0.059 A 
ATOM     90  C   UNL A   1      51.152  26.409  24.646  1.00  0.00     0.059 A 
ATOM     91  F   UNL A   1      49.124  27.470  24.131  1.00  0.00    -0.206 F 
ATOM     92  C   UNL A   1      51.980  25.802  25.589  1.00  0.00     0.060 A 
BRANCH  92  93
ATOM     93  S   UNL A   1      53.604  25.178  25.105  1.00  0.00     0.124 S 
ATOM     94  O   UNL A   1      53.445  23.745  25.323  1.00  0.00    -0.237 OA
ATOM     95  O   UNL A   1      53.702  25.600  23.711  1.00  0.00    -0.237 OA
ATOM     96  O   UNL A   1      54.513  25.859  26.023  1.00  0.00    -0.744 OA
ENDBRANCH  92  93
ENDBRANCH  60  85
ENDBRANCH  34  35
ENDBRANCH  26  29
ENDBRANCH  24  25
ENDBRANCH   1  24
TORSDOF 16
ENDMDL
MODEL 2
REMARK VINA RESULT:     -11.6      6.416     12.229
REMARK SMILES Cc1cc(C(=O)N2CCO[C@H](C)C2)sc1/C=C/C(=O)NCCCNC(=O)c1ccc(-c2c3nc(c(-c4c(F)cc(S(=O)(=O)[O-])cc4F)c4ccc([nH]4)c(-c4c(F)cc(S(=O)(=O)[O-])cc4F)c4nc(c(-c5c(F)cc(S(=O)(=O)[O-])cc5F)c5ccc2[nH]5)C=C4)C=C3)cc1
REMARK SMILES IDX 22 1 21 2 20 3 18 4 19 5 17 7 16 8 15 9 1 10 2 11 3 12 4 13
REMARK SMILES IDX 14 14 5 15 6 16 7 17 8 18 13 19 9 20 11 21 10 22 12 23 23 24
REMARK SMILES IDX 24 25 25 26 26 28 27 29 28 30 92 31 29 32 91 33 30 34 31 35
REMARK SMILES IDX 32 36 85 37 33 38 90 39 84 40 86 41 34 42 89 43 83 44 82 45
REMARK SMILES IDX 35 47 69 48 48 49 68 50 49 51 52 52 67 53 87 54 50 55 51 56
REMARK SMILES IDX 66 58 88 59 53 60 36 61 37 62 46 63 38 64 39 65 45 66 47 67
REMARK SMILES IDX 40 68 41 69 42 70 43 71 44 72 70 73 71 74 80 75 72 76 73 77
REMARK SMILES IDX 79 78 81 79 74 80 75 81 76 82 77 83 78 84 54 85 55 86 64 87
REMARK SMILES IDX 56 88 57 89 63 90 65 91 58 92 59 93 60 94 61 95 62 96
REMARK H PARENT 20 6 24 27 86 46 52 57
REMARK Flexibility Score: inf
ROOT
ATOM      1  C   UNL A   1      40.409  22.156  27.640  1.00  0.00     0.042 C 
ENDROOT
BRANCH   1   2
ATOM      2  C   UNL A   1      39.409  22.372  26.507  1.00  0.00     0.118 C 
BRANCH   2   3
ATOM      3  N   UNL A   1      39.149  21.142  25.778  1.00  0.00    -0.352 N 
ATOM      4  C   UNL A   1      37.990  20.671  25.247  1.00  0.00     0.244 C 
ATOM      5  O   UNL A   1      37.996  19.665  24.543  1.00  0.00    -0.270 OA
ATOM      6  H   UNL A   1      39.932  20.559  25.650  1.00  0.00     0.163 HD
BRANCH   4   7
ATOM      7  C   UNL A   1      36.734  21.423  25.429  1.00  0.00     0.072 C 
ATOM      8  C   UNL A   1      35.538  20.968  25.024  1.00  0.00     0.025 C 
BRANCH   8   9
ATOM      9  C   UNL A   1      34.338  21.721  25.198  1.00  0.00     0.031 A 
ATOM     10  C   UNL A   1      32.570  20.014  24.428  1.00  0.00     0.046 C 
ATOM     11  C   UNL A   1      33.027  21.355  24.910  1.00  0.00    -0.032 A 
ATOM     12  C   UNL A   1      32.113  22.433  25.176  1.00  0.00     0.029 A 
ATOM     13  C   UNL A   1      32.722  23.566  25.683  1.00  0.00     0.093 A 
ATOM     14  S   UNL A   1      34.396  23.311  25.841  1.00  0.00    -0.130 S 
BRANCH  13  15
ATOM     15  C   UNL A   1      32.047  24.741  26.227  1.00  0.00     0.264 C 
ATOM     16  O   UNL A   1      31.311  24.637  27.211  1.00  0.00    -0.268 OA
BRANCH  15  17
ATOM     17  N   UNL A   1      32.303  26.006  25.702  1.00  0.00    -0.333 N 
ATOM     18  C   UNL A   1      32.542  27.116  26.617  1.00  0.00     0.148 C 
ATOM     19  C   UNL A   1      32.341  26.397  24.288  1.00  0.00     0.151 C 
ATOM     20  C   UNL A   1      33.874  27.780  26.248  1.00  0.00     0.182 C 
ATOM     21  C   UNL A   1      33.661  27.128  23.970  1.00  0.00     0.134 C 
ATOM     22  O   UNL A   1      33.862  28.231  24.882  1.00  0.00    -0.375 OA
ATOM     23  C   UNL A   1      33.653  27.695  22.558  1.00  0.00     0.040 C 
ENDBRANCH  15  17
ENDBRANCH  13  15
ENDBRANCH   8   9
ENDBRANCH   4   7
ENDBRANCH   2   3
ENDBRANCH   1   2
BRANCH   1  24
ATOM     24  C   UNL A   1      41.606  23.102  27.588  1.00  0.00     0.118 C 
BRANCH  24  25
ATOM     25  N   UNL A   1      41.622  23.891  26.366  1.00  0.00    -0.352 N 
ATOM     26  C   UNL A   1      41.320  25.215  26.165  1.00  0.00     0.251 C 
ATOM     27  H   UNL A   1      41.892  23.399  25.556  1.00  0.00     0.163 HD
ATOM     28  O   UNL A   1      41.184  25.628  25.017  1.00  0.00    -0.269 OA
BRANCH  26  29
ATOM     29  C   UNL A   1      41.149  26.139  27.309  1.00  0.00     0.039 A 
ATOM     30  C   UNL A   1      42.086  27.162  27.491  1.00  0.00     0.014 A 
ATOM     31  C   UNL A   1      40.113  25.974  28.233  1.00  0.00     0.014 A 
ATOM     32  C   UNL A   1      41.960  28.042  28.568  1.00  0.00     0.010 A 
ATOM     33  C   UNL A   1      39.952  26.888  29.273  1.00  0.00     0.010 A 
ATOM     34  C   UNL A   1      40.878  27.926  29.455  1.00  0.00    -0.014 A 
BRANCH  34  35
ATOM     35  C   UNL A   1      40.705  28.877  30.584  1.00  0.00     0.031 A 
ATOM     36  C   UNL A   1      41.556  28.749  31.819  1.00  0.00     0.074 A 
ATOM     37  C   UNL A   1      39.744  29.818  30.521  1.00  0.00     0.049 A 
ATOM     38  N   UNL A   1      41.499  29.429  32.934  1.00  0.00    -0.248 NA
ATOM     39  C   UNL A   1      42.588  27.700  31.806  1.00  0.00     0.031 C 
ATOM     40  C   UNL A   1      38.827  30.016  29.395  1.00  0.00     0.029 A 
ATOM     41  N   UNL A   1      39.370  30.777  31.427  1.00  0.00    -0.354 N 
ATOM     42  C   UNL A   1      42.472  28.882  33.762  1.00  0.00     0.074 A 
ATOM     43  C   UNL A   1      43.077  27.786  33.035  1.00  0.00     0.031 C 
ATOM     44  C   UNL A   1      38.005  31.041  29.674  1.00  0.00     0.029 A 
ATOM     45  C   UNL A   1      38.316  31.553  31.006  1.00  0.00     0.049 A 
ATOM     46  H   UNL A   1      39.813  30.898  32.298  1.00  0.00     0.167 HD
ATOM     47  C   UNL A   1      42.839  29.267  35.008  1.00  0.00     0.037 A 
ATOM     48  C   UNL A   1      37.668  32.559  31.625  1.00  0.00     0.037 A 
ATOM     49  C   UNL A   1      42.257  30.377  35.717  1.00  0.00     0.049 A 
ATOM     50  C   UNL A   1      38.112  32.987  32.995  1.00  0.00     0.074 A 
ATOM     51  C   UNL A   1      42.595  30.877  36.962  1.00  0.00     0.029 A 
ATOM     52  N   UNL A   1      41.218  31.162  35.239  1.00  0.00    -0.354 N 
ATOM     53  N   UNL A   1      39.063  32.486  33.746  1.00  0.00    -0.248 NA
ATOM     54  C   UNL A   1      37.401  34.122  33.600  1.00  0.00     0.031 C 
ATOM     55  C   UNL A   1      41.743  31.951  37.249  1.00  0.00     0.029 A 
ATOM     56  C   UNL A   1      40.898  32.139  36.168  1.00  0.00     0.049 A 
ATOM     57  H   UNL A   1      40.774  31.044  34.369  1.00  0.00     0.167 HD
ATOM     58  C   UNL A   1      39.078  33.256  34.903  1.00  0.00     0.074 A 
ATOM     59  C   UNL A   1      38.048  34.263  34.749  1.00  0.00     0.031 C 
ATOM     60  C   UNL A   1      39.873  33.137  35.995  1.00  0.00     0.037 A 
BRANCH  47  61
ATOM     61  C   UNL A   1      43.930  28.482  35.682  1.00  0.00     0.058 A 
ATOM     62  C   UNL A   1      43.640  27.404  36.533  1.00  0.00     0.135 A 
ATOM     63  C   UNL A   1      45.281  28.795  35.458  1.00  0.00     0.135 A 
ATOM     64  F   UNL A   1      42.365  27.073  36.793  1.00  0.00    -0.206 F 
ATOM     65  C   UNL A   1      44.648  26.683  37.165  1.00  0.00     0.059 A 
ATOM     66  C   UNL A   1      46.307  28.072  36.061  1.00  0.00     0.059 A 
ATOM     67  F   UNL A   1      45.614  29.815  34.652  1.00  0.00    -0.206 F 
ATOM     68  C   UNL A   1      45.979  27.030  36.927  1.00  0.00     0.060 A 
BRANCH  68  69
ATOM     69  S   UNL A   1      47.279  26.093  37.759  1.00  0.00     0.124 S 
ATOM     70  O   UNL A   1      48.378  26.215  36.807  1.00  0.00    -0.237 OA
ATOM     71  O   UNL A   1      47.443  26.823  39.012  1.00  0.00    -0.237 OA
ATOM     72  O   UNL A   1      46.704  24.757  37.887  1.00  0.00    -0.744 OA
ENDBRANCH  68  69
ENDBRANCH  47  61
BRANCH  48  73
ATOM     73  C   UNL A   1      36.546  33.246  30.935  1.00  0.00     0.058 A 
ATOM     74  C   UNL A   1      35.221  33.055  31.354  1.00  0.00     0.135 A 
ATOM     75  C   UNL A   1      36.777  34.127  29.868  1.00  0.00     0.135 A 
ATOM     76  F   UNL A   1      34.953  32.216  32.366  1.00  0.00    -0.206 F 
ATOM     77  C   UNL A   1      34.162  33.708  30.734  1.00  0.00     0.059 A 
ATOM     78  C   UNL A   1      35.735  34.807  29.246  1.00  0.00     0.059 A 
ATOM     79  F   UNL A   1      38.030  34.356  29.444  1.00  0.00    -0.206 F 
ATOM     80  C   UNL A   1      34.429  34.585  29.682  1.00  0.00     0.060 A 
BRANCH  80  81
ATOM     81  S   UNL A   1      33.055  35.482  28.928  1.00  0.00     0.124 S 
ATOM     82  O   UNL A   1      32.329  35.950  30.102  1.00  0.00    -0.237 OA
ATOM     83  O   UNL A   1      33.744  36.508  28.150  1.00  0.00    -0.237 OA
ATOM     84  O   UNL A   1      32.383  34.455  28.136  1.00  0.00    -0.744 OA
ENDBRANCH  80  81
ENDBRANCH  48  73
BRANCH  60  85
ATOM     85  C   UNL A   1      39.678  34.138  37.097  1.00  0.00     0.058 A 
ATOM     86  C   UNL A   1      38.955  33.820  38.257  1.00  0.00     0.135 A 
ATOM     87  C   UNL A   1      40.259  35.413  37.011  1.00  0.00     0.135 A 
ATOM     88  F   UNL A   1      38.375  32.617  38.383  1.00  0.00    -0.206 F 
ATOM     89  C   UNL A   1      38.798  34.741  39.288  1.00  0.00     0.059 A 
ATOM     90  C   UNL A   1      40.132  36.343  38.040  1.00  0.00     0.059 A 
ATOM     91  F   UNL A   1      40.967  35.761  35.925  1.00  0.00    -0.206 F 
ATOM     92  C   UNL A   1      39.389  36.001  39.169  1.00  0.00     0.060 A 
BRANCH  92  93
ATOM     93  S   UNL A   1      39.205  37.179  40.525  1.00  0.00     0.124 S 
ATOM     94  O   UNL A   1      40.588  37.584  40.751  1.00  0.00    -0.237 OA
ATOM     95  O   UNL A   1      38.333  38.195  39.945  1.00  0.00    -0.237 OA
ATOM     96  O   UNL A   1      38.602  36.378  41.587  1.00  0.00    -0.744 OA
ENDBRANCH  92  93
ENDBRANCH  60  85
ENDBRANCH  34  35
ENDBRANCH  26  29
ENDBRANCH  24  25
ENDBRANCH   1  24
TORSDOF 16
ENDMDL
MODEL 3
REMARK VINA RESULT:     -11.5      6.308     12.101
REMARK SMILES Cc1cc(C(=O)N2CCO[C@H](C)C2)sc1/C=C/C(=O)NCCCNC(=O)c1ccc(-c2c3nc(c(-c4c(F)cc(S(=O)(=O)[O-])cc4F)c4ccc([nH]4)c(-c4c(F)cc(S(=O)(=O)[O-])cc4F)c4nc(c(-c5c(F)cc(S(=O)(=O)[O-])cc5F)c5ccc2[nH]5)C=C4)C=C3)cc1
REMARK SMILES IDX 22 1 21 2 20 3 18 4 19 5 17 7 16 8 15 9 1 10 2 11 3 12 4 13
REMARK SMILES IDX 14 14 5 15 6 16 7 17 8 18 13 19 9 20 11 21 10 22 12 23 23 24
REMARK SMILES IDX 24 25 25 26 26 28 27 29 28 30 92 31 29 32 91 33 30 34 31 35
REMARK SMILES IDX 32 36 85 37 33 38 90 39 84 40 86 41 34 42 89 43 83 44 82 45
REMARK SMILES IDX 35 47 69 48 48 49 68 50 49 51 52 52 67 53 87 54 50 55 51 56
REMARK SMILES IDX 66 58 88 59 53 60 36 61 37 62 46 63 38 64 39 65 45 66 47 67
REMARK SMILES IDX 40 68 41 69 42 70 43 71 44 72 70 73 71 74 80 75 72 76 73 77
REMARK SMILES IDX 79 78 81 79 74 80 75 81 76 82 77 83 78 84 54 85 55 86 64 87
REMARK SMILES IDX 56 88 57 89 63 90 65 91 58 92 59 93 60 94 61 95 62 96
REMARK H PARENT 20 6 24 27 86 46 52 57
REMARK Flexibility Score: inf
ROOT
ATOM      1  C   UNL A   1      39.933  21.733  26.778  1.00  0.00     0.042 C 
ENDROOT
BRANCH   1   2
ATOM      2  C   UNL A   1      38.799  21.976  25.786  1.00  0.00     0.118 C 
BRANCH   2   3
ATOM      3  N   UNL A   1      38.111  20.742  25.445  1.00  0.00    -0.352 N 
ATOM      4  C   UNL A   1      36.821  20.538  25.067  1.00  0.00     0.244 C 
ATOM      5  O   UNL A   1      36.456  19.430  24.685  1.00  0.00    -0.270 OA
ATOM      6  H   UNL A   1      38.663  19.929  25.496  1.00  0.00     0.163 HD
BRANCH   4   7
ATOM      7  C   UNL A   1      35.878  21.671  25.016  1.00  0.00     0.072 C 
ATOM      8  C   UNL A   1      34.545  21.519  24.988  1.00  0.00     0.025 C 
BRANCH   8   9
ATOM      9  C   UNL A   1      33.652  22.631  24.924  1.00  0.00     0.031 A 
ATOM     10  C   UNL A   1      32.161  21.951  22.937  1.00  0.00     0.046 C 
ATOM     11  C   UNL A   1      32.626  22.876  24.018  1.00  0.00    -0.032 A 
ATOM     12  C   UNL A   1      32.003  24.149  24.265  1.00  0.00     0.029 A 
ATOM     13  C   UNL A   1      32.528  24.822  25.352  1.00  0.00     0.093 A 
ATOM     14  S   UNL A   1      33.768  23.904  26.069  1.00  0.00    -0.130 S 
BRANCH  13  15
ATOM     15  C   UNL A   1      31.986  26.032  25.965  1.00  0.00     0.264 C 
ATOM     16  O   UNL A   1      31.013  25.965  26.719  1.00  0.00    -0.268 OA
BRANCH  15  17
ATOM     17  N   UNL A   1      32.620  27.259  25.783  1.00  0.00    -0.333 N 
ATOM     18  C   UNL A   1      32.032  28.229  24.868  1.00  0.00     0.148 C 
ATOM     19  C   UNL A   1      33.872  27.718  26.395  1.00  0.00     0.151 C 
ATOM     20  C   UNL A   1      31.845  29.558  25.611  1.00  0.00     0.182 C 
ATOM     21  C   UNL A   1      33.666  29.090  27.069  1.00  0.00     0.134 C 
ATOM     22  O   UNL A   1      33.098  30.035  26.134  1.00  0.00    -0.375 OA
ATOM     23  C   UNL A   1      34.985  29.668  27.561  1.00  0.00     0.040 C 
ENDBRANCH  15  17
ENDBRANCH  13  15
ENDBRANCH   8   9
ENDBRANCH   4   7
ENDBRANCH   2   3
ENDBRANCH   1   2
BRANCH   1  24
ATOM     24  C   UNL A   1      40.584  23.017  27.288  1.00  0.00     0.118 C 
BRANCH  24  25
ATOM     25  N   UNL A   1      41.307  23.714  26.236  1.00  0.00    -0.352 N 
ATOM     26  C   UNL A   1      41.621  25.044  26.114  1.00  0.00     0.251 C 
ATOM     27  H   UNL A   1      41.621  23.143  25.497  1.00  0.00     0.163 HD
ATOM     28  O   UNL A   1      42.045  25.461  25.039  1.00  0.00    -0.269 OA
BRANCH  26  29
ATOM     29  C   UNL A   1      41.447  25.976  27.251  1.00  0.00     0.039 A 
ATOM     30  C   UNL A   1      42.403  26.980  27.447  1.00  0.00     0.014 A 
ATOM     31  C   UNL A   1      40.390  25.837  28.154  1.00  0.00     0.014 A 
ATOM     32  C   UNL A   1      42.274  27.866  28.519  1.00  0.00     0.010 A 
ATOM     33  C   UNL A   1      40.228  26.759  29.187  1.00  0.00     0.010 A 
ATOM     34  C   UNL A   1      41.172  27.778  29.385  1.00  0.00    -0.014 A 
BRANCH  34  35
ATOM     35  C   UNL A   1      40.998  28.737  30.507  1.00  0.00     0.031 A 
ATOM     36  C   UNL A   1      41.872  28.640  31.728  1.00  0.00     0.074 A 
ATOM     37  C   UNL A   1      40.015  29.655  30.450  1.00  0.00     0.049 A 
ATOM     38  N   UNL A   1      41.819  29.331  32.837  1.00  0.00    -0.248 NA
ATOM     39  C   UNL A   1      42.927  27.614  31.708  1.00  0.00     0.031 C 
ATOM     40  C   UNL A   1      39.074  29.821  29.339  1.00  0.00     0.029 A 
ATOM     41  N   UNL A   1      39.635  30.615  31.353  1.00  0.00    -0.354 N 
ATOM     42  C   UNL A   1      42.818  28.814  33.654  1.00  0.00     0.074 A 
ATOM     43  C   UNL A   1      43.435  27.724  32.927  1.00  0.00     0.031 C 
ATOM     44  C   UNL A   1      38.235  30.830  29.622  1.00  0.00     0.029 A 
ATOM     45  C   UNL A   1      38.557  31.363  30.942  1.00  0.00     0.049 A 
ATOM     46  H   UNL A   1      40.090  30.755  32.215  1.00  0.00     0.167 HD
ATOM     47  C   UNL A   1      43.198  29.220  34.889  1.00  0.00     0.037 A 
ATOM     48  C   UNL A   1      37.897  32.361  31.562  1.00  0.00     0.037 A 
ATOM     49  C   UNL A   1      42.603  30.324  35.596  1.00  0.00     0.049 A 
ATOM     50  C   UNL A   1      38.355  32.813  32.920  1.00  0.00     0.074 A 
ATOM     51  C   UNL A   1      42.951  30.845  36.830  1.00  0.00     0.029 A 
ATOM     52  N   UNL A   1      41.539  31.081  35.129  1.00  0.00    -0.354 N 
ATOM     53  N   UNL A   1      39.330  32.341  33.660  1.00  0.00    -0.248 NA
ATOM     54  C   UNL A   1      37.629  33.939  33.526  1.00  0.00     0.031 C 
ATOM     55  C   UNL A   1      42.080  31.903  37.121  1.00  0.00     0.029 A 
ATOM     56  C   UNL A   1      41.213  32.060  36.053  1.00  0.00     0.049 A 
ATOM     57  H   UNL A   1      41.083  30.944  34.268  1.00  0.00     0.167 HD
ATOM     58  C   UNL A   1      39.347  33.123  34.808  1.00  0.00     0.074 A 
ATOM     59  C   UNL A   1      38.293  34.106  34.662  1.00  0.00     0.031 C 
ATOM     60  C   UNL A   1      40.163  33.034  35.887  1.00  0.00     0.037 A 
BRANCH  47  61
ATOM     61  C   UNL A   1      44.317  28.467  35.551  1.00  0.00     0.058 A 
ATOM     62  C   UNL A   1      44.067  27.377  36.401  1.00  0.00     0.135 A 
ATOM     63  C   UNL A   1      45.656  28.821  35.319  1.00  0.00     0.135 A 
ATOM     64  F   UNL A   1      42.805  27.007  36.670  1.00  0.00    -0.206 F 
ATOM     65  C   UNL A   1      45.101  26.686  37.023  1.00  0.00     0.059 A 
ATOM     66  C   UNL A   1      46.708  28.128  35.911  1.00  0.00     0.059 A 
ATOM     67  F   UNL A   1      45.952  29.853  34.513  1.00  0.00    -0.206 F 
ATOM     68  C   UNL A   1      46.419  27.074  36.776  1.00  0.00     0.060 A 
BRANCH  68  69
ATOM     69  S   UNL A   1      47.753  26.174  37.595  1.00  0.00     0.124 S 
ATOM     70  O   UNL A   1      48.712  26.023  36.505  1.00  0.00    -0.237 OA
ATOM     71  O   UNL A   1      48.145  27.091  38.660  1.00  0.00    -0.237 OA
ATOM     72  O   UNL A   1      47.108  24.942  38.039  1.00  0.00    -0.744 OA
ENDBRANCH  68  69
ENDBRANCH  47  61
BRANCH  48  73
ATOM     73  C   UNL A   1      36.749  33.015  30.885  1.00  0.00     0.058 A 
ATOM     74  C   UNL A   1      35.434  32.777  31.310  1.00  0.00     0.135 A 
ATOM     75  C   UNL A   1      36.943  33.912  29.824  1.00  0.00     0.135 A 
ATOM     76  F   UNL A   1      35.200  31.921  32.317  1.00  0.00    -0.206 F 
ATOM     77  C   UNL A   1      34.349  33.399  30.702  1.00  0.00     0.059 A 
ATOM     78  C   UNL A   1      35.875  34.562  29.214  1.00  0.00     0.059 A 
ATOM     79  F   UNL A   1      38.185  34.186  29.394  1.00  0.00    -0.206 F 
ATOM     80  C   UNL A   1      34.580  34.293  29.656  1.00  0.00     0.060 A 
BRANCH  80  81
ATOM     81  S   UNL A   1      33.172  35.150  28.918  1.00  0.00     0.124 S 
ATOM     82  O   UNL A   1      32.697  34.160  27.958  1.00  0.00    -0.237 OA
ATOM     83  O   UNL A   1      32.311  35.385  30.073  1.00  0.00    -0.237 OA
ATOM     84  O   UNL A   1      33.776  36.349  28.345  1.00  0.00    -0.744 OA
ENDBRANCH  80  81
ENDBRANCH  48  73
BRANCH  60  85
ATOM     85  C   UNL A   1      39.965  34.042  36.983  1.00  0.00     0.058 A 
ATOM     86  C   UNL A   1      40.516  35.330  36.903  1.00  0.00     0.135 A 
ATOM     87  C   UNL A   1      39.180  33.730  38.104  1.00  0.00     0.135 A 
ATOM     88  F   UNL A   1      41.281  35.674  35.855  1.00  0.00    -0.206 F 
ATOM     89  C   UNL A   1      40.311  36.270  37.907  1.00  0.00     0.059 A 
ATOM     90  C   UNL A   1      38.944  34.661  39.110  1.00  0.00     0.059 A 
ATOM     91  F   UNL A   1      38.624  32.513  38.221  1.00  0.00    -0.206 F 
ATOM     92  C   UNL A   1      39.524  35.925  39.009  1.00  0.00     0.060 A 
BRANCH  92  93
ATOM     93  S   UNL A   1      39.238  37.161  40.294  1.00  0.00     0.124 S 
ATOM     94  O   UNL A   1      38.377  36.430  41.217  1.00  0.00    -0.237 OA
ATOM     95  O   UNL A   1      40.589  37.439  40.771  1.00  0.00    -0.237 OA
ATOM     96  O   UNL A   1      38.599  38.257  39.570  1.00  0.00    -0.744 OA
ENDBRANCH  92  93
ENDBRANCH  60  85
ENDBRANCH  34  35
ENDBRANCH  26  29
ENDBRANCH  24  25
ENDBRANCH   1  24
TORSDOF 16
ENDMDL
