MODEL 1
REMARK VINA RESULT:     -12.3      0.000      0.000
REMARK SMILES CCc1cc(OCC(=O)NCCCNC(=O)c2ccc(-c3c4nc(c(-c5c(F)cc(S(=O)(=O)[O-])cc5F)c5ccc([nH]5)c(-c5c(F)cc(S(=O)(=O)[O-])cc5F)c5nc(c(-c6c(F)cc(S(=O)(=O)[O-])cc6F)c6ccc3[nH]6)C=C5)C=C4)cc2)nc(Nc2ccc(C)c(F)c2)n1
REMARK SMILES IDX 11 1 10 2 8 3 9 4 7 6 6 7 5 8 3 9 4 10 94 11 84 12 83 13
REMARK SMILES IDX 2 14 1 15 85 16 86 18 87 19 93 20 88 21 91 22 89 23 92 24
REMARK SMILES IDX 90 25 12 26 13 27 14 28 15 29 16 31 17 32 18 33 82 34 19 35
REMARK SMILES IDX 81 36 20 37 21 38 22 39 75 40 23 41 80 42 74 43 76 44 24 45
REMARK SMILES IDX 79 46 73 47 72 48 25 50 59 51 38 52 58 53 39 54 42 55 57 56
REMARK SMILES IDX 77 57 40 58 41 59 56 61 78 62 43 63 26 64 27 65 36 66 28 67
REMARK SMILES IDX 29 68 35 69 37 70 30 71 31 72 32 73 33 74 34 75 60 76 61 77
REMARK SMILES IDX 70 78 62 79 63 80 69 81 71 82 64 83 65 84 66 85 67 86 68 87
REMARK SMILES IDX 44 88 45 89 54 90 46 91 47 92 53 93 55 94 48 95 49 96 50 97
REMARK SMILES IDX 51 98 52 99
REMARK H PARENT 10 5 85 17 14 30 76 49 42 60
REMARK Flexibility Score: inf
ROOT
ATOM      1  C   UNL A   1      39.597  21.509  26.135  1.00  0.00     0.117 C 
ENDROOT
BRANCH   1   2
ATOM      2  N   UNL A   1      38.826  22.735  26.042  1.00  0.00    -0.353 N 
ATOM      3  C   UNL A   1      37.543  22.894  25.612  1.00  0.00     0.258 C 
ATOM      4  O   UNL A   1      37.037  24.019  25.650  1.00  0.00    -0.271 OA
ATOM      5  H   UNL A   1      39.289  23.556  26.325  1.00  0.00     0.163 HD
BRANCH   3   6
ATOM      6  C   UNL A   1      36.746  21.681  25.113  1.00  0.00     0.331 C 
BRANCH   6   7
ATOM      7  O   UNL A   1      35.779  21.143  25.997  1.00  0.00    -0.467 OA
BRANCH   7   8
ATOM      8  C   UNL A   1      34.599  20.695  25.467  1.00  0.00     0.218 A 
ATOM      9  C   UNL A   1      33.195  19.232  24.294  1.00  0.00     0.050 A 
ATOM     10  C   UNL A   1      34.473  19.595  24.646  1.00  0.00     0.092 A 
ATOM     11  N   UNL A   1      32.139  19.957  24.690  1.00  0.00    -0.218 NA
ATOM     12  C   UNL A   1      32.341  21.056  25.432  1.00  0.00     0.230 A 
ATOM     13  N   UNL A   1      33.551  21.451  25.839  1.00  0.00    -0.177 NA
BRANCH   9  14
ATOM     14  C   UNL A   1      32.868  18.054  23.414  1.00  0.00     0.053 C 
ATOM     15  C   UNL A   1      33.867  16.906  23.420  1.00  0.00     0.011 C 
ENDBRANCH   9  14
BRANCH  12  16
ATOM     16  N   UNL A   1      31.251  21.876  25.724  1.00  0.00    -0.324 N 
ATOM     17  H   UNL A   1      30.578  21.511  26.343  1.00  0.00     0.170 HD
BRANCH  16  18
ATOM     18  C   UNL A   1      31.017  23.165  25.229  1.00  0.00     0.044 A 
ATOM     19  C   UNL A   1      30.858  23.376  23.855  1.00  0.00     0.026 A 
ATOM     20  C   UNL A   1      30.792  24.238  26.099  1.00  0.00     0.065 A 
ATOM     21  C   UNL A   1      30.445  24.623  23.366  1.00  0.00     0.008 A 
ATOM     22  C   UNL A   1      30.402  25.478  25.608  1.00  0.00     0.128 A 
ATOM     23  C   UNL A   1      30.206  25.687  24.244  1.00  0.00    -0.015 A 
ATOM     24  F   UNL A   1      30.183  26.474  26.480  1.00  0.00    -0.207 F 
ATOM     25  C   UNL A   1      29.709  27.003  23.731  1.00  0.00     0.047 C 
ENDBRANCH  16  18
ENDBRANCH  12  16
ENDBRANCH   7   8
ENDBRANCH   6   7
ENDBRANCH   3   6
ENDBRANCH   1   2
BRANCH   1  26
ATOM     26  C   UNL A   1      41.057  21.754  26.501  1.00  0.00     0.042 C 
BRANCH  26  27
ATOM     27  C   UNL A   1      41.352  23.149  27.048  1.00  0.00     0.118 C 
BRANCH  27  28
ATOM     28  N   UNL A   1      41.586  24.137  26.001  1.00  0.00    -0.352 N 
ATOM     29  C   UNL A   1      41.535  25.508  26.037  1.00  0.00     0.251 C 
ATOM     30  H   UNL A   1      41.820  23.758  25.122  1.00  0.00     0.163 HD
ATOM     31  O   UNL A   1      41.601  26.135  24.978  1.00  0.00    -0.269 OA
BRANCH  29  32
ATOM     32  C   UNL A   1      41.381  26.237  27.314  1.00  0.00     0.039 A 
ATOM     33  C   UNL A   1      42.400  27.104  27.722  1.00  0.00     0.014 A 
ATOM     34  C   UNL A   1      40.260  26.054  28.128  1.00  0.00     0.014 A 
ATOM     35  C   UNL A   1      42.258  27.842  28.901  1.00  0.00     0.010 A 
ATOM     36  C   UNL A   1      40.086  26.845  29.264  1.00  0.00     0.010 A 
ATOM     37  C   UNL A   1      41.080  27.752  29.660  1.00  0.00    -0.014 A 
BRANCH  37  38
ATOM     38  C   UNL A   1      40.858  28.618  30.849  1.00  0.00     0.031 A 
ATOM     39  C   UNL A   1      39.786  29.675  30.833  1.00  0.00     0.074 A 
ATOM     40  C   UNL A   1      41.674  28.502  31.917  1.00  0.00     0.049 A 
ATOM     41  N   UNL A   1      39.507  30.581  31.735  1.00  0.00    -0.248 NA
ATOM     42  C   UNL A   1      38.929  29.737  29.638  1.00  0.00     0.031 C 
ATOM     43  C   UNL A   1      42.779  27.547  32.035  1.00  0.00     0.029 A 
ATOM     44  N   UNL A   1      41.716  29.201  33.097  1.00  0.00    -0.354 N 
ATOM     45  C   UNL A   1      38.458  31.330  31.213  1.00  0.00     0.074 A 
ATOM     46  C   UNL A   1      38.175  30.798  29.897  1.00  0.00     0.031 C 
ATOM     47  C   UNL A   1      43.381  27.714  33.223  1.00  0.00     0.029 A 
ATOM     48  C   UNL A   1      42.738  28.814  33.934  1.00  0.00     0.049 A 
ATOM     49  H   UNL A   1      41.073  29.911  33.325  1.00  0.00     0.167 HD
ATOM     50  C   UNL A   1      37.782  32.355  31.785  1.00  0.00     0.037 A 
ATOM     51  C   UNL A   1      43.130  29.304  35.127  1.00  0.00     0.037 A 
ATOM     52  C   UNL A   1      38.052  32.863  33.106  1.00  0.00     0.049 A 
ATOM     53  C   UNL A   1      42.366  30.450  35.736  1.00  0.00     0.074 A 
ATOM     54  C   UNL A   1      37.378  33.853  33.799  1.00  0.00     0.029 A 
ATOM     55  N   UNL A   1      39.080  32.430  33.931  1.00  0.00    -0.354 N 
ATOM     56  N   UNL A   1      41.329  31.096  35.257  1.00  0.00    -0.248 NA
ATOM     57  C   UNL A   1      42.821  30.931  37.048  1.00  0.00     0.031 C 
ATOM     58  C   UNL A   1      38.030  34.056  35.019  1.00  0.00     0.029 A 
ATOM     59  C   UNL A   1      39.074  33.152  35.114  1.00  0.00     0.049 A 
ATOM     60  H   UNL A   1      39.720  31.715  33.708  1.00  0.00     0.167 HD
ATOM     61  C   UNL A   1      40.992  32.040  36.223  1.00  0.00     0.074 A 
ATOM     62  C   UNL A   1      41.923  31.868  37.317  1.00  0.00     0.031 C 
ATOM     63  C   UNL A   1      40.000  32.965  36.202  1.00  0.00     0.037 A 
BRANCH  50  64
ATOM     64  C   UNL A   1      36.676  33.003  30.996  1.00  0.00     0.058 A 
ATOM     65  C   UNL A   1      35.324  32.778  31.298  1.00  0.00     0.135 A 
ATOM     66  C   UNL A   1      36.974  33.920  29.974  1.00  0.00     0.135 A 
ATOM     67  F   UNL A   1      34.981  31.901  32.255  1.00  0.00    -0.206 F 
ATOM     68  C   UNL A   1      34.306  33.429  30.608  1.00  0.00     0.059 A 
ATOM     69  C   UNL A   1      35.973  34.603  29.289  1.00  0.00     0.059 A 
ATOM     70  F   UNL A   1      38.249  34.171  29.642  1.00  0.00    -0.206 F 
ATOM     71  C   UNL A   1      34.641  34.345  29.609  1.00  0.00     0.060 A 
BRANCH  71  72
ATOM     72  S   UNL A   1      33.308  35.208  28.750  1.00  0.00     0.124 S 
ATOM     73  O   UNL A   1      34.053  36.197  27.976  1.00  0.00    -0.237 OA
ATOM     74  O   UNL A   1      32.690  34.134  27.977  1.00  0.00    -0.237 OA
ATOM     75  O   UNL A   1      32.492  35.745  29.834  1.00  0.00    -0.744 OA
ENDBRANCH  71  72
ENDBRANCH  50  64
BRANCH  51  76
ATOM     76  C   UNL A   1      44.306  28.719  35.827  1.00  0.00     0.058 A 
ATOM     77  C   UNL A   1      44.164  27.634  36.704  1.00  0.00     0.135 A 
ATOM     78  C   UNL A   1      45.596  29.244  35.644  1.00  0.00     0.135 A 
ATOM     79  F   UNL A   1      42.951  27.100  36.918  1.00  0.00    -0.206 F 
ATOM     80  C   UNL A   1      45.249  27.108  37.398  1.00  0.00     0.059 A 
ATOM     81  C   UNL A   1      46.702  28.715  36.303  1.00  0.00     0.059 A 
ATOM     82  F   UNL A   1      45.793  30.271  34.803  1.00  0.00    -0.206 F 
ATOM     83  C   UNL A   1      46.516  27.657  37.191  1.00  0.00     0.060 A 
BRANCH  83  84
ATOM     84  S   UNL A   1      47.923  26.953  38.078  1.00  0.00     0.124 S 
ATOM     85  O   UNL A   1      47.334  25.749  38.653  1.00  0.00    -0.237 OA
ATOM     86  O   UNL A   1      48.887  26.741  37.003  1.00  0.00    -0.237 OA
ATOM     87  O   UNL A   1      48.278  28.001  39.030  1.00  0.00    -0.744 OA
ENDBRANCH  83  84
ENDBRANCH  51  76
BRANCH  63  88
ATOM     88  C   UNL A   1      39.841  33.840  37.416  1.00  0.00     0.058 A 
ATOM     89  C   UNL A   1      40.483  35.085  37.521  1.00  0.00     0.135 A 
ATOM     90  C   UNL A   1      38.996  33.449  38.467  1.00  0.00     0.135 A 
ATOM     91  F   UNL A   1      41.307  35.504  36.548  1.00  0.00    -0.206 F 
ATOM     92  C   UNL A   1      40.312  35.898  38.636  1.00  0.00     0.059 A 
ATOM     93  C   UNL A   1      38.786  34.260  39.578  1.00  0.00     0.059 A 
ATOM     94  F   UNL A   1      38.351  32.273  38.415  1.00  0.00    -0.206 F 
ATOM     95  C   UNL A   1      39.459  35.478  39.658  1.00  0.00     0.060 A 
BRANCH  95  96
ATOM     96  S   UNL A   1      39.221  36.559  41.085  1.00  0.00     0.124 S 
ATOM     97  O   UNL A   1      38.659  37.752  40.460  1.00  0.00    -0.237 OA
ATOM     98  O   UNL A   1      38.303  35.785  41.914  1.00  0.00    -0.237 OA
ATOM     99  O   UNL A   1      40.568  36.710  41.627  1.00  0.00    -0.744 OA
ENDBRANCH  95  96
ENDBRANCH  63  88
ENDBRANCH  37  38
ENDBRANCH  29  32
ENDBRANCH  27  28
ENDBRANCH  26  27
ENDBRANCH   1  26
TORSDOF 18
ENDMDL
MODEL 2
REMARK VINA RESULT:     -12.1      0.895      8.199
REMARK SMILES CCc1cc(OCC(=O)NCCCNC(=O)c2ccc(-c3c4nc(c(-c5c(F)cc(S(=O)(=O)[O-])cc5F)c5ccc([nH]5)c(-c5c(F)cc(S(=O)(=O)[O-])cc5F)c5nc(c(-c6c(F)cc(S(=O)(=O)[O-])cc6F)c6ccc3[nH]6)C=C5)C=C4)cc2)nc(Nc2ccc(C)c(F)c2)n1
REMARK SMILES IDX 11 1 10 2 8 3 9 4 7 6 6 7 5 8 3 9 4 10 94 11 84 12 83 13
REMARK SMILES IDX 2 14 1 15 85 16 86 18 87 19 93 20 88 21 91 22 89 23 92 24
REMARK SMILES IDX 90 25 12 26 13 27 14 28 15 29 16 31 17 32 18 33 82 34 19 35
REMARK SMILES IDX 81 36 20 37 21 38 22 39 75 40 23 41 80 42 74 43 76 44 24 45
REMARK SMILES IDX 79 46 73 47 72 48 25 50 59 51 38 52 58 53 39 54 42 55 57 56
REMARK SMILES IDX 77 57 40 58 41 59 56 61 78 62 43 63 26 64 27 65 36 66 28 67
REMARK SMILES IDX 29 68 35 69 37 70 30 71 31 72 32 73 33 74 34 75 60 76 61 77
REMARK SMILES IDX 70 78 62 79 63 80 69 81 71 82 64 83 65 84 66 85 67 86 68 87
REMARK SMILES IDX 44 88 45 89 54 90 46 91 47 92 53 93 55 94 48 95 49 96 50 97
REMARK SMILES IDX 51 98 52 99
REMARK H PARENT 10 5 85 17 14 30 76 49 42 60
REMARK Flexibility Score: inf
ROOT
ATOM      1  C   UNL A   1      38.219  23.552  26.256  1.00  0.00     0.117 C 
ENDROOT
BRANCH   1   2
ATOM      2  N   UNL A   1      37.741  23.645  24.888  1.00  0.00    -0.353 N 
ATOM      3  C   UNL A   1      37.050  22.714  24.171  1.00  0.00     0.258 C 
ATOM      4  O   UNL A   1      36.684  22.995  23.027  1.00  0.00    -0.271 OA
ATOM      5  H   UNL A   1      37.942  24.486  24.420  1.00  0.00     0.163 HD
BRANCH   3   6
ATOM      6  C   UNL A   1      36.720  21.353  24.799  1.00  0.00     0.331 C 
BRANCH   6   7
ATOM      7  O   UNL A   1      35.685  21.328  25.766  1.00  0.00    -0.467 OA
BRANCH   7   8
ATOM      8  C   UNL A   1      34.469  20.821  25.397  1.00  0.00     0.218 A 
ATOM      9  C   UNL A   1      32.988  19.240  24.505  1.00  0.00     0.050 A 
ATOM     10  C   UNL A   1      34.286  19.648  24.697  1.00  0.00     0.092 A 
ATOM     11  N   UNL A   1      31.960  19.989  24.932  1.00  0.00    -0.218 NA
ATOM     12  C   UNL A   1      32.211  21.155  25.547  1.00  0.00     0.230 A 
ATOM     13  N   UNL A   1      33.447  21.598  25.796  1.00  0.00    -0.177 NA
BRANCH   9  14
ATOM     14  C   UNL A   1      32.601  17.982  23.773  1.00  0.00     0.053 C 
ATOM     15  C   UNL A   1      32.409  18.105  22.268  1.00  0.00     0.011 C 
ENDBRANCH   9  14
BRANCH  12  16
ATOM     16  N   UNL A   1      31.139  21.988  25.866  1.00  0.00    -0.324 N 
ATOM     17  H   UNL A   1      30.425  21.596  26.418  1.00  0.00     0.170 HD
BRANCH  16  18
ATOM     18  C   UNL A   1      30.974  23.324  25.481  1.00  0.00     0.044 A 
ATOM     19  C   UNL A   1      31.031  24.346  26.436  1.00  0.00     0.026 A 
ATOM     20  C   UNL A   1      30.898  23.678  24.130  1.00  0.00     0.065 A 
ATOM     21  C   UNL A   1      31.049  25.692  26.042  1.00  0.00     0.008 A 
ATOM     22  C   UNL A   1      30.896  25.013  23.745  1.00  0.00     0.128 A 
ATOM     23  C   UNL A   1      30.988  26.036  24.687  1.00  0.00    -0.015 A 
ATOM     24  F   UNL A   1      30.836  25.305  22.437  1.00  0.00    -0.207 F 
ATOM     25  C   UNL A   1      31.066  27.470  24.260  1.00  0.00     0.047 C 
ENDBRANCH  16  18
ENDBRANCH  12  16
ENDBRANCH   7   8
ENDBRANCH   6   7
ENDBRANCH   3   6
ENDBRANCH   1   2
BRANCH   1  26
ATOM     26  C   UNL A   1      39.319  22.511  26.429  1.00  0.00     0.042 C 
BRANCH  26  27
ATOM     27  C   UNL A   1      40.587  23.027  27.107  1.00  0.00     0.118 C 
BRANCH  27  28
ATOM     28  N   UNL A   1      41.554  23.579  26.165  1.00  0.00    -0.352 N 
ATOM     29  C   UNL A   1      42.073  24.844  26.055  1.00  0.00     0.251 C 
ATOM     30  H   UNL A   1      41.892  22.937  25.499  1.00  0.00     0.163 HD
ATOM     31  O   UNL A   1      42.753  25.126  25.067  1.00  0.00    -0.269 OA
BRANCH  29  32
ATOM     32  C   UNL A   1      41.813  25.873  27.085  1.00  0.00     0.039 A 
ATOM     33  C   UNL A   1      40.714  25.714  27.935  1.00  0.00     0.014 A 
ATOM     34  C   UNL A   1      42.622  27.008  27.203  1.00  0.00     0.014 A 
ATOM     35  C   UNL A   1      40.474  26.647  28.948  1.00  0.00     0.010 A 
ATOM     36  C   UNL A   1      42.425  27.897  28.259  1.00  0.00     0.010 A 
ATOM     37  C   UNL A   1      41.353  27.724  29.147  1.00  0.00    -0.014 A 
BRANCH  37  38
ATOM     38  C   UNL A   1      41.185  28.657  30.294  1.00  0.00     0.031 A 
ATOM     39  C   UNL A   1      42.041  28.515  31.524  1.00  0.00     0.074 A 
ATOM     40  C   UNL A   1      40.209  29.587  30.255  1.00  0.00     0.049 A 
ATOM     41  N   UNL A   1      41.978  29.172  32.654  1.00  0.00    -0.248 NA
ATOM     42  C   UNL A   1      43.092  27.485  31.490  1.00  0.00     0.031 C 
ATOM     43  C   UNL A   1      39.283  29.794  29.138  1.00  0.00     0.029 A 
ATOM     44  N   UNL A   1      39.817  30.518  31.184  1.00  0.00    -0.354 N 
ATOM     45  C   UNL A   1      42.963  28.628  33.469  1.00  0.00     0.074 A 
ATOM     46  C   UNL A   1      43.586  27.557  32.719  1.00  0.00     0.031 C 
ATOM     47  C   UNL A   1      38.441  30.794  29.442  1.00  0.00     0.029 A 
ATOM     48  C   UNL A   1      38.733  31.270  30.790  1.00  0.00     0.049 A 
ATOM     49  H   UNL A   1      40.270  30.639  32.050  1.00  0.00     0.167 HD
ATOM     50  C   UNL A   1      43.327  28.997  34.720  1.00  0.00     0.037 A 
ATOM     51  C   UNL A   1      38.037  32.219  31.448  1.00  0.00     0.037 A 
ATOM     52  C   UNL A   1      42.720  30.080  35.451  1.00  0.00     0.049 A 
ATOM     53  C   UNL A   1      38.457  32.603  32.842  1.00  0.00     0.074 A 
ATOM     54  C   UNL A   1      43.064  30.574  36.697  1.00  0.00     0.029 A 
ATOM     55  N   UNL A   1      41.641  30.833  35.010  1.00  0.00    -0.354 N 
ATOM     56  N   UNL A   1      39.441  32.126  33.567  1.00  0.00    -0.248 NA
ATOM     57  C   UNL A   1      37.679  33.659  33.504  1.00  0.00     0.031 C 
ATOM     58  C   UNL A   1      42.162  31.587  37.033  1.00  0.00     0.029 A 
ATOM     59  C   UNL A   1      41.291  31.767  35.971  1.00  0.00     0.049 A 
ATOM     60  H   UNL A   1      41.191  30.719  34.142  1.00  0.00     0.167 HD
ATOM     61  C   UNL A   1      39.414  32.842  34.760  1.00  0.00     0.074 A 
ATOM     62  C   UNL A   1      38.331  33.796  34.650  1.00  0.00     0.031 C 
ATOM     63  C   UNL A   1      40.217  32.720  35.847  1.00  0.00     0.037 A 
BRANCH  50  64
ATOM     64  C   UNL A   1      44.437  28.233  35.390  1.00  0.00     0.058 A 
ATOM     65  C   UNL A   1      44.182  27.103  36.183  1.00  0.00     0.135 A 
ATOM     66  C   UNL A   1      45.779  28.589  35.173  1.00  0.00     0.135 A 
ATOM     67  F   UNL A   1      42.918  26.725  36.437  1.00  0.00    -0.206 F 
ATOM     68  C   UNL A   1      45.215  26.362  36.749  1.00  0.00     0.059 A 
ATOM     69  C   UNL A   1      46.829  27.846  35.706  1.00  0.00     0.059 A 
ATOM     70  F   UNL A   1      46.080  29.661  34.425  1.00  0.00    -0.206 F 
ATOM     71  C   UNL A   1      46.535  26.737  36.498  1.00  0.00     0.060 A 
BRANCH  71  72
ATOM     72  S   UNL A   1      47.864  25.742  37.209  1.00  0.00     0.124 S 
ATOM     73  O   UNL A   1      47.109  24.760  37.983  1.00  0.00    -0.237 OA
ATOM     74  O   UNL A   1      48.537  25.228  36.020  1.00  0.00    -0.237 OA
ATOM     75  O   UNL A   1      48.630  26.704  37.994  1.00  0.00    -0.744 OA
ENDBRANCH  71  72
ENDBRANCH  50  64
BRANCH  51  76
ATOM     76  C   UNL A   1      36.865  32.871  30.801  1.00  0.00     0.058 A 
ATOM     77  C   UNL A   1      37.033  33.896  29.859  1.00  0.00     0.135 A 
ATOM     78  C   UNL A   1      35.552  32.492  31.126  1.00  0.00     0.135 A 
ATOM     79  F   UNL A   1      38.267  34.298  29.519  1.00  0.00    -0.206 F 
ATOM     80  C   UNL A   1      35.945  34.543  29.282  1.00  0.00     0.059 A 
ATOM     81  C   UNL A   1      34.448  33.103  30.539  1.00  0.00     0.059 A 
ATOM     82  F   UNL A   1      35.334  31.505  32.009  1.00  0.00    -0.206 F 
ATOM     83  C   UNL A   1      34.654  34.140  29.630  1.00  0.00     0.060 A 
BRANCH  83  84
ATOM     84  S   UNL A   1      33.248  34.969  28.858  1.00  0.00     0.124 S 
ATOM     85  O   UNL A   1      33.883  36.151  28.286  1.00  0.00    -0.237 OA
ATOM     86  O   UNL A   1      32.787  33.966  27.903  1.00  0.00    -0.237 OA
ATOM     87  O   UNL A   1      32.347  35.215  29.980  1.00  0.00    -0.744 OA
ENDBRANCH  83  84
ENDBRANCH  51  76
BRANCH  63  88
ATOM     88  C   UNL A   1      39.981  33.665  36.994  1.00  0.00     0.058 A 
ATOM     89  C   UNL A   1      40.639  34.903  37.081  1.00  0.00     0.135 A 
ATOM     90  C   UNL A   1      39.048  33.348  37.994  1.00  0.00     0.135 A 
ATOM     91  F   UNL A   1      41.546  35.252  36.156  1.00  0.00    -0.206 F 
ATOM     92  C   UNL A   1      40.398  35.781  38.132  1.00  0.00     0.059 A 
ATOM     93  C   UNL A   1      38.768  34.225  39.038  1.00  0.00     0.059 A 
ATOM     94  F   UNL A   1      38.384  32.183  37.955  1.00  0.00    -0.206 F 
ATOM     95  C   UNL A   1      39.458  35.434  39.105  1.00  0.00     0.060 A 
BRANCH  95  96
ATOM     96  S   UNL A   1      39.131  36.598  40.446  1.00  0.00     0.124 S 
ATOM     97  O   UNL A   1      38.577  37.736  39.720  1.00  0.00    -0.237 OA
ATOM     98  O   UNL A   1      38.189  35.858  41.279  1.00  0.00    -0.237 OA
ATOM     99  O   UNL A   1      40.448  36.813  41.039  1.00  0.00    -0.744 OA
ENDBRANCH  95  96
ENDBRANCH  63  88
ENDBRANCH  37  38
ENDBRANCH  29  32
ENDBRANCH  27  28
ENDBRANCH  26  27
ENDBRANCH   1  26
TORSDOF 18
ENDMDL
MODEL 3
REMARK VINA RESULT:     -12.0      6.517     12.903
REMARK SMILES CCc1cc(OCC(=O)NCCCNC(=O)c2ccc(-c3c4nc(c(-c5c(F)cc(S(=O)(=O)[O-])cc5F)c5ccc([nH]5)c(-c5c(F)cc(S(=O)(=O)[O-])cc5F)c5nc(c(-c6c(F)cc(S(=O)(=O)[O-])cc6F)c6ccc3[nH]6)C=C5)C=C4)cc2)nc(Nc2ccc(C)c(F)c2)n1
REMARK SMILES IDX 11 1 10 2 8 3 9 4 7 6 6 7 5 8 3 9 4 10 94 11 84 12 83 13
REMARK SMILES IDX 2 14 1 15 85 16 86 18 87 19 93 20 88 21 91 22 89 23 92 24
REMARK SMILES IDX 90 25 12 26 13 27 14 28 15 29 16 31 17 32 18 33 82 34 19 35
REMARK SMILES IDX 81 36 20 37 21 38 22 39 75 40 23 41 80 42 74 43 76 44 24 45
REMARK SMILES IDX 79 46 73 47 72 48 25 50 59 51 38 52 58 53 39 54 42 55 57 56
REMARK SMILES IDX 77 57 40 58 41 59 56 61 78 62 43 63 26 64 27 65 36 66 28 67
REMARK SMILES IDX 29 68 35 69 37 70 30 71 31 72 32 73 33 74 34 75 60 76 61 77
REMARK SMILES IDX 70 78 62 79 63 80 69 81 71 82 64 83 65 84 66 85 67 86 68 87
REMARK SMILES IDX 44 88 45 89 54 90 46 91 47 92 53 93 55 94 48 95 49 96 50 97
REMARK SMILES IDX 51 98 52 99
REMARK H PARENT 10 5 85 17 14 30 76 49 42 60
REMARK Flexibility Score: inf
ROOT
ATOM      1  C   UNL A   1      36.350  33.118  34.346  1.00  0.00     0.117 C 
ENDROOT
BRANCH   1   2
ATOM      2  N   UNL A   1      36.197  34.480  33.865  1.00  0.00    -0.353 N 
ATOM      3  C   UNL A   1      35.162  35.015  33.158  1.00  0.00     0.258 C 
ATOM      4  O   UNL A   1      35.189  36.215  32.878  1.00  0.00    -0.271 OA
ATOM      5  H   UNL A   1      36.935  35.095  34.077  1.00  0.00     0.163 HD
BRANCH   3   6
ATOM      6  C   UNL A   1      33.979  34.129  32.744  1.00  0.00     0.331 C 
BRANCH   6   7
ATOM      7  O   UNL A   1      34.245  33.103  31.804  1.00  0.00    -0.467 OA
BRANCH   7   8
ATOM      8  C   UNL A   1      34.341  33.448  30.483  1.00  0.00     0.218 A 
ATOM      9  C   UNL A   1      34.398  34.901  28.646  1.00  0.00     0.050 A 
ATOM     10  C   UNL A   1      34.160  34.721  29.987  1.00  0.00     0.092 A 
ATOM     11  N   UNL A   1      34.734  33.866  27.861  1.00  0.00    -0.218 NA
ATOM     12  C   UNL A   1      34.826  32.640  28.399  1.00  0.00     0.230 A 
ATOM     13  N   UNL A   1      34.640  32.396  29.700  1.00  0.00    -0.177 NA
BRANCH   9  14
ATOM     14  C   UNL A   1      34.260  36.222  27.937  1.00  0.00     0.053 C 
ATOM     15  C   UNL A   1      33.559  37.333  28.705  1.00  0.00     0.011 C 
ENDBRANCH   9  14
BRANCH  12  16
ATOM     16  N   UNL A   1      35.042  31.552  27.553  1.00  0.00    -0.324 N 
ATOM     17  H   UNL A   1      35.920  31.505  27.111  1.00  0.00     0.170 HD
BRANCH  16  18
ATOM     18  C   UNL A   1      34.138  30.522  27.269  1.00  0.00     0.044 A 
ATOM     19  C   UNL A   1      32.769  30.792  27.157  1.00  0.00     0.026 A 
ATOM     20  C   UNL A   1      34.592  29.238  26.946  1.00  0.00     0.065 A 
ATOM     21  C   UNL A   1      31.882  29.809  26.696  1.00  0.00     0.008 A 
ATOM     22  C   UNL A   1      33.706  28.261  26.508  1.00  0.00     0.128 A 
ATOM     23  C   UNL A   1      32.347  28.533  26.360  1.00  0.00    -0.015 A 
ATOM     24  F   UNL A   1      34.188  27.049  26.196  1.00  0.00    -0.207 F 
ATOM     25  C   UNL A   1      31.411  27.500  25.812  1.00  0.00     0.047 C 
ENDBRANCH  16  18
ENDBRANCH  12  16
ENDBRANCH   7   8
ENDBRANCH   6   7
ENDBRANCH   3   6
ENDBRANCH   1   2
BRANCH   1  26
ATOM     26  C   UNL A   1      37.585  32.427  33.781  1.00  0.00     0.042 C 
BRANCH  26  27
ATOM     27  C   UNL A   1      37.544  32.175  32.275  1.00  0.00     0.118 C 
BRANCH  27  28
ATOM     28  N   UNL A   1      36.530  31.202  31.886  1.00  0.00    -0.352 N 
ATOM     29  C   UNL A   1      36.615  30.099  31.074  1.00  0.00     0.251 C 
ATOM     30  H   UNL A   1      35.637  31.361  32.269  1.00  0.00     0.163 HD
ATOM     31  O   UNL A   1      35.579  29.516  30.748  1.00  0.00    -0.269 OA
BRANCH  29  32
ATOM     32  C   UNL A   1      37.918  29.614  30.570  1.00  0.00     0.039 A 
ATOM     33  C   UNL A   1      38.252  29.846  29.232  1.00  0.00     0.014 A 
ATOM     34  C   UNL A   1      38.802  28.909  31.392  1.00  0.00     0.014 A 
ATOM     35  C   UNL A   1      39.497  29.441  28.743  1.00  0.00     0.010 A 
ATOM     36  C   UNL A   1      40.071  28.572  30.924  1.00  0.00     0.010 A 
ATOM     37  C   UNL A   1      40.436  28.839  29.596  1.00  0.00    -0.014 A 
BRANCH  37  38
ATOM     38  C   UNL A   1      41.810  28.514  29.128  1.00  0.00     0.031 A 
ATOM     39  C   UNL A   1      42.861  29.588  29.040  1.00  0.00     0.074 A 
ATOM     40  C   UNL A   1      42.089  27.262  28.710  1.00  0.00     0.049 A 
ATOM     41  N   UNL A   1      44.080  29.513  28.571  1.00  0.00    -0.248 NA
ATOM     42  C   UNL A   1      42.487  30.927  29.523  1.00  0.00     0.031 C 
ATOM     43  C   UNL A   1      41.142  26.143  28.701  1.00  0.00     0.029 A 
ATOM     44  N   UNL A   1      43.240  26.722  28.192  1.00  0.00    -0.354 N 
ATOM     45  C   UNL A   1      44.612  30.792  28.685  1.00  0.00     0.074 A 
ATOM     46  C   UNL A   1      43.570  31.635  29.231  1.00  0.00     0.031 C 
ATOM     47  C   UNL A   1      41.753  25.051  28.215  1.00  0.00     0.029 A 
ATOM     48  C   UNL A   1      43.119  25.398  27.834  1.00  0.00     0.049 A 
ATOM     49  H   UNL A   1      44.075  27.233  28.089  1.00  0.00     0.167 HD
ATOM     50  C   UNL A   1      45.860  31.221  28.378  1.00  0.00     0.037 A 
ATOM     51  C   UNL A   1      43.997  24.564  27.244  1.00  0.00     0.037 A 
ATOM     52  C   UNL A   1      46.901  30.371  27.857  1.00  0.00     0.049 A 
ATOM     53  C   UNL A   1      45.374  25.069  26.905  1.00  0.00     0.074 A 
ATOM     54  C   UNL A   1      48.217  30.697  27.579  1.00  0.00     0.029 A 
ATOM     55  N   UNL A   1      46.746  29.031  27.530  1.00  0.00    -0.354 N 
ATOM     56  N   UNL A   1      45.882  26.265  27.089  1.00  0.00    -0.248 NA
ATOM     57  C   UNL A   1      46.300  24.112  26.283  1.00  0.00     0.031 C 
ATOM     58  C   UNL A   1      48.842  29.572  27.034  1.00  0.00     0.029 A 
ATOM     59  C   UNL A   1      47.935  28.527  27.027  1.00  0.00     0.049 A 
ATOM     60  H   UNL A   1      45.914  28.516  27.639  1.00  0.00     0.167 HD
ATOM     61  C   UNL A   1      47.194  26.194  26.631  1.00  0.00     0.074 A 
ATOM     62  C   UNL A   1      47.406  24.835  26.179  1.00  0.00     0.031 C 
ATOM     63  C   UNL A   1      48.137  27.168  26.590  1.00  0.00     0.037 A 
BRANCH  50  64
ATOM     64  C   UNL A   1      46.184  32.674  28.596  1.00  0.00     0.058 A 
ATOM     65  C   UNL A   1      45.986  33.634  27.591  1.00  0.00     0.135 A 
ATOM     66  C   UNL A   1      46.625  33.124  29.852  1.00  0.00     0.135 A 
ATOM     67  F   UNL A   1      45.579  33.260  26.367  1.00  0.00    -0.206 F 
ATOM     68  C   UNL A   1      46.226  34.986  27.818  1.00  0.00     0.059 A 
ATOM     69  C   UNL A   1      46.846  34.475  30.110  1.00  0.00     0.059 A 
ATOM     70  F   UNL A   1      46.833  32.250  30.848  1.00  0.00    -0.206 F 
ATOM     71  C   UNL A   1      46.649  35.397  29.083  1.00  0.00     0.060 A 
BRANCH  71  72
ATOM     72  S   UNL A   1      46.920  37.159  29.370  1.00  0.00     0.124 S 
ATOM     73  O   UNL A   1      45.628  37.719  28.984  1.00  0.00    -0.237 OA
ATOM     74  O   UNL A   1      47.226  37.198  30.797  1.00  0.00    -0.237 OA
ATOM     75  O   UNL A   1      48.033  37.483  28.485  1.00  0.00    -0.744 OA
ENDBRANCH  71  72
ENDBRANCH  50  64
BRANCH  51  76
ATOM     76  C   UNL A   1      43.604  23.163  26.928  1.00  0.00     0.058 A 
ATOM     77  C   UNL A   1      43.374  22.227  27.947  1.00  0.00     0.135 A 
ATOM     78  C   UNL A   1      43.465  22.729  25.600  1.00  0.00     0.135 A 
ATOM     79  F   UNL A   1      43.499  22.590  29.232  1.00  0.00    -0.206 F 
ATOM     80  C   UNL A   1      43.049  20.904  27.663  1.00  0.00     0.059 A 
ATOM     81  C   UNL A   1      43.111  21.419  25.292  1.00  0.00     0.059 A 
ATOM     82  F   UNL A   1      43.656  23.587  24.586  1.00  0.00    -0.206 F 
ATOM     83  C   UNL A   1      42.921  20.508  26.330  1.00  0.00     0.060 A 
BRANCH  83  84
ATOM     84  S   UNL A   1      42.477  18.795  25.972  1.00  0.00     0.124 S 
ATOM     85  O   UNL A   1      43.361  18.492  24.851  1.00  0.00    -0.237 OA
ATOM     86  O   UNL A   1      42.791  18.128  27.232  1.00  0.00    -0.237 OA
ATOM     87  O   UNL A   1      41.055  18.877  25.652  1.00  0.00    -0.744 OA
ENDBRANCH  83  84
ENDBRANCH  51  76
BRANCH  63  88
ATOM     88  C   UNL A   1      49.501  26.794  26.074  1.00  0.00     0.058 A 
ATOM     89  C   UNL A   1      50.481  26.235  26.909  1.00  0.00     0.135 A 
ATOM     90  C   UNL A   1      49.812  26.952  24.713  1.00  0.00     0.135 A 
ATOM     91  F   UNL A   1      50.239  26.069  28.218  1.00  0.00    -0.206 F 
ATOM     92  C   UNL A   1      51.730  25.870  26.418  1.00  0.00     0.059 A 
ATOM     93  C   UNL A   1      51.044  26.565  24.195  1.00  0.00     0.059 A 
ATOM     94  F   UNL A   1      48.908  27.473  23.869  1.00  0.00    -0.206 F 
ATOM     95  C   UNL A   1      52.001  26.036  25.059  1.00  0.00     0.060 A 
BRANCH  95  96
ATOM     96  S   UNL A   1      53.615  25.528  24.429  1.00  0.00     0.124 S 
ATOM     97  O   UNL A   1      53.589  24.091  24.680  1.00  0.00    -0.237 OA
ATOM     98  O   UNL A   1      53.545  25.929  23.029  1.00  0.00    -0.237 OA
ATOM     99  O   UNL A   1      54.555  26.290  25.247  1.00  0.00    -0.744 OA
ENDBRANCH  95  96
ENDBRANCH  63  88
ENDBRANCH  37  38
ENDBRANCH  29  32
ENDBRANCH  27  28
ENDBRANCH  26  27
ENDBRANCH   1  26
TORSDOF 18
ENDMDL
