MODEL 1
REMARK VINA RESULT:     -14.3      0.000      0.000
REMARK SMILES Cc1ccc(C(=O)NC2(CC(=O)NCCCNC(=O)c3ccc(-c4c5nc(c(-c6c(F)cc(S(=O)(=O)[O-])cc6F)c6ccc([nH]6)c(-c6c(F)cc(S(=O)(=O)[O-])cc6F)c6nc(c(-c7c(F)cc(S(=O)(=O)[O-])cc7F)c7ccc4[nH]7)C=C6)C=C5)cc3)CCC2)cc1
REMARK SMILES IDX 15 1 14 2 13 3 11 4 12 5 10 7 9 8 86 9 88 10 87 11 8 12 6 13
REMARK SMILES IDX 7 14 5 16 1 17 2 18 3 19 90 20 4 21 89 22 16 23 17 24 18 25
REMARK SMILES IDX 19 27 20 28 21 29 85 30 22 31 84 32 23 33 24 34 25 35 78 36
REMARK SMILES IDX 26 37 83 38 77 39 79 40 27 41 82 42 76 43 75 44 28 46 62 47
REMARK SMILES IDX 41 48 61 49 42 50 45 51 60 52 80 53 43 54 44 55 59 57 81 58
REMARK SMILES IDX 46 59 29 60 30 61 39 62 31 63 32 64 38 65 40 66 33 67 34 68
REMARK SMILES IDX 35 69 36 70 37 71 63 72 64 73 73 74 65 75 66 76 72 77 74 78
REMARK SMILES IDX 67 79 68 80 69 81 70 82 71 83 47 84 48 85 57 86 49 87 50 88
REMARK SMILES IDX 56 89 58 90 51 91 52 92 53 93 54 94 55 95
REMARK H PARENT 13 6 8 15 17 26 79 45 45 56
REMARK Flexibility Score: inf
ROOT
ATOM      1  C   UNL A   1      31.776  29.266  26.608  1.00  0.00     0.042 C 
ENDROOT
BRANCH   1   2
ATOM      2  C   UNL A   1      31.640  30.496  25.728  1.00  0.00     0.117 C 
BRANCH   2   3
ATOM      3  N   UNL A   1      30.652  30.253  24.375  1.00  0.00    -0.356 N 
ATOM      4  C   UNL A   1      30.050  28.757  23.232  1.00  0.00     0.222 C 
ATOM      5  O   UNL A   1      28.973  28.580  22.599  1.00  0.00    -0.275 OA
ATOM      6  H   UNL A   1      30.265  31.104  24.067  1.00  0.00     0.163 HD
BRANCH   4   7
ATOM      7  C   UNL A   1      31.129  27.275  22.790  1.00  0.00     0.128 C 
BRANCH   7   8
ATOM      8  C   UNL A   1      32.788  27.320  22.636  1.00  0.00     0.049 C 
ATOM      9  C   UNL A   1      33.602  27.163  23.970  1.00  0.00     0.029 C 
ATOM     10  C   UNL A   1      33.975  28.489  22.362  1.00  0.00     0.029 C 
ATOM     11  C   UNL A   1      34.059  28.650  23.861  1.00  0.00     0.005 C 
BRANCH   8  12
ATOM     12  N   UNL A   1      33.076  26.443  21.512  1.00  0.00    -0.346 N 
ATOM     13  C   UNL A   1      33.073  25.106  21.808  1.00  0.00     0.251 C 
ATOM     14  O   UNL A   1      33.129  24.238  20.951  1.00  0.00    -0.269 OA
ATOM     15  H   UNL A   1      33.261  26.784  20.607  1.00  0.00     0.164 HD
BRANCH  13  16
ATOM     16  C   UNL A   1      33.216  24.822  23.280  1.00  0.00     0.039 A 
ATOM     17  C   UNL A   1      32.868  22.525  27.690  1.00  0.00     0.044 C 
ATOM     18  C   UNL A   1      33.105  22.644  26.195  1.00  0.00    -0.051 A 
ATOM     19  C   UNL A   1      31.603  22.982  25.249  1.00  0.00     0.004 A 
ATOM     20  C   UNL A   1      34.714  23.287  25.682  1.00  0.00     0.004 A 
ATOM     21  C   UNL A   1      31.665  24.049  23.806  1.00  0.00     0.014 A 
ATOM     22  C   UNL A   1      34.792  24.465  24.262  1.00  0.00     0.014 A 
ENDBRANCH  13  16
ENDBRANCH   8  12
ENDBRANCH   7   8
ENDBRANCH   4   7
ENDBRANCH   2   3
ENDBRANCH   1   2
BRANCH   1  23
ATOM     23  C   UNL A   1      32.934  29.486  27.514  1.00  0.00     0.118 C 
BRANCH  23  24
ATOM     24  N   UNL A   1      33.768  30.573  27.034  1.00  0.00    -0.352 N 
ATOM     25  C   UNL A   1      34.936  31.001  27.635  1.00  0.00     0.251 C 
ATOM     26  H   UNL A   1      33.479  31.041  26.217  1.00  0.00     0.163 HD
ATOM     27  O   UNL A   1      35.252  32.176  27.749  1.00  0.00    -0.269 OA
BRANCH  25  28
ATOM     28  C   UNL A   1      35.886  29.917  27.965  1.00  0.00     0.039 A 
ATOM     29  C   UNL A   1      35.958  29.578  29.324  1.00  0.00     0.014 A 
ATOM     30  C   UNL A   1      36.984  29.788  27.128  1.00  0.00     0.014 A 
ATOM     31  C   UNL A   1      37.199  29.351  29.888  1.00  0.00     0.010 A 
ATOM     32  C   UNL A   1      38.206  29.873  27.726  1.00  0.00     0.010 A 
ATOM     33  C   UNL A   1      38.303  29.639  29.101  1.00  0.00    -0.014 A 
BRANCH  33  34
ATOM     34  C   UNL A   1      39.673  29.437  29.490  1.00  0.00     0.031 A 
ATOM     35  C   UNL A   1      40.136  28.065  29.177  1.00  0.00     0.074 A 
ATOM     36  C   UNL A   1      40.383  30.548  29.789  1.00  0.00     0.049 A 
ATOM     37  N   UNL A   1      41.076  27.443  29.780  1.00  0.00    -0.248 NA
ATOM     38  C   UNL A   1      39.478  27.199  28.176  1.00  0.00     0.031 C 
ATOM     39  C   UNL A   1      41.822  30.773  29.794  1.00  0.00     0.029 A 
ATOM     40  N   UNL A   1      39.866  31.739  30.329  1.00  0.00    -0.354 N 
ATOM     41  C   UNL A   1      41.431  26.391  28.952  1.00  0.00     0.074 A 
ATOM     42  C   UNL A   1      40.303  26.155  28.103  1.00  0.00     0.031 C 
ATOM     43  C   UNL A   1      42.096  31.829  30.588  1.00  0.00     0.029 A 
ATOM     44  C   UNL A   1      40.845  32.236  31.215  1.00  0.00     0.049 A 
ATOM     45  H   UNL A   1      38.993  32.145  30.129  1.00  0.00     0.167 HD
ATOM     46  C   UNL A   1      42.742  26.033  28.905  1.00  0.00     0.037 A 
ATOM     47  C   UNL A   1      40.604  32.193  32.563  1.00  0.00     0.037 A 
ATOM     48  C   UNL A   1      43.484  26.913  29.802  1.00  0.00     0.049 A 
ATOM     49  C   UNL A   1      41.471  31.160  33.247  1.00  0.00     0.074 A 
ATOM     50  C   UNL A   1      44.176  28.089  29.572  1.00  0.00     0.029 A 
ATOM     51  N   UNL A   1      43.179  26.891  31.153  1.00  0.00    -0.354 N 
ATOM     52  N   UNL A   1      41.932  30.089  32.658  1.00  0.00    -0.248 NA
ATOM     53  C   UNL A   1      41.949  31.299  34.619  1.00  0.00     0.031 C 
ATOM     54  C   UNL A   1      44.265  28.788  30.804  1.00  0.00     0.029 A 
ATOM     55  C   UNL A   1      43.602  28.049  31.770  1.00  0.00     0.049 A 
ATOM     56  H   UNL A   1      42.721  26.149  31.610  1.00  0.00     0.167 HD
ATOM     57  C   UNL A   1      42.742  29.405  33.527  1.00  0.00     0.074 A 
ATOM     58  C   UNL A   1      42.731  30.211  34.732  1.00  0.00     0.031 C 
ATOM     59  C   UNL A   1      43.369  28.238  33.190  1.00  0.00     0.037 A 
BRANCH  46  60
ATOM     60  C   UNL A   1      43.404  25.159  27.869  1.00  0.00     0.058 A 
ATOM     61  C   UNL A   1      43.737  25.712  26.612  1.00  0.00     0.135 A 
ATOM     62  C   UNL A   1      43.767  23.805  28.031  1.00  0.00     0.135 A 
ATOM     63  F   UNL A   1      43.484  26.992  26.312  1.00  0.00    -0.206 F 
ATOM     64  C   UNL A   1      44.353  24.989  25.597  1.00  0.00     0.059 A 
ATOM     65  C   UNL A   1      44.365  23.048  27.012  1.00  0.00     0.059 A 
ATOM     66  F   UNL A   1      43.607  23.170  29.200  1.00  0.00    -0.206 F 
ATOM     67  C   UNL A   1      44.664  23.657  25.800  1.00  0.00     0.060 A 
BRANCH  67  68
ATOM     68  S   UNL A   1      45.506  22.779  24.474  1.00  0.00     0.124 S 
ATOM     69  O   UNL A   1      46.175  21.702  25.197  1.00  0.00    -0.237 OA
ATOM     70  O   UNL A   1      44.390  22.373  23.624  1.00  0.00    -0.237 OA
ATOM     71  O   UNL A   1      46.391  23.788  23.902  1.00  0.00    -0.744 OA
ENDBRANCH  67  68
ENDBRANCH  46  60
BRANCH  47  72
ATOM     72  C   UNL A   1      39.166  32.480  32.879  1.00  0.00     0.058 A 
ATOM     73  C   UNL A   1      38.754  33.828  32.829  1.00  0.00     0.135 A 
ATOM     74  C   UNL A   1      38.178  31.502  32.689  1.00  0.00     0.135 A 
ATOM     75  F   UNL A   1      39.647  34.809  33.041  1.00  0.00    -0.206 F 
ATOM     76  C   UNL A   1      37.479  34.192  32.399  1.00  0.00     0.059 A 
ATOM     77  C   UNL A   1      36.892  31.848  32.262  1.00  0.00     0.059 A 
ATOM     78  F   UNL A   1      38.495  30.200  32.742  1.00  0.00    -0.206 F 
ATOM     79  C   UNL A   1      36.583  33.190  32.039  1.00  0.00     0.060 A 
BRANCH  79  80
ATOM     80  S   UNL A   1      35.095  33.662  31.122  1.00  0.00     0.124 S 
ATOM     81  O   UNL A   1      35.660  34.256  29.916  1.00  0.00    -0.237 OA
ATOM     82  O   UNL A   1      34.423  32.373  30.940  1.00  0.00    -0.237 OA
ATOM     83  O   UNL A   1      34.422  34.582  32.027  1.00  0.00    -0.744 OA
ENDBRANCH  79  80
ENDBRANCH  47  72
BRANCH  59  84
ATOM     84  C   UNL A   1      43.900  27.204  34.164  1.00  0.00     0.058 A 
ATOM     85  C   UNL A   1      43.085  26.315  34.881  1.00  0.00     0.135 A 
ATOM     86  C   UNL A   1      45.297  26.977  34.305  1.00  0.00     0.135 A 
ATOM     87  F   UNL A   1      41.756  26.282  34.719  1.00  0.00    -0.206 F 
ATOM     88  C   UNL A   1      43.603  25.380  35.774  1.00  0.00     0.059 A 
ATOM     89  C   UNL A   1      45.834  25.981  35.109  1.00  0.00     0.059 A 
ATOM     90  F   UNL A   1      46.215  27.708  33.658  1.00  0.00    -0.206 F 
ATOM     91  C   UNL A   1      44.979  25.227  35.888  1.00  0.00     0.060 A 
BRANCH  91  92
ATOM     92  S   UNL A   1      45.634  24.041  37.063  1.00  0.00     0.124 S 
ATOM     93  O   UNL A   1      44.900  24.405  38.271  1.00  0.00    -0.237 OA
ATOM     94  O   UNL A   1      45.263  22.765  36.458  1.00  0.00    -0.237 OA
ATOM     95  O   UNL A   1      47.063  24.329  37.080  1.00  0.00    -0.744 OA
ENDBRANCH  91  92
ENDBRANCH  59  84
ENDBRANCH  33  34
ENDBRANCH  25  28
ENDBRANCH  23  24
ENDBRANCH   1  23
TORSDOF 16
ENDMDL
MODEL 2
REMARK VINA RESULT:     -14.3      1.187      2.730
REMARK SMILES Cc1ccc(C(=O)NC2(CC(=O)NCCCNC(=O)c3ccc(-c4c5nc(c(-c6c(F)cc(S(=O)(=O)[O-])cc6F)c6ccc([nH]6)c(-c6c(F)cc(S(=O)(=O)[O-])cc6F)c6nc(c(-c7c(F)cc(S(=O)(=O)[O-])cc7F)c7ccc4[nH]7)C=C6)C=C5)cc3)CCC2)cc1
REMARK SMILES IDX 15 1 14 2 13 3 11 4 12 5 10 7 9 8 86 9 88 10 87 11 8 12 6 13
REMARK SMILES IDX 7 14 5 16 1 17 2 18 3 19 90 20 4 21 89 22 16 23 17 24 18 25
REMARK SMILES IDX 19 27 20 28 21 29 85 30 22 31 84 32 23 33 24 34 25 35 78 36
REMARK SMILES IDX 26 37 83 38 77 39 79 40 27 41 82 42 76 43 75 44 28 46 62 47
REMARK SMILES IDX 41 48 61 49 42 50 45 51 60 52 80 53 43 54 44 55 59 57 81 58
REMARK SMILES IDX 46 59 29 60 30 61 39 62 31 63 32 64 38 65 40 66 33 67 34 68
REMARK SMILES IDX 35 69 36 70 37 71 63 72 64 73 73 74 65 75 66 76 72 77 74 78
REMARK SMILES IDX 67 79 68 80 69 81 70 82 71 83 47 84 48 85 57 86 49 87 50 88
REMARK SMILES IDX 56 89 58 90 51 91 52 92 53 93 54 94 55 95
REMARK H PARENT 13 6 8 15 17 26 79 45 45 56
REMARK Flexibility Score: inf
ROOT
ATOM      1  C   UNL A   1      32.342  28.688  26.336  1.00  0.00     0.042 C 
ENDROOT
BRANCH   1   2
ATOM      2  C   UNL A   1      32.918  27.295  26.518  1.00  0.00     0.117 C 
BRANCH   2   3
ATOM      3  N   UNL A   1      31.748  26.118  26.854  1.00  0.00    -0.356 N 
ATOM      4  C   UNL A   1      31.534  24.159  26.700  1.00  0.00     0.222 C 
ATOM      5  O   UNL A   1      30.881  23.340  27.405  1.00  0.00    -0.275 OA
ATOM      6  H   UNL A   1      30.939  26.528  27.237  1.00  0.00     0.163 HD
BRANCH   4   7
ATOM      7  C   UNL A   1      32.254  23.133  25.292  1.00  0.00     0.128 C 
BRANCH   7   8
ATOM      8  C   UNL A   1      33.818  23.255  24.730  1.00  0.00     0.049 C 
ATOM      9  C   UNL A   1      34.935  22.726  25.700  1.00  0.00     0.029 C 
ATOM     10  C   UNL A   1      34.962  24.477  24.508  1.00  0.00     0.029 C 
ATOM     11  C   UNL A   1      35.436  24.188  25.914  1.00  0.00     0.005 C 
BRANCH   8  12
ATOM     12  N   UNL A   1      33.758  22.758  23.364  1.00  0.00    -0.346 N 
ATOM     13  C   UNL A   1      33.293  23.658  22.442  1.00  0.00     0.251 C 
ATOM     14  O   UNL A   1      33.340  23.456  21.239  1.00  0.00    -0.269 OA
ATOM     15  H   UNL A   1      34.029  21.843  23.121  1.00  0.00     0.164 HD
BRANCH  13  16
ATOM     16  C   UNL A   1      32.531  24.801  23.058  1.00  0.00     0.039 A 
ATOM     17  C   UNL A   1      30.441  29.285  23.663  1.00  0.00     0.044 C 
ATOM     18  C   UNL A   1      30.827  28.015  22.926  1.00  0.00    -0.051 A 
ATOM     19  C   UNL A   1      32.592  27.902  22.557  1.00  0.00     0.004 A 
ATOM     20  C   UNL A   1      29.834  26.547  23.276  1.00  0.00     0.004 A 
ATOM     21  C   UNL A   1      33.426  26.312  22.614  1.00  0.00     0.014 A 
ATOM     22  C   UNL A   1      30.682  24.914  23.438  1.00  0.00     0.014 A 
ENDBRANCH  13  16
ENDBRANCH   8  12
ENDBRANCH   7   8
ENDBRANCH   4   7
ENDBRANCH   2   3
ENDBRANCH   1   2
BRANCH   1  23
ATOM     23  C   UNL A   1      32.799  29.518  27.481  1.00  0.00     0.118 C 
BRANCH  23  24
ATOM     24  N   UNL A   1      33.659  30.596  27.028  1.00  0.00    -0.352 N 
ATOM     25  C   UNL A   1      34.821  31.002  27.657  1.00  0.00     0.251 C 
ATOM     26  H   UNL A   1      33.393  31.077  26.211  1.00  0.00     0.163 HD
ATOM     27  O   UNL A   1      35.151  32.170  27.788  1.00  0.00    -0.269 OA
BRANCH  25  28
ATOM     28  C   UNL A   1      35.748  29.900  27.994  1.00  0.00     0.039 A 
ATOM     29  C   UNL A   1      35.869  29.619  29.363  1.00  0.00     0.014 A 
ATOM     30  C   UNL A   1      36.802  29.696  27.117  1.00  0.00     0.014 A 
ATOM     31  C   UNL A   1      37.126  29.374  29.882  1.00  0.00     0.010 A 
ATOM     32  C   UNL A   1      38.052  29.765  27.657  1.00  0.00     0.010 A 
ATOM     33  C   UNL A   1      38.203  29.588  29.036  1.00  0.00    -0.014 A 
BRANCH  33  34
ATOM     34  C   UNL A   1      39.581  29.355  29.374  1.00  0.00     0.031 A 
ATOM     35  C   UNL A   1      39.993  27.963  29.077  1.00  0.00     0.074 A 
ATOM     36  C   UNL A   1      40.335  30.452  29.616  1.00  0.00     0.049 A 
ATOM     37  N   UNL A   1      40.939  27.329  29.657  1.00  0.00    -0.248 NA
ATOM     38  C   UNL A   1      39.269  27.093  28.125  1.00  0.00     0.031 C 
ATOM     39  C   UNL A   1      41.778  30.634  29.557  1.00  0.00     0.029 A 
ATOM     40  N   UNL A   1      39.874  31.670  30.146  1.00  0.00    -0.354 N 
ATOM     41  C   UNL A   1      41.229  26.247  28.842  1.00  0.00     0.074 A 
ATOM     42  C   UNL A   1      40.061  26.024  28.046  1.00  0.00     0.031 C 
ATOM     43  C   UNL A   1      42.115  31.701  30.312  1.00  0.00     0.029 A 
ATOM     44  C   UNL A   1      40.902  32.160  30.979  1.00  0.00     0.049 A 
ATOM     45  H   UNL A   1      39.005  32.097  29.971  1.00  0.00     0.167 HD
ATOM     46  C   UNL A   1      42.527  25.850  28.751  1.00  0.00     0.037 A 
ATOM     47  C   UNL A   1      40.716  32.155  32.336  1.00  0.00     0.037 A 
ATOM     48  C   UNL A   1      43.330  26.729  29.595  1.00  0.00     0.049 A 
ATOM     49  C   UNL A   1      41.580  31.114  33.010  1.00  0.00     0.074 A 
ATOM     50  C   UNL A   1      44.045  27.879  29.307  1.00  0.00     0.029 A 
ATOM     51  N   UNL A   1      43.079  26.748  30.957  1.00  0.00    -0.354 N 
ATOM     52  N   UNL A   1      41.987  30.017  32.431  1.00  0.00    -0.248 NA
ATOM     53  C   UNL A   1      42.119  31.272  34.358  1.00  0.00     0.031 C 
ATOM     54  C   UNL A   1      44.204  28.604  30.516  1.00  0.00     0.029 A 
ATOM     55  C   UNL A   1      43.560  27.907  31.527  1.00  0.00     0.049 A 
ATOM     56  H   UNL A   1      42.621  26.031  31.451  1.00  0.00     0.167 HD
ATOM     57  C   UNL A   1      42.812  29.330  33.283  1.00  0.00     0.074 A 
ATOM     58  C   UNL A   1      42.873  30.165  34.467  1.00  0.00     0.031 C 
ATOM     59  C   UNL A   1      43.391  28.137  32.950  1.00  0.00     0.037 A 
BRANCH  46  60
ATOM     60  C   UNL A   1      43.120  24.932  27.711  1.00  0.00     0.058 A 
ATOM     61  C   UNL A   1      43.038  23.533  27.899  1.00  0.00     0.135 A 
ATOM     62  C   UNL A   1      43.749  25.329  26.511  1.00  0.00     0.135 A 
ATOM     63  F   UNL A   1      42.446  22.997  28.974  1.00  0.00    -0.206 F 
ATOM     64  C   UNL A   1      43.549  22.609  26.996  1.00  0.00     0.059 A 
ATOM     65  C   UNL A   1      44.296  24.415  25.599  1.00  0.00     0.059 A 
ATOM     66  F   UNL A   1      43.815  26.615  26.146  1.00  0.00    -0.206 F 
ATOM     67  C   UNL A   1      44.179  23.053  25.847  1.00  0.00     0.060 A 
BRANCH  67  68
ATOM     68  S   UNL A   1      44.779  21.816  24.686  1.00  0.00     0.124 S 
ATOM     69  O   UNL A   1      46.179  21.684  25.076  1.00  0.00    -0.237 OA
ATOM     70  O   UNL A   1      43.924  20.673  24.994  1.00  0.00    -0.237 OA
ATOM     71  O   UNL A   1      44.553  22.432  23.382  1.00  0.00    -0.744 OA
ENDBRANCH  67  68
ENDBRANCH  46  60
BRANCH  47  72
ATOM     72  C   UNL A   1      39.301  32.492  32.703  1.00  0.00     0.058 A 
ATOM     73  C   UNL A   1      38.921  33.848  32.621  1.00  0.00     0.135 A 
ATOM     74  C   UNL A   1      38.282  31.534  32.592  1.00  0.00     0.135 A 
ATOM     75  F   UNL A   1      39.846  34.811  32.757  1.00  0.00    -0.206 F 
ATOM     76  C   UNL A   1      37.638  34.230  32.233  1.00  0.00     0.059 A 
ATOM     77  C   UNL A   1      36.986  31.899  32.209  1.00  0.00     0.059 A 
ATOM     78  F   UNL A   1      38.568  30.227  32.680  1.00  0.00    -0.206 F 
ATOM     79  C   UNL A   1      36.702  33.239  31.949  1.00  0.00     0.060 A 
BRANCH  79  80
ATOM     80  S   UNL A   1      35.187  33.717  31.081  1.00  0.00     0.124 S 
ATOM     81  O   UNL A   1      34.461  32.453  31.025  1.00  0.00    -0.237 OA
ATOM     82  O   UNL A   1      34.626  34.733  31.974  1.00  0.00    -0.237 OA
ATOM     83  O   UNL A   1      35.677  34.222  29.807  1.00  0.00    -0.744 OA
ENDBRANCH  79  80
ENDBRANCH  47  72
BRANCH  59  84
ATOM     84  C   UNL A   1      43.933  27.112  33.927  1.00  0.00     0.058 A 
ATOM     85  C   UNL A   1      45.300  26.906  34.166  1.00  0.00     0.135 A 
ATOM     86  C   UNL A   1      43.062  26.379  34.781  1.00  0.00     0.135 A 
ATOM     87  F   UNL A   1      46.244  27.647  33.572  1.00  0.00    -0.206 F 
ATOM     88  C   UNL A   1      45.766  25.951  35.066  1.00  0.00     0.059 A 
ATOM     89  C   UNL A   1      43.508  25.499  35.758  1.00  0.00     0.059 A 
ATOM     90  F   UNL A   1      41.728  26.489  34.716  1.00  0.00    -0.206 F 
ATOM     91  C   UNL A   1      44.862  25.246  35.850  1.00  0.00     0.060 A 
BRANCH  91  92
ATOM     92  S   UNL A   1      45.473  23.997  36.984  1.00  0.00     0.124 S 
ATOM     93  O   UNL A   1      46.906  24.276  36.967  1.00  0.00    -0.237 OA
ATOM     94  O   UNL A   1      44.778  24.334  38.223  1.00  0.00    -0.237 OA
ATOM     95  O   UNL A   1      45.066  22.742  36.363  1.00  0.00    -0.744 OA
ENDBRANCH  91  92
ENDBRANCH  59  84
ENDBRANCH  33  34
ENDBRANCH  25  28
ENDBRANCH  23  24
ENDBRANCH   1  23
TORSDOF 16
ENDMDL
MODEL 3
REMARK VINA RESULT:     -14.1      1.099      1.793
REMARK SMILES Cc1ccc(C(=O)NC2(CC(=O)NCCCNC(=O)c3ccc(-c4c5nc(c(-c6c(F)cc(S(=O)(=O)[O-])cc6F)c6ccc([nH]6)c(-c6c(F)cc(S(=O)(=O)[O-])cc6F)c6nc(c(-c7c(F)cc(S(=O)(=O)[O-])cc7F)c7ccc4[nH]7)C=C6)C=C5)cc3)CCC2)cc1
REMARK SMILES IDX 15 1 14 2 13 3 11 4 12 5 10 7 9 8 86 9 88 10 87 11 8 12 6 13
REMARK SMILES IDX 7 14 5 16 1 17 2 18 3 19 90 20 4 21 89 22 16 23 17 24 18 25
REMARK SMILES IDX 19 27 20 28 21 29 85 30 22 31 84 32 23 33 24 34 25 35 78 36
REMARK SMILES IDX 26 37 83 38 77 39 79 40 27 41 82 42 76 43 75 44 28 46 62 47
REMARK SMILES IDX 41 48 61 49 42 50 45 51 60 52 80 53 43 54 44 55 59 57 81 58
REMARK SMILES IDX 46 59 29 60 30 61 39 62 31 63 32 64 38 65 40 66 33 67 34 68
REMARK SMILES IDX 35 69 36 70 37 71 63 72 64 73 73 74 65 75 66 76 72 77 74 78
REMARK SMILES IDX 67 79 68 80 69 81 70 82 71 83 47 84 48 85 57 86 49 87 50 88
REMARK SMILES IDX 56 89 58 90 51 91 52 92 53 93 54 94 55 95
REMARK H PARENT 13 6 8 15 17 26 79 45 45 56
REMARK Flexibility Score: inf
ROOT
ATOM      1  C   UNL A   1      32.404  28.727  26.214  1.00  0.00     0.042 C 
ENDROOT
BRANCH   1   2
ATOM      2  C   UNL A   1      33.399  27.602  25.996  1.00  0.00     0.117 C 
BRANCH   2   3
ATOM      3  N   UNL A   1      33.996  27.524  24.413  1.00  0.00    -0.356 N 
ATOM      4  C   UNL A   1      33.508  26.693  22.688  1.00  0.00     0.222 C 
ATOM      5  O   UNL A   1      33.700  27.076  21.500  1.00  0.00    -0.275 OA
ATOM      6  H   UNL A   1      34.828  28.043  24.327  1.00  0.00     0.163 HD
BRANCH   4   7
ATOM      7  C   UNL A   1      32.694  24.999  22.532  1.00  0.00     0.128 C 
BRANCH   7   8
ATOM      8  C   UNL A   1      31.407  24.475  23.452  1.00  0.00     0.049 C 
ATOM      9  C   UNL A   1      30.161  25.432  23.491  1.00  0.00     0.029 C 
ATOM     10  C   UNL A   1      31.027  24.349  25.092  1.00  0.00     0.029 C 
ATOM     11  C   UNL A   1      30.453  25.743  24.991  1.00  0.00     0.005 C 
BRANCH   8  12
ATOM     12  N   UNL A   1      31.229  23.081  23.075  1.00  0.00    -0.346 N 
ATOM     13  C   UNL A   1      32.202  22.232  23.533  1.00  0.00     0.251 C 
ATOM     14  O   UNL A   1      32.112  21.017  23.449  1.00  0.00    -0.269 OA
ATOM     15  H   UNL A   1      30.469  22.772  22.532  1.00  0.00     0.164 HD
BRANCH  13  16
ATOM     16  C   UNL A   1      33.467  22.940  23.940  1.00  0.00     0.039 A 
ATOM     17  C   UNL A   1      37.689  24.024  26.357  1.00  0.00     0.044 C 
ATOM     18  C   UNL A   1      36.667  23.140  25.664  1.00  0.00    -0.051 A 
ATOM     19  C   UNL A   1      35.136  22.934  26.601  1.00  0.00     0.004 A 
ATOM     20  C   UNL A   1      36.678  23.159  23.858  1.00  0.00     0.004 A 
ATOM     21  C   UNL A   1      33.560  22.825  25.745  1.00  0.00     0.014 A 
ATOM     22  C   UNL A   1      35.067  23.149  22.955  1.00  0.00     0.014 A 
ENDBRANCH  13  16
ENDBRANCH   8  12
ENDBRANCH   7   8
ENDBRANCH   4   7
ENDBRANCH   2   3
ENDBRANCH   1   2
BRANCH   1  23
ATOM     23  C   UNL A   1      32.882  29.533  27.368  1.00  0.00     0.118 C 
BRANCH  23  24
ATOM     24  N   UNL A   1      33.745  30.613  26.925  1.00  0.00    -0.352 N 
ATOM     25  C   UNL A   1      34.890  31.032  27.574  1.00  0.00     0.251 C 
ATOM     26  H   UNL A   1      33.493  31.085  26.097  1.00  0.00     0.163 HD
ATOM     27  O   UNL A   1      35.210  32.204  27.702  1.00  0.00    -0.269 OA
BRANCH  25  28
ATOM     28  C   UNL A   1      35.817  29.939  27.941  1.00  0.00     0.039 A 
ATOM     29  C   UNL A   1      35.899  29.662  29.313  1.00  0.00     0.014 A 
ATOM     30  C   UNL A   1      36.899  29.744  27.096  1.00  0.00     0.014 A 
ATOM     31  C   UNL A   1      37.142  29.428  29.870  1.00  0.00     0.010 A 
ATOM     32  C   UNL A   1      38.131  29.825  27.674  1.00  0.00     0.010 A 
ATOM     33  C   UNL A   1      38.242  29.652  29.057  1.00  0.00    -0.014 A 
BRANCH  33  34
ATOM     34  C   UNL A   1      39.612  29.431  29.437  1.00  0.00     0.031 A 
ATOM     35  C   UNL A   1      40.055  28.053  29.123  1.00  0.00     0.074 A 
ATOM     36  C   UNL A   1      40.339  30.534  29.729  1.00  0.00     0.049 A 
ATOM     37  N   UNL A   1      40.990  27.420  29.721  1.00  0.00    -0.248 NA
ATOM     38  C   UNL A   1      39.378  27.194  28.128  1.00  0.00     0.031 C 
ATOM     39  C   UNL A   1      41.780  30.740  29.724  1.00  0.00     0.029 A 
ATOM     40  N   UNL A   1      39.841  31.732  30.270  1.00  0.00    -0.354 N 
ATOM     41  C   UNL A   1      41.325  26.362  28.892  1.00  0.00     0.074 A 
ATOM     42  C   UNL A   1      40.190  26.140  28.052  1.00  0.00     0.031 C 
ATOM     43  C   UNL A   1      42.074  31.794  30.514  1.00  0.00     0.029 A 
ATOM     44  C   UNL A   1      40.832  32.218  31.149  1.00  0.00     0.049 A 
ATOM     45  H   UNL A   1      38.972  32.150  30.076  1.00  0.00     0.167 HD
ATOM     46  C   UNL A   1      42.632  25.987  28.837  1.00  0.00     0.037 A 
ATOM     47  C   UNL A   1      40.600  32.180  32.499  1.00  0.00     0.037 A 
ATOM     48  C   UNL A   1      43.392  26.859  29.727  1.00  0.00     0.049 A 
ATOM     49  C   UNL A   1      41.457  31.137  33.179  1.00  0.00     0.074 A 
ATOM     50  C   UNL A   1      44.097  28.025  29.491  1.00  0.00     0.029 A 
ATOM     51  N   UNL A   1      43.095  26.842  31.080  1.00  0.00    -0.354 N 
ATOM     52  N   UNL A   1      41.901  30.059  32.589  1.00  0.00    -0.248 NA
ATOM     53  C   UNL A   1      41.947  31.272  34.547  1.00  0.00     0.031 C 
ATOM     54  C   UNL A   1      44.204  28.725  30.720  1.00  0.00     0.029 A 
ATOM     55  C   UNL A   1      43.538  27.995  31.692  1.00  0.00     0.049 A 
ATOM     56  H   UNL A   1      42.631  26.108  31.542  1.00  0.00     0.167 HD
ATOM     57  C   UNL A   1      42.708  29.366  33.453  1.00  0.00     0.074 A 
ATOM     58  C   UNL A   1      42.715  30.175  34.657  1.00  0.00     0.031 C 
ATOM     59  C   UNL A   1      43.317  28.190  33.114  1.00  0.00     0.037 A 
BRANCH  46  60
ATOM     60  C   UNL A   1      43.275  25.102  27.798  1.00  0.00     0.058 A 
ATOM     61  C   UNL A   1      43.565  25.637  26.522  1.00  0.00     0.135 A 
ATOM     62  C   UNL A   1      43.660  23.756  27.973  1.00  0.00     0.135 A 
ATOM     63  F   UNL A   1      43.288  26.908  26.208  1.00  0.00    -0.206 F 
ATOM     64  C   UNL A   1      44.161  24.903  25.503  1.00  0.00     0.059 A 
ATOM     65  C   UNL A   1      44.238  22.988  26.951  1.00  0.00     0.059 A 
ATOM     66  F   UNL A   1      43.540  23.140  29.157  1.00  0.00    -0.206 F 
ATOM     67  C   UNL A   1      44.495  23.579  25.721  1.00  0.00     0.060 A 
BRANCH  67  68
ATOM     68  S   UNL A   1      45.310  22.687  24.386  1.00  0.00     0.124 S 
ATOM     69  O   UNL A   1      45.808  21.499  25.072  1.00  0.00    -0.237 OA
ATOM     70  O   UNL A   1      44.208  22.465  23.454  1.00  0.00    -0.237 OA
ATOM     71  O   UNL A   1      46.337  23.618  23.929  1.00  0.00    -0.744 OA
ENDBRANCH  67  68
ENDBRANCH  46  60
BRANCH  47  72
ATOM     72  C   UNL A   1      39.168  32.487  32.824  1.00  0.00     0.058 A 
ATOM     73  C   UNL A   1      38.770  33.838  32.761  1.00  0.00     0.135 A 
ATOM     74  C   UNL A   1      38.168  31.517  32.655  1.00  0.00     0.135 A 
ATOM     75  F   UNL A   1      39.675  34.812  32.952  1.00  0.00    -0.206 F 
ATOM     76  C   UNL A   1      37.495  34.211  32.338  1.00  0.00     0.059 A 
ATOM     77  C   UNL A   1      36.881  31.872  32.236  1.00  0.00     0.059 A 
ATOM     78  F   UNL A   1      38.472  30.213  32.722  1.00  0.00    -0.206 F 
ATOM     79  C   UNL A   1      36.585  33.214  31.998  1.00  0.00     0.060 A 
BRANCH  79  80
ATOM     80  S   UNL A   1      35.093  33.690  31.089  1.00  0.00     0.124 S 
ATOM     81  O   UNL A   1      35.653  34.229  29.855  1.00  0.00    -0.237 OA
ATOM     82  O   UNL A   1      34.389  32.412  30.962  1.00  0.00    -0.237 OA
ATOM     83  O   UNL A   1      34.458  34.657  31.973  1.00  0.00    -0.744 OA
ENDBRANCH  79  80
ENDBRANCH  47  72
BRANCH  59  84
ATOM     84  C   UNL A   1      43.841  27.151  34.086  1.00  0.00     0.058 A 
ATOM     85  C   UNL A   1      43.017  26.309  34.848  1.00  0.00     0.135 A 
ATOM     86  C   UNL A   1      45.232  26.867  34.179  1.00  0.00     0.135 A 
ATOM     87  F   UNL A   1      41.683  26.329  34.737  1.00  0.00    -0.206 F 
ATOM     88  C   UNL A   1      43.529  25.368  35.738  1.00  0.00     0.059 A 
ATOM     89  C   UNL A   1      45.757  25.863  34.980  1.00  0.00     0.059 A 
ATOM     90  F   UNL A   1      46.154  27.548  33.485  1.00  0.00    -0.206 F 
ATOM     91  C   UNL A   1      44.901  25.159  35.804  1.00  0.00     0.060 A 
BRANCH  91  92
ATOM     92  S   UNL A   1      45.550  23.966  36.975  1.00  0.00     0.124 S 
ATOM     93  O   UNL A   1      44.858  24.363  38.197  1.00  0.00    -0.237 OA
ATOM     94  O   UNL A   1      45.127  22.695  36.393  1.00  0.00    -0.237 OA
ATOM     95  O   UNL A   1      46.987  24.212  36.954  1.00  0.00    -0.744 OA
ENDBRANCH  91  92
ENDBRANCH  59  84
ENDBRANCH  33  34
ENDBRANCH  25  28
ENDBRANCH  23  24
ENDBRANCH   1  23
TORSDOF 16
ENDMDL
