MODEL 1
REMARK VINA RESULT:     -12.1      0.000      0.000
REMARK SMILES COc1ccc(/C=C(\Sc2nc(C)n[nH]2)C(=O)NCCCNC(=O)c2ccc(-c3c4nc(c(-c5c(F)cc(S(=O)(=O)[O-])cc5F)c5ccc([nH]5)c(-c5c(F)cc(S(=O)(=O)[O-])cc5F)c5nc(c(-c6c(F)cc(S(=O)(=O)[O-])cc6F)c6ccc3[nH]6)C=C5)C=C4)cc2)c(OC)c1
REMARK SMILES IDX 20 1 19 2 18 3 16 4 17 5 8 7 7 8 6 9 3 10 4 11 94 12 5 13
REMARK SMILES IDX 91 14 2 15 1 16 92 17 93 18 9 19 10 20 11 21 15 22 12 23
REMARK SMILES IDX 14 24 13 26 21 27 22 28 23 29 24 31 25 32 26 33 90 34 27 35
REMARK SMILES IDX 89 36 28 37 29 38 30 39 83 40 31 41 88 42 82 43 84 44 32 45
REMARK SMILES IDX 87 46 81 47 80 48 33 50 67 51 46 52 66 53 47 54 50 55 65 56
REMARK SMILES IDX 85 57 48 58 49 59 64 61 86 62 51 63 34 64 35 65 44 66 36 67
REMARK SMILES IDX 37 68 43 69 45 70 38 71 39 72 40 73 41 74 42 75 68 76 69 77
REMARK SMILES IDX 78 78 70 79 71 80 77 81 79 82 72 83 73 84 74 85 75 86 76 87
REMARK SMILES IDX 52 88 53 89 62 90 54 91 55 92 61 93 63 94 56 95 57 96 58 97
REMARK SMILES IDX 59 98 60 99
REMARK H PARENT 18 6 15 25 22 30 84 49 50 60
REMARK Flexibility Score: inf
ROOT
ATOM      1  C   UNL A   1      39.383  21.819  26.125  1.00  0.00     0.042 C 
ENDROOT
BRANCH   1   2
ATOM      2  C   UNL A   1      38.118  22.673  25.940  1.00  0.00     0.118 C 
BRANCH   2   3
ATOM      3  N   UNL A   1      37.520  22.580  24.610  1.00  0.00    -0.352 N 
ATOM      4  C   UNL A   1      36.359  23.010  24.029  1.00  0.00     0.258 C 
ATOM      5  O   UNL A   1      36.328  22.888  22.799  1.00  0.00    -0.269 OA
ATOM      6  H   UNL A   1      38.092  22.087  23.979  1.00  0.00     0.163 HD
BRANCH   4   7
ATOM      7  C   UNL A   1      35.149  23.593  24.772  1.00  0.00     0.081 C 
ATOM      8  C   UNL A   1      34.774  24.821  24.327  1.00  0.00     0.033 C 
BRANCH   8   9
ATOM      9  C   UNL A   1      33.637  25.677  24.722  1.00  0.00     0.018 A 
ATOM     10  C   UNL A   1      31.763  27.726  24.990  1.00  0.00     0.122 A 
ATOM     11  C   UNL A   1      32.890  27.708  25.802  1.00  0.00     0.047 A 
ATOM     12  C   UNL A   1      31.465  26.630  24.186  1.00  0.00     0.093 A 
ATOM     13  C   UNL A   1      33.810  26.667  25.693  1.00  0.00     0.016 A 
ATOM     14  C   UNL A   1      32.377  25.570  24.102  1.00  0.00     0.129 A 
BRANCH  10  15
ATOM     15  O   UNL A   1      31.105  28.918  24.876  1.00  0.00    -0.497 OA
ATOM     16  C   UNL A   1      31.715  29.972  25.600  1.00  0.00     0.278 C 
ENDBRANCH  10  15
BRANCH  14  17
ATOM     17  O   UNL A   1      32.093  24.458  23.346  1.00  0.00    -0.496 OA
ATOM     18  C   UNL A   1      30.697  24.129  23.364  1.00  0.00     0.278 C 
ENDBRANCH  14  17
ENDBRANCH   8   9
BRANCH   7  19
ATOM     19  S   UNL A   1      34.382  22.558  25.918  1.00  0.00    -0.045 SA
BRANCH  19  20
ATOM     20  C   UNL A   1      34.179  20.986  25.303  1.00  0.00     0.188 A 
ATOM     21  N   UNL A   1      33.119  20.607  24.630  1.00  0.00    -0.206 NA
ATOM     22  N   UNL A   1      35.109  19.997  25.294  1.00  0.00    -0.254 N 
ATOM     23  C   UNL A   1      33.420  19.324  24.278  1.00  0.00     0.148 A 
ATOM     24  N   UNL A   1      34.656  18.921  24.610  1.00  0.00    -0.158 NA
ATOM     25  H   UNL A   1      35.993  20.054  25.726  1.00  0.00     0.192 HD
ATOM     26  C   UNL A   1      32.405  18.462  23.640  1.00  0.00     0.092 C 
ENDBRANCH  19  20
ENDBRANCH   7  19
ENDBRANCH   4   7
ENDBRANCH   2   3
ENDBRANCH   1   2
BRANCH   1  27
ATOM     27  C   UNL A   1      40.532  22.614  26.720  1.00  0.00     0.118 C 
BRANCH  27  28
ATOM     28  N   UNL A   1      41.768  22.476  25.937  1.00  0.00    -0.352 N 
ATOM     29  C   UNL A   1      42.614  23.461  25.451  1.00  0.00     0.251 C 
ATOM     30  H   UNL A   1      42.032  21.552  25.727  1.00  0.00     0.163 HD
ATOM     31  O   UNL A   1      43.415  23.215  24.569  1.00  0.00    -0.269 OA
BRANCH  29  32
ATOM     32  C   UNL A   1      42.514  24.813  26.028  1.00  0.00     0.039 A 
ATOM     33  C   UNL A   1      41.537  25.721  25.612  1.00  0.00     0.014 A 
ATOM     34  C   UNL A   1      43.387  25.127  27.061  1.00  0.00     0.014 A 
ATOM     35  C   UNL A   1      41.390  26.913  26.320  1.00  0.00     0.010 A 
ATOM     36  C   UNL A   1      43.095  26.178  27.881  1.00  0.00     0.010 A 
ATOM     37  C   UNL A   1      42.160  27.119  27.474  1.00  0.00    -0.014 A 
BRANCH  37  38
ATOM     38  C   UNL A   1      41.957  28.279  28.333  1.00  0.00     0.031 A 
ATOM     39  C   UNL A   1      42.998  29.336  28.211  1.00  0.00     0.074 A 
ATOM     40  C   UNL A   1      40.789  28.494  28.977  1.00  0.00     0.049 A 
ATOM     41  N   UNL A   1      43.875  29.690  29.091  1.00  0.00    -0.248 NA
ATOM     42  C   UNL A   1      43.192  29.975  26.898  1.00  0.00     0.031 C 
ATOM     43  C   UNL A   1      39.544  27.716  28.907  1.00  0.00     0.029 A 
ATOM     44  N   UNL A   1      40.423  29.552  29.743  1.00  0.00    -0.354 N 
ATOM     45  C   UNL A   1      44.564  30.764  28.534  1.00  0.00     0.074 A 
ATOM     46  C   UNL A   1      44.257  30.745  27.128  1.00  0.00     0.031 C 
ATOM     47  C   UNL A   1      38.516  28.462  29.368  1.00  0.00     0.029 A 
ATOM     48  C   UNL A   1      39.053  29.682  29.936  1.00  0.00     0.049 A 
ATOM     49  H   UNL A   1      41.077  30.177  30.131  1.00  0.00     0.167 HD
ATOM     50  C   UNL A   1      45.122  31.733  29.317  1.00  0.00     0.037 A 
ATOM     51  C   UNL A   1      38.416  30.749  30.480  1.00  0.00     0.037 A 
ATOM     52  C   UNL A   1      45.201  31.301  30.693  1.00  0.00     0.049 A 
ATOM     53  C   UNL A   1      39.439  31.496  31.265  1.00  0.00     0.074 A 
ATOM     54  C   UNL A   1      45.771  30.216  31.333  1.00  0.00     0.029 A 
ATOM     55  N   UNL A   1      44.282  31.810  31.581  1.00  0.00    -0.354 N 
ATOM     56  N   UNL A   1      40.040  31.011  32.321  1.00  0.00    -0.248 NA
ATOM     57  C   UNL A   1      40.153  32.567  30.585  1.00  0.00     0.031 C 
ATOM     58  C   UNL A   1      44.809  29.824  32.310  1.00  0.00     0.029 A 
ATOM     59  C   UNL A   1      43.759  30.743  32.271  1.00  0.00     0.049 A 
ATOM     60  H   UNL A   1      44.044  32.757  31.701  1.00  0.00     0.167 HD
ATOM     61  C   UNL A   1      41.366  31.405  32.196  1.00  0.00     0.074 A 
ATOM     62  C   UNL A   1      41.359  32.420  31.142  1.00  0.00     0.031 C 
ATOM     63  C   UNL A   1      42.388  30.675  32.735  1.00  0.00     0.037 A 
BRANCH  50  64
ATOM     64  C   UNL A   1      45.254  33.189  28.927  1.00  0.00     0.058 A 
ATOM     65  C   UNL A   1      46.508  33.824  29.053  1.00  0.00     0.135 A 
ATOM     66  C   UNL A   1      44.159  34.054  28.704  1.00  0.00     0.135 A 
ATOM     67  F   UNL A   1      47.621  33.105  29.269  1.00  0.00    -0.206 F 
ATOM     68  C   UNL A   1      46.649  35.212  29.044  1.00  0.00     0.059 A 
ATOM     69  C   UNL A   1      44.287  35.437  28.634  1.00  0.00     0.059 A 
ATOM     70  F   UNL A   1      42.897  33.616  28.642  1.00  0.00    -0.206 F 
ATOM     71  C   UNL A   1      45.527  36.011  28.851  1.00  0.00     0.060 A 
BRANCH  71  72
ATOM     72  S   UNL A   1      45.685  37.801  28.951  1.00  0.00     0.124 S 
ATOM     73  O   UNL A   1      45.532  38.025  30.383  1.00  0.00    -0.237 OA
ATOM     74  O   UNL A   1      47.022  38.017  28.408  1.00  0.00    -0.237 OA
ATOM     75  O   UNL A   1      44.590  38.281  28.114  1.00  0.00    -0.744 OA
ENDBRANCH  71  72
ENDBRANCH  50  64
BRANCH  51  76
ATOM     76  C   UNL A   1      37.120  31.340  30.040  1.00  0.00     0.058 A 
ATOM     77  C   UNL A   1      36.245  31.943  30.959  1.00  0.00     0.135 A 
ATOM     78  C   UNL A   1      36.832  31.565  28.676  1.00  0.00     0.135 A 
ATOM     79  F   UNL A   1      36.450  31.801  32.277  1.00  0.00    -0.206 F 
ATOM     80  C   UNL A   1      35.180  32.759  30.555  1.00  0.00     0.059 A 
ATOM     81  C   UNL A   1      35.771  32.362  28.248  1.00  0.00     0.059 A 
ATOM     82  F   UNL A   1      37.631  31.089  27.709  1.00  0.00    -0.206 F 
ATOM     83  C   UNL A   1      34.963  32.978  29.194  1.00  0.00     0.060 A 
BRANCH  83  84
ATOM     84  S   UNL A   1      33.703  34.166  28.668  1.00  0.00     0.124 S 
ATOM     85  O   UNL A   1      33.080  34.528  29.937  1.00  0.00    -0.237 OA
ATOM     86  O   UNL A   1      34.505  35.206  28.032  1.00  0.00    -0.237 OA
ATOM     87  O   UNL A   1      32.861  33.390  27.761  1.00  0.00    -0.744 OA
ENDBRANCH  83  84
ENDBRANCH  51  76
BRANCH  63  88
ATOM     88  C   UNL A   1      42.070  29.563  33.707  1.00  0.00     0.058 A 
ATOM     89  C   UNL A   1      41.952  28.205  33.360  1.00  0.00     0.135 A 
ATOM     90  C   UNL A   1      42.074  29.868  35.077  1.00  0.00     0.135 A 
ATOM     91  F   UNL A   1      42.044  27.806  32.085  1.00  0.00    -0.206 F 
ATOM     92  C   UNL A   1      41.808  27.204  34.327  1.00  0.00     0.059 A 
ATOM     93  C   UNL A   1      41.964  28.886  36.058  1.00  0.00     0.059 A 
ATOM     94  F   UNL A   1      42.246  31.138  35.481  1.00  0.00    -0.206 F 
ATOM     95  C   UNL A   1      41.820  27.555  35.675  1.00  0.00     0.060 A 
BRANCH  95  96
ATOM     96  S   UNL A   1      41.713  26.257  36.927  1.00  0.00     0.124 S 
ATOM     97  O   UNL A   1      40.470  26.594  37.613  1.00  0.00    -0.237 OA
ATOM     98  O   UNL A   1      41.682  25.040  36.120  1.00  0.00    -0.237 OA
ATOM     99  O   UNL A   1      42.930  26.440  37.714  1.00  0.00    -0.744 OA
ENDBRANCH  95  96
ENDBRANCH  63  88
ENDBRANCH  37  38
ENDBRANCH  29  32
ENDBRANCH  27  28
ENDBRANCH   1  27
TORSDOF 18
ENDMDL
MODEL 2
REMARK VINA RESULT:     -12.1      2.966      9.159
REMARK SMILES COc1ccc(/C=C(\Sc2nc(C)n[nH]2)C(=O)NCCCNC(=O)c2ccc(-c3c4nc(c(-c5c(F)cc(S(=O)(=O)[O-])cc5F)c5ccc([nH]5)c(-c5c(F)cc(S(=O)(=O)[O-])cc5F)c5nc(c(-c6c(F)cc(S(=O)(=O)[O-])cc6F)c6ccc3[nH]6)C=C5)C=C4)cc2)c(OC)c1
REMARK SMILES IDX 20 1 19 2 18 3 16 4 17 5 8 7 7 8 6 9 3 10 4 11 94 12 5 13
REMARK SMILES IDX 91 14 2 15 1 16 92 17 93 18 9 19 10 20 11 21 15 22 12 23
REMARK SMILES IDX 14 24 13 26 21 27 22 28 23 29 24 31 25 32 26 33 90 34 27 35
REMARK SMILES IDX 89 36 28 37 29 38 30 39 83 40 31 41 88 42 82 43 84 44 32 45
REMARK SMILES IDX 87 46 81 47 80 48 33 50 67 51 46 52 66 53 47 54 50 55 65 56
REMARK SMILES IDX 85 57 48 58 49 59 64 61 86 62 51 63 34 64 35 65 44 66 36 67
REMARK SMILES IDX 37 68 43 69 45 70 38 71 39 72 40 73 41 74 42 75 68 76 69 77
REMARK SMILES IDX 78 78 70 79 71 80 77 81 79 82 72 83 73 84 74 85 75 86 76 87
REMARK SMILES IDX 52 88 53 89 62 90 54 91 55 92 61 93 63 94 56 95 57 96 58 97
REMARK SMILES IDX 59 98 60 99
REMARK H PARENT 18 6 15 25 22 30 84 49 50 60
REMARK Flexibility Score: inf
ROOT
ATOM      1  C   UNL A   1      32.590  28.979  26.806  1.00  0.00     0.042 C 
ENDROOT
BRANCH   1   2
ATOM      2  C   UNL A   1      31.789  29.759  25.750  1.00  0.00     0.118 C 
BRANCH   2   3
ATOM      3  N   UNL A   1      32.364  29.714  24.407  1.00  0.00    -0.352 N 
ATOM      4  C   UNL A   1      32.635  28.735  23.493  1.00  0.00     0.258 C 
ATOM      5  O   UNL A   1      32.950  29.154  22.373  1.00  0.00    -0.269 OA
ATOM      6  H   UNL A   1      32.619  30.608  24.082  1.00  0.00     0.163 HD
BRANCH   4   7
ATOM      7  C   UNL A   1      32.589  27.224  23.760  1.00  0.00     0.081 C 
ATOM      8  C   UNL A   1      33.800  26.684  24.055  1.00  0.00     0.033 C 
BRANCH   8   9
ATOM      9  C   UNL A   1      34.167  25.305  24.438  1.00  0.00     0.018 A 
ATOM     10  C   UNL A   1      34.189  22.671  25.357  1.00  0.00     0.122 A 
ATOM     11  C   UNL A   1      34.522  23.707  26.219  1.00  0.00     0.047 A 
ATOM     12  C   UNL A   1      34.038  22.917  23.996  1.00  0.00     0.093 A 
ATOM     13  C   UNL A   1      34.545  25.021  25.753  1.00  0.00     0.016 A 
ATOM     14  C   UNL A   1      34.093  24.236  23.524  1.00  0.00     0.129 A 
BRANCH  10  15
ATOM     15  O   UNL A   1      33.829  21.484  25.929  1.00  0.00    -0.497 OA
ATOM     16  C   UNL A   1      33.935  21.484  27.343  1.00  0.00     0.278 C 
ENDBRANCH  10  15
BRANCH  14  17
ATOM     17  O   UNL A   1      33.984  24.507  22.181  1.00  0.00    -0.496 OA
ATOM     18  C   UNL A   1      33.149  23.559  21.501  1.00  0.00     0.278 C 
ENDBRANCH  14  17
ENDBRANCH   8   9
BRANCH   7  19
ATOM     19  S   UNL A   1      31.024  26.499  23.794  1.00  0.00    -0.045 SA
BRANCH  19  20
ATOM     20  C   UNL A   1      30.882  25.378  25.064  1.00  0.00     0.188 A 
ATOM     21  N   UNL A   1      30.697  24.094  24.872  1.00  0.00    -0.206 NA
ATOM     22  N   UNL A   1      31.082  25.623  26.384  1.00  0.00    -0.254 N 
ATOM     23  C   UNL A   1      30.722  23.587  26.139  1.00  0.00     0.148 A 
ATOM     24  N   UNL A   1      31.015  24.476  27.099  1.00  0.00    -0.158 NA
ATOM     25  H   UNL A   1      31.252  26.514  26.769  1.00  0.00     0.192 HD
ATOM     26  C   UNL A   1      30.380  22.173  26.389  1.00  0.00     0.092 C 
ENDBRANCH  19  20
ENDBRANCH   7  19
ENDBRANCH   4   7
ENDBRANCH   2   3
ENDBRANCH   1   2
BRANCH   1  27
ATOM     27  C   UNL A   1      34.048  29.402  26.850  1.00  0.00     0.118 C 
BRANCH  27  28
ATOM     28  N   UNL A   1      34.200  30.856  27.004  1.00  0.00    -0.352 N 
ATOM     29  C   UNL A   1      35.103  31.568  27.779  1.00  0.00     0.251 C 
ATOM     30  H   UNL A   1      33.571  31.403  26.482  1.00  0.00     0.163 HD
ATOM     31  O   UNL A   1      34.910  32.739  28.044  1.00  0.00    -0.269 OA
BRANCH  29  32
ATOM     32  C   UNL A   1      36.298  30.865  28.279  1.00  0.00     0.039 A 
ATOM     33  C   UNL A   1      36.517  29.509  28.023  1.00  0.00     0.014 A 
ATOM     34  C   UNL A   1      37.243  31.625  28.955  1.00  0.00     0.014 A 
ATOM     35  C   UNL A   1      37.747  28.955  28.372  1.00  0.00     0.010 A 
ATOM     36  C   UNL A   1      38.512  31.143  29.088  1.00  0.00     0.010 A 
ATOM     37  C   UNL A   1      38.751  29.791  28.882  1.00  0.00    -0.014 A 
BRANCH  37  38
ATOM     38  C   UNL A   1      40.099  29.301  29.139  1.00  0.00     0.031 A 
ATOM     39  C   UNL A   1      40.416  29.066  30.575  1.00  0.00     0.074 A 
ATOM     40  C   UNL A   1      40.892  28.843  28.146  1.00  0.00     0.049 A 
ATOM     41  N   UNL A   1      41.244  29.720  31.320  1.00  0.00    -0.248 NA
ATOM     42  C   UNL A   1      39.603  28.088  31.317  1.00  0.00     0.031 C 
ATOM     43  C   UNL A   1      40.579  28.682  26.719  1.00  0.00     0.029 A 
ATOM     44  N   UNL A   1      42.129  28.291  28.232  1.00  0.00    -0.354 N 
ATOM     45  C   UNL A   1      41.241  29.073  32.553  1.00  0.00     0.074 A 
ATOM     46  C   UNL A   1      40.070  28.237  32.558  1.00  0.00     0.031 C 
ATOM     47  C   UNL A   1      41.472  27.844  26.150  1.00  0.00     0.029 A 
ATOM     48  C   UNL A   1      42.518  27.564  27.113  1.00  0.00     0.049 A 
ATOM     49  H   UNL A   1      42.703  28.397  29.024  1.00  0.00     0.167 HD
ATOM     50  C   UNL A   1      42.338  29.084  33.364  1.00  0.00     0.037 A 
ATOM     51  C   UNL A   1      43.602  26.752  27.019  1.00  0.00     0.037 A 
ATOM     52  C   UNL A   1      43.279  30.096  32.944  1.00  0.00     0.049 A 
ATOM     53  C   UNL A   1      44.533  27.165  28.106  1.00  0.00     0.074 A 
ATOM     54  C   UNL A   1      43.203  31.462  32.744  1.00  0.00     0.029 A 
ATOM     55  N   UNL A   1      44.403  29.687  32.262  1.00  0.00    -0.354 N 
ATOM     56  N   UNL A   1      45.115  28.337  28.158  1.00  0.00    -0.248 NA
ATOM     57  C   UNL A   1      44.420  26.475  29.383  1.00  0.00     0.031 C 
ATOM     58  C   UNL A   1      43.945  31.696  31.549  1.00  0.00     0.029 A 
ATOM     59  C   UNL A   1      44.504  30.482  31.146  1.00  0.00     0.049 A 
ATOM     60  H   UNL A   1      45.017  28.964  32.524  1.00  0.00     0.167 HD
ATOM     61  C   UNL A   1      45.056  28.711  29.494  1.00  0.00     0.074 A 
ATOM     62  C   UNL A   1      44.679  27.492  30.210  1.00  0.00     0.031 C 
ATOM     63  C   UNL A   1      45.023  30.024  29.873  1.00  0.00     0.037 A 
BRANCH  50  64
ATOM     64  C   UNL A   1      42.737  27.958  34.293  1.00  0.00     0.058 A 
ATOM     65  C   UNL A   1      42.829  28.210  35.680  1.00  0.00     0.135 A 
ATOM     66  C   UNL A   1      43.296  26.734  33.865  1.00  0.00     0.135 A 
ATOM     67  F   UNL A   1      42.335  29.343  36.204  1.00  0.00    -0.206 F 
ATOM     68  C   UNL A   1      43.500  27.354  36.554  1.00  0.00     0.059 A 
ATOM     69  C   UNL A   1      43.918  25.839  34.729  1.00  0.00     0.059 A 
ATOM     70  F   UNL A   1      43.360  26.384  32.575  1.00  0.00    -0.206 F 
ATOM     71  C   UNL A   1      44.056  26.178  36.063  1.00  0.00     0.060 A 
BRANCH  71  72
ATOM     72  S   UNL A   1      45.019  25.126  37.162  1.00  0.00     0.124 S 
ATOM     73  O   UNL A   1      46.364  25.650  36.960  1.00  0.00    -0.237 OA
ATOM     74  O   UNL A   1      44.410  25.407  38.459  1.00  0.00    -0.237 OA
ATOM     75  O   UNL A   1      44.776  23.785  36.640  1.00  0.00    -0.744 OA
ENDBRANCH  71  72
ENDBRANCH  50  64
BRANCH  51  76
ATOM     76  C   UNL A   1      43.679  25.438  26.320  1.00  0.00     0.058 A 
ATOM     77  C   UNL A   1      44.640  25.199  25.323  1.00  0.00     0.135 A 
ATOM     78  C   UNL A   1      42.991  24.302  26.798  1.00  0.00     0.135 A 
ATOM     79  F   UNL A   1      45.358  26.216  24.823  1.00  0.00    -0.206 F 
ATOM     80  C   UNL A   1      44.936  23.909  24.863  1.00  0.00     0.059 A 
ATOM     81  C   UNL A   1      43.258  23.009  26.346  1.00  0.00     0.059 A 
ATOM     82  F   UNL A   1      42.093  24.399  27.791  1.00  0.00    -0.206 F 
ATOM     83  C   UNL A   1      44.252  22.817  25.396  1.00  0.00     0.060 A 
BRANCH  83  84
ATOM     84  S   UNL A   1      44.748  21.138  24.937  1.00  0.00     0.124 S 
ATOM     85  O   UNL A   1      43.773  20.326  25.658  1.00  0.00    -0.237 OA
ATOM     86  O   UNL A   1      44.610  21.161  23.485  1.00  0.00    -0.237 OA
ATOM     87  O   UNL A   1      46.121  21.043  25.428  1.00  0.00    -0.744 OA
ENDBRANCH  83  84
ENDBRANCH  51  76
BRANCH  63  88
ATOM     88  C   UNL A   1      45.318  31.096  28.851  1.00  0.00     0.058 A 
ATOM     89  C   UNL A   1      44.360  31.679  28.001  1.00  0.00     0.135 A 
ATOM     90  C   UNL A   1      46.590  31.688  28.870  1.00  0.00     0.135 A 
ATOM     91  F   UNL A   1      43.092  31.250  27.993  1.00  0.00    -0.206 F 
ATOM     92  C   UNL A   1      44.663  32.773  27.185  1.00  0.00     0.059 A 
ATOM     93  C   UNL A   1      46.906  32.798  28.090  1.00  0.00     0.059 A 
ATOM     94  F   UNL A   1      47.535  31.223  29.704  1.00  0.00    -0.206 F 
ATOM     95  C   UNL A   1      45.940  33.329  27.240  1.00  0.00     0.060 A 
BRANCH  95  96
ATOM     96  S   UNL A   1      46.311  34.791  26.245  1.00  0.00     0.124 S 
ATOM     97  O   UNL A   1      45.038  35.036  25.574  1.00  0.00    -0.237 OA
ATOM     98  O   UNL A   1      46.694  35.774  27.255  1.00  0.00    -0.237 OA
ATOM     99  O   UNL A   1      47.399  34.346  25.377  1.00  0.00    -0.744 OA
ENDBRANCH  95  96
ENDBRANCH  63  88
ENDBRANCH  37  38
ENDBRANCH  29  32
ENDBRANCH  27  28
ENDBRANCH   1  27
TORSDOF 18
ENDMDL
MODEL 3
REMARK VINA RESULT:     -12.1      3.450      9.512
REMARK SMILES COc1ccc(/C=C(\Sc2nc(C)n[nH]2)C(=O)NCCCNC(=O)c2ccc(-c3c4nc(c(-c5c(F)cc(S(=O)(=O)[O-])cc5F)c5ccc([nH]5)c(-c5c(F)cc(S(=O)(=O)[O-])cc5F)c5nc(c(-c6c(F)cc(S(=O)(=O)[O-])cc6F)c6ccc3[nH]6)C=C5)C=C4)cc2)c(OC)c1
REMARK SMILES IDX 20 1 19 2 18 3 16 4 17 5 8 7 7 8 6 9 3 10 4 11 94 12 5 13
REMARK SMILES IDX 91 14 2 15 1 16 92 17 93 18 9 19 10 20 11 21 15 22 12 23
REMARK SMILES IDX 14 24 13 26 21 27 22 28 23 29 24 31 25 32 26 33 90 34 27 35
REMARK SMILES IDX 89 36 28 37 29 38 30 39 83 40 31 41 88 42 82 43 84 44 32 45
REMARK SMILES IDX 87 46 81 47 80 48 33 50 67 51 46 52 66 53 47 54 50 55 65 56
REMARK SMILES IDX 85 57 48 58 49 59 64 61 86 62 51 63 34 64 35 65 44 66 36 67
REMARK SMILES IDX 37 68 43 69 45 70 38 71 39 72 40 73 41 74 42 75 68 76 69 77
REMARK SMILES IDX 78 78 70 79 71 80 77 81 79 82 72 83 73 84 74 85 75 86 76 87
REMARK SMILES IDX 52 88 53 89 62 90 54 91 55 92 61 93 63 94 56 95 57 96 58 97
REMARK SMILES IDX 59 98 60 99
REMARK H PARENT 18 6 15 25 22 30 84 49 50 60
REMARK Flexibility Score: inf
ROOT
ATOM      1  C   UNL A   1      32.380  28.933  26.985  1.00  0.00     0.042 C 
ENDROOT
BRANCH   1   2
ATOM      2  C   UNL A   1      31.807  29.539  25.693  1.00  0.00     0.118 C 
BRANCH   2   3
ATOM      3  N   UNL A   1      32.770  29.635  24.598  1.00  0.00    -0.352 N 
ATOM      4  C   UNL A   1      33.095  28.868  23.514  1.00  0.00     0.258 C 
ATOM      5  O   UNL A   1      33.853  29.420  22.707  1.00  0.00    -0.269 OA
ATOM      6  H   UNL A   1      33.317  30.451  24.655  1.00  0.00     0.163 HD
BRANCH   4   7
ATOM      7  C   UNL A   1      32.614  27.434  23.256  1.00  0.00     0.081 C 
ATOM      8  C   UNL A   1      33.368  26.486  23.871  1.00  0.00     0.033 C 
BRANCH   8   9
ATOM      9  C   UNL A   1      33.201  25.019  23.933  1.00  0.00     0.018 A 
ATOM     10  C   UNL A   1      33.533  22.275  24.310  1.00  0.00     0.122 A 
ATOM     11  C   UNL A   1      33.871  22.852  23.093  1.00  0.00     0.047 A 
ATOM     12  C   UNL A   1      32.850  23.018  25.269  1.00  0.00     0.093 A 
ATOM     13  C   UNL A   1      33.673  24.217  22.890  1.00  0.00     0.016 A 
ATOM     14  C   UNL A   1      32.624  24.383  25.049  1.00  0.00     0.129 A 
BRANCH  10  15
ATOM     15  O   UNL A   1      34.072  21.050  24.583  1.00  0.00    -0.497 OA
ATOM     16  C   UNL A   1      35.316  21.118  25.257  1.00  0.00     0.278 C 
ENDBRANCH  10  15
BRANCH  14  17
ATOM     17  O   UNL A   1      31.920  25.135  25.960  1.00  0.00    -0.496 OA
ATOM     18  C   UNL A   1      30.544  24.738  26.043  1.00  0.00     0.278 C 
ENDBRANCH  14  17
ENDBRANCH   8   9
BRANCH   7  19
ATOM     19  S   UNL A   1      31.141  27.266  22.375  1.00  0.00    -0.045 SA
BRANCH  19  20
ATOM     20  C   UNL A   1      30.243  28.709  22.378  1.00  0.00     0.188 A 
ATOM     21  N   UNL A   1      29.245  28.935  23.199  1.00  0.00    -0.206 NA
ATOM     22  N   UNL A   1      30.519  29.833  21.667  1.00  0.00    -0.254 N 
ATOM     23  C   UNL A   1      28.885  30.217  22.901  1.00  0.00     0.148 A 
ATOM     24  N   UNL A   1      29.675  30.834  22.010  1.00  0.00    -0.158 NA
ATOM     25  H   UNL A   1      31.235  29.909  20.995  1.00  0.00     0.192 HD
ATOM     26  C   UNL A   1      27.671  30.813  23.494  1.00  0.00     0.092 C 
ENDBRANCH  19  20
ENDBRANCH   7  19
ENDBRANCH   4   7
ENDBRANCH   2   3
ENDBRANCH   1   2
BRANCH   1  27
ATOM     27  C   UNL A   1      33.840  29.296  27.192  1.00  0.00     0.118 C 
BRANCH  27  28
ATOM     28  N   UNL A   1      34.076  30.742  27.078  1.00  0.00    -0.352 N 
ATOM     29  C   UNL A   1      35.082  31.515  27.637  1.00  0.00     0.251 C 
ATOM     30  H   UNL A   1      33.426  31.232  26.526  1.00  0.00     0.163 HD
ATOM     31  O   UNL A   1      34.971  32.724  27.711  1.00  0.00    -0.269 OA
BRANCH  29  32
ATOM     32  C   UNL A   1      36.285  30.832  28.145  1.00  0.00     0.039 A 
ATOM     33  C   UNL A   1      36.499  29.466  27.940  1.00  0.00     0.014 A 
ATOM     34  C   UNL A   1      37.241  31.618  28.775  1.00  0.00     0.014 A 
ATOM     35  C   UNL A   1      37.734  28.925  28.292  1.00  0.00     0.010 A 
ATOM     36  C   UNL A   1      38.512  31.140  28.907  1.00  0.00     0.010 A 
ATOM     37  C   UNL A   1      38.746  29.780  28.752  1.00  0.00    -0.014 A 
BRANCH  37  38
ATOM     38  C   UNL A   1      40.098  29.299  29.006  1.00  0.00     0.031 A 
ATOM     39  C   UNL A   1      40.441  29.129  30.445  1.00  0.00     0.074 A 
ATOM     40  C   UNL A   1      40.873  28.796  28.021  1.00  0.00     0.049 A 
ATOM     41  N   UNL A   1      41.283  29.813  31.146  1.00  0.00    -0.248 NA
ATOM     42  C   UNL A   1      39.640  28.186  31.245  1.00  0.00     0.031 C 
ATOM     43  C   UNL A   1      40.535  28.571  26.608  1.00  0.00     0.029 A 
ATOM     44  N   UNL A   1      42.110  28.246  28.109  1.00  0.00    -0.354 N 
ATOM     45  C   UNL A   1      41.301  29.223  32.407  1.00  0.00     0.074 A 
ATOM     46  C   UNL A   1      40.129  28.390  32.470  1.00  0.00     0.031 C 
ATOM     47  C   UNL A   1      41.416  27.707  26.062  1.00  0.00     0.029 A 
ATOM     48  C   UNL A   1      42.479  27.469  27.018  1.00  0.00     0.049 A 
ATOM     49  H   UNL A   1      42.699  28.386  28.886  1.00  0.00     0.167 HD
ATOM     50  C   UNL A   1      42.413  29.268  33.197  1.00  0.00     0.037 A 
ATOM     51  C   UNL A   1      43.559  26.651  26.941  1.00  0.00     0.037 A 
ATOM     52  C   UNL A   1      43.347  30.258  32.715  1.00  0.00     0.049 A 
ATOM     53  C   UNL A   1      44.511  27.111  27.992  1.00  0.00     0.074 A 
ATOM     54  C   UNL A   1      43.268  31.614  32.455  1.00  0.00     0.029 A 
ATOM     55  N   UNL A   1      44.458  29.817  32.032  1.00  0.00    -0.354 N 
ATOM     56  N   UNL A   1      45.094  28.282  27.980  1.00  0.00    -0.248 NA
ATOM     57  C   UNL A   1      44.420  26.478  29.300  1.00  0.00     0.031 C 
ATOM     58  C   UNL A   1      43.990  31.793  31.237  1.00  0.00     0.029 A 
ATOM     59  C   UNL A   1      44.540  30.560  30.880  1.00  0.00     0.049 A 
ATOM     60  H   UNL A   1      45.076  29.105  32.314  1.00  0.00     0.167 HD
ATOM     61  C   UNL A   1      45.060  28.716  29.299  1.00  0.00     0.074 A 
ATOM     62  C   UNL A   1      44.695  27.531  30.076  1.00  0.00     0.031 C 
ATOM     63  C   UNL A   1      45.035  30.045  29.620  1.00  0.00     0.037 A 
BRANCH  50  64
ATOM     64  C   UNL A   1      42.826  28.185  34.168  1.00  0.00     0.058 A 
ATOM     65  C   UNL A   1      43.023  28.516  35.527  1.00  0.00     0.135 A 
ATOM     66  C   UNL A   1      43.304  26.912  33.783  1.00  0.00     0.135 A 
ATOM     67  F   UNL A   1      42.612  29.700  36.008  1.00  0.00    -0.206 F 
ATOM     68  C   UNL A   1      43.715  27.686  36.408  1.00  0.00     0.059 A 
ATOM     69  C   UNL A   1      43.945  26.045  34.661  1.00  0.00     0.059 A 
ATOM     70  F   UNL A   1      43.266  26.482  32.517  1.00  0.00    -0.206 F 
ATOM     71  C   UNL A   1      44.188  26.457  35.959  1.00  0.00     0.060 A 
BRANCH  71  72
ATOM     72  S   UNL A   1      45.178  25.432  37.058  1.00  0.00     0.124 S 
ATOM     73  O   UNL A   1      44.569  25.722  38.351  1.00  0.00    -0.237 OA
ATOM     74  O   UNL A   1      44.938  24.096  36.523  1.00  0.00    -0.237 OA
ATOM     75  O   UNL A   1      46.531  25.944  36.866  1.00  0.00    -0.744 OA
ENDBRANCH  71  72
ENDBRANCH  50  64
BRANCH  51  76
ATOM     76  C   UNL A   1      43.623  25.307  26.301  1.00  0.00     0.058 A 
ATOM     77  C   UNL A   1      44.542  25.032  25.274  1.00  0.00     0.135 A 
ATOM     78  C   UNL A   1      42.970  24.187  26.860  1.00  0.00     0.135 A 
ATOM     79  F   UNL A   1      45.225  26.031  24.696  1.00  0.00    -0.206 F 
ATOM     80  C   UNL A   1      44.834  23.725  24.861  1.00  0.00     0.059 A 
ATOM     81  C   UNL A   1      43.234  22.878  26.457  1.00  0.00     0.059 A 
ATOM     82  F   UNL A   1      42.115  24.321  27.886  1.00  0.00    -0.206 F 
ATOM     83  C   UNL A   1      44.188  22.651  25.474  1.00  0.00     0.060 A 
BRANCH  83  84
ATOM     84  S   UNL A   1      44.684  20.959  25.071  1.00  0.00     0.124 S 
ATOM     85  O   UNL A   1      44.574  20.948  23.616  1.00  0.00    -0.237 OA
ATOM     86  O   UNL A   1      46.038  20.897  25.609  1.00  0.00    -0.237 OA
ATOM     87  O   UNL A   1      43.700  20.139  25.775  1.00  0.00    -0.744 OA
ENDBRANCH  83  84
ENDBRANCH  51  76
BRANCH  63  88
ATOM     88  C   UNL A   1      45.314  31.070  28.545  1.00  0.00     0.058 A 
ATOM     89  C   UNL A   1      44.347  31.588  27.664  1.00  0.00     0.135 A 
ATOM     90  C   UNL A   1      46.573  31.688  28.539  1.00  0.00     0.135 A 
ATOM     91  F   UNL A   1      43.089  31.134  27.672  1.00  0.00    -0.206 F 
ATOM     92  C   UNL A   1      44.633  32.646  26.793  1.00  0.00     0.059 A 
ATOM     93  C   UNL A   1      46.870  32.762  27.705  1.00  0.00     0.059 A 
ATOM     94  F   UNL A   1      47.524  31.285  29.399  1.00  0.00    -0.206 F 
ATOM     95  C   UNL A   1      45.897  33.230  26.825  1.00  0.00     0.060 A 
BRANCH  95  96
ATOM     96  S   UNL A   1      46.243  34.646  25.758  1.00  0.00     0.124 S 
ATOM     97  O   UNL A   1      47.656  34.457  25.445  1.00  0.00    -0.237 OA
ATOM     98  O   UNL A   1      45.316  34.441  24.648  1.00  0.00    -0.237 OA
ATOM     99  O   UNL A   1      45.940  35.796  26.606  1.00  0.00    -0.744 OA
ENDBRANCH  95  96
ENDBRANCH  63  88
ENDBRANCH  37  38
ENDBRANCH  29  32
ENDBRANCH  27  28
ENDBRANCH   1  27
TORSDOF 18
ENDMDL
