MODEL 1
REMARK VINA RESULT:     -12.2      0.000      0.000
REMARK SMILES Cc1cc(O[C@@H]2C[C@H](C)C[C@H](C)C2)cc(C(=O)NCCCNC(=O)c2ccc(-c3c4nc(c(-c5c(F)cc(S(=O)(=O)[O-])cc5F)c5ccc([nH]5)c(-c5c(F)cc(S(=O)(=O)[O-])cc5F)c5nc(c(-c6c(F)cc(S(=O)(=O)[O-])cc6F)c6ccc3[nH]6)C=C5)C=C4)cc2)c1N
REMARK SMILES IDX 20 1 19 2 18 3 16 4 17 5 15 7 1 8 2 9 3 10 91 11 4 12 14 13
REMARK SMILES IDX 92 14 5 17 6 18 13 19 7 20 11 21 8 22 12 23 10 24 9 25 21 26
REMARK SMILES IDX 22 27 23 28 24 30 25 31 26 32 90 33 27 34 89 35 28 36 29 37
REMARK SMILES IDX 30 38 83 39 31 40 88 41 82 42 84 43 32 44 87 45 81 46 80 47
REMARK SMILES IDX 33 49 67 50 46 51 66 52 47 53 50 54 65 55 85 56 48 57 49 58
REMARK SMILES IDX 64 60 86 61 51 62 34 63 35 64 44 65 36 66 37 67 43 68 45 69
REMARK SMILES IDX 38 70 39 71 40 72 41 73 42 74 68 75 69 76 78 77 70 78 71 79
REMARK SMILES IDX 77 80 79 81 72 82 73 83 74 84 75 85 76 86 52 87 53 88 62 89
REMARK SMILES IDX 54 90 55 91 61 92 63 93 56 94 57 95 58 96 59 97 60 98
REMARK H PARENT 18 6 92 15 92 16 22 29 84 48 50 59
REMARK Flexibility Score: inf
ROOT
ATOM      1  C   UNL A   1      34.289  30.680  27.540  1.00  0.00     0.042 C 
ENDROOT
BRANCH   1   2
ATOM      2  C   UNL A   1      34.481  29.274  26.978  1.00  0.00     0.118 C 
BRANCH   2   3
ATOM      3  N   UNL A   1      34.300  29.296  25.543  1.00  0.00    -0.352 N 
ATOM      4  C   UNL A   1      33.871  28.389  24.617  1.00  0.00     0.253 C 
ATOM      5  O   UNL A   1      33.911  28.788  23.448  1.00  0.00    -0.269 OA
ATOM      6  H   UNL A   1      34.542  30.163  25.142  1.00  0.00     0.163 HD
BRANCH   4   7
ATOM      7  C   UNL A   1      33.297  27.041  24.946  1.00  0.00     0.066 A 
ATOM      8  C   UNL A   1      29.943  25.516  25.942  1.00  0.00     0.047 C 
ATOM      9  C   UNL A   1      31.429  25.737  25.805  1.00  0.00    -0.024 A 
ATOM     10  C   UNL A   1      32.283  24.635  25.938  1.00  0.00     0.052 A 
ATOM     11  C   UNL A   1      31.939  26.970  25.354  1.00  0.00     0.048 A 
ATOM     12  C   UNL A   1      33.437  24.619  25.179  1.00  0.00     0.120 A 
ATOM     13  C   UNL A   1      33.991  25.833  24.767  1.00  0.00     0.062 A 
BRANCH  11  14
ATOM     14  N   UNL A   1      31.051  28.023  25.118  1.00  0.00    -0.398 N 
ATOM     15  H   UNL A   1      31.394  28.906  24.851  1.00  0.00     0.156 HD
ATOM     16  H   UNL A   1      30.082  27.881  25.220  1.00  0.00     0.156 HD
ENDBRANCH  11  14
BRANCH  12  17
ATOM     17  O   UNL A   1      33.983  23.476  24.641  1.00  0.00    -0.490 OA
BRANCH  17  18
ATOM     18  C   UNL A   1      34.734  22.557  25.498  1.00  0.00     0.173 C 
ATOM     19  C   UNL A   1      35.427  21.359  24.856  1.00  0.00     0.048 C 
ATOM     20  C   UNL A   1      35.817  23.346  26.315  1.00  0.00     0.048 C 
ATOM     21  C   UNL A   1      36.695  21.731  24.084  1.00  0.00    -0.010 C 
ATOM     22  C   UNL A   1      37.335  22.890  26.237  1.00  0.00    -0.010 C 
ATOM     23  C   UNL A   1      36.726  23.010  23.237  1.00  0.00     0.008 C 
ATOM     24  C   UNL A   1      37.737  21.845  25.171  1.00  0.00     0.007 C 
ATOM     25  C   UNL A   1      38.284  24.097  26.142  1.00  0.00     0.008 C 
ENDBRANCH  17  18
ENDBRANCH  12  17
ENDBRANCH   4   7
ENDBRANCH   2   3
ENDBRANCH   1   2
BRANCH   1  26
ATOM     26  C   UNL A   1      35.581  31.232  28.137  1.00  0.00     0.118 C 
BRANCH  26  27
ATOM     27  N   UNL A   1      35.533  31.222  29.598  1.00  0.00    -0.352 N 
ATOM     28  C   UNL A   1      36.337  30.565  30.486  1.00  0.00     0.251 C 
ATOM     29  H   UNL A   1      34.818  31.767  29.999  1.00  0.00     0.163 HD
ATOM     30  O   UNL A   1      35.953  30.384  31.646  1.00  0.00    -0.269 OA
BRANCH  28  31
ATOM     31  C   UNL A   1      37.663  30.096  30.056  1.00  0.00     0.039 A 
ATOM     32  C   UNL A   1      37.985  30.085  28.698  1.00  0.00     0.014 A 
ATOM     33  C   UNL A   1      38.582  29.648  31.009  1.00  0.00     0.014 A 
ATOM     34  C   UNL A   1      39.255  29.670  28.302  1.00  0.00     0.010 A 
ATOM     35  C   UNL A   1      39.873  29.328  30.622  1.00  0.00     0.010 A 
ATOM     36  C   UNL A   1      40.218  29.320  29.264  1.00  0.00    -0.014 A 
BRANCH  36  37
ATOM     37  C   UNL A   1      41.592  28.924  28.880  1.00  0.00     0.031 A 
ATOM     38  C   UNL A   1      42.679  29.964  28.825  1.00  0.00     0.074 A 
ATOM     39  C   UNL A   1      41.832  27.655  28.499  1.00  0.00     0.049 A 
ATOM     40  N   UNL A   1      43.912  29.846  28.413  1.00  0.00    -0.248 NA
ATOM     41  C   UNL A   1      42.319  31.325  29.260  1.00  0.00     0.031 C 
ATOM     42  C   UNL A   1      40.837  26.581  28.459  1.00  0.00     0.029 A 
ATOM     43  N   UNL A   1      42.984  27.055  28.057  1.00  0.00    -0.354 N 
ATOM     44  C   UNL A   1      44.468  31.116  28.516  1.00  0.00     0.074 A 
ATOM     45  C   UNL A   1      43.421  32.001  28.974  1.00  0.00     0.031 C 
ATOM     46  C   UNL A   1      41.426  25.450  28.039  1.00  0.00     0.029 A 
ATOM     47  C   UNL A   1      42.825  25.728  27.736  1.00  0.00     0.049 A 
ATOM     48  H   UNL A   1      43.842  27.530  27.979  1.00  0.00     0.167 HD
ATOM     49  C   UNL A   1      45.744  31.500  28.275  1.00  0.00     0.037 A 
ATOM     50  C   UNL A   1      43.708  24.841  27.238  1.00  0.00     0.037 A 
ATOM     51  C   UNL A   1      46.780  30.597  27.850  1.00  0.00     0.049 A 
ATOM     52  C   UNL A   1      45.121  25.290  26.985  1.00  0.00     0.074 A 
ATOM     53  C   UNL A   1      48.121  30.865  27.641  1.00  0.00     0.029 A 
ATOM     54  N   UNL A   1      46.590  29.251  27.566  1.00  0.00    -0.354 N 
ATOM     55  N   UNL A   1      45.650  26.480  27.154  1.00  0.00    -0.248 NA
ATOM     56  C   UNL A   1      46.060  24.280  26.480  1.00  0.00     0.031 C 
ATOM     57  C   UNL A   1      48.731  29.694  27.182  1.00  0.00     0.029 A 
ATOM     58  C   UNL A   1      47.784  28.681  27.161  1.00  0.00     0.049 A 
ATOM     59  H   UNL A   1      45.733  28.774  27.642  1.00  0.00     0.167 HD
ATOM     60  C   UNL A   1      46.989  26.354  26.804  1.00  0.00     0.074 A 
ATOM     61  C   UNL A   1      47.191  24.970  26.426  1.00  0.00     0.031 C 
ATOM     62  C   UNL A   1      47.964  27.297  26.798  1.00  0.00     0.037 A 
BRANCH  49  63
ATOM     63  C   UNL A   1      46.089  32.951  28.472  1.00  0.00     0.058 A 
ATOM     64  C   UNL A   1      45.992  33.884  27.427  1.00  0.00     0.135 A 
ATOM     65  C   UNL A   1      46.488  33.424  29.733  1.00  0.00     0.135 A 
ATOM     66  F   UNL A   1      45.634  33.485  26.195  1.00  0.00    -0.206 F 
ATOM     67  C   UNL A   1      46.301  35.226  27.617  1.00  0.00     0.059 A 
ATOM     68  C   UNL A   1      46.771  34.769  29.954  1.00  0.00     0.059 A 
ATOM     69  F   UNL A   1      46.602  32.577  30.768  1.00  0.00    -0.206 F 
ATOM     70  C   UNL A   1      46.687  35.660  28.886  1.00  0.00     0.060 A 
BRANCH  70  71
ATOM     71  S   UNL A   1      47.066  37.409  29.118  1.00  0.00     0.124 S 
ATOM     72  O   UNL A   1      45.879  38.042  28.549  1.00  0.00    -0.237 OA
ATOM     73  O   UNL A   1      47.201  37.508  30.569  1.00  0.00    -0.237 OA
ATOM     74  O   UNL A   1      48.300  37.595  28.362  1.00  0.00    -0.744 OA
ENDBRANCH  70  71
ENDBRANCH  49  63
BRANCH  50  75
ATOM     75  C   UNL A   1      43.282  23.442  26.968  1.00  0.00     0.058 A 
ATOM     76  C   UNL A   1      43.052  22.996  25.659  1.00  0.00     0.135 A 
ATOM     77  C   UNL A   1      43.119  22.516  28.011  1.00  0.00     0.135 A 
ATOM     78  F   UNL A   1      43.192  23.843  24.628  1.00  0.00    -0.206 F 
ATOM     79  C   UNL A   1      42.659  21.688  25.391  1.00  0.00     0.059 A 
ATOM     80  C   UNL A   1      42.754  21.195  27.767  1.00  0.00     0.059 A 
ATOM     81  F   UNL A   1      43.346  22.885  29.281  1.00  0.00    -0.206 F 
ATOM     82  C   UNL A   1      42.516  20.794  26.453  1.00  0.00     0.060 A 
BRANCH  82  83
ATOM     83  S   UNL A   1      42.051  19.087  26.090  1.00  0.00     0.124 S 
ATOM     84  O   UNL A   1      42.462  18.405  27.312  1.00  0.00    -0.237 OA
ATOM     85  O   UNL A   1      40.612  19.201  25.873  1.00  0.00    -0.237 OA
ATOM     86  O   UNL A   1      42.833  18.773  24.897  1.00  0.00    -0.744 OA
ENDBRANCH  82  83
ENDBRANCH  50  75
BRANCH  62  87
ATOM     87  C   UNL A   1      49.348  26.860  26.406  1.00  0.00     0.058 A 
ATOM     88  C   UNL A   1      50.218  26.249  27.322  1.00  0.00     0.135 A 
ATOM     89  C   UNL A   1      49.781  26.991  25.076  1.00  0.00     0.135 A 
ATOM     90  F   UNL A   1      49.854  26.106  28.607  1.00  0.00    -0.206 F 
ATOM     91  C   UNL A   1      51.476  25.799  26.938  1.00  0.00     0.059 A 
ATOM     92  C   UNL A   1      51.023  26.521  24.663  1.00  0.00     0.059 A 
ATOM     93  F   UNL A   1      48.983  27.560  24.159  1.00  0.00    -0.206 F 
ATOM     94  C   UNL A   1      51.867  25.935  25.605  1.00  0.00     0.060 A 
BRANCH  94  95
ATOM     95  S   UNL A   1      53.484  25.303  25.111  1.00  0.00     0.124 S 
ATOM     96  O   UNL A   1      53.339  23.877  25.382  1.00  0.00    -0.237 OA
ATOM     97  O   UNL A   1      53.547  25.678  23.701  1.00  0.00    -0.237 OA
ATOM     98  O   UNL A   1      54.410  26.017  25.985  1.00  0.00    -0.744 OA
ENDBRANCH  94  95
ENDBRANCH  62  87
ENDBRANCH  36  37
ENDBRANCH  28  31
ENDBRANCH  26  27
ENDBRANCH   1  26
TORSDOF 16
ENDMDL
MODEL 2
REMARK VINA RESULT:     -12.2      6.564     12.050
REMARK SMILES Cc1cc(O[C@@H]2C[C@H](C)C[C@H](C)C2)cc(C(=O)NCCCNC(=O)c2ccc(-c3c4nc(c(-c5c(F)cc(S(=O)(=O)[O-])cc5F)c5ccc([nH]5)c(-c5c(F)cc(S(=O)(=O)[O-])cc5F)c5nc(c(-c6c(F)cc(S(=O)(=O)[O-])cc6F)c6ccc3[nH]6)C=C5)C=C4)cc2)c1N
REMARK SMILES IDX 20 1 19 2 18 3 16 4 17 5 15 7 1 8 2 9 3 10 91 11 4 12 14 13
REMARK SMILES IDX 92 14 5 17 6 18 13 19 7 20 11 21 8 22 12 23 10 24 9 25 21 26
REMARK SMILES IDX 22 27 23 28 24 30 25 31 26 32 90 33 27 34 89 35 28 36 29 37
REMARK SMILES IDX 30 38 83 39 31 40 88 41 82 42 84 43 32 44 87 45 81 46 80 47
REMARK SMILES IDX 33 49 67 50 46 51 66 52 47 53 50 54 65 55 85 56 48 57 49 58
REMARK SMILES IDX 64 60 86 61 51 62 34 63 35 64 44 65 36 66 37 67 43 68 45 69
REMARK SMILES IDX 38 70 39 71 40 72 41 73 42 74 68 75 69 76 78 77 70 78 71 79
REMARK SMILES IDX 77 80 79 81 72 82 73 83 74 84 75 85 76 86 52 87 53 88 62 89
REMARK SMILES IDX 54 90 55 91 61 92 63 93 56 94 57 95 58 96 59 97 60 98
REMARK H PARENT 18 6 92 15 92 16 22 29 84 48 50 59
REMARK Flexibility Score: inf
ROOT
ATOM      1  C   UNL A   1      37.470  23.785  25.595  1.00  0.00     0.042 C 
ENDROOT
BRANCH   1   2
ATOM      2  C   UNL A   1      37.275  22.273  25.654  1.00  0.00     0.118 C 
BRANCH   2   3
ATOM      3  N   UNL A   1      36.154  21.961  26.515  1.00  0.00    -0.352 N 
ATOM      4  C   UNL A   1      34.798  22.063  26.399  1.00  0.00     0.253 C 
ATOM      5  O   UNL A   1      34.168  21.731  27.408  1.00  0.00    -0.269 OA
ATOM      6  H   UNL A   1      36.434  21.592  27.384  1.00  0.00     0.163 HD
BRANCH   4   7
ATOM      7  C   UNL A   1      34.077  22.450  25.139  1.00  0.00     0.066 A 
ATOM      8  C   UNL A   1      31.997  20.794  22.401  1.00  0.00     0.047 C 
ATOM      9  C   UNL A   1      32.923  21.749  23.114  1.00  0.00    -0.024 A 
ATOM     10  C   UNL A   1      33.063  23.046  22.606  1.00  0.00     0.052 A 
ATOM     11  C   UNL A   1      33.474  21.422  24.368  1.00  0.00     0.048 A 
ATOM     12  C   UNL A   1      33.272  24.072  23.507  1.00  0.00     0.120 A 
ATOM     13  C   UNL A   1      33.869  23.779  24.737  1.00  0.00     0.062 A 
BRANCH  11  14
ATOM     14  N   UNL A   1      33.223  20.158  24.907  1.00  0.00    -0.398 N 
ATOM     15  H   UNL A   1      32.795  20.075  25.790  1.00  0.00     0.156 HD
ATOM     16  H   UNL A   1      33.476  19.350  24.404  1.00  0.00     0.156 HD
ENDBRANCH  11  14
BRANCH  12  17
ATOM     17  O   UNL A   1      32.765  25.342  23.354  1.00  0.00    -0.490 OA
BRANCH  17  18
ATOM     18  C   UNL A   1      31.475  25.533  22.690  1.00  0.00     0.173 C 
ATOM     19  C   UNL A   1      30.213  25.021  23.379  1.00  0.00     0.048 C 
ATOM     20  C   UNL A   1      31.253  27.053  22.369  1.00  0.00     0.048 C 
ATOM     21  C   UNL A   1      29.772  25.887  24.561  1.00  0.00    -0.010 C 
ATOM     22  C   UNL A   1      29.937  27.773  22.887  1.00  0.00    -0.010 C 
ATOM     23  C   UNL A   1      30.823  26.470  25.515  1.00  0.00     0.008 C 
ATOM     24  C   UNL A   1      29.035  27.026  23.896  1.00  0.00     0.007 C 
ATOM     25  C   UNL A   1      30.238  29.182  23.427  1.00  0.00     0.008 C 
ENDBRANCH  17  18
ENDBRANCH  12  17
ENDBRANCH   4   7
ENDBRANCH   2   3
ENDBRANCH   1   2
BRANCH   1  26
ATOM     26  C   UNL A   1      38.456  24.270  26.655  1.00  0.00     0.118 C 
BRANCH  26  27
ATOM     27  N   UNL A   1      39.837  24.094  26.210  1.00  0.00    -0.352 N 
ATOM     28  C   UNL A   1      40.925  24.892  26.428  1.00  0.00     0.251 C 
ATOM     29  H   UNL A   1      40.008  23.285  25.676  1.00  0.00     0.163 HD
ATOM     30  O   UNL A   1      41.920  24.786  25.703  1.00  0.00    -0.269 OA
BRANCH  28  31
ATOM     31  C   UNL A   1      40.908  25.857  27.538  1.00  0.00     0.039 A 
ATOM     32  C   UNL A   1      41.851  26.885  27.576  1.00  0.00     0.014 A 
ATOM     33  C   UNL A   1      39.959  25.724  28.556  1.00  0.00     0.014 A 
ATOM     34  C   UNL A   1      41.806  27.814  28.613  1.00  0.00     0.010 A 
ATOM     35  C   UNL A   1      39.857  26.702  29.533  1.00  0.00     0.010 A 
ATOM     36  C   UNL A   1      40.789  27.746  29.581  1.00  0.00    -0.014 A 
BRANCH  36  37
ATOM     37  C   UNL A   1      40.683  28.747  30.667  1.00  0.00     0.031 A 
ATOM     38  C   UNL A   1      41.552  28.615  31.888  1.00  0.00     0.074 A 
ATOM     39  C   UNL A   1      39.750  29.714  30.586  1.00  0.00     0.049 A 
ATOM     40  N   UNL A   1      41.539  29.317  32.990  1.00  0.00    -0.248 NA
ATOM     41  C   UNL A   1      42.544  27.525  31.885  1.00  0.00     0.031 C 
ATOM     42  C   UNL A   1      38.816  29.898  29.472  1.00  0.00     0.029 A 
ATOM     43  N   UNL A   1      39.419  30.715  31.464  1.00  0.00    -0.354 N 
ATOM     44  C   UNL A   1      42.498  28.744  33.815  1.00  0.00     0.074 A 
ATOM     45  C   UNL A   1      43.034  27.599  33.113  1.00  0.00     0.031 C 
ATOM     46  C   UNL A   1      38.034  30.961  29.724  1.00  0.00     0.029 A 
ATOM     47  C   UNL A   1      38.378  31.503  31.033  1.00  0.00     0.049 A 
ATOM     48  H   UNL A   1      39.883  30.855  32.320  1.00  0.00     0.167 HD
ATOM     49  C   UNL A   1      42.912  29.153  35.037  1.00  0.00     0.037 A 
ATOM     50  C   UNL A   1      37.761  32.537  31.636  1.00  0.00     0.037 A 
ATOM     51  C   UNL A   1      42.389  30.313  35.708  1.00  0.00     0.049 A 
ATOM     52  C   UNL A   1      38.244  32.977  32.992  1.00  0.00     0.074 A 
ATOM     53  C   UNL A   1      42.782  30.857  36.918  1.00  0.00     0.029 A 
ATOM     54  N   UNL A   1      41.357  31.107  35.226  1.00  0.00    -0.354 N 
ATOM     55  N   UNL A   1      39.201  32.466  33.730  1.00  0.00    -0.248 NA
ATOM     56  C   UNL A   1      37.569  34.134  33.594  1.00  0.00     0.031 C 
ATOM     57  C   UNL A   1      41.953  31.949  37.192  1.00  0.00     0.029 A 
ATOM     58  C   UNL A   1      41.084  32.123  36.126  1.00  0.00     0.049 A 
ATOM     59  H   UNL A   1      40.890  30.969  34.371  1.00  0.00     0.167 HD
ATOM     60  C   UNL A   1      39.262  33.257  34.872  1.00  0.00     0.074 A 
ATOM     61  C   UNL A   1      38.254  34.287  34.719  1.00  0.00     0.031 C 
ATOM     62  C   UNL A   1      40.081  33.143  35.948  1.00  0.00     0.037 A 
BRANCH  49  63
ATOM     63  C   UNL A   1      43.983  28.347  35.722  1.00  0.00     0.058 A 
ATOM     64  C   UNL A   1      45.348  28.602  35.514  1.00  0.00     0.135 A 
ATOM     65  C   UNL A   1      43.641  27.330  36.628  1.00  0.00     0.135 A 
ATOM     66  F   UNL A   1      45.735  29.551  34.644  1.00  0.00    -0.206 F 
ATOM     67  C   UNL A   1      46.334  27.864  36.158  1.00  0.00     0.059 A 
ATOM     68  C   UNL A   1      44.611  26.599  37.309  1.00  0.00     0.059 A 
ATOM     69  F   UNL A   1      42.352  27.040  36.864  1.00  0.00    -0.206 F 
ATOM     70  C   UNL A   1      45.955  26.866  37.057  1.00  0.00     0.060 A 
BRANCH  70  71
ATOM     71  S   UNL A   1      47.249  25.929  37.899  1.00  0.00     0.124 S 
ATOM     72  O   UNL A   1      46.858  24.555  37.596  1.00  0.00    -0.237 OA
ATOM     73  O   UNL A   1      48.459  26.403  37.233  1.00  0.00    -0.237 OA
ATOM     74  O   UNL A   1      47.107  26.329  39.295  1.00  0.00    -0.744 OA
ENDBRANCH  70  71
ENDBRANCH  49  63
BRANCH  50  75
ATOM     75  C   UNL A   1      36.639  33.234  30.952  1.00  0.00     0.058 A 
ATOM     76  C   UNL A   1      36.872  34.067  29.849  1.00  0.00     0.135 A 
ATOM     77  C   UNL A   1      35.310  33.060  31.370  1.00  0.00     0.135 A 
ATOM     78  F   UNL A   1      38.124  34.267  29.411  1.00  0.00    -0.206 F 
ATOM     79  C   UNL A   1      35.832  34.720  29.195  1.00  0.00     0.059 A 
ATOM     80  C   UNL A   1      34.250  33.680  30.715  1.00  0.00     0.059 A 
ATOM     81  F   UNL A   1      35.031  32.257  32.407  1.00  0.00    -0.206 F 
ATOM     82  C   UNL A   1      34.523  34.517  29.634  1.00  0.00     0.060 A 
BRANCH  82  83
ATOM     83  S   UNL A   1      33.176  35.333  28.748  1.00  0.00     0.124 S 
ATOM     84  O   UNL A   1      32.597  34.219  28.007  1.00  0.00    -0.237 OA
ATOM     85  O   UNL A   1      32.368  35.863  29.842  1.00  0.00    -0.237 OA
ATOM     86  O   UNL A   1      33.865  36.338  27.943  1.00  0.00    -0.744 OA
ENDBRANCH  82  83
ENDBRANCH  50  75
BRANCH  62  87
ATOM     87  C   UNL A   1      39.950  34.179  37.031  1.00  0.00     0.058 A 
ATOM     88  C   UNL A   1      40.604  35.417  36.952  1.00  0.00     0.135 A 
ATOM     89  C   UNL A   1      39.099  33.953  38.126  1.00  0.00     0.135 A 
ATOM     90  F   UNL A   1      41.433  35.681  35.929  1.00  0.00    -0.206 F 
ATOM     91  C   UNL A   1      40.435  36.390  37.931  1.00  0.00     0.059 A 
ATOM     92  C   UNL A   1      38.891  34.922  39.100  1.00  0.00     0.059 A 
ATOM     93  F   UNL A   1      38.442  32.788  38.242  1.00  0.00    -0.206 F 
ATOM     94  C   UNL A   1      39.571  36.134  38.999  1.00  0.00     0.060 A 
BRANCH  94  95
ATOM     95  S   UNL A   1      39.324  37.425  40.236  1.00  0.00     0.124 S 
ATOM     96  O   UNL A   1      38.742  36.668  41.339  1.00  0.00    -0.237 OA
ATOM     97  O   UNL A   1      40.683  37.914  40.451  1.00  0.00    -0.237 OA
ATOM     98  O   UNL A   1      38.423  38.364  39.575  1.00  0.00    -0.744 OA
ENDBRANCH  94  95
ENDBRANCH  62  87
ENDBRANCH  36  37
ENDBRANCH  28  31
ENDBRANCH  26  27
ENDBRANCH   1  26
TORSDOF 16
ENDMDL
MODEL 3
REMARK VINA RESULT:     -12.2      6.559     11.906
REMARK SMILES Cc1cc(O[C@@H]2C[C@H](C)C[C@H](C)C2)cc(C(=O)NCCCNC(=O)c2ccc(-c3c4nc(c(-c5c(F)cc(S(=O)(=O)[O-])cc5F)c5ccc([nH]5)c(-c5c(F)cc(S(=O)(=O)[O-])cc5F)c5nc(c(-c6c(F)cc(S(=O)(=O)[O-])cc6F)c6ccc3[nH]6)C=C5)C=C4)cc2)c1N
REMARK SMILES IDX 20 1 19 2 18 3 16 4 17 5 15 7 1 8 2 9 3 10 91 11 4 12 14 13
REMARK SMILES IDX 92 14 5 17 6 18 13 19 7 20 11 21 8 22 12 23 10 24 9 25 21 26
REMARK SMILES IDX 22 27 23 28 24 30 25 31 26 32 90 33 27 34 89 35 28 36 29 37
REMARK SMILES IDX 30 38 83 39 31 40 88 41 82 42 84 43 32 44 87 45 81 46 80 47
REMARK SMILES IDX 33 49 67 50 46 51 66 52 47 53 50 54 65 55 85 56 48 57 49 58
REMARK SMILES IDX 64 60 86 61 51 62 34 63 35 64 44 65 36 66 37 67 43 68 45 69
REMARK SMILES IDX 38 70 39 71 40 72 41 73 42 74 68 75 69 76 78 77 70 78 71 79
REMARK SMILES IDX 77 80 79 81 72 82 73 83 74 84 75 85 76 86 52 87 53 88 62 89
REMARK SMILES IDX 54 90 55 91 61 92 63 93 56 94 57 95 58 96 59 97 60 98
REMARK H PARENT 18 6 92 15 92 16 22 29 84 48 50 59
REMARK Flexibility Score: inf
ROOT
ATOM      1  C   UNL A   1      38.786  22.658  26.329  1.00  0.00     0.042 C 
ENDROOT
BRANCH   1   2
ATOM      2  C   UNL A   1      37.629  23.569  25.930  1.00  0.00     0.118 C 
BRANCH   2   3
ATOM      3  N   UNL A   1      37.400  23.466  24.505  1.00  0.00    -0.352 N 
ATOM      4  C   UNL A   1      36.375  23.006  23.729  1.00  0.00     0.253 C 
ATOM      5  O   UNL A   1      36.592  23.044  22.514  1.00  0.00    -0.269 OA
ATOM      6  H   UNL A   1      38.156  23.805  23.973  1.00  0.00     0.163 HD
BRANCH   4   7
ATOM      7  C   UNL A   1      35.037  22.570  24.255  1.00  0.00     0.066 A 
ATOM      8  C   UNL A   1      31.367  23.567  23.937  1.00  0.00     0.047 C 
ATOM      9  C   UNL A   1      32.658  23.025  24.499  1.00  0.00    -0.024 A 
ATOM     10  C   UNL A   1      32.592  22.049  25.501  1.00  0.00     0.052 A 
ATOM     11  C   UNL A   1      33.894  23.333  23.899  1.00  0.00     0.048 A 
ATOM     12  C   UNL A   1      33.582  21.086  25.528  1.00  0.00     0.120 A 
ATOM     13  C   UNL A   1      34.834  21.389  24.987  1.00  0.00     0.062 A 
BRANCH  11  14
ATOM     14  N   UNL A   1      33.919  24.224  22.823  1.00  0.00    -0.398 N 
ATOM     15  H   UNL A   1      34.610  24.138  22.127  1.00  0.00     0.156 HD
ATOM     16  H   UNL A   1      33.245  24.939  22.760  1.00  0.00     0.156 HD
ENDBRANCH  11  14
BRANCH  12  17
ATOM     17  O   UNL A   1      33.366  19.776  25.888  1.00  0.00    -0.490 OA
BRANCH  17  18
ATOM     18  C   UNL A   1      32.508  18.927  25.060  1.00  0.00     0.173 C 
ATOM     19  C   UNL A   1      32.903  18.683  23.607  1.00  0.00     0.048 C 
ATOM     20  C   UNL A   1      32.321  17.525  25.739  1.00  0.00     0.048 C 
ATOM     21  C   UNL A   1      34.076  17.713  23.449  1.00  0.00    -0.010 C 
ATOM     22  C   UNL A   1      32.673  16.211  24.920  1.00  0.00    -0.010 C 
ATOM     23  C   UNL A   1      35.258  17.778  24.425  1.00  0.00     0.008 C 
ATOM     24  C   UNL A   1      33.420  16.359  23.574  1.00  0.00     0.007 C 
ATOM     25  C   UNL A   1      33.408  15.180  25.794  1.00  0.00     0.008 C 
ENDBRANCH  17  18
ENDBRANCH  12  17
ENDBRANCH   4   7
ENDBRANCH   2   3
ENDBRANCH   1   2
BRANCH   1  26
ATOM     26  C   UNL A   1      39.863  23.416  27.102  1.00  0.00     0.118 C 
BRANCH  26  27
ATOM     27  N   UNL A   1      40.886  23.942  26.202  1.00  0.00    -0.352 N 
ATOM     28  C   UNL A   1      41.347  25.222  26.068  1.00  0.00     0.251 C 
ATOM     29  H   UNL A   1      41.304  23.279  25.606  1.00  0.00     0.163 HD
ATOM     30  O   UNL A   1      41.948  25.555  25.042  1.00  0.00    -0.269 OA
BRANCH  28  31
ATOM     31  C   UNL A   1      41.139  26.186  27.160  1.00  0.00     0.039 A 
ATOM     32  C   UNL A   1      40.188  25.920  28.146  1.00  0.00     0.014 A 
ATOM     33  C   UNL A   1      41.883  27.369  27.189  1.00  0.00     0.014 A 
ATOM     34  C   UNL A   1      40.021  26.823  29.194  1.00  0.00     0.010 A 
ATOM     35  C   UNL A   1      41.783  28.217  28.280  1.00  0.00     0.010 A 
ATOM     36  C   UNL A   1      40.840  27.961  29.285  1.00  0.00    -0.014 A 
BRANCH  36  37
ATOM     37  C   UNL A   1      40.724  28.914  30.412  1.00  0.00     0.031 A 
ATOM     38  C   UNL A   1      41.600  28.744  31.624  1.00  0.00     0.074 A 
ATOM     39  C   UNL A   1      39.774  29.867  30.377  1.00  0.00     0.049 A 
ATOM     40  N   UNL A   1      41.580  29.400  32.754  1.00  0.00    -0.248 NA
ATOM     41  C   UNL A   1      42.609  27.672  31.570  1.00  0.00     0.031 C 
ATOM     42  C   UNL A   1      38.832  30.083  29.275  1.00  0.00     0.029 A 
ATOM     43  N   UNL A   1      39.431  30.825  31.297  1.00  0.00    -0.354 N 
ATOM     44  C   UNL A   1      42.553  28.808  33.551  1.00  0.00     0.074 A 
ATOM     45  C   UNL A   1      43.104  27.703  32.798  1.00  0.00     0.031 C 
ATOM     46  C   UNL A   1      38.034  31.120  29.574  1.00  0.00     0.029 A 
ATOM     47  C   UNL A   1      38.375  31.613  30.904  1.00  0.00     0.049 A 
ATOM     48  H   UNL A   1      39.897  30.937  32.156  1.00  0.00     0.167 HD
ATOM     49  C   UNL A   1      42.966  29.172  34.787  1.00  0.00     0.037 A 
ATOM     50  C   UNL A   1      37.744  32.610  31.552  1.00  0.00     0.037 A 
ATOM     51  C   UNL A   1      42.427  30.294  35.508  1.00  0.00     0.049 A 
ATOM     52  C   UNL A   1      38.226  33.001  32.923  1.00  0.00     0.074 A 
ATOM     53  C   UNL A   1      42.817  30.793  36.738  1.00  0.00     0.029 A 
ATOM     54  N   UNL A   1      41.380  31.091  35.064  1.00  0.00    -0.354 N 
ATOM     55  N   UNL A   1      39.195  32.476  33.636  1.00  0.00    -0.248 NA
ATOM     56  C   UNL A   1      37.536  34.120  33.577  1.00  0.00     0.031 C 
ATOM     57  C   UNL A   1      41.972  31.859  37.061  1.00  0.00     0.029 A 
ATOM     58  C   UNL A   1      41.095  32.063  36.007  1.00  0.00     0.049 A 
ATOM     59  H   UNL A   1      40.911  30.981  34.206  1.00  0.00     0.167 HD
ATOM     60  C   UNL A   1      39.249  33.219  34.809  1.00  0.00     0.074 A 
ATOM     61  C   UNL A   1      38.224  34.237  34.704  1.00  0.00     0.031 C 
ATOM     62  C   UNL A   1      40.074  33.074  35.876  1.00  0.00     0.037 A 
BRANCH  49  63
ATOM     63  C   UNL A   1      44.053  28.356  35.433  1.00  0.00     0.058 A 
ATOM     64  C   UNL A   1      45.413  28.652  35.243  1.00  0.00     0.135 A 
ATOM     65  C   UNL A   1      43.732  27.287  36.285  1.00  0.00     0.135 A 
ATOM     66  F   UNL A   1      45.780  29.652  34.424  1.00  0.00    -0.206 F 
ATOM     67  C   UNL A   1      46.414  27.904  35.852  1.00  0.00     0.059 A 
ATOM     68  C   UNL A   1      44.716  26.543  36.930  1.00  0.00     0.059 A 
ATOM     69  F   UNL A   1      42.449  26.956  36.501  1.00  0.00    -0.206 F 
ATOM     70  C   UNL A   1      46.055  26.852  36.697  1.00  0.00     0.060 A 
BRANCH  70  71
ATOM     71  S   UNL A   1      47.368  25.903  37.493  1.00  0.00     0.124 S 
ATOM     72  O   UNL A   1      48.064  25.343  36.338  1.00  0.00    -0.237 OA
ATOM     73  O   UNL A   1      48.093  26.933  38.231  1.00  0.00    -0.237 OA
ATOM     74  O   UNL A   1      46.642  24.940  38.315  1.00  0.00    -0.744 OA
ENDBRANCH  70  71
ENDBRANCH  49  63
BRANCH  50  75
ATOM     75  C   UNL A   1      36.608  33.317  30.902  1.00  0.00     0.058 A 
ATOM     76  C   UNL A   1      36.820  34.185  29.822  1.00  0.00     0.135 A 
ATOM     77  C   UNL A   1      35.286  33.118  31.331  1.00  0.00     0.135 A 
ATOM     78  F   UNL A   1      38.065  34.410  29.376  1.00  0.00    -0.206 F 
ATOM     79  C   UNL A   1      35.766  34.848  29.200  1.00  0.00     0.059 A 
ATOM     80  C   UNL A   1      34.212  33.747  30.707  1.00  0.00     0.059 A 
ATOM     81  F   UNL A   1      35.026  32.281  32.346  1.00  0.00    -0.206 F 
ATOM     82  C   UNL A   1      34.464  34.619  29.649  1.00  0.00     0.060 A 
BRANCH  82  83
ATOM     83  S   UNL A   1      33.100  35.448  28.804  1.00  0.00     0.124 S 
ATOM     84  O   UNL A   1      32.521  34.351  28.037  1.00  0.00    -0.237 OA
ATOM     85  O   UNL A   1      32.301  35.939  29.922  1.00  0.00    -0.237 OA
ATOM     86  O   UNL A   1      33.769  36.483  28.020  1.00  0.00    -0.744 OA
ENDBRANCH  82  83
ENDBRANCH  50  75
BRANCH  62  87
ATOM     87  C   UNL A   1      39.931  34.060  37.002  1.00  0.00     0.058 A 
ATOM     88  C   UNL A   1      40.583  35.303  36.983  1.00  0.00     0.135 A 
ATOM     89  C   UNL A   1      39.073  33.785  38.079  1.00  0.00     0.135 A 
ATOM     90  F   UNL A   1      41.419  35.613  35.979  1.00  0.00    -0.206 F 
ATOM     91  C   UNL A   1      40.403  36.232  38.002  1.00  0.00     0.059 A 
ATOM     92  C   UNL A   1      38.854  34.710  39.093  1.00  0.00     0.059 A 
ATOM     93  F   UNL A   1      38.418  32.614  38.139  1.00  0.00    -0.206 F 
ATOM     94  C   UNL A   1      39.531  35.927  39.050  1.00  0.00     0.060 A 
BRANCH  94  95
ATOM     95  S   UNL A   1      39.271  37.161  40.341  1.00  0.00     0.124 S 
ATOM     96  O   UNL A   1      40.642  37.508  40.699  1.00  0.00    -0.237 OA
ATOM     97  O   UNL A   1      38.519  38.195  39.636  1.00  0.00    -0.237 OA
ATOM     98  O   UNL A   1      38.520  36.435  41.361  1.00  0.00    -0.744 OA
ENDBRANCH  94  95
ENDBRANCH  62  87
ENDBRANCH  36  37
ENDBRANCH  28  31
ENDBRANCH  26  27
ENDBRANCH   1  26
TORSDOF 16
ENDMDL
