MODEL 1
REMARK VINA RESULT:     -12.4      0.000      0.000
REMARK SMILES O=C(NCCCNC(=O)[C@@H]1CCCC[C@@H]1C(=O)Nc1cccc(C(F)(F)F)c1)c1ccc(-c2c3nc(c(-c4c(F)cc(S(=O)(=O)[O-])cc4F)c4ccc([nH]4)c(-c4c(F)cc(S(=O)(=O)[O-])cc4F)c4nc(c(-c5c(F)cc(S(=O)(=O)[O-])cc5F)c5ccc2[nH]5)C=C4)C=C3)cc1
REMARK SMILES IDX 5 1 4 2 3 3 1 4 2 5 29 7 30 8 94 9 31 10 93 11 32 12 33 13
REMARK SMILES IDX 34 14 87 15 35 16 92 17 86 18 88 19 36 20 91 21 85 22 84 23
REMARK SMILES IDX 37 25 71 26 50 27 70 28 51 29 54 30 69 31 89 32 52 33 53 34
REMARK SMILES IDX 68 36 90 37 55 38 38 39 39 40 48 41 40 42 41 43 47 44 49 45
REMARK SMILES IDX 42 46 43 47 44 48 45 49 46 50 72 51 73 52 82 53 74 54 75 55
REMARK SMILES IDX 81 56 83 57 76 58 77 59 78 60 79 61 80 62 56 63 57 64 66 65
REMARK SMILES IDX 58 66 59 67 65 68 67 69 60 70 61 71 62 72 63 73 64 74 6 75
REMARK SMILES IDX 7 76 8 77 9 79 10 80 11 81 15 82 12 83 14 84 13 85 16 86
REMARK SMILES IDX 17 87 18 88 19 90 20 91 28 92 21 93 23 94 22 95 24 96 25 97
REMARK SMILES IDX 26 98 27 99
REMARK H PARENT 3 6 88 24 54 35 7 78 18 89
REMARK Flexibility Score: inf
ROOT
ATOM      1  C   UNL A   1      31.623  31.874  26.640  1.00  0.00     0.042 C 
ENDROOT
BRANCH   1   2
ATOM      2  C   UNL A   1      32.884  32.447  27.271  1.00  0.00     0.118 C 
BRANCH   2   3
ATOM      3  N   UNL A   1      32.714  33.855  27.632  1.00  0.00    -0.352 N 
ATOM      4  O   UNL A   1      32.798  35.664  28.969  1.00  0.00    -0.269 OA
ATOM      5  C   UNL A   1      33.281  34.579  28.651  1.00  0.00     0.251 C 
ATOM      6  H   UNL A   1      32.097  34.361  27.054  1.00  0.00     0.163 HD
BRANCH   5   7
ATOM      7  C   UNL A   1      34.470  34.055  29.354  1.00  0.00     0.039 A 
ATOM      8  C   UNL A   1      34.309  33.291  30.509  1.00  0.00     0.014 A 
ATOM      9  C   UNL A   1      35.752  34.293  28.847  1.00  0.00     0.014 A 
ATOM     10  C   UNL A   1      35.417  32.920  31.251  1.00  0.00     0.010 A 
ATOM     11  C   UNL A   1      36.870  33.802  29.529  1.00  0.00     0.010 A 
ATOM     12  C   UNL A   1      36.712  33.132  30.750  1.00  0.00    -0.014 A 
BRANCH  12  13
ATOM     13  C   UNL A   1      37.851  32.542  31.499  1.00  0.00     0.031 A 
ATOM     14  C   UNL A   1      38.248  33.047  32.856  1.00  0.00     0.074 A 
ATOM     15  C   UNL A   1      38.475  31.477  30.953  1.00  0.00     0.049 A 
ATOM     16  N   UNL A   1      39.175  32.591  33.659  1.00  0.00    -0.248 NA
ATOM     17  C   UNL A   1      37.526  34.218  33.379  1.00  0.00     0.031 C 
ATOM     18  C   UNL A   1      38.182  30.920  29.627  1.00  0.00     0.029 A 
ATOM     19  N   UNL A   1      39.449  30.649  31.446  1.00  0.00    -0.354 N 
ATOM     20  C   UNL A   1      39.152  33.414  34.778  1.00  0.00     0.074 A 
ATOM     21  C   UNL A   1      38.146  34.426  34.533  1.00  0.00     0.031 C 
ATOM     22  C   UNL A   1      38.905  29.808  29.443  1.00  0.00     0.029 A 
ATOM     23  C   UNL A   1      39.773  29.618  30.597  1.00  0.00     0.049 A 
ATOM     24  H   UNL A   1      39.874  30.780  32.325  1.00  0.00     0.167 HD
ATOM     25  C   UNL A   1      39.894  33.321  35.909  1.00  0.00     0.037 A 
ATOM     26  C   UNL A   1      40.685  28.637  30.717  1.00  0.00     0.037 A 
ATOM     27  C   UNL A   1      40.891  32.304  36.135  1.00  0.00     0.049 A 
ATOM     28  C   UNL A   1      41.505  28.572  31.972  1.00  0.00     0.074 A 
ATOM     29  C   UNL A   1      41.701  32.123  37.243  1.00  0.00     0.029 A 
ATOM     30  N   UNL A   1      41.215  31.293  35.240  1.00  0.00    -0.354 N 
ATOM     31  N   UNL A   1      41.460  29.355  33.024  1.00  0.00    -0.248 NA
ATOM     32  C   UNL A   1      42.498  27.496  32.059  1.00  0.00     0.031 C 
ATOM     33  C   UNL A   1      42.540  31.029  37.002  1.00  0.00     0.029 A 
ATOM     34  C   UNL A   1      42.218  30.494  35.765  1.00  0.00     0.049 A 
ATOM     35  H   UNL A   1      40.792  31.162  34.360  1.00  0.00     0.167 HD
ATOM     36  C   UNL A   1      42.413  28.861  33.904  1.00  0.00     0.074 A 
ATOM     37  C   UNL A   1      42.993  27.691  33.273  1.00  0.00     0.031 C 
ATOM     38  C   UNL A   1      42.784  29.336  35.118  1.00  0.00     0.037 A 
BRANCH  25  39
ATOM     39  C   UNL A   1      39.663  34.346  36.988  1.00  0.00     0.058 A 
ATOM     40  C   UNL A   1      38.835  34.080  38.091  1.00  0.00     0.135 A 
ATOM     41  C   UNL A   1      40.323  35.586  36.953  1.00  0.00     0.135 A 
ATOM     42  F   UNL A   1      38.167  32.919  38.170  1.00  0.00    -0.206 F 
ATOM     43  C   UNL A   1      38.656  35.011  39.110  1.00  0.00     0.059 A 
ATOM     44  C   UNL A   1      40.180  36.523  37.974  1.00  0.00     0.059 A 
ATOM     45  F   UNL A   1      41.126  35.896  35.923  1.00  0.00    -0.206 F 
ATOM     46  C   UNL A   1      39.336  36.229  39.045  1.00  0.00     0.060 A 
BRANCH  46  47
ATOM     47  S   UNL A   1      39.109  37.414  40.387  1.00  0.00     0.124 S 
ATOM     48  O   UNL A   1      38.597  36.556  41.451  1.00  0.00    -0.237 OA
ATOM     49  O   UNL A   1      40.461  37.926  40.583  1.00  0.00    -0.237 OA
ATOM     50  O   UNL A   1      38.153  38.372  39.840  1.00  0.00    -0.744 OA
ENDBRANCH  46  47
ENDBRANCH  25  39
BRANCH  26  51
ATOM     51  C   UNL A   1      40.888  27.671  29.604  1.00  0.00     0.058 A 
ATOM     52  C   UNL A   1      39.978  26.635  29.356  1.00  0.00     0.135 A 
ATOM     53  C   UNL A   1      42.002  27.779  28.755  1.00  0.00     0.135 A 
ATOM     54  F   UNL A   1      38.897  26.489  30.138  1.00  0.00    -0.206 F 
ATOM     55  C   UNL A   1      40.178  25.722  28.325  1.00  0.00     0.059 A 
ATOM     56  C   UNL A   1      42.205  26.903  27.696  1.00  0.00     0.059 A 
ATOM     57  F   UNL A   1      42.893  28.768  28.933  1.00  0.00    -0.206 F 
ATOM     58  C   UNL A   1      41.296  25.865  27.501  1.00  0.00     0.060 A 
BRANCH  58  59
ATOM     59  S   UNL A   1      41.538  24.691  26.151  1.00  0.00     0.124 S 
ATOM     60  O   UNL A   1      41.604  25.581  24.999  1.00  0.00    -0.237 OA
ATOM     61  O   UNL A   1      42.788  24.040  26.530  1.00  0.00    -0.237 OA
ATOM     62  O   UNL A   1      40.351  23.843  26.228  1.00  0.00    -0.744 OA
ENDBRANCH  58  59
ENDBRANCH  26  51
BRANCH  38  63
ATOM     63  C   UNL A   1      43.852  28.568  35.847  1.00  0.00     0.058 A 
ATOM     64  C   UNL A   1      43.538  27.502  36.705  1.00  0.00     0.135 A 
ATOM     65  C   UNL A   1      45.206  28.898  35.678  1.00  0.00     0.135 A 
ATOM     66  F   UNL A   1      42.258  27.152  36.908  1.00  0.00    -0.206 F 
ATOM     67  C   UNL A   1      44.526  26.817  37.404  1.00  0.00     0.059 A 
ATOM     68  C   UNL A   1      46.214  28.205  36.340  1.00  0.00     0.059 A 
ATOM     69  F   UNL A   1      45.561  29.901  34.860  1.00  0.00    -0.206 F 
ATOM     70  C   UNL A   1      45.862  27.179  37.217  1.00  0.00     0.060 A 
BRANCH  70  71
ATOM     71  S   UNL A   1      47.136  26.280  38.126  1.00  0.00     0.124 S 
ATOM     72  O   UNL A   1      47.229  25.045  37.356  1.00  0.00    -0.237 OA
ATOM     73  O   UNL A   1      48.283  27.178  38.026  1.00  0.00    -0.237 OA
ATOM     74  O   UNL A   1      46.568  26.147  39.464  1.00  0.00    -0.744 OA
ENDBRANCH  70  71
ENDBRANCH  38  63
ENDBRANCH  12  13
ENDBRANCH   5   7
ENDBRANCH   2   3
ENDBRANCH   1   2
BRANCH   1  75
ATOM     75  C   UNL A   1      31.701  30.362  26.482  1.00  0.00     0.117 C 
BRANCH  75  76
ATOM     76  N   UNL A   1      32.576  29.978  25.393  1.00  0.00    -0.356 N 
ATOM     77  C   UNL A   1      33.112  28.804  24.996  1.00  0.00     0.223 C 
ATOM     78  H   UNL A   1      32.836  30.735  24.819  1.00  0.00     0.163 HD
ATOM     79  O   UNL A   1      33.933  28.887  24.071  1.00  0.00    -0.275 OA
BRANCH  77  80
ATOM     80  C   UNL A   1      32.732  27.412  25.525  1.00  0.00     0.091 C 
ATOM     81  C   UNL A   1      33.792  26.322  25.653  1.00  0.00     0.014 C 
ATOM     82  C   UNL A   1      31.456  26.939  24.780  1.00  0.00     0.091 C 
ATOM     83  C   UNL A   1      33.233  24.988  26.132  1.00  0.00     0.001 C 
ATOM     84  C   UNL A   1      30.977  25.544  25.213  1.00  0.00     0.014 C 
ATOM     85  C   UNL A   1      32.097  24.512  25.246  1.00  0.00     0.001 C 
BRANCH  82  86
ATOM     86  C   UNL A   1      31.616  26.971  23.252  1.00  0.00     0.228 C 
ATOM     87  O   UNL A   1      32.570  26.415  22.703  1.00  0.00    -0.274 OA
ATOM     88  N   UNL A   1      30.603  27.453  22.464  1.00  0.00    -0.326 N 
ATOM     89  H   UNL A   1      30.625  27.143  21.529  1.00  0.00     0.169 HD
BRANCH  88  90
ATOM     90  C   UNL A   1      29.542  28.315  22.772  1.00  0.00     0.041 A 
ATOM     91  C   UNL A   1      28.311  27.749  23.112  1.00  0.00     0.026 A 
ATOM     92  C   UNL A   1      29.654  29.705  22.705  1.00  0.00     0.039 A 
ATOM     93  C   UNL A   1      27.243  28.564  23.490  1.00  0.00     0.003 A 
ATOM     94  C   UNL A   1      28.596  30.538  23.097  1.00  0.00     0.058 A 
ATOM     95  C   UNL A   1      27.390  29.952  23.502  1.00  0.00     0.013 A 
BRANCH  94  96
ATOM     96  C   UNL A   1      28.756  32.038  23.096  1.00  0.00     0.416 C 
ATOM     97  F   UNL A   1      27.571  32.693  23.238  1.00  0.00    -0.166 F 
ATOM     98  F   UNL A   1      29.541  32.468  24.125  1.00  0.00    -0.166 F 
ATOM     99  F   UNL A   1      29.328  32.537  21.967  1.00  0.00    -0.166 F 
ENDBRANCH  94  96
ENDBRANCH  88  90
ENDBRANCH  82  86
ENDBRANCH  77  80
ENDBRANCH  75  76
ENDBRANCH   1  75
TORSDOF 16
ENDMDL
MODEL 2
REMARK VINA RESULT:     -12.3      7.043     12.597
REMARK SMILES O=C(NCCCNC(=O)[C@@H]1CCCC[C@@H]1C(=O)Nc1cccc(C(F)(F)F)c1)c1ccc(-c2c3nc(c(-c4c(F)cc(S(=O)(=O)[O-])cc4F)c4ccc([nH]4)c(-c4c(F)cc(S(=O)(=O)[O-])cc4F)c4nc(c(-c5c(F)cc(S(=O)(=O)[O-])cc5F)c5ccc2[nH]5)C=C4)C=C3)cc1
REMARK SMILES IDX 5 1 4 2 3 3 1 4 2 5 29 7 30 8 94 9 31 10 93 11 32 12 33 13
REMARK SMILES IDX 34 14 87 15 35 16 92 17 86 18 88 19 36 20 91 21 85 22 84 23
REMARK SMILES IDX 37 25 71 26 50 27 70 28 51 29 54 30 69 31 89 32 52 33 53 34
REMARK SMILES IDX 68 36 90 37 55 38 38 39 39 40 48 41 40 42 41 43 47 44 49 45
REMARK SMILES IDX 42 46 43 47 44 48 45 49 46 50 72 51 73 52 82 53 74 54 75 55
REMARK SMILES IDX 81 56 83 57 76 58 77 59 78 60 79 61 80 62 56 63 57 64 66 65
REMARK SMILES IDX 58 66 59 67 65 68 67 69 60 70 61 71 62 72 63 73 64 74 6 75
REMARK SMILES IDX 7 76 8 77 9 79 10 80 11 81 15 82 12 83 14 84 13 85 16 86
REMARK SMILES IDX 17 87 18 88 19 90 20 91 28 92 21 93 23 94 22 95 24 96 25 97
REMARK SMILES IDX 26 98 27 99
REMARK H PARENT 3 6 88 24 54 35 7 78 18 89
REMARK Flexibility Score: inf
ROOT
ATOM      1  C   UNL A   1      37.881  19.900  25.183  1.00  0.00     0.042 C 
ENDROOT
BRANCH   1   2
ATOM      2  C   UNL A   1      39.181  20.504  25.694  1.00  0.00     0.118 C 
BRANCH   2   3
ATOM      3  N   UNL A   1      40.196  19.478  25.931  1.00  0.00    -0.352 N 
ATOM      4  O   UNL A   1      42.274  18.616  26.017  1.00  0.00    -0.269 OA
ATOM      5  C   UNL A   1      41.549  19.604  26.122  1.00  0.00     0.251 C 
ATOM      6  H   UNL A   1      39.856  18.554  25.958  1.00  0.00     0.163 HD
BRANCH   5   7
ATOM      7  C   UNL A   1      42.127  20.921  26.459  1.00  0.00     0.039 A 
ATOM      8  C   UNL A   1      42.423  21.827  25.442  1.00  0.00     0.014 A 
ATOM      9  C   UNL A   1      42.344  21.275  27.795  1.00  0.00     0.014 A 
ATOM     10  C   UNL A   1      43.095  23.000  25.737  1.00  0.00     0.010 A 
ATOM     11  C   UNL A   1      42.903  22.521  28.101  1.00  0.00     0.010 A 
ATOM     12  C   UNL A   1      43.305  23.384  27.072  1.00  0.00    -0.014 A 
BRANCH  12  13
ATOM     13  C   UNL A   1      43.857  24.739  27.326  1.00  0.00     0.031 A 
ATOM     14  C   UNL A   1      45.300  25.063  27.066  1.00  0.00     0.074 A 
ATOM     15  C   UNL A   1      42.999  25.700  27.728  1.00  0.00     0.049 A 
ATOM     16  N   UNL A   1      45.911  26.215  27.175  1.00  0.00    -0.248 NA
ATOM     17  C   UNL A   1      46.174  23.960  26.639  1.00  0.00     0.031 C 
ATOM     18  C   UNL A   1      41.579  25.484  28.033  1.00  0.00     0.029 A 
ATOM     19  N   UNL A   1      43.171  27.046  27.913  1.00  0.00    -0.354 N 
ATOM     20  C   UNL A   1      47.238  25.979  26.835  1.00  0.00     0.074 A 
ATOM     21  C   UNL A   1      47.353  24.564  26.555  1.00  0.00     0.031 C 
ATOM     22  C   UNL A   1      40.998  26.661  28.296  1.00  0.00     0.029 A 
ATOM     23  C   UNL A   1      42.015  27.703  28.263  1.00  0.00     0.049 A 
ATOM     24  H   UNL A   1      44.039  27.499  27.804  1.00  0.00     0.167 HD
ATOM     25  C   UNL A   1      48.258  26.868  26.753  1.00  0.00     0.037 A 
ATOM     26  C   UNL A   1      41.796  28.999  28.550  1.00  0.00     0.037 A 
ATOM     27  C   UNL A   1      48.123  28.276  27.034  1.00  0.00     0.049 A 
ATOM     28  C   UNL A   1      42.950  29.955  28.469  1.00  0.00     0.074 A 
ATOM     29  C   UNL A   1      49.094  29.261  26.984  1.00  0.00     0.029 A 
ATOM     30  N   UNL A   1      46.944  28.902  27.416  1.00  0.00    -0.354 N 
ATOM     31  N   UNL A   1      44.196  29.713  28.134  1.00  0.00    -0.248 NA
ATOM     32  C   UNL A   1      42.673  31.356  28.803  1.00  0.00     0.031 C 
ATOM     33  C   UNL A   1      48.512  30.473  27.374  1.00  0.00     0.029 A 
ATOM     34  C   UNL A   1      47.166  30.256  27.616  1.00  0.00     0.049 A 
ATOM     35  H   UNL A   1      46.076  28.450  27.528  1.00  0.00     0.167 HD
ATOM     36  C   UNL A   1      44.851  30.934  28.210  1.00  0.00     0.074 A 
ATOM     37  C   UNL A   1      43.854  31.917  28.587  1.00  0.00     0.031 C 
ATOM     38  C   UNL A   1      46.160  31.217  27.996  1.00  0.00     0.037 A 
BRANCH  25  39
ATOM     39  C   UNL A   1      49.612  26.349  26.346  1.00  0.00     0.058 A 
ATOM     40  C   UNL A   1      50.057  26.417  25.016  1.00  0.00     0.135 A 
ATOM     41  C   UNL A   1      50.500  25.832  27.305  1.00  0.00     0.135 A 
ATOM     42  F   UNL A   1      49.246  26.886  24.055  1.00  0.00    -0.206 F 
ATOM     43  C   UNL A   1      51.325  25.976  24.648  1.00  0.00     0.059 A 
ATOM     44  C   UNL A   1      51.783  25.410  26.964  1.00  0.00     0.059 A 
ATOM     45  F   UNL A   1      50.128  25.742  28.591  1.00  0.00    -0.206 F 
ATOM     46  C   UNL A   1      52.183  25.478  25.630  1.00  0.00     0.060 A 
BRANCH  46  47
ATOM     47  S   UNL A   1      53.832  24.933  25.137  1.00  0.00     0.124 S 
ATOM     48  O   UNL A   1      54.015  25.655  23.881  1.00  0.00    -0.237 OA
ATOM     49  O   UNL A   1      54.657  25.386  26.253  1.00  0.00    -0.237 OA
ATOM     50  O   UNL A   1      53.691  23.486  25.013  1.00  0.00    -0.744 OA
ENDBRANCH  46  47
ENDBRANCH  25  39
BRANCH  26  51
ATOM     51  C   UNL A   1      40.443  29.447  28.975  1.00  0.00     0.058 A 
ATOM     52  C   UNL A   1      39.402  29.612  28.052  1.00  0.00     0.135 A 
ATOM     53  C   UNL A   1      40.165  29.707  30.327  1.00  0.00     0.135 A 
ATOM     54  F   UNL A   1      39.615  29.375  26.748  1.00  0.00    -0.206 F 
ATOM     55  C   UNL A   1      38.141  30.047  28.448  1.00  0.00     0.059 A 
ATOM     56  C   UNL A   1      38.904  30.108  30.753  1.00  0.00     0.059 A 
ATOM     57  F   UNL A   1      41.121  29.542  31.256  1.00  0.00    -0.206 F 
ATOM     58  C   UNL A   1      37.903  30.293  29.802  1.00  0.00     0.060 A 
BRANCH  58  59
ATOM     59  S   UNL A   1      36.259  30.836  30.312  1.00  0.00     0.124 S 
ATOM     60  O   UNL A   1      36.526  32.199  30.753  1.00  0.00    -0.237 OA
ATOM     61  O   UNL A   1      35.493  30.702  29.077  1.00  0.00    -0.237 OA
ATOM     62  O   UNL A   1      35.906  29.889  31.366  1.00  0.00    -0.744 OA
ENDBRANCH  58  59
ENDBRANCH  26  51
BRANCH  38  63
ATOM     63  C   UNL A   1      46.573  32.655  28.145  1.00  0.00     0.058 A 
ATOM     64  C   UNL A   1      47.073  33.158  29.356  1.00  0.00     0.135 A 
ATOM     65  C   UNL A   1      46.476  33.538  27.057  1.00  0.00     0.135 A 
ATOM     66  F   UNL A   1      47.179  32.357  30.428  1.00  0.00    -0.206 F 
ATOM     67  C   UNL A   1      47.421  34.497  29.498  1.00  0.00     0.059 A 
ATOM     68  C   UNL A   1      46.849  34.873  27.167  1.00  0.00     0.059 A 
ATOM     69  F   UNL A   1      46.015  33.105  25.874  1.00  0.00    -0.206 F 
ATOM     70  C   UNL A   1      47.303  35.348  28.397  1.00  0.00     0.060 A 
BRANCH  70  71
ATOM     71  S   UNL A   1      47.761  37.082  28.592  1.00  0.00     0.124 S 
ATOM     72  O   UNL A   1      49.174  37.055  28.229  1.00  0.00    -0.237 OA
ATOM     73  O   UNL A   1      46.875  37.749  27.643  1.00  0.00    -0.237 OA
ATOM     74  O   UNL A   1      47.479  37.352  29.999  1.00  0.00    -0.744 OA
ENDBRANCH  70  71
ENDBRANCH  38  63
ENDBRANCH  12  13
ENDBRANCH   5   7
ENDBRANCH   2   3
ENDBRANCH   1   2
BRANCH   1  75
ATOM     75  C   UNL A   1      36.949  20.955  24.603  1.00  0.00     0.117 C 
BRANCH  75  76
ATOM     76  N   UNL A   1      36.271  21.704  25.642  1.00  0.00    -0.356 N 
ATOM     77  C   UNL A   1      35.457  22.781  25.636  1.00  0.00     0.223 C 
ATOM     78  H   UNL A   1      36.440  21.353  26.546  1.00  0.00     0.163 HD
ATOM     79  O   UNL A   1      35.164  23.226  26.755  1.00  0.00    -0.275 OA
BRANCH  77  80
ATOM     80  C   UNL A   1      34.817  23.423  24.395  1.00  0.00     0.091 C 
ATOM     81  C   UNL A   1      34.349  24.875  24.435  1.00  0.00     0.014 C 
ATOM     82  C   UNL A   1      33.744  22.449  23.841  1.00  0.00     0.091 C 
ATOM     83  C   UNL A   1      33.682  25.331  23.143  1.00  0.00     0.001 C 
ATOM     84  C   UNL A   1      33.017  22.985  22.597  1.00  0.00     0.014 C 
ATOM     85  C   UNL A   1      32.531  24.419  22.760  1.00  0.00     0.001 C 
BRANCH  82  86
ATOM     86  C   UNL A   1      32.708  22.044  24.901  1.00  0.00     0.228 C 
ATOM     87  O   UNL A   1      32.256  22.872  25.695  1.00  0.00    -0.274 OA
ATOM     88  N   UNL A   1      32.129  20.802  24.858  1.00  0.00    -0.326 N 
ATOM     89  H   UNL A   1      31.268  20.732  25.331  1.00  0.00     0.169 HD
BRANCH  88  90
ATOM     90  C   UNL A   1      32.564  19.616  24.251  1.00  0.00     0.041 A 
ATOM     91  C   UNL A   1      32.151  19.356  22.943  1.00  0.00     0.026 A 
ATOM     92  C   UNL A   1      33.346  18.670  24.916  1.00  0.00     0.039 A 
ATOM     93  C   UNL A   1      32.610  18.221  22.273  1.00  0.00     0.003 A 
ATOM     94  C   UNL A   1      33.830  17.532  24.253  1.00  0.00     0.058 A 
ATOM     95  C   UNL A   1      33.462  17.323  22.918  1.00  0.00     0.013 A 
BRANCH  94  96
ATOM     96  C   UNL A   1      34.740  16.558  24.959  1.00  0.00     0.416 C 
ATOM     97  F   UNL A   1      34.209  16.092  26.122  1.00  0.00    -0.166 F 
ATOM     98  F   UNL A   1      34.992  15.453  24.199  1.00  0.00    -0.166 F 
ATOM     99  F   UNL A   1      35.959  17.067  25.279  1.00  0.00    -0.166 F 
ENDBRANCH  94  96
ENDBRANCH  88  90
ENDBRANCH  82  86
ENDBRANCH  77  80
ENDBRANCH  75  76
ENDBRANCH   1  75
TORSDOF 16
ENDMDL
MODEL 3
REMARK VINA RESULT:     -12.3      3.661      9.366
REMARK SMILES O=C(NCCCNC(=O)[C@@H]1CCCC[C@@H]1C(=O)Nc1cccc(C(F)(F)F)c1)c1ccc(-c2c3nc(c(-c4c(F)cc(S(=O)(=O)[O-])cc4F)c4ccc([nH]4)c(-c4c(F)cc(S(=O)(=O)[O-])cc4F)c4nc(c(-c5c(F)cc(S(=O)(=O)[O-])cc5F)c5ccc2[nH]5)C=C4)C=C3)cc1
REMARK SMILES IDX 5 1 4 2 3 3 1 4 2 5 29 7 30 8 94 9 31 10 93 11 32 12 33 13
REMARK SMILES IDX 34 14 87 15 35 16 92 17 86 18 88 19 36 20 91 21 85 22 84 23
REMARK SMILES IDX 37 25 71 26 50 27 70 28 51 29 54 30 69 31 89 32 52 33 53 34
REMARK SMILES IDX 68 36 90 37 55 38 38 39 39 40 48 41 40 42 41 43 47 44 49 45
REMARK SMILES IDX 42 46 43 47 44 48 45 49 46 50 72 51 73 52 82 53 74 54 75 55
REMARK SMILES IDX 81 56 83 57 76 58 77 59 78 60 79 61 80 62 56 63 57 64 66 65
REMARK SMILES IDX 58 66 59 67 65 68 67 69 60 70 61 71 62 72 63 73 64 74 6 75
REMARK SMILES IDX 7 76 8 77 9 79 10 80 11 81 15 82 12 83 14 84 13 85 16 86
REMARK SMILES IDX 17 87 18 88 19 90 20 91 28 92 21 93 23 94 22 95 24 96 25 97
REMARK SMILES IDX 26 98 27 99
REMARK H PARENT 3 6 88 24 54 35 7 78 18 89
REMARK Flexibility Score: inf
ROOT
ATOM      1  C   UNL A   1      37.793  23.030  25.820  1.00  0.00     0.042 C 
ENDROOT
BRANCH   1   2
ATOM      2  C   UNL A   1      38.571  24.063  26.623  1.00  0.00     0.118 C 
BRANCH   2   3
ATOM      3  N   UNL A   1      39.844  24.395  25.983  1.00  0.00    -0.352 N 
ATOM      4  O   UNL A   1      41.552  25.723  25.359  1.00  0.00    -0.269 OA
ATOM      5  C   UNL A   1      40.681  25.463  26.189  1.00  0.00     0.251 C 
ATOM      6  H   UNL A   1      40.147  23.754  25.300  1.00  0.00     0.163 HD
BRANCH   5   7
ATOM      7  C   UNL A   1      40.538  26.290  27.404  1.00  0.00     0.039 A 
ATOM      8  C   UNL A   1      41.241  27.489  27.512  1.00  0.00     0.014 A 
ATOM      9  C   UNL A   1      39.674  25.892  28.430  1.00  0.00     0.014 A 
ATOM     10  C   UNL A   1      41.224  28.194  28.703  1.00  0.00     0.010 A 
ATOM     11  C   UNL A   1      39.556  26.677  29.582  1.00  0.00     0.010 A 
ATOM     12  C   UNL A   1      40.349  27.823  29.737  1.00  0.00    -0.014 A 
BRANCH  12  13
ATOM     13  C   UNL A   1      40.237  28.728  30.910  1.00  0.00     0.031 A 
ATOM     14  C   UNL A   1      41.158  28.605  32.090  1.00  0.00     0.074 A 
ATOM     15  C   UNL A   1      39.326  29.722  30.850  1.00  0.00     0.049 A 
ATOM     16  N   UNL A   1      41.226  29.363  33.154  1.00  0.00    -0.248 NA
ATOM     17  C   UNL A   1      42.117  27.490  32.085  1.00  0.00     0.031 C 
ATOM     18  C   UNL A   1      38.365  29.915  29.757  1.00  0.00     0.029 A 
ATOM     19  N   UNL A   1      39.079  30.773  31.692  1.00  0.00    -0.354 N 
ATOM     20  C   UNL A   1      42.229  28.819  33.948  1.00  0.00     0.074 A 
ATOM     21  C   UNL A   1      42.715  27.642  33.260  1.00  0.00     0.031 C 
ATOM     22  C   UNL A   1      37.685  31.051  29.960  1.00  0.00     0.029 A 
ATOM     23  C   UNL A   1      38.099  31.622  31.234  1.00  0.00     0.049 A 
ATOM     24  H   UNL A   1      39.557  30.908  32.542  1.00  0.00     0.167 HD
ATOM     25  C   UNL A   1      42.707  29.273  35.133  1.00  0.00     0.037 A 
ATOM     26  C   UNL A   1      37.569  32.728  31.787  1.00  0.00     0.037 A 
ATOM     27  C   UNL A   1      42.210  30.450  35.802  1.00  0.00     0.049 A 
ATOM     28  C   UNL A   1      38.105  33.195  33.109  1.00  0.00     0.074 A 
ATOM     29  C   UNL A   1      42.622  30.993  37.007  1.00  0.00     0.029 A 
ATOM     30  N   UNL A   1      41.196  31.269  35.325  1.00  0.00    -0.354 N 
ATOM     31  N   UNL A   1      39.063  32.671  33.838  1.00  0.00    -0.248 NA
ATOM     32  C   UNL A   1      37.493  34.397  33.685  1.00  0.00     0.031 C 
ATOM     33  C   UNL A   1      41.830  32.115  37.277  1.00  0.00     0.029 A 
ATOM     34  C   UNL A   1      40.960  32.304  36.216  1.00  0.00     0.049 A 
ATOM     35  H   UNL A   1      40.714  31.134  34.476  1.00  0.00     0.167 HD
ATOM     36  C   UNL A   1      39.174  33.486  34.956  1.00  0.00     0.074 A 
ATOM     37  C   UNL A   1      38.209  34.555  34.789  1.00  0.00     0.031 C 
ATOM     38  C   UNL A   1      39.991  33.357  36.031  1.00  0.00     0.037 A 
BRANCH  25  39
ATOM     39  C   UNL A   1      43.818  28.495  35.788  1.00  0.00     0.058 A 
ATOM     40  C   UNL A   1      43.554  27.429  36.663  1.00  0.00     0.135 A 
ATOM     41  C   UNL A   1      45.162  28.777  35.492  1.00  0.00     0.135 A 
ATOM     42  F   UNL A   1      42.289  27.124  36.994  1.00  0.00    -0.206 F 
ATOM     43  C   UNL A   1      44.580  26.683  37.235  1.00  0.00     0.059 A 
ATOM     44  C   UNL A   1      46.205  28.027  36.032  1.00  0.00     0.059 A 
ATOM     45  F   UNL A   1      45.475  29.785  34.663  1.00  0.00    -0.206 F 
ATOM     46  C   UNL A   1      45.903  26.988  36.910  1.00  0.00     0.060 A 
BRANCH  46  47
ATOM     47  S   UNL A   1      47.220  25.994  37.644  1.00  0.00     0.124 S 
ATOM     48  O   UNL A   1      46.557  24.703  37.804  1.00  0.00    -0.237 OA
ATOM     49  O   UNL A   1      48.259  26.048  36.620  1.00  0.00    -0.237 OA
ATOM     50  O   UNL A   1      47.529  26.698  38.884  1.00  0.00    -0.744 OA
ENDBRANCH  46  47
ENDBRANCH  25  39
BRANCH  26  51
ATOM     51  C   UNL A   1      36.452  33.437  31.107  1.00  0.00     0.058 A 
ATOM     52  C   UNL A   1      36.661  34.186  29.941  1.00  0.00     0.135 A 
ATOM     53  C   UNL A   1      35.144  33.364  31.611  1.00  0.00     0.135 A 
ATOM     54  F   UNL A   1      37.893  34.286  29.418  1.00  0.00    -0.206 F 
ATOM     55  C   UNL A   1      35.619  34.862  29.315  1.00  0.00     0.059 A 
ATOM     56  C   UNL A   1      34.079  34.000  30.984  1.00  0.00     0.059 A 
ATOM     57  F   UNL A   1      34.884  32.640  32.712  1.00  0.00    -0.206 F 
ATOM     58  C   UNL A   1      34.331  34.763  29.846  1.00  0.00     0.060 A 
BRANCH  58  59
ATOM     59  S   UNL A   1      32.979  35.624  29.016  1.00  0.00     0.124 S 
ATOM     60  O   UNL A   1      32.404  34.555  28.209  1.00  0.00    -0.237 OA
ATOM     61  O   UNL A   1      32.170  36.084  30.140  1.00  0.00    -0.237 OA
ATOM     62  O   UNL A   1      33.661  36.680  28.272  1.00  0.00    -0.744 OA
ENDBRANCH  58  59
ENDBRANCH  26  51
BRANCH  38  63
ATOM     63  C   UNL A   1      39.886  34.418  37.091  1.00  0.00     0.058 A 
ATOM     64  C   UNL A   1      39.078  34.251  38.226  1.00  0.00     0.135 A 
ATOM     65  C   UNL A   1      40.612  35.615  36.972  1.00  0.00     0.135 A 
ATOM     66  F   UNL A   1      38.358  33.128  38.384  1.00  0.00    -0.206 F 
ATOM     67  C   UNL A   1      38.958  35.249  39.186  1.00  0.00     0.059 A 
ATOM     68  C   UNL A   1      40.533  36.614  37.936  1.00  0.00     0.059 A 
ATOM     69  F   UNL A   1      41.408  35.821  35.912  1.00  0.00    -0.206 F 
ATOM     70  C   UNL A   1      39.687  36.430  39.030  1.00  0.00     0.060 A 
BRANCH  70  71
ATOM     71  S   UNL A   1      39.526  37.717  40.284  1.00  0.00     0.124 S 
ATOM     72  O   UNL A   1      38.973  36.967  41.406  1.00  0.00    -0.237 OA
ATOM     73  O   UNL A   1      40.904  38.173  40.443  1.00  0.00    -0.237 OA
ATOM     74  O   UNL A   1      38.622  38.682  39.666  1.00  0.00    -0.744 OA
ENDBRANCH  70  71
ENDBRANCH  38  63
ENDBRANCH  12  13
ENDBRANCH   5   7
ENDBRANCH   2   3
ENDBRANCH   1   2
BRANCH   1  75
ATOM     75  C   UNL A   1      36.792  23.679  24.875  1.00  0.00     0.117 C 
BRANCH  75  76
ATOM     76  N   UNL A   1      35.624  24.168  25.579  1.00  0.00    -0.356 N 
ATOM     77  C   UNL A   1      34.546  24.892  25.208  1.00  0.00     0.223 C 
ATOM     78  H   UNL A   1      35.613  23.920  26.531  1.00  0.00     0.163 HD
ATOM     79  O   UNL A   1      33.797  25.233  26.135  1.00  0.00    -0.275 OA
BRANCH  77  80
ATOM     80  C   UNL A   1      34.142  25.239  23.766  1.00  0.00     0.091 C 
ATOM     81  C   UNL A   1      33.533  26.600  23.444  1.00  0.00     0.014 C 
ATOM     82  C   UNL A   1      33.326  24.052  23.189  1.00  0.00     0.091 C 
ATOM     83  C   UNL A   1      33.134  26.754  21.982  1.00  0.00     0.001 C 
ATOM     84  C   UNL A   1      32.850  24.283  21.746  1.00  0.00     0.014 C 
ATOM     85  C   UNL A   1      32.198  25.644  21.543  1.00  0.00     0.001 C 
BRANCH  82  86
ATOM     86  C   UNL A   1      32.124  23.677  24.069  1.00  0.00     0.228 C 
ATOM     87  O   UNL A   1      31.256  24.509  24.346  1.00  0.00    -0.274 OA
ATOM     88  N   UNL A   1      31.896  22.367  24.402  1.00  0.00    -0.326 N 
ATOM     89  H   UNL A   1      30.968  22.163  24.663  1.00  0.00     0.169 HD
BRANCH  88  90
ATOM     90  C   UNL A   1      32.769  21.271  24.432  1.00  0.00     0.041 A 
ATOM     91  C   UNL A   1      33.968  21.404  25.135  1.00  0.00     0.026 A 
ATOM     92  C   UNL A   1      32.512  20.081  23.749  1.00  0.00     0.039 A 
ATOM     93  C   UNL A   1      34.841  20.320  25.248  1.00  0.00     0.003 A 
ATOM     94  C   UNL A   1      33.369  18.977  23.865  1.00  0.00     0.058 A 
ATOM     95  C   UNL A   1      34.534  19.106  24.633  1.00  0.00     0.013 A 
BRANCH  94  96
ATOM     96  C   UNL A   1      33.039  17.671  23.188  1.00  0.00     0.416 C 
ATOM     97  F   UNL A   1      32.506  16.755  24.042  1.00  0.00    -0.166 F 
ATOM     98  F   UNL A   1      32.118  17.829  22.194  1.00  0.00    -0.166 F 
ATOM     99  F   UNL A   1      34.106  17.062  22.603  1.00  0.00    -0.166 F 
ENDBRANCH  94  96
ENDBRANCH  88  90
ENDBRANCH  82  86
ENDBRANCH  77  80
ENDBRANCH  75  76
ENDBRANCH   1  75
TORSDOF 16
ENDMDL
