MODEL 1
REMARK VINA RESULT:     -12.0      0.000      0.000
REMARK SMILES CCn1nc(C(C)C)cc1C(=O)N[C@@H](CC(N)=O)C(=O)NCCCNC(=O)c1ccc(-c2c3nc(c(-c4c(F)cc(S(=O)(=O)[O-])cc4F)c4ccc([nH]4)c(-c4c(F)cc(S(=O)(=O)[O-])cc4F)c4nc(c(-c5c(F)cc(S(=O)(=O)[O-])cc5F)c5ccc2[nH]5)C=C4)C=C3)cc1
REMARK SMILES IDX 23 1 22 2 21 3 19 4 20 5 14 7 13 8 11 9 12 10 10 12 3 13
REMARK SMILES IDX 4 14 5 15 9 16 2 17 1 18 6 19 7 20 8 21 15 22 16 23 17 24
REMARK SMILES IDX 18 25 24 28 25 29 26 30 27 32 28 33 29 34 93 35 30 36 92 37
REMARK SMILES IDX 31 38 32 39 33 40 86 41 34 42 91 43 85 44 87 45 35 46 90 47
REMARK SMILES IDX 84 48 83 49 36 51 70 52 49 53 69 54 50 55 53 56 68 57 88 58
REMARK SMILES IDX 51 59 52 60 67 62 89 63 54 64 37 65 38 66 47 67 39 68 40 69
REMARK SMILES IDX 46 70 48 71 41 72 42 73 43 74 44 75 45 76 71 77 72 78 81 79
REMARK SMILES IDX 73 80 74 81 80 82 82 83 75 84 76 85 77 86 78 87 79 88 55 89
REMARK SMILES IDX 56 90 65 91 57 92 58 93 64 94 66 95 59 96 60 97 61 98 62 99
REMARK SMILES IDX 63 100
REMARK H PARENT 21 6 13 11 17 26 17 27 25 31 87 50 53 61
REMARK Flexibility Score: inf
ROOT
ATOM      1  C   UNL A   1      37.475  21.636  24.944  1.00  0.00     0.042 C 
ENDROOT
BRANCH   1   2
ATOM      2  C   UNL A   1      36.351  22.583  24.542  1.00  0.00     0.117 C 
BRANCH   2   3
ATOM      3  N   UNL A   1      35.067  21.957  24.280  1.00  0.00    -0.354 N 
ATOM      4  C   UNL A   1      33.886  22.529  23.896  1.00  0.00     0.243 C 
ATOM      5  O   UNL A   1      33.093  21.822  23.265  1.00  0.00    -0.273 OA
ATOM      6  H   UNL A   1      35.043  20.980  24.395  1.00  0.00     0.163 HD
BRANCH   4   7
ATOM      7  C   UNL A   1      33.568  24.024  24.107  1.00  0.00     0.181 C 
BRANCH   7   8
ATOM      8  N   UNL A   1      33.490  24.753  22.843  1.00  0.00    -0.338 N 
ATOM      9  C   UNL A   1      33.382  26.085  22.516  1.00  0.00     0.270 C 
ATOM     10  O   UNL A   1      33.600  26.298  21.323  1.00  0.00    -0.268 OA
ATOM     11  H   UNL A   1      33.522  24.164  22.056  1.00  0.00     0.164 HD
BRANCH   9  12
ATOM     12  C   UNL A   1      32.943  27.102  23.452  1.00  0.00     0.126 A 
ATOM     13  N   UNL A   1      31.699  27.727  23.488  1.00  0.00    -0.260 N 
ATOM     14  N   UNL A   1      31.440  28.278  24.706  1.00  0.00    -0.177 NA
ATOM     15  C   UNL A   1      32.620  28.309  25.318  1.00  0.00     0.066 A 
ATOM     16  C   UNL A   1      33.606  27.714  24.510  1.00  0.00     0.059 A 
BRANCH  13  17
ATOM     17  C   UNL A   1      30.673  28.008  22.500  1.00  0.00     0.142 C 
ATOM     18  C   UNL A   1      29.203  28.132  22.837  1.00  0.00     0.029 C 
ENDBRANCH  13  17
BRANCH  15  19
ATOM     19  C   UNL A   1      32.796  28.887  26.692  1.00  0.00     0.034 C 
ATOM     20  C   UNL A   1      31.880  28.219  27.714  1.00  0.00     0.014 C 
ATOM     21  C   UNL A   1      34.254  28.847  27.160  1.00  0.00     0.014 C 
ENDBRANCH  15  19
ENDBRANCH   9  12
ENDBRANCH   7   8
BRANCH   7  22
ATOM     22  C   UNL A   1      32.455  24.308  25.116  1.00  0.00     0.134 C 
BRANCH  22  23
ATOM     23  C   UNL A   1      31.059  23.963  24.682  1.00  0.00     0.220 C 
ATOM     24  N   UNL A   1      30.345  23.184  25.543  1.00  0.00    -0.370 N 
ATOM     25  O   UNL A   1      30.577  24.326  23.614  1.00  0.00    -0.275 OA
ATOM     26  H   UNL A   1      30.744  22.900  26.397  1.00  0.00     0.159 HD
ATOM     27  H   UNL A   1      29.429  22.907  25.312  1.00  0.00     0.159 HD
ENDBRANCH  22  23
ENDBRANCH   7  22
ENDBRANCH   4   7
ENDBRANCH   2   3
ENDBRANCH   1   2
BRANCH   1  28
ATOM     28  C   UNL A   1      38.380  22.201  26.025  1.00  0.00     0.118 C 
BRANCH  28  29
ATOM     29  N   UNL A   1      39.803  21.942  25.782  1.00  0.00    -0.352 N 
ATOM     30  C   UNL A   1      40.886  22.724  26.150  1.00  0.00     0.251 C 
ATOM     31  H   UNL A   1      40.014  21.111  25.300  1.00  0.00     0.163 HD
ATOM     32  O   UNL A   1      41.994  22.534  25.683  1.00  0.00    -0.269 OA
BRANCH  30  33
ATOM     33  C   UNL A   1      40.633  23.821  27.101  1.00  0.00     0.039 A 
ATOM     34  C   UNL A   1      41.418  23.955  28.245  1.00  0.00     0.014 A 
ATOM     35  C   UNL A   1      39.745  24.819  26.713  1.00  0.00     0.014 A 
ATOM     36  C   UNL A   1      41.405  25.171  28.925  1.00  0.00     0.010 A 
ATOM     37  C   UNL A   1      39.852  26.063  27.297  1.00  0.00     0.010 A 
ATOM     38  C   UNL A   1      40.663  26.253  28.416  1.00  0.00    -0.014 A 
BRANCH  38  39
ATOM     39  C   UNL A   1      40.847  27.596  28.986  1.00  0.00     0.031 A 
ATOM     40  C   UNL A   1      41.954  28.409  28.400  1.00  0.00     0.074 A 
ATOM     41  C   UNL A   1      39.985  28.200  29.833  1.00  0.00     0.049 A 
ATOM     42  N   UNL A   1      43.070  28.748  28.959  1.00  0.00    -0.248 NA
ATOM     43  C   UNL A   1      41.851  28.825  26.991  1.00  0.00     0.031 C 
ATOM     44  C   UNL A   1      38.663  27.726  30.261  1.00  0.00     0.029 A 
ATOM     45  N   UNL A   1      40.065  29.434  30.417  1.00  0.00    -0.354 N 
ATOM     46  C   UNL A   1      43.696  29.620  28.070  1.00  0.00     0.074 A 
ATOM     47  C   UNL A   1      43.001  29.482  26.817  1.00  0.00     0.031 C 
ATOM     48  C   UNL A   1      37.970  28.746  30.805  1.00  0.00     0.029 A 
ATOM     49  C   UNL A   1      38.872  29.868  30.974  1.00  0.00     0.049 A 
ATOM     50  H   UNL A   1      40.894  29.966  30.439  1.00  0.00     0.167 HD
ATOM     51  C   UNL A   1      44.554  30.582  28.513  1.00  0.00     0.037 A 
ATOM     52  C   UNL A   1      38.609  31.046  31.581  1.00  0.00     0.037 A 
ATOM     53  C   UNL A   1      44.886  30.387  29.900  1.00  0.00     0.049 A 
ATOM     54  C   UNL A   1      39.882  31.586  32.110  1.00  0.00     0.074 A 
ATOM     55  C   UNL A   1      45.727  29.589  30.641  1.00  0.00     0.029 A 
ATOM     56  N   UNL A   1      43.984  30.945  30.764  1.00  0.00    -0.354 N 
ATOM     57  N   UNL A   1      40.595  30.983  33.025  1.00  0.00    -0.248 NA
ATOM     58  C   UNL A   1      40.557  32.673  31.412  1.00  0.00     0.031 C 
ATOM     59  C   UNL A   1      45.189  29.559  31.964  1.00  0.00     0.029 A 
ATOM     60  C   UNL A   1      44.046  30.353  31.998  1.00  0.00     0.049 A 
ATOM     61  H   UNL A   1      43.372  31.679  30.530  1.00  0.00     0.167 HD
ATOM     62  C   UNL A   1      41.897  31.321  32.722  1.00  0.00     0.074 A 
ATOM     63  C   UNL A   1      41.803  32.487  31.856  1.00  0.00     0.031 C 
ATOM     64  C   UNL A   1      42.918  30.437  32.903  1.00  0.00     0.037 A 
BRANCH  51  65
ATOM     65  C   UNL A   1      44.750  31.951  27.886  1.00  0.00     0.058 A 
ATOM     66  C   UNL A   1      45.976  32.250  27.249  1.00  0.00     0.135 A 
ATOM     67  C   UNL A   1      43.926  33.064  28.162  1.00  0.00     0.135 A 
ATOM     68  F   UNL A   1      46.843  31.272  26.944  1.00  0.00    -0.206 F 
ATOM     69  C   UNL A   1      46.381  33.559  26.974  1.00  0.00     0.059 A 
ATOM     70  C   UNL A   1      44.287  34.372  27.848  1.00  0.00     0.059 A 
ATOM     71  F   UNL A   1      42.780  32.947  28.842  1.00  0.00    -0.206 F 
ATOM     72  C   UNL A   1      45.535  34.615  27.295  1.00  0.00     0.060 A 
BRANCH  72  73
ATOM     73  S   UNL A   1      46.093  36.311  27.045  1.00  0.00     0.124 S 
ATOM     74  O   UNL A   1      46.857  36.548  28.264  1.00  0.00    -0.237 OA
ATOM     75  O   UNL A   1      46.869  36.201  25.814  1.00  0.00    -0.237 OA
ATOM     76  O   UNL A   1      44.845  37.058  26.924  1.00  0.00    -0.744 OA
ENDBRANCH  72  73
ENDBRANCH  51  65
BRANCH  52  77
ATOM     77  C   UNL A   1      37.336  31.799  31.560  1.00  0.00     0.058 A 
ATOM     78  C   UNL A   1      36.521  31.900  32.698  1.00  0.00     0.135 A 
ATOM     79  C   UNL A   1      37.021  32.650  30.481  1.00  0.00     0.135 A 
ATOM     80  F   UNL A   1      36.765  31.135  33.772  1.00  0.00    -0.206 F 
ATOM     81  C   UNL A   1      35.481  32.827  32.780  1.00  0.00     0.059 A 
ATOM     82  C   UNL A   1      35.984  33.577  30.536  1.00  0.00     0.059 A 
ATOM     83  F   UNL A   1      37.776  32.662  29.370  1.00  0.00    -0.206 F 
ATOM     84  C   UNL A   1      35.234  33.678  31.701  1.00  0.00     0.060 A 
BRANCH  84  85
ATOM     85  S   UNL A   1      34.009  34.994  31.877  1.00  0.00     0.124 S 
ATOM     86  O   UNL A   1      34.762  36.011  32.602  1.00  0.00    -0.237 OA
ATOM     87  O   UNL A   1      33.691  35.304  30.488  1.00  0.00    -0.237 OA
ATOM     88  O   UNL A   1      32.934  34.357  32.632  1.00  0.00    -0.744 OA
ENDBRANCH  84  85
ENDBRANCH  52  77
BRANCH  64  89
ATOM     89  C   UNL A   1      42.781  29.402  33.978  1.00  0.00     0.058 A 
ATOM     90  C   UNL A   1      43.033  29.615  35.342  1.00  0.00     0.135 A 
ATOM     91  C   UNL A   1      42.291  28.141  33.603  1.00  0.00     0.135 A 
ATOM     92  F   UNL A   1      43.429  30.814  35.792  1.00  0.00    -0.206 F 
ATOM     93  C   UNL A   1      42.833  28.605  36.288  1.00  0.00     0.059 A 
ATOM     94  C   UNL A   1      42.059  27.130  34.531  1.00  0.00     0.059 A 
ATOM     95  F   UNL A   1      41.992  27.890  32.317  1.00  0.00    -0.206 F 
ATOM     96  C   UNL A   1      42.345  27.366  35.872  1.00  0.00     0.060 A 
BRANCH  96  97
ATOM     97  S   UNL A   1      42.022  26.083  37.101  1.00  0.00     0.124 S 
ATOM     98  O   UNL A   1      42.279  24.862  36.346  1.00  0.00    -0.237 OA
ATOM     99  O   UNL A   1      42.990  26.396  38.149  1.00  0.00    -0.237 OA
ATOM    100  O   UNL A   1      40.626  26.307  37.470  1.00  0.00    -0.744 OA
ENDBRANCH  96  97
ENDBRANCH  64  89
ENDBRANCH  38  39
ENDBRANCH  30  33
ENDBRANCH  28  29
ENDBRANCH   1  28
TORSDOF 19
ENDMDL
MODEL 2
REMARK VINA RESULT:     -12.0      1.645      3.655
REMARK SMILES CCn1nc(C(C)C)cc1C(=O)N[C@@H](CC(N)=O)C(=O)NCCCNC(=O)c1ccc(-c2c3nc(c(-c4c(F)cc(S(=O)(=O)[O-])cc4F)c4ccc([nH]4)c(-c4c(F)cc(S(=O)(=O)[O-])cc4F)c4nc(c(-c5c(F)cc(S(=O)(=O)[O-])cc5F)c5ccc2[nH]5)C=C4)C=C3)cc1
REMARK SMILES IDX 23 1 22 2 21 3 19 4 20 5 14 7 13 8 11 9 12 10 10 12 3 13
REMARK SMILES IDX 4 14 5 15 9 16 2 17 1 18 6 19 7 20 8 21 15 22 16 23 17 24
REMARK SMILES IDX 18 25 24 28 25 29 26 30 27 32 28 33 29 34 93 35 30 36 92 37
REMARK SMILES IDX 31 38 32 39 33 40 86 41 34 42 91 43 85 44 87 45 35 46 90 47
REMARK SMILES IDX 84 48 83 49 36 51 70 52 49 53 69 54 50 55 53 56 68 57 88 58
REMARK SMILES IDX 51 59 52 60 67 62 89 63 54 64 37 65 38 66 47 67 39 68 40 69
REMARK SMILES IDX 46 70 48 71 41 72 42 73 43 74 44 75 45 76 71 77 72 78 81 79
REMARK SMILES IDX 73 80 74 81 80 82 82 83 75 84 76 85 77 86 78 87 79 88 55 89
REMARK SMILES IDX 56 90 65 91 57 92 58 93 64 94 66 95 59 96 60 97 61 98 62 99
REMARK SMILES IDX 63 100
REMARK H PARENT 21 6 13 11 17 26 17 27 25 31 87 50 53 61
REMARK Flexibility Score: inf
ROOT
ATOM      1  C   UNL A   1      36.940  22.507  24.337  1.00  0.00     0.042 C 
ENDROOT
BRANCH   1   2
ATOM      2  C   UNL A   1      35.564  23.047  23.969  1.00  0.00     0.117 C 
BRANCH   2   3
ATOM      3  N   UNL A   1      35.138  24.229  24.698  1.00  0.00    -0.354 N 
ATOM      4  C   UNL A   1      33.879  24.733  24.872  1.00  0.00     0.243 C 
ATOM      5  O   UNL A   1      33.676  25.410  25.885  1.00  0.00    -0.273 OA
ATOM      6  H   UNL A   1      35.859  24.740  25.131  1.00  0.00     0.163 HD
BRANCH   4   7
ATOM      7  C   UNL A   1      32.700  24.391  23.937  1.00  0.00     0.181 C 
BRANCH   7   8
ATOM      8  N   UNL A   1      31.566  23.829  24.666  1.00  0.00    -0.338 N 
ATOM      9  C   UNL A   1      31.335  22.625  25.291  1.00  0.00     0.270 C 
ATOM     10  O   UNL A   1      30.334  22.647  26.006  1.00  0.00    -0.268 OA
ATOM     11  H   UNL A   1      30.801  24.446  24.725  1.00  0.00     0.164 HD
BRANCH   9  12
ATOM     12  C   UNL A   1      32.122  21.433  25.036  1.00  0.00     0.126 A 
ATOM     13  N   UNL A   1      33.099  20.882  25.859  1.00  0.00    -0.260 N 
ATOM     14  N   UNL A   1      33.326  19.569  25.576  1.00  0.00    -0.177 NA
ATOM     15  C   UNL A   1      32.765  19.382  24.385  1.00  0.00     0.066 A 
ATOM     16  C   UNL A   1      32.127  20.559  23.953  1.00  0.00     0.059 A 
BRANCH  13  17
ATOM     17  C   UNL A   1      33.995  21.413  26.871  1.00  0.00     0.142 C 
ATOM     18  C   UNL A   1      33.575  22.437  27.902  1.00  0.00     0.029 C 
ENDBRANCH  13  17
BRANCH  15  19
ATOM     19  C   UNL A   1      32.818  18.062  23.672  1.00  0.00     0.034 C 
ATOM     20  C   UNL A   1      32.339  18.175  22.227  1.00  0.00     0.014 C 
ATOM     21  C   UNL A   1      34.207  17.418  23.736  1.00  0.00     0.014 C 
ENDBRANCH  15  19
ENDBRANCH   9  12
ENDBRANCH   7   8
BRANCH   7  22
ATOM     22  C   UNL A   1      32.366  25.468  22.904  1.00  0.00     0.134 C 
BRANCH  22  23
ATOM     23  C   UNL A   1      32.622  25.116  21.467  1.00  0.00     0.220 C 
ATOM     24  N   UNL A   1      31.968  25.877  20.544  1.00  0.00    -0.370 N 
ATOM     25  O   UNL A   1      33.349  24.192  21.120  1.00  0.00    -0.275 OA
ATOM     26  H   UNL A   1      31.388  26.616  20.837  1.00  0.00     0.159 HD
ATOM     27  H   UNL A   1      32.078  25.687  19.584  1.00  0.00     0.159 HD
ENDBRANCH  22  23
ENDBRANCH   7  22
ENDBRANCH   4   7
ENDBRANCH   2   3
ENDBRANCH   1   2
BRANCH   1  28
ATOM     28  C   UNL A   1      37.345  22.815  25.767  1.00  0.00     0.118 C 
BRANCH  28  29
ATOM     29  N   UNL A   1      38.627  22.213  26.150  1.00  0.00    -0.352 N 
ATOM     30  C   UNL A   1      39.756  22.850  26.636  1.00  0.00     0.251 C 
ATOM     31  H   UNL A   1      38.691  21.236  26.048  1.00  0.00     0.163 HD
ATOM     32  O   UNL A   1      40.833  22.284  26.686  1.00  0.00    -0.269 OA
BRANCH  30  33
ATOM     33  C   UNL A   1      39.610  24.255  27.057  1.00  0.00     0.039 A 
ATOM     34  C   UNL A   1      39.130  24.562  28.330  1.00  0.00     0.014 A 
ATOM     35  C   UNL A   1      40.158  25.234  26.235  1.00  0.00     0.014 A 
ATOM     36  C   UNL A   1      39.336  25.847  28.828  1.00  0.00     0.010 A 
ATOM     37  C   UNL A   1      40.493  26.451  26.790  1.00  0.00     0.010 A 
ATOM     38  C   UNL A   1      40.073  26.781  28.079  1.00  0.00    -0.014 A 
BRANCH  38  39
ATOM     39  C   UNL A   1      40.503  28.041  28.704  1.00  0.00     0.031 A 
ATOM     40  C   UNL A   1      41.753  28.650  28.157  1.00  0.00     0.074 A 
ATOM     41  C   UNL A   1      39.763  28.765  29.572  1.00  0.00     0.049 A 
ATOM     42  N   UNL A   1      42.906  28.746  28.734  1.00  0.00    -0.248 NA
ATOM     43  C   UNL A   1      41.748  29.133  26.765  1.00  0.00     0.031 C 
ATOM     44  C   UNL A   1      38.370  28.536  29.973  1.00  0.00     0.029 A 
ATOM     45  N   UNL A   1      40.070  29.938  30.206  1.00  0.00    -0.354 N 
ATOM     46  C   UNL A   1      43.698  29.517  27.884  1.00  0.00     0.074 A 
ATOM     47  C   UNL A   1      43.004  29.564  26.623  1.00  0.00     0.031 C 
ATOM     48  C   UNL A   1      37.878  29.648  30.556  1.00  0.00     0.029 A 
ATOM     49  C   UNL A   1      38.976  30.569  30.775  1.00  0.00     0.049 A 
ATOM     50  H   UNL A   1      40.985  30.299  30.253  1.00  0.00     0.167 HD
ATOM     51  C   UNL A   1      44.719  30.279  28.370  1.00  0.00     0.037 A 
ATOM     52  C   UNL A   1      38.936  31.751  31.428  1.00  0.00     0.037 A 
ATOM     53  C   UNL A   1      44.990  29.969  29.749  1.00  0.00     0.049 A 
ATOM     54  C   UNL A   1      40.281  32.016  31.984  1.00  0.00     0.074 A 
ATOM     55  C   UNL A   1      45.654  28.997  30.460  1.00  0.00     0.029 A 
ATOM     56  N   UNL A   1      44.202  30.655  30.631  1.00  0.00    -0.354 N 
ATOM     57  N   UNL A   1      40.855  31.253  32.877  1.00  0.00    -0.248 NA
ATOM     58  C   UNL A   1      41.160  32.980  31.334  1.00  0.00     0.031 C 
ATOM     59  C   UNL A   1      45.105  29.018  31.778  1.00  0.00     0.029 A 
ATOM     60  C   UNL A   1      44.134  30.014  31.840  1.00  0.00     0.049 A 
ATOM     61  H   UNL A   1      43.743  31.502  30.425  1.00  0.00     0.167 HD
ATOM     62  C   UNL A   1      42.201  31.346  32.594  1.00  0.00     0.074 A 
ATOM     63  C   UNL A   1      42.342  32.542  31.776  1.00  0.00     0.031 C 
ATOM     64  C   UNL A   1      43.032  30.277  32.743  1.00  0.00     0.037 A 
BRANCH  51  65
ATOM     65  C   UNL A   1      45.180  31.609  27.800  1.00  0.00     0.058 A 
ATOM     66  C   UNL A   1      46.500  31.729  27.309  1.00  0.00     0.135 A 
ATOM     67  C   UNL A   1      44.500  32.828  28.009  1.00  0.00     0.135 A 
ATOM     68  F   UNL A   1      47.246  30.636  27.078  1.00  0.00    -0.206 F 
ATOM     69  C   UNL A   1      47.119  32.966  27.111  1.00  0.00     0.059 A 
ATOM     70  C   UNL A   1      45.079  34.071  27.767  1.00  0.00     0.059 A 
ATOM     71  F   UNL A   1      43.280  32.875  28.556  1.00  0.00    -0.206 F 
ATOM     72  C   UNL A   1      46.404  34.133  27.361  1.00  0.00     0.060 A 
BRANCH  72  73
ATOM     73  S   UNL A   1      47.226  35.730  27.214  1.00  0.00     0.124 S 
ATOM     74  O   UNL A   1      46.321  36.442  26.320  1.00  0.00    -0.237 OA
ATOM     75  O   UNL A   1      47.252  36.191  28.599  1.00  0.00    -0.237 OA
ATOM     76  O   UNL A   1      48.528  35.383  26.653  1.00  0.00    -0.744 OA
ENDBRANCH  72  73
ENDBRANCH  51  65
BRANCH  52  77
ATOM     77  C   UNL A   1      37.830  32.733  31.433  1.00  0.00     0.058 A 
ATOM     78  C   UNL A   1      37.192  33.130  30.247  1.00  0.00     0.135 A 
ATOM     79  C   UNL A   1      37.208  33.111  32.641  1.00  0.00     0.135 A 
ATOM     80  F   UNL A   1      37.712  32.796  29.058  1.00  0.00    -0.206 F 
ATOM     81  C   UNL A   1      35.979  33.822  30.258  1.00  0.00     0.059 A 
ATOM     82  C   UNL A   1      36.003  33.808  32.677  1.00  0.00     0.059 A 
ATOM     83  F   UNL A   1      37.716  32.733  33.825  1.00  0.00    -0.206 F 
ATOM     84  C   UNL A   1      35.381  34.137  31.480  1.00  0.00     0.060 A 
BRANCH  84  85
ATOM     85  S   UNL A   1      33.729  34.870  31.490  1.00  0.00     0.124 S 
ATOM     86  O   UNL A   1      34.027  36.279  31.718  1.00  0.00    -0.237 OA
ATOM     87  O   UNL A   1      33.236  34.530  30.160  1.00  0.00    -0.237 OA
ATOM     88  O   UNL A   1      33.062  34.186  32.593  1.00  0.00    -0.744 OA
ENDBRANCH  84  85
ENDBRANCH  52  77
BRANCH  64  89
ATOM     89  C   UNL A   1      42.687  29.245  33.774  1.00  0.00     0.058 A 
ATOM     90  C   UNL A   1      41.954  28.074  33.531  1.00  0.00     0.135 A 
ATOM     91  C   UNL A   1      43.202  29.426  35.068  1.00  0.00     0.135 A 
ATOM     92  F   UNL A   1      41.493  27.790  32.305  1.00  0.00    -0.206 F 
ATOM     93  C   UNL A   1      41.717  27.138  34.542  1.00  0.00     0.059 A 
ATOM     94  C   UNL A   1      43.002  28.495  36.082  1.00  0.00     0.059 A 
ATOM     95  F   UNL A   1      43.948  30.508  35.350  1.00  0.00    -0.206 F 
ATOM     96  C   UNL A   1      42.246  27.358  35.814  1.00  0.00     0.060 A 
BRANCH  96  97
ATOM     97  S   UNL A   1      42.000  26.116  37.102  1.00  0.00     0.124 S 
ATOM     98  O   UNL A   1      42.290  24.875  36.392  1.00  0.00    -0.237 OA
ATOM     99  O   UNL A   1      42.975  26.510  38.115  1.00  0.00    -0.237 OA
ATOM    100  O   UNL A   1      40.604  26.300  37.492  1.00  0.00    -0.744 OA
ENDBRANCH  96  97
ENDBRANCH  64  89
ENDBRANCH  38  39
ENDBRANCH  30  33
ENDBRANCH  28  29
ENDBRANCH   1  28
TORSDOF 19
ENDMDL
MODEL 3
REMARK VINA RESULT:     -11.8      2.853      9.446
REMARK SMILES CCn1nc(C(C)C)cc1C(=O)N[C@@H](CC(N)=O)C(=O)NCCCNC(=O)c1ccc(-c2c3nc(c(-c4c(F)cc(S(=O)(=O)[O-])cc4F)c4ccc([nH]4)c(-c4c(F)cc(S(=O)(=O)[O-])cc4F)c4nc(c(-c5c(F)cc(S(=O)(=O)[O-])cc5F)c5ccc2[nH]5)C=C4)C=C3)cc1
REMARK SMILES IDX 23 1 22 2 21 3 19 4 20 5 14 7 13 8 11 9 12 10 10 12 3 13
REMARK SMILES IDX 4 14 5 15 9 16 2 17 1 18 6 19 7 20 8 21 15 22 16 23 17 24
REMARK SMILES IDX 18 25 24 28 25 29 26 30 27 32 28 33 29 34 93 35 30 36 92 37
REMARK SMILES IDX 31 38 32 39 33 40 86 41 34 42 91 43 85 44 87 45 35 46 90 47
REMARK SMILES IDX 84 48 83 49 36 51 70 52 49 53 69 54 50 55 53 56 68 57 88 58
REMARK SMILES IDX 51 59 52 60 67 62 89 63 54 64 37 65 38 66 47 67 39 68 40 69
REMARK SMILES IDX 46 70 48 71 41 72 42 73 43 74 44 75 45 76 71 77 72 78 81 79
REMARK SMILES IDX 73 80 74 81 80 82 82 83 75 84 76 85 77 86 78 87 79 88 55 89
REMARK SMILES IDX 56 90 65 91 57 92 58 93 64 94 66 95 59 96 60 97 61 98 62 99
REMARK SMILES IDX 63 100
REMARK H PARENT 21 6 13 11 17 26 17 27 25 31 87 50 53 61
REMARK Flexibility Score: inf
ROOT
ATOM      1  C   UNL A   1      32.600  29.253  26.923  1.00  0.00     0.042 C 
ENDROOT
BRANCH   1   2
ATOM      2  C   UNL A   1      32.522  28.010  26.047  1.00  0.00     0.117 C 
BRANCH   2   3
ATOM      3  N   UNL A   1      31.472  28.014  25.043  1.00  0.00    -0.354 N 
ATOM      4  C   UNL A   1      30.849  26.960  24.436  1.00  0.00     0.243 C 
ATOM      5  O   UNL A   1      29.701  27.145  24.017  1.00  0.00    -0.273 OA
ATOM      6  H   UNL A   1      31.162  28.905  24.760  1.00  0.00     0.163 HD
BRANCH   4   7
ATOM      7  C   UNL A   1      31.465  25.547  24.366  1.00  0.00     0.181 C 
BRANCH   7   8
ATOM      8  N   UNL A   1      31.095  24.729  25.519  1.00  0.00    -0.338 N 
ATOM      9  C   UNL A   1      31.778  23.840  26.317  1.00  0.00     0.270 C 
ATOM     10  O   UNL A   1      31.161  23.553  27.342  1.00  0.00    -0.268 OA
ATOM     11  H   UNL A   1      30.154  24.839  25.784  1.00  0.00     0.164 HD
BRANCH   9  12
ATOM     12  C   UNL A   1      33.032  23.222  25.927  1.00  0.00     0.126 A 
ATOM     13  N   UNL A   1      33.198  22.003  25.276  1.00  0.00    -0.260 N 
ATOM     14  N   UNL A   1      34.412  21.912  24.665  1.00  0.00    -0.177 NA
ATOM     15  C   UNL A   1      35.130  22.894  25.199  1.00  0.00     0.066 A 
ATOM     16  C   UNL A   1      34.347  23.644  26.095  1.00  0.00     0.059 A 
BRANCH  13  17
ATOM     17  C   UNL A   1      32.419  20.781  25.190  1.00  0.00     0.142 C 
ATOM     18  C   UNL A   1      32.572  19.770  24.075  1.00  0.00     0.029 C 
ENDBRANCH  13  17
BRANCH  15  19
ATOM     19  C   UNL A   1      36.566  23.130  24.829  1.00  0.00     0.034 C 
ATOM     20  C   UNL A   1      37.345  23.793  25.962  1.00  0.00     0.014 C 
ATOM     21  C   UNL A   1      37.267  21.851  24.362  1.00  0.00     0.014 C 
ENDBRANCH  15  19
ENDBRANCH   9  12
ENDBRANCH   7   8
BRANCH   7  22
ATOM     22  C   UNL A   1      31.360  24.866  23.001  1.00  0.00     0.134 C 
BRANCH  22  23
ATOM     23  C   UNL A   1      32.637  24.322  22.428  1.00  0.00     0.220 C 
ATOM     24  N   UNL A   1      32.615  23.007  22.070  1.00  0.00    -0.370 N 
ATOM     25  O   UNL A   1      33.657  24.992  22.300  1.00  0.00    -0.275 OA
ATOM     26  H   UNL A   1      31.789  22.482  22.178  1.00  0.00     0.159 HD
ATOM     27  H   UNL A   1      33.424  22.583  21.704  1.00  0.00     0.159 HD
ENDBRANCH  22  23
ENDBRANCH   7  22
ENDBRANCH   4   7
ENDBRANCH   2   3
ENDBRANCH   1   2
BRANCH   1  28
ATOM     28  C   UNL A   1      34.018  29.619  27.324  1.00  0.00     0.118 C 
BRANCH  28  29
ATOM     29  N   UNL A   1      34.340  31.031  27.097  1.00  0.00    -0.352 N 
ATOM     30  C   UNL A   1      35.349  31.780  27.680  1.00  0.00     0.251 C 
ATOM     31  H   UNL A   1      33.768  31.505  26.451  1.00  0.00     0.163 HD
ATOM     32  O   UNL A   1      35.365  32.995  27.600  1.00  0.00    -0.269 OA
BRANCH  30  33
ATOM     33  C   UNL A   1      36.382  31.048  28.434  1.00  0.00     0.039 A 
ATOM     34  C   UNL A   1      36.496  29.664  28.308  1.00  0.00     0.014 A 
ATOM     35  C   UNL A   1      37.352  31.797  29.090  1.00  0.00     0.014 A 
ATOM     36  C   UNL A   1      37.674  29.051  28.730  1.00  0.00     0.010 A 
ATOM     37  C   UNL A   1      38.569  31.208  29.364  1.00  0.00     0.010 A 
ATOM     38  C   UNL A   1      38.742  29.833  29.207  1.00  0.00    -0.014 A 
BRANCH  38  39
ATOM     39  C   UNL A   1      40.061  29.218  29.413  1.00  0.00     0.031 A 
ATOM     40  C   UNL A   1      40.495  29.058  30.833  1.00  0.00     0.074 A 
ATOM     41  C   UNL A   1      40.796  28.623  28.447  1.00  0.00     0.049 A 
ATOM     42  N   UNL A   1      41.436  29.694  31.451  1.00  0.00    -0.248 NA
ATOM     43  C   UNL A   1      39.733  28.144  31.701  1.00  0.00     0.031 C 
ATOM     44  C   UNL A   1      40.405  28.354  27.058  1.00  0.00     0.029 A 
ATOM     45  N   UNL A   1      42.025  28.029  28.534  1.00  0.00    -0.354 N 
ATOM     46  C   UNL A   1      41.551  29.090  32.702  1.00  0.00     0.074 A 
ATOM     47  C   UNL A   1      40.370  28.283  32.867  1.00  0.00     0.031 C 
ATOM     48  C   UNL A   1      41.241  27.444  26.520  1.00  0.00     0.029 A 
ATOM     49  C   UNL A   1      42.346  27.246  27.437  1.00  0.00     0.049 A 
ATOM     50  H   UNL A   1      42.625  28.147  29.305  1.00  0.00     0.167 HD
ATOM     51  C   UNL A   1      42.734  29.088  33.378  1.00  0.00     0.037 A 
ATOM     52  C   UNL A   1      43.455  26.500  27.234  1.00  0.00     0.037 A 
ATOM     53  C   UNL A   1      43.689  29.972  32.761  1.00  0.00     0.049 A 
ATOM     54  C   UNL A   1      44.551  27.073  28.047  1.00  0.00     0.074 A 
ATOM     55  C   UNL A   1      43.949  31.322  32.727  1.00  0.00     0.029 A 
ATOM     56  N   UNL A   1      44.394  29.393  31.742  1.00  0.00    -0.354 N 
ATOM     57  N   UNL A   1      45.022  28.281  27.872  1.00  0.00    -0.248 NA
ATOM     58  C   UNL A   1      44.952  26.423  29.288  1.00  0.00     0.031 C 
ATOM     59  C   UNL A   1      44.708  31.554  31.540  1.00  0.00     0.029 A 
ATOM     60  C   UNL A   1      44.906  30.338  30.892  1.00  0.00     0.049 A 
ATOM     61  H   UNL A   1      44.519  28.423  31.634  1.00  0.00     0.167 HD
ATOM     62  C   UNL A   1      45.406  28.684  29.134  1.00  0.00     0.074 A 
ATOM     63  C   UNL A   1      45.515  27.460  29.915  1.00  0.00     0.031 C 
ATOM     64  C   UNL A   1      45.269  29.978  29.537  1.00  0.00     0.037 A 
BRANCH  51  65
ATOM     65  C   UNL A   1      43.226  27.986  34.300  1.00  0.00     0.058 A 
ATOM     66  C   UNL A   1      43.531  28.295  35.644  1.00  0.00     0.135 A 
ATOM     67  C   UNL A   1      43.709  26.740  33.842  1.00  0.00     0.135 A 
ATOM     68  F   UNL A   1      43.129  29.456  36.187  1.00  0.00    -0.206 F 
ATOM     69  C   UNL A   1      44.314  27.462  36.449  1.00  0.00     0.059 A 
ATOM     70  C   UNL A   1      44.446  25.872  34.643  1.00  0.00     0.059 A 
ATOM     71  F   UNL A   1      43.578  26.354  32.568  1.00  0.00    -0.206 F 
ATOM     72  C   UNL A   1      44.782  26.259  35.931  1.00  0.00     0.060 A 
BRANCH  72  73
ATOM     73  S   UNL A   1      45.883  25.232  36.921  1.00  0.00     0.124 S 
ATOM     74  O   UNL A   1      45.734  25.834  38.241  1.00  0.00    -0.237 OA
ATOM     75  O   UNL A   1      45.298  23.904  36.753  1.00  0.00    -0.237 OA
ATOM     76  O   UNL A   1      47.181  25.421  36.281  1.00  0.00    -0.744 OA
ENDBRANCH  72  73
ENDBRANCH  51  65
BRANCH  52  77
ATOM     77  C   UNL A   1      43.548  25.215  26.508  1.00  0.00     0.058 A 
ATOM     78  C   UNL A   1      44.394  25.055  25.400  1.00  0.00     0.135 A 
ATOM     79  C   UNL A   1      42.991  24.040  27.052  1.00  0.00     0.135 A 
ATOM     80  F   UNL A   1      44.975  26.123  24.835  1.00  0.00    -0.206 F 
ATOM     81  C   UNL A   1      44.708  23.794  24.888  1.00  0.00     0.059 A 
ATOM     82  C   UNL A   1      43.283  22.772  26.555  1.00  0.00     0.059 A 
ATOM     83  F   UNL A   1      42.211  24.088  28.145  1.00  0.00    -0.206 F 
ATOM     84  C   UNL A   1      44.164  22.656  25.487  1.00  0.00     0.060 A 
BRANCH  84  85
ATOM     85  S   UNL A   1      44.713  21.024  24.940  1.00  0.00     0.124 S 
ATOM     86  O   UNL A   1      43.778  20.145  25.633  1.00  0.00    -0.237 OA
ATOM     87  O   UNL A   1      44.549  21.116  23.493  1.00  0.00    -0.237 OA
ATOM     88  O   UNL A   1      46.095  20.957  25.405  1.00  0.00    -0.744 OA
ENDBRANCH  84  85
ENDBRANCH  52  77
BRANCH  64  89
ATOM     89  C   UNL A   1      45.325  31.057  28.498  1.00  0.00     0.058 A 
ATOM     90  C   UNL A   1      44.216  31.579  27.815  1.00  0.00     0.135 A 
ATOM     91  C   UNL A   1      46.575  31.645  28.243  1.00  0.00     0.135 A 
ATOM     92  F   UNL A   1      42.979  31.126  28.058  1.00  0.00    -0.206 F 
ATOM     93  C   UNL A   1      44.351  32.622  26.893  1.00  0.00     0.059 A 
ATOM     94  C   UNL A   1      46.728  32.701  27.350  1.00  0.00     0.059 A 
ATOM     95  F   UNL A   1      47.667  31.215  28.898  1.00  0.00    -0.206 F 
ATOM     96  C   UNL A   1      45.612  33.176  26.668  1.00  0.00     0.060 A 
BRANCH  96  97
ATOM     97  S   UNL A   1      45.777  34.568  25.530  1.00  0.00     0.124 S 
ATOM     98  O   UNL A   1      47.203  34.547  25.223  1.00  0.00    -0.237 OA
ATOM     99  O   UNL A   1      44.887  34.192  24.436  1.00  0.00    -0.237 OA
ATOM    100  O   UNL A   1      45.326  35.711  26.321  1.00  0.00    -0.744 OA
ENDBRANCH  96  97
ENDBRANCH  64  89
ENDBRANCH  38  39
ENDBRANCH  30  33
ENDBRANCH  28  29
ENDBRANCH   1  28
TORSDOF 19
ENDMDL
