MODEL 1
REMARK VINA RESULT:     -12.3      0.000      0.000
REMARK SMILES Cc1cc(N2CCOC[C@H]2C(=O)NCCCNC(=O)c2ccc(-c3c4nc(c(-c5c(F)cc(S(=O)(=O)[O-])cc5F)c5ccc([nH]5)c(-c5c(F)cc(S(=O)(=O)[O-])cc5F)c5nc(c(-c6c(F)cc(S(=O)(=O)[O-])cc6F)c6ccc3[nH]6)C=C5)C=C4)cc2)ncc1[N+](=O)[O-]
REMARK SMILES IDX 15 1 14 2 13 3 11 4 12 5 10 7 5 8 6 9 7 10 9 11 8 12 4 13
REMARK SMILES IDX 1 14 2 15 3 16 88 17 87 18 86 19 89 20 90 21 91 22 16 23
REMARK SMILES IDX 17 24 18 25 19 27 20 28 21 29 85 30 22 31 84 32 23 33 24 34
REMARK SMILES IDX 25 35 78 36 26 37 83 38 77 39 79 40 27 41 82 42 76 43 75 44
REMARK SMILES IDX 28 46 62 47 41 48 61 49 42 50 45 51 60 52 80 53 43 54 44 55
REMARK SMILES IDX 59 57 81 58 46 59 29 60 30 61 39 62 31 63 32 64 38 65 40 66
REMARK SMILES IDX 33 67 34 68 35 69 36 70 37 71 63 72 64 73 73 74 65 75 66 76
REMARK SMILES IDX 72 77 74 78 67 79 68 80 69 81 70 82 71 83 47 84 48 85 57 86
REMARK SMILES IDX 49 87 50 88 56 89 58 90 51 91 52 92 53 93 54 94 55 95
REMARK H PARENT 13 6 17 26 79 45 45 56
REMARK Flexibility Score: inf
ROOT
ATOM      1  C   UNL A   1      38.960  21.975  26.282  1.00  0.00     0.042 C 
ENDROOT
BRANCH   1   2
ATOM      2  C   UNL A   1      37.699  22.108  25.444  1.00  0.00     0.117 C 
BRANCH   2   3
ATOM      3  N   UNL A   1      36.533  22.416  26.242  1.00  0.00    -0.354 N 
ATOM      4  C   UNL A   1      35.207  22.253  25.995  1.00  0.00     0.245 C 
ATOM      5  O   UNL A   1      34.448  22.600  26.914  1.00  0.00    -0.273 OA
ATOM      6  H   UNL A   1      36.736  22.815  27.118  1.00  0.00     0.163 HD
BRANCH   4   7
ATOM      7  C   UNL A   1      34.605  21.692  24.687  1.00  0.00     0.199 C 
ATOM      8  N   UNL A   1      33.311  21.004  24.877  1.00  0.00    -0.340 N 
ATOM      9  C   UNL A   1      32.082  21.711  24.513  1.00  0.00     0.147 C 
ATOM     10  C   UNL A   1      32.247  22.557  23.248  1.00  0.00     0.181 C 
ATOM     11  C   UNL A   1      34.604  22.648  23.482  1.00  0.00     0.195 C 
ATOM     12  O   UNL A   1      33.401  23.404  23.298  1.00  0.00    -0.377 OA
BRANCH   8  13
ATOM     13  C   UNL A   1      33.278  19.625  24.959  1.00  0.00     0.130 A 
ATOM     14  C   UNL A   1      34.379  16.672  22.859  1.00  0.00     0.052 C 
ATOM     15  C   UNL A   1      33.755  17.407  24.011  1.00  0.00     0.032 A 
ATOM     16  C   UNL A   1      33.784  18.818  23.935  1.00  0.00     0.057 A 
ATOM     17  C   UNL A   1      33.155  16.847  25.144  1.00  0.00     0.290 A 
ATOM     18  C   UNL A   1      32.688  17.706  26.131  1.00  0.00     0.199 A 
ATOM     19  N   UNL A   1      32.745  19.060  26.057  1.00  0.00    -0.232 NA
BRANCH  17  20
ATOM     20  N   UNL A   1      32.950  15.415  25.360  1.00  0.00     0.064 N 
ATOM     21  O   UNL A   1      31.785  15.020  25.513  1.00  0.00    -0.258 OA
ATOM     22  O   UNL A   1      33.932  14.664  25.327  1.00  0.00    -0.258 OA
ENDBRANCH  17  20
ENDBRANCH   8  13
ENDBRANCH   4   7
ENDBRANCH   2   3
ENDBRANCH   1   2
BRANCH   1  23
ATOM     23  C   UNL A   1      39.548  23.312  26.698  1.00  0.00     0.118 C 
BRANCH  23  24
ATOM     24  N   UNL A   1      40.861  23.547  26.106  1.00  0.00    -0.352 N 
ATOM     25  C   UNL A   1      41.720  24.612  26.242  1.00  0.00     0.251 C 
ATOM     26  H   UNL A   1      41.184  22.828  25.516  1.00  0.00     0.163 HD
ATOM     27  O   UNL A   1      42.682  24.711  25.490  1.00  0.00    -0.269 OA
BRANCH  25  28
ATOM     28  C   UNL A   1      41.472  25.641  27.275  1.00  0.00     0.039 A 
ATOM     29  C   UNL A   1      40.504  25.407  28.254  1.00  0.00     0.014 A 
ATOM     30  C   UNL A   1      42.190  26.838  27.275  1.00  0.00     0.014 A 
ATOM     31  C   UNL A   1      40.308  26.344  29.272  1.00  0.00     0.010 A 
ATOM     32  C   UNL A   1      42.073  27.715  28.345  1.00  0.00     0.010 A 
ATOM     33  C   UNL A   1      41.121  27.486  29.349  1.00  0.00    -0.014 A 
BRANCH  33  34
ATOM     34  C   UNL A   1      40.986  28.477  30.446  1.00  0.00     0.031 A 
ATOM     35  C   UNL A   1      41.871  28.363  31.660  1.00  0.00     0.074 A 
ATOM     36  C   UNL A   1      40.022  29.417  30.390  1.00  0.00     0.049 A 
ATOM     37  N   UNL A   1      41.828  29.036  32.780  1.00  0.00    -0.248 NA
ATOM     38  C   UNL A   1      42.921  27.330  31.622  1.00  0.00     0.031 C 
ATOM     39  C   UNL A   1      39.081  29.602  29.282  1.00  0.00     0.029 A 
ATOM     40  N   UNL A   1      39.663  30.387  31.292  1.00  0.00    -0.354 N 
ATOM     41  C   UNL A   1      42.829  28.498  33.582  1.00  0.00     0.074 A 
ATOM     42  C   UNL A   1      43.417  27.401  32.848  1.00  0.00     0.031 C 
ATOM     43  C   UNL A   1      38.270  30.635  29.560  1.00  0.00     0.029 A 
ATOM     44  C   UNL A   1      38.596  31.154  30.884  1.00  0.00     0.049 A 
ATOM     45  H   UNL A   1      40.125  30.520  32.150  1.00  0.00     0.167 HD
ATOM     46  C   UNL A   1      43.239  28.902  34.807  1.00  0.00     0.037 A 
ATOM     47  C   UNL A   1      37.945  32.152  31.514  1.00  0.00     0.037 A 
ATOM     48  C   UNL A   1      42.663  30.013  35.517  1.00  0.00     0.049 A 
ATOM     49  C   UNL A   1      38.403  32.566  32.888  1.00  0.00     0.074 A 
ATOM     50  C   UNL A   1      43.032  30.534  36.744  1.00  0.00     0.029 A 
ATOM     51  N   UNL A   1      41.598  30.776  35.060  1.00  0.00    -0.354 N 
ATOM     52  N   UNL A   1      39.383  32.079  33.611  1.00  0.00    -0.248 NA
ATOM     53  C   UNL A   1      37.671  33.666  33.532  1.00  0.00     0.031 C 
ATOM     54  C   UNL A   1      42.159  31.581  37.052  1.00  0.00     0.029 A 
ATOM     55  C   UNL A   1      41.284  31.753  35.990  1.00  0.00     0.049 A 
ATOM     56  H   UNL A   1      41.134  30.643  34.202  1.00  0.00     0.167 HD
ATOM     57  C   UNL A   1      39.411  32.838  34.776  1.00  0.00     0.074 A 
ATOM     58  C   UNL A   1      38.350  33.817  34.661  1.00  0.00     0.031 C 
ATOM     59  C   UNL A   1      40.241  32.737  35.843  1.00  0.00     0.037 A 
BRANCH  46  60
ATOM     60  C   UNL A   1      44.369  28.146  35.452  1.00  0.00     0.058 A 
ATOM     61  C   UNL A   1      44.137  27.010  36.246  1.00  0.00     0.135 A 
ATOM     62  C   UNL A   1      45.702  28.535  35.244  1.00  0.00     0.135 A 
ATOM     63  F   UNL A   1      42.882  26.600  36.493  1.00  0.00    -0.206 F 
ATOM     64  C   UNL A   1      45.183  26.309  36.837  1.00  0.00     0.059 A 
ATOM     65  C   UNL A   1      46.766  27.828  35.798  1.00  0.00     0.059 A 
ATOM     66  F   UNL A   1      45.983  29.614  34.496  1.00  0.00    -0.206 F 
ATOM     67  C   UNL A   1      46.494  26.725  36.605  1.00  0.00     0.060 A 
BRANCH  67  68
ATOM     68  S   UNL A   1      47.838  25.796  37.372  1.00  0.00     0.124 S 
ATOM     69  O   UNL A   1      49.009  26.490  36.845  1.00  0.00    -0.237 OA
ATOM     70  O   UNL A   1      47.576  25.987  38.795  1.00  0.00    -0.237 OA
ATOM     71  O   UNL A   1      47.641  24.437  36.877  1.00  0.00    -0.744 OA
ENDBRANCH  67  68
ENDBRANCH  46  60
BRANCH  47  72
ATOM     72  C   UNL A   1      36.807  32.842  30.848  1.00  0.00     0.058 A 
ATOM     73  C   UNL A   1      35.481  32.494  31.146  1.00  0.00     0.135 A 
ATOM     74  C   UNL A   1      37.017  33.861  29.905  1.00  0.00     0.135 A 
ATOM     75  F   UNL A   1      35.226  31.524  32.036  1.00  0.00    -0.206 F 
ATOM     76  C   UNL A   1      34.405  33.114  30.518  1.00  0.00     0.059 A 
ATOM     77  C   UNL A   1      35.957  34.516  29.285  1.00  0.00     0.059 A 
ATOM     78  F   UNL A   1      38.266  34.247  29.597  1.00  0.00    -0.206 F 
ATOM     79  C   UNL A   1      34.653  34.125  29.589  1.00  0.00     0.060 A 
BRANCH  79  80
ATOM     80  S   UNL A   1      33.248  34.943  28.804  1.00  0.00     0.124 S 
ATOM     81  O   UNL A   1      32.403  35.243  29.952  1.00  0.00    -0.237 OA
ATOM     82  O   UNL A   1      33.884  36.088  28.160  1.00  0.00    -0.237 OA
ATOM     83  O   UNL A   1      32.735  33.925  27.890  1.00  0.00    -0.744 OA
ENDBRANCH  79  80
ENDBRANCH  47  72
BRANCH  59  84
ATOM     84  C   UNL A   1      40.085  33.741  36.951  1.00  0.00     0.058 A 
ATOM     85  C   UNL A   1      40.780  34.959  36.951  1.00  0.00     0.135 A 
ATOM     86  C   UNL A   1      39.152  33.516  37.977  1.00  0.00     0.135 A 
ATOM     87  F   UNL A   1      41.688  35.220  35.997  1.00  0.00    -0.206 F 
ATOM     88  C   UNL A   1      40.561  35.918  37.934  1.00  0.00     0.059 A 
ATOM     89  C   UNL A   1      38.895  34.473  38.952  1.00  0.00     0.059 A 
ATOM     90  F   UNL A   1      38.455  32.370  38.017  1.00  0.00    -0.206 F 
ATOM     91  C   UNL A   1      39.608  35.670  38.924  1.00  0.00     0.060 A 
BRANCH  91  92
ATOM     92  S   UNL A   1      39.281  36.954  40.150  1.00  0.00     0.124 S 
ATOM     93  O   UNL A   1      38.445  36.241  41.109  1.00  0.00    -0.237 OA
ATOM     94  O   UNL A   1      40.626  37.293  40.610  1.00  0.00    -0.237 OA
ATOM     95  O   UNL A   1      38.607  37.996  39.382  1.00  0.00    -0.744 OA
ENDBRANCH  91  92
ENDBRANCH  59  84
ENDBRANCH  33  34
ENDBRANCH  25  28
ENDBRANCH  23  24
ENDBRANCH   1  23
TORSDOF 15
ENDMDL
MODEL 2
REMARK VINA RESULT:     -12.2      0.694      8.318
REMARK SMILES Cc1cc(N2CCOC[C@H]2C(=O)NCCCNC(=O)c2ccc(-c3c4nc(c(-c5c(F)cc(S(=O)(=O)[O-])cc5F)c5ccc([nH]5)c(-c5c(F)cc(S(=O)(=O)[O-])cc5F)c5nc(c(-c6c(F)cc(S(=O)(=O)[O-])cc6F)c6ccc3[nH]6)C=C5)C=C4)cc2)ncc1[N+](=O)[O-]
REMARK SMILES IDX 15 1 14 2 13 3 11 4 12 5 10 7 5 8 6 9 7 10 9 11 8 12 4 13
REMARK SMILES IDX 1 14 2 15 3 16 88 17 87 18 86 19 89 20 90 21 91 22 16 23
REMARK SMILES IDX 17 24 18 25 19 27 20 28 21 29 85 30 22 31 84 32 23 33 24 34
REMARK SMILES IDX 25 35 78 36 26 37 83 38 77 39 79 40 27 41 82 42 76 43 75 44
REMARK SMILES IDX 28 46 62 47 41 48 61 49 42 50 45 51 60 52 80 53 43 54 44 55
REMARK SMILES IDX 59 57 81 58 46 59 29 60 30 61 39 62 31 63 32 64 38 65 40 66
REMARK SMILES IDX 33 67 34 68 35 69 36 70 37 71 63 72 64 73 73 74 65 75 66 76
REMARK SMILES IDX 72 77 74 78 67 79 68 80 69 81 70 82 71 83 47 84 48 85 57 86
REMARK SMILES IDX 49 87 50 88 56 89 58 90 51 91 52 92 53 93 54 94 55 95
REMARK H PARENT 13 6 17 26 79 45 45 56
REMARK Flexibility Score: inf
ROOT
ATOM      1  C   UNL A   1      38.766  22.681  26.480  1.00  0.00     0.042 C 
ENDROOT
BRANCH   1   2
ATOM      2  C   UNL A   1      37.530  22.265  25.698  1.00  0.00     0.117 C 
BRANCH   2   3
ATOM      3  N   UNL A   1      36.305  22.494  26.432  1.00  0.00    -0.354 N 
ATOM      4  C   UNL A   1      35.007  22.264  26.108  1.00  0.00     0.245 C 
ATOM      5  O   UNL A   1      34.179  22.552  26.987  1.00  0.00    -0.273 OA
ATOM      6  H   UNL A   1      36.437  22.886  27.325  1.00  0.00     0.163 HD
BRANCH   4   7
ATOM      7  C   UNL A   1      34.512  21.696  24.758  1.00  0.00     0.199 C 
ATOM      8  N   UNL A   1      33.222  20.980  24.854  1.00  0.00    -0.340 N 
ATOM      9  C   UNL A   1      32.007  21.664  24.406  1.00  0.00     0.147 C 
ATOM     10  C   UNL A   1      32.244  22.519  23.158  1.00  0.00     0.181 C 
ATOM     11  C   UNL A   1      34.575  22.658  23.559  1.00  0.00     0.195 C 
ATOM     12  O   UNL A   1      33.374  23.390  23.293  1.00  0.00    -0.377 OA
BRANCH   8  13
ATOM     13  C   UNL A   1      33.212  19.601  24.928  1.00  0.00     0.130 A 
ATOM     14  C   UNL A   1      34.311  16.677  22.788  1.00  0.00     0.052 C 
ATOM     15  C   UNL A   1      33.702  17.396  23.959  1.00  0.00     0.032 A 
ATOM     16  C   UNL A   1      33.707  18.807  23.890  1.00  0.00     0.057 A 
ATOM     17  C   UNL A   1      33.137  16.820  25.101  1.00  0.00     0.290 A 
ATOM     18  C   UNL A   1      32.679  17.667  26.104  1.00  0.00     0.199 A 
ATOM     19  N   UNL A   1      32.713  19.022  26.036  1.00  0.00    -0.232 NA
BRANCH  17  20
ATOM     20  N   UNL A   1      32.959  15.385  25.314  1.00  0.00     0.064 N 
ATOM     21  O   UNL A   1      33.974  14.673  25.302  1.00  0.00    -0.258 OA
ATOM     22  O   UNL A   1      31.822  14.957  25.548  1.00  0.00    -0.258 OA
ENDBRANCH  17  20
ENDBRANCH   8  13
ENDBRANCH   4   7
ENDBRANCH   2   3
ENDBRANCH   1   2
BRANCH   1  23
ATOM     23  C   UNL A   1      38.951  24.187  26.552  1.00  0.00     0.118 C 
BRANCH  23  24
ATOM     24  N   UNL A   1      40.085  24.643  25.756  1.00  0.00    -0.352 N 
ATOM     25  C   UNL A   1      40.926  25.716  25.938  1.00  0.00     0.251 C 
ATOM     26  H   UNL A   1      40.280  24.095  24.961  1.00  0.00     0.163 HD
ATOM     27  O   UNL A   1      41.685  26.048  25.036  1.00  0.00    -0.269 OA
BRANCH  25  28
ATOM     28  C   UNL A   1      40.899  26.475  27.207  1.00  0.00     0.039 A 
ATOM     29  C   UNL A   1      41.661  27.640  27.323  1.00  0.00     0.014 A 
ATOM     30  C   UNL A   1      40.128  26.035  28.284  1.00  0.00     0.014 A 
ATOM     31  C   UNL A   1      41.591  28.399  28.495  1.00  0.00     0.010 A 
ATOM     32  C   UNL A   1      39.975  26.845  29.402  1.00  0.00     0.010 A 
ATOM     33  C   UNL A   1      40.715  28.028  29.527  1.00  0.00    -0.014 A 
BRANCH  33  34
ATOM     34  C   UNL A   1      40.568  28.838  30.763  1.00  0.00     0.031 A 
ATOM     35  C   UNL A   1      39.535  29.933  30.812  1.00  0.00     0.074 A 
ATOM     36  C   UNL A   1      41.409  28.646  31.798  1.00  0.00     0.049 A 
ATOM     37  N   UNL A   1      39.331  30.837  31.735  1.00  0.00    -0.248 NA
ATOM     38  C   UNL A   1      38.633  30.049  29.653  1.00  0.00     0.031 C 
ATOM     39  C   UNL A   1      42.473  27.640  31.851  1.00  0.00     0.029 A 
ATOM     40  N   UNL A   1      41.513  29.298  33.001  1.00  0.00    -0.354 N 
ATOM     41  C   UNL A   1      38.296  31.635  31.260  1.00  0.00     0.074 A 
ATOM     42  C   UNL A   1      37.958  31.150  29.941  1.00  0.00     0.031 C 
ATOM     43  C   UNL A   1      43.105  27.728  33.033  1.00  0.00     0.029 A 
ATOM     44  C   UNL A   1      42.528  28.826  33.801  1.00  0.00     0.049 A 
ATOM     45  H   UNL A   1      40.917  30.036  33.266  1.00  0.00     0.167 HD
ATOM     46  C   UNL A   1      37.664  32.658  31.881  1.00  0.00     0.037 A 
ATOM     47  C   UNL A   1      42.954  29.243  35.010  1.00  0.00     0.037 A 
ATOM     48  C   UNL A   1      37.992  33.113  33.206  1.00  0.00     0.049 A 
ATOM     49  C   UNL A   1      42.254  30.402  35.669  1.00  0.00     0.074 A 
ATOM     50  C   UNL A   1      37.387  34.113  33.946  1.00  0.00     0.029 A 
ATOM     51  N   UNL A   1      39.013  32.595  33.990  1.00  0.00    -0.354 N 
ATOM     52  N   UNL A   1      41.244  31.113  35.227  1.00  0.00    -0.248 NA
ATOM     53  C   UNL A   1      42.746  30.814  36.991  1.00  0.00     0.031 C 
ATOM     54  C   UNL A   1      38.074  34.233  35.158  1.00  0.00     0.029 A 
ATOM     55  C   UNL A   1      39.067  33.267  35.199  1.00  0.00     0.049 A 
ATOM     56  H   UNL A   1      39.611  31.858  33.726  1.00  0.00     0.167 HD
ATOM     57  C   UNL A   1      40.954  32.029  36.232  1.00  0.00     0.074 A 
ATOM     58  C   UNL A   1      41.895  31.782  37.305  1.00  0.00     0.031 C 
ATOM     59  C   UNL A   1      39.995  32.986  36.266  1.00  0.00     0.037 A 
BRANCH  46  60
ATOM     60  C   UNL A   1      36.551  33.348  31.140  1.00  0.00     0.058 A 
ATOM     61  C   UNL A   1      36.806  34.187  30.042  1.00  0.00     0.135 A 
ATOM     62  C   UNL A   1      35.212  33.138  31.503  1.00  0.00     0.135 A 
ATOM     63  F   UNL A   1      38.069  34.438  29.660  1.00  0.00    -0.206 F 
ATOM     64  C   UNL A   1      35.777  34.820  29.354  1.00  0.00     0.059 A 
ATOM     65  C   UNL A   1      34.163  33.734  30.807  1.00  0.00     0.059 A 
ATOM     66  F   UNL A   1      34.908  32.348  32.544  1.00  0.00    -0.206 F 
ATOM     67  C   UNL A   1      34.457  34.585  29.743  1.00  0.00     0.060 A 
BRANCH  67  68
ATOM     68  S   UNL A   1      33.134  35.407  28.831  1.00  0.00     0.124 S 
ATOM     69  O   UNL A   1      32.336  35.967  29.918  1.00  0.00    -0.237 OA
ATOM     70  O   UNL A   1      33.868  36.374  28.021  1.00  0.00    -0.237 OA
ATOM     71  O   UNL A   1      32.504  34.319  28.089  1.00  0.00    -0.744 OA
ENDBRANCH  67  68
ENDBRANCH  46  60
BRANCH  47  72
ATOM     72  C   UNL A   1      44.087  28.551  35.684  1.00  0.00     0.058 A 
ATOM     73  C   UNL A   1      43.855  27.500  36.582  1.00  0.00     0.135 A 
ATOM     74  C   UNL A   1      45.420  28.921  35.444  1.00  0.00     0.135 A 
ATOM     75  F   UNL A   1      42.600  27.110  36.850  1.00  0.00    -0.206 F 
ATOM     76  C   UNL A   1      44.901  26.855  37.237  1.00  0.00     0.059 A 
ATOM     77  C   UNL A   1      46.483  28.273  36.064  1.00  0.00     0.059 A 
ATOM     78  F   UNL A   1      45.699  29.909  34.578  1.00  0.00    -0.206 F 
ATOM     79  C   UNL A   1      46.212  27.249  36.970  1.00  0.00     0.060 A 
BRANCH  79  80
ATOM     80  S   UNL A   1      47.561  26.384  37.803  1.00  0.00     0.124 S 
ATOM     81  O   UNL A   1      48.700  26.743  36.967  1.00  0.00    -0.237 OA
ATOM     82  O   UNL A   1      47.530  26.983  39.134  1.00  0.00    -0.237 OA
ATOM     83  O   UNL A   1      47.150  24.985  37.744  1.00  0.00    -0.744 OA
ENDBRANCH  79  80
ENDBRANCH  47  72
BRANCH  59  84
ATOM     84  C   UNL A   1      39.864  33.804  37.521  1.00  0.00     0.058 A 
ATOM     85  C   UNL A   1      40.495  35.049  37.664  1.00  0.00     0.135 A 
ATOM     86  C   UNL A   1      39.016  33.374  38.555  1.00  0.00     0.135 A 
ATOM     87  F   UNL A   1      41.322  35.502  36.709  1.00  0.00    -0.206 F 
ATOM     88  C   UNL A   1      40.295  35.837  38.793  1.00  0.00     0.059 A 
ATOM     89  C   UNL A   1      38.778  34.159  39.678  1.00  0.00     0.059 A 
ATOM     90  F   UNL A   1      38.382  32.195  38.463  1.00  0.00    -0.206 F 
ATOM     91  C   UNL A   1      39.426  35.388  39.789  1.00  0.00     0.060 A 
BRANCH  91  92
ATOM     92  S   UNL A   1      39.119  36.455  41.213  1.00  0.00     0.124 S 
ATOM     93  O   UNL A   1      37.984  35.788  41.842  1.00  0.00    -0.237 OA
ATOM     94  O   UNL A   1      40.384  36.375  41.938  1.00  0.00    -0.237 OA
ATOM     95  O   UNL A   1      38.830  37.753  40.611  1.00  0.00    -0.744 OA
ENDBRANCH  91  92
ENDBRANCH  59  84
ENDBRANCH  33  34
ENDBRANCH  25  28
ENDBRANCH  23  24
ENDBRANCH   1  23
TORSDOF 15
ENDMDL
MODEL 3
REMARK VINA RESULT:     -12.2      4.998     10.261
REMARK SMILES Cc1cc(N2CCOC[C@H]2C(=O)NCCCNC(=O)c2ccc(-c3c4nc(c(-c5c(F)cc(S(=O)(=O)[O-])cc5F)c5ccc([nH]5)c(-c5c(F)cc(S(=O)(=O)[O-])cc5F)c5nc(c(-c6c(F)cc(S(=O)(=O)[O-])cc6F)c6ccc3[nH]6)C=C5)C=C4)cc2)ncc1[N+](=O)[O-]
REMARK SMILES IDX 15 1 14 2 13 3 11 4 12 5 10 7 5 8 6 9 7 10 9 11 8 12 4 13
REMARK SMILES IDX 1 14 2 15 3 16 88 17 87 18 86 19 89 20 90 21 91 22 16 23
REMARK SMILES IDX 17 24 18 25 19 27 20 28 21 29 85 30 22 31 84 32 23 33 24 34
REMARK SMILES IDX 25 35 78 36 26 37 83 38 77 39 79 40 27 41 82 42 76 43 75 44
REMARK SMILES IDX 28 46 62 47 41 48 61 49 42 50 45 51 60 52 80 53 43 54 44 55
REMARK SMILES IDX 59 57 81 58 46 59 29 60 30 61 39 62 31 63 32 64 38 65 40 66
REMARK SMILES IDX 33 67 34 68 35 69 36 70 37 71 63 72 64 73 73 74 65 75 66 76
REMARK SMILES IDX 72 77 74 78 67 79 68 80 69 81 70 82 71 83 47 84 48 85 57 86
REMARK SMILES IDX 49 87 50 88 56 89 58 90 51 91 52 92 53 93 54 94 55 95
REMARK H PARENT 13 6 17 26 79 45 45 56
REMARK Flexibility Score: inf
ROOT
ATOM      1  C   UNL A   1      34.119  28.223  25.785  1.00  0.00     0.042 C 
ENDROOT
BRANCH   1   2
ATOM      2  C   UNL A   1      33.047  28.351  24.715  1.00  0.00     0.117 C 
BRANCH   2   3
ATOM      3  N   UNL A   1      33.485  27.853  23.429  1.00  0.00    -0.354 N 
ATOM      4  C   UNL A   1      33.189  26.708  22.761  1.00  0.00     0.245 C 
ATOM      5  O   UNL A   1      33.719  26.592  21.644  1.00  0.00    -0.273 OA
ATOM      6  H   UNL A   1      34.107  28.451  22.955  1.00  0.00     0.163 HD
BRANCH   4   7
ATOM      7  C   UNL A   1      32.276  25.578  23.288  1.00  0.00     0.199 C 
ATOM      8  N   UNL A   1      32.696  25.040  24.599  1.00  0.00    -0.340 N 
ATOM      9  C   UNL A   1      31.966  25.464  25.796  1.00  0.00     0.147 C 
ATOM     10  C   UNL A   1      30.463  25.604  25.544  1.00  0.00     0.181 C 
ATOM     11  C   UNL A   1      30.763  25.842  23.205  1.00  0.00     0.195 C 
ATOM     12  O   UNL A   1      30.169  26.394  24.385  1.00  0.00    -0.377 OA
BRANCH   8  13
ATOM     13  C   UNL A   1      33.425  23.868  24.652  1.00  0.00     0.130 A 
ATOM     14  C   UNL A   1      36.788  22.609  23.450  1.00  0.00     0.052 C 
ATOM     15  C   UNL A   1      35.434  22.564  24.101  1.00  0.00     0.032 A 
ATOM     16  C   UNL A   1      34.682  23.758  24.050  1.00  0.00     0.057 A 
ATOM     17  C   UNL A   1      34.846  21.472  24.748  1.00  0.00     0.290 A 
ATOM     18  C   UNL A   1      33.602  21.654  25.341  1.00  0.00     0.199 A 
ATOM     19  N   UNL A   1      32.900  22.815  25.306  1.00  0.00    -0.232 NA
BRANCH  17  20
ATOM     20  N   UNL A   1      35.426  20.133  24.825  1.00  0.00     0.064 N 
ATOM     21  O   UNL A   1      34.669  19.168  24.644  1.00  0.00    -0.258 OA
ATOM     22  O   UNL A   1      36.645  20.024  25.013  1.00  0.00    -0.258 OA
ENDBRANCH  17  20
ENDBRANCH   8  13
ENDBRANCH   4   7
ENDBRANCH   2   3
ENDBRANCH   1   2
BRANCH   1  23
ATOM     23  C   UNL A   1      33.588  28.425  27.194  1.00  0.00     0.118 C 
BRANCH  23  24
ATOM     24  N   UNL A   1      33.531  29.834  27.567  1.00  0.00    -0.352 N 
ATOM     25  C   UNL A   1      34.463  30.625  28.196  1.00  0.00     0.251 C 
ATOM     26  H   UNL A   1      32.692  30.292  27.331  1.00  0.00     0.163 HD
ATOM     27  O   UNL A   1      34.135  31.731  28.610  1.00  0.00    -0.269 OA
BRANCH  25  28
ATOM     28  C   UNL A   1      35.845  30.136  28.390  1.00  0.00     0.039 A 
ATOM     29  C   UNL A   1      36.741  30.176  27.320  1.00  0.00     0.014 A 
ATOM     30  C   UNL A   1      36.256  29.631  29.625  1.00  0.00     0.014 A 
ATOM     31  C   UNL A   1      38.067  29.777  27.511  1.00  0.00     0.010 A 
ATOM     32  C   UNL A   1      37.596  29.340  29.842  1.00  0.00     0.010 A 
ATOM     33  C   UNL A   1      38.514  29.395  28.785  1.00  0.00    -0.014 A 
BRANCH  33  34
ATOM     34  C   UNL A   1      39.927  29.020  29.044  1.00  0.00     0.031 A 
ATOM     35  C   UNL A   1      40.879  30.050  29.595  1.00  0.00     0.074 A 
ATOM     36  C   UNL A   1      40.370  27.792  28.708  1.00  0.00     0.049 A 
ATOM     37  N   UNL A   1      42.172  29.973  29.767  1.00  0.00    -0.248 NA
ATOM     38  C   UNL A   1      40.302  31.354  29.968  1.00  0.00     0.031 C 
ATOM     39  C   UNL A   1      39.551  26.723  28.134  1.00  0.00     0.029 A 
ATOM     40  N   UNL A   1      41.624  27.239  28.789  1.00  0.00    -0.354 N 
ATOM     41  C   UNL A   1      42.564  31.216  30.250  1.00  0.00     0.074 A 
ATOM     42  C   UNL A   1      41.384  32.051  30.280  1.00  0.00     0.031 C 
ATOM     43  C   UNL A   1      40.317  25.638  27.935  1.00  0.00     0.029 A 
ATOM     44  C   UNL A   1      41.690  25.948  28.320  1.00  0.00     0.049 A 
ATOM     45  H   UNL A   1      42.402  27.722  29.149  1.00  0.00     0.167 HD
ATOM     46  C   UNL A   1      43.791  31.616  30.660  1.00  0.00     0.037 A 
ATOM     47  C   UNL A   1      42.742  25.114  28.199  1.00  0.00     0.037 A 
ATOM     48  C   UNL A   1      44.952  30.767  30.650  1.00  0.00     0.049 A 
ATOM     49  C   UNL A   1      44.103  25.591  28.636  1.00  0.00     0.074 A 
ATOM     50  C   UNL A   1      46.233  31.058  31.084  1.00  0.00     0.029 A 
ATOM     51  N   UNL A   1      44.972  29.460  30.186  1.00  0.00    -0.354 N 
ATOM     52  N   UNL A   1      44.446  26.754  29.136  1.00  0.00    -0.248 NA
ATOM     53  C   UNL A   1      45.218  24.645  28.495  1.00  0.00     0.031 C 
ATOM     54  C   UNL A   1      47.039  29.943  30.836  1.00  0.00     0.029 A 
ATOM     55  C   UNL A   1      46.248  28.936  30.306  1.00  0.00     0.049 A 
ATOM     56  H   UNL A   1      44.194  28.976  29.826  1.00  0.00     0.167 HD
ATOM     57  C   UNL A   1      45.807  26.665  29.407  1.00  0.00     0.074 A 
ATOM     58  C   UNL A   1      46.224  25.334  29.016  1.00  0.00     0.031 C 
ATOM     59  C   UNL A   1      46.636  27.598  29.936  1.00  0.00     0.037 A 
BRANCH  46  60
ATOM     60  C   UNL A   1      43.936  33.028  31.160  1.00  0.00     0.058 A 
ATOM     61  C   UNL A   1      44.191  34.097  30.286  1.00  0.00     0.135 A 
ATOM     62  C   UNL A   1      43.781  33.324  32.524  1.00  0.00     0.135 A 
ATOM     63  F   UNL A   1      44.366  33.872  28.973  1.00  0.00    -0.206 F 
ATOM     64  C   UNL A   1      44.321  35.402  30.748  1.00  0.00     0.059 A 
ATOM     65  C   UNL A   1      43.873  34.627  33.005  1.00  0.00     0.059 A 
ATOM     66  F   UNL A   1      43.538  32.342  33.406  1.00  0.00    -0.206 F 
ATOM     67  C   UNL A   1      44.157  35.657  32.111  1.00  0.00     0.060 A 
BRANCH  67  68
ATOM     68  S   UNL A   1      44.318  37.359  32.691  1.00  0.00     0.124 S 
ATOM     69  O   UNL A   1      44.227  38.103  31.438  1.00  0.00    -0.237 OA
ATOM     70  O   UNL A   1      43.176  37.491  33.590  1.00  0.00    -0.237 OA
ATOM     71  O   UNL A   1      45.627  37.377  33.336  1.00  0.00    -0.744 OA
ENDBRANCH  67  68
ENDBRANCH  46  60
BRANCH  47  72
ATOM     72  C   UNL A   1      42.551  23.740  27.660  1.00  0.00     0.058 A 
ATOM     73  C   UNL A   1      42.388  22.646  28.521  1.00  0.00     0.135 A 
ATOM     74  C   UNL A   1      42.524  23.491  26.278  1.00  0.00     0.135 A 
ATOM     75  F   UNL A   1      42.411  22.828  29.850  1.00  0.00    -0.206 F 
ATOM     76  C   UNL A   1      42.229  21.351  28.035  1.00  0.00     0.059 A 
ATOM     77  C   UNL A   1      42.337  22.210  25.768  1.00  0.00     0.059 A 
ATOM     78  F   UNL A   1      42.655  24.505  25.408  1.00  0.00    -0.206 F 
ATOM     79  C   UNL A   1      42.204  21.144  26.656  1.00  0.00     0.060 A 
BRANCH  79  80
ATOM     80  S   UNL A   1      41.965  19.464  26.038  1.00  0.00     0.124 S 
ATOM     81  O   UNL A   1      42.423  18.667  27.169  1.00  0.00    -0.237 OA
ATOM     82  O   UNL A   1      40.530  19.437  25.775  1.00  0.00    -0.237 OA
ATOM     83  O   UNL A   1      42.813  19.420  24.850  1.00  0.00    -0.744 OA
ENDBRANCH  79  80
ENDBRANCH  47  72
BRANCH  59  84
ATOM     84  C   UNL A   1      48.066  27.206  30.183  1.00  0.00     0.058 A 
ATOM     85  C   UNL A   1      49.069  27.418  29.225  1.00  0.00     0.135 A 
ATOM     86  C   UNL A   1      48.450  26.699  31.436  1.00  0.00     0.135 A 
ATOM     87  F   UNL A   1      48.755  27.893  28.010  1.00  0.00    -0.206 F 
ATOM     88  C   UNL A   1      50.403  27.134  29.499  1.00  0.00     0.059 A 
ATOM     89  C   UNL A   1      49.781  26.437  31.741  1.00  0.00     0.059 A 
ATOM     90  F   UNL A   1      47.529  26.487  32.389  1.00  0.00    -0.206 F 
ATOM     91  C   UNL A   1      50.750  26.654  30.763  1.00  0.00     0.060 A 
BRANCH  91  92
ATOM     92  S   UNL A   1      52.494  26.360  31.127  1.00  0.00     0.124 S 
ATOM     93  O   UNL A   1      52.838  27.548  31.903  1.00  0.00    -0.237 OA
ATOM     94  O   UNL A   1      52.447  25.106  31.874  1.00  0.00    -0.237 OA
ATOM     95  O   UNL A   1      53.109  26.273  29.807  1.00  0.00    -0.744 OA
ENDBRANCH  91  92
ENDBRANCH  59  84
ENDBRANCH  33  34
ENDBRANCH  25  28
ENDBRANCH  23  24
ENDBRANCH   1  23
TORSDOF 15
ENDMDL
