MODEL 1
REMARK VINA RESULT:     -11.7      0.000      0.000
REMARK SMILES CC(C)c1ccc([C@]2(C(=O)NCCCNC(=O)c3ccc(-c4c5nc(c(-c6c(F)cc(S(=O)(=O)[O-])cc6F)c6ccc([nH]6)c(-c6c(F)cc(S(=O)(=O)[O-])cc6F)c6nc(c(-c7c(F)cc(S(=O)(=O)[O-])cc7F)c7ccc4[nH]7)C=C6)C=C5)cc3)CCC[C@@H]2C)cc1
REMARK SMILES IDX 13 1 12 2 11 3 9 4 10 5 8 7 84 8 87 9 85 10 86 11 88 12 7 13
REMARK SMILES IDX 4 14 5 15 90 16 6 17 89 18 2 19 1 20 3 21 14 22 15 23 16 24
REMARK SMILES IDX 17 26 18 27 19 28 83 29 20 30 82 31 21 32 22 33 23 34 76 35
REMARK SMILES IDX 24 36 81 37 75 38 77 39 25 40 80 41 74 42 73 43 26 45 60 46
REMARK SMILES IDX 39 47 59 48 40 49 43 50 58 51 78 52 41 53 42 54 57 56 79 57
REMARK SMILES IDX 44 58 27 59 28 60 37 61 29 62 30 63 36 64 38 65 31 66 32 67
REMARK SMILES IDX 33 68 34 69 35 70 61 71 62 72 71 73 63 74 64 75 70 76 72 77
REMARK SMILES IDX 65 78 66 79 67 80 68 81 69 82 45 83 46 84 55 85 47 86 48 87
REMARK SMILES IDX 54 88 56 89 49 90 50 91 51 92 52 93 53 94
REMARK H PARENT 11 6 15 25 77 44 43 55
REMARK Flexibility Score: inf
ROOT
ATOM      1  C   UNL A   1      33.010  27.945  26.061  1.00  0.00     0.042 C 
ENDROOT
BRANCH   1   2
ATOM      2  C   UNL A   1      31.584  27.455  26.233  1.00  0.00     0.117 C 
BRANCH   2   3
ATOM      3  N   UNL A   1      31.493  26.092  26.676  1.00  0.00    -0.355 N 
ATOM      4  C   UNL A   1      32.012  24.939  26.192  1.00  0.00     0.230 C 
ATOM      5  O   UNL A   1      32.173  24.096  27.090  1.00  0.00    -0.274 OA
ATOM      6  H   UNL A   1      30.949  25.973  27.488  1.00  0.00     0.163 HD
BRANCH   4   7
ATOM      7  C   UNL A   1      32.349  24.602  24.668  1.00  0.00     0.077 C 
ATOM      8  C   UNL A   1      31.358  23.571  24.069  1.00  0.00     0.022 C 
ATOM      9  C   UNL A   1      32.224  25.808  23.655  1.00  0.00     0.006 C 
ATOM     10  C   UNL A   1      30.342  24.297  23.195  1.00  0.00     0.002 C 
ATOM     11  C   UNL A   1      30.825  25.721  23.010  1.00  0.00     0.005 C 
ATOM     12  C   UNL A   1      33.176  25.842  22.438  1.00  0.00     0.009 C 
BRANCH   7  13
ATOM     13  C   UNL A   1      33.784  23.989  24.742  1.00  0.00    -0.032 A 
ATOM     14  C   UNL A   1      36.415  22.879  24.849  1.00  0.00    -0.045 A 
ATOM     15  C   UNL A   1      35.420  22.315  24.039  1.00  0.00     0.004 A 
ATOM     16  C   UNL A   1      36.106  24.071  25.513  1.00  0.00     0.004 A 
ATOM     17  C   UNL A   1      34.145  22.881  23.959  1.00  0.00     0.005 A 
ATOM     18  C   UNL A   1      34.817  24.617  25.457  1.00  0.00     0.005 A 
BRANCH  14  19
ATOM     19  C   UNL A   1      37.764  22.184  24.956  1.00  0.00     0.013 C 
ATOM     20  C   UNL A   1      38.627  22.616  26.147  1.00  0.00     0.012 C 
ATOM     21  C   UNL A   1      37.573  20.662  25.005  1.00  0.00     0.012 C 
ENDBRANCH  14  19
ENDBRANCH   7  13
ENDBRANCH   4   7
ENDBRANCH   2   3
ENDBRANCH   1   2
BRANCH   1  22
ATOM     22  C   UNL A   1      33.657  28.326  27.384  1.00  0.00     0.118 C 
BRANCH  22  23
ATOM     23  N   UNL A   1      33.622  29.770  27.613  1.00  0.00    -0.352 N 
ATOM     24  C   UNL A   1      34.565  30.604  28.166  1.00  0.00     0.251 C 
ATOM     25  H   UNL A   1      32.792  30.215  27.327  1.00  0.00     0.163 HD
ATOM     26  O   UNL A   1      34.259  31.742  28.490  1.00  0.00    -0.269 OA
BRANCH  24  27
ATOM     27  C   UNL A   1      35.942  30.109  28.371  1.00  0.00     0.039 A 
ATOM     28  C   UNL A   1      36.851  30.132  27.309  1.00  0.00     0.014 A 
ATOM     29  C   UNL A   1      36.328  29.619  29.619  1.00  0.00     0.014 A 
ATOM     30  C   UNL A   1      38.171  29.728  27.524  1.00  0.00     0.010 A 
ATOM     31  C   UNL A   1      37.660  29.325  29.857  1.00  0.00     0.010 A 
ATOM     32  C   UNL A   1      38.591  29.356  28.809  1.00  0.00    -0.014 A 
BRANCH  32  33
ATOM     33  C   UNL A   1      39.983  28.937  29.108  1.00  0.00     0.031 A 
ATOM     34  C   UNL A   1      40.952  29.962  29.630  1.00  0.00     0.074 A 
ATOM     35  C   UNL A   1      40.401  27.697  28.791  1.00  0.00     0.049 A 
ATOM     36  N   UNL A   1      42.252  29.895  29.741  1.00  0.00    -0.248 NA
ATOM     37  C   UNL A   1      40.382  31.261  30.029  1.00  0.00     0.031 C 
ATOM     38  C   UNL A   1      39.562  26.633  28.239  1.00  0.00     0.029 A 
ATOM     39  N   UNL A   1      41.650  27.134  28.858  1.00  0.00    -0.354 N 
ATOM     40  C   UNL A   1      42.656  31.151  30.178  1.00  0.00     0.074 A 
ATOM     41  C   UNL A   1      41.472  31.977  30.252  1.00  0.00     0.031 C 
ATOM     42  C   UNL A   1      40.318  25.544  28.024  1.00  0.00     0.029 A 
ATOM     43  C   UNL A   1      41.702  25.849  28.375  1.00  0.00     0.049 A 
ATOM     44  H   UNL A   1      42.436  27.606  29.220  1.00  0.00     0.167 HD
ATOM     45  C   UNL A   1      43.900  31.572  30.509  1.00  0.00     0.037 A 
ATOM     46  C   UNL A   1      42.751  25.019  28.212  1.00  0.00     0.037 A 
ATOM     47  C   UNL A   1      45.060  30.723  30.470  1.00  0.00     0.049 A 
ATOM     48  C   UNL A   1      44.121  25.490  28.613  1.00  0.00     0.074 A 
ATOM     49  C   UNL A   1      46.359  31.022  30.839  1.00  0.00     0.029 A 
ATOM     50  N   UNL A   1      45.057  29.403  30.043  1.00  0.00    -0.354 N 
ATOM     51  N   UNL A   1      44.486  26.668  29.063  1.00  0.00    -0.248 NA
ATOM     52  C   UNL A   1      45.221  24.525  28.493  1.00  0.00     0.031 C 
ATOM     53  C   UNL A   1      47.148  29.892  30.601  1.00  0.00     0.029 A 
ATOM     54  C   UNL A   1      46.332  28.874  30.132  1.00  0.00     0.049 A 
ATOM     55  H   UNL A   1      44.264  28.914  29.722  1.00  0.00     0.167 HD
ATOM     56  C   UNL A   1      45.850  26.575  29.314  1.00  0.00     0.074 A 
ATOM     57  C   UNL A   1      46.246  25.226  28.961  1.00  0.00     0.031 C 
ATOM     58  C   UNL A   1      46.696  27.518  29.799  1.00  0.00     0.037 A 
BRANCH  45  59
ATOM     59  C   UNL A   1      44.054  33.007  30.936  1.00  0.00     0.058 A 
ATOM     60  C   UNL A   1      43.900  33.400  32.275  1.00  0.00     0.135 A 
ATOM     61  C   UNL A   1      44.340  34.006  29.991  1.00  0.00     0.135 A 
ATOM     62  F   UNL A   1      43.611  32.491  33.220  1.00  0.00    -0.206 F 
ATOM     63  C   UNL A   1      43.968  34.738  32.654  1.00  0.00     0.059 A 
ATOM     64  C   UNL A   1      44.448  35.346  30.354  1.00  0.00     0.059 A 
ATOM     65  F   UNL A   1      44.502  33.688  28.697  1.00  0.00    -0.206 F 
ATOM     66  C   UNL A   1      44.234  35.704  31.684  1.00  0.00     0.060 A 
BRANCH  66  67
ATOM     67  S   UNL A   1      44.283  37.437  32.185  1.00  0.00     0.124 S 
ATOM     68  O   UNL A   1      45.682  37.586  32.572  1.00  0.00    -0.237 OA
ATOM     69  O   UNL A   1      43.888  38.128  30.962  1.00  0.00    -0.237 OA
ATOM     70  O   UNL A   1      43.319  37.503  33.279  1.00  0.00    -0.744 OA
ENDBRANCH  66  67
ENDBRANCH  45  59
BRANCH  46  71
ATOM     71  C   UNL A   1      42.527  23.652  27.671  1.00  0.00     0.058 A 
ATOM     72  C   UNL A   1      42.531  23.416  26.289  1.00  0.00     0.135 A 
ATOM     73  C   UNL A   1      42.367  22.546  28.523  1.00  0.00     0.135 A 
ATOM     74  F   UNL A   1      42.677  24.441  25.436  1.00  0.00    -0.206 F 
ATOM     75  C   UNL A   1      42.383  22.135  25.767  1.00  0.00     0.059 A 
ATOM     76  C   UNL A   1      42.241  21.253  28.025  1.00  0.00     0.059 A 
ATOM     77  F   UNL A   1      42.376  22.716  29.855  1.00  0.00    -0.206 F 
ATOM     78  C   UNL A   1      42.247  21.058  26.645  1.00  0.00     0.060 A 
BRANCH  78  79
ATOM     79  S   UNL A   1      42.139  19.391  25.956  1.00  0.00     0.124 S 
ATOM     80  O   UNL A   1      42.693  18.588  27.039  1.00  0.00    -0.237 OA
ATOM     81  O   UNL A   1      40.704  19.248  25.725  1.00  0.00    -0.237 OA
ATOM     82  O   UNL A   1      42.954  19.474  24.749  1.00  0.00    -0.744 OA
ENDBRANCH  78  79
ENDBRANCH  46  71
BRANCH  58  83
ATOM     83  C   UNL A   1      48.125  27.120  30.038  1.00  0.00     0.058 A 
ATOM     84  C   UNL A   1      49.135  27.384  29.101  1.00  0.00     0.135 A 
ATOM     85  C   UNL A   1      48.498  26.558  31.271  1.00  0.00     0.135 A 
ATOM     86  F   UNL A   1      48.827  27.913  27.906  1.00  0.00    -0.206 F 
ATOM     87  C   UNL A   1      50.469  27.104  29.378  1.00  0.00     0.059 A 
ATOM     88  C   UNL A   1      49.829  26.293  31.577  1.00  0.00     0.059 A 
ATOM     89  F   UNL A   1      47.570  26.295  32.203  1.00  0.00    -0.206 F 
ATOM     90  C   UNL A   1      50.807  26.568  30.623  1.00  0.00     0.060 A 
BRANCH  90  91
ATOM     91  S   UNL A   1      52.549  26.281  30.997  1.00  0.00     0.124 S 
ATOM     92  O   UNL A   1      52.481  25.061  31.795  1.00  0.00    -0.237 OA
ATOM     93  O   UNL A   1      53.134  26.137  29.668  1.00  0.00    -0.237 OA
ATOM     94  O   UNL A   1      52.945  27.485  31.722  1.00  0.00    -0.744 OA
ENDBRANCH  90  91
ENDBRANCH  58  83
ENDBRANCH  32  33
ENDBRANCH  24  27
ENDBRANCH  22  23
ENDBRANCH   1  22
TORSDOF 15
ENDMDL
MODEL 2
REMARK VINA RESULT:     -11.6      4.991     10.605
REMARK SMILES CC(C)c1ccc([C@]2(C(=O)NCCCNC(=O)c3ccc(-c4c5nc(c(-c6c(F)cc(S(=O)(=O)[O-])cc6F)c6ccc([nH]6)c(-c6c(F)cc(S(=O)(=O)[O-])cc6F)c6nc(c(-c7c(F)cc(S(=O)(=O)[O-])cc7F)c7ccc4[nH]7)C=C6)C=C5)cc3)CCC[C@@H]2C)cc1
REMARK SMILES IDX 13 1 12 2 11 3 9 4 10 5 8 7 84 8 87 9 85 10 86 11 88 12 7 13
REMARK SMILES IDX 4 14 5 15 90 16 6 17 89 18 2 19 1 20 3 21 14 22 15 23 16 24
REMARK SMILES IDX 17 26 18 27 19 28 83 29 20 30 82 31 21 32 22 33 23 34 76 35
REMARK SMILES IDX 24 36 81 37 75 38 77 39 25 40 80 41 74 42 73 43 26 45 60 46
REMARK SMILES IDX 39 47 59 48 40 49 43 50 58 51 78 52 41 53 42 54 57 56 79 57
REMARK SMILES IDX 44 58 27 59 28 60 37 61 29 62 30 63 36 64 38 65 31 66 32 67
REMARK SMILES IDX 33 68 34 69 35 70 61 71 62 72 71 73 63 74 64 75 70 76 72 77
REMARK SMILES IDX 65 78 66 79 67 80 68 81 69 82 45 83 46 84 55 85 47 86 48 87
REMARK SMILES IDX 54 88 56 89 49 90 50 91 51 92 52 93 53 94
REMARK H PARENT 11 6 15 25 77 44 43 55
REMARK Flexibility Score: inf
ROOT
ATOM      1  C   UNL A   1      37.470  23.924  25.425  1.00  0.00     0.042 C 
ENDROOT
BRANCH   1   2
ATOM      2  C   UNL A   1      37.184  22.556  24.834  1.00  0.00     0.117 C 
BRANCH   2   3
ATOM      3  N   UNL A   1      36.299  22.591  23.703  1.00  0.00    -0.355 N 
ATOM      4  C   UNL A   1      34.978  22.860  23.587  1.00  0.00     0.230 C 
ATOM      5  O   UNL A   1      34.699  23.312  22.464  1.00  0.00    -0.274 OA
ATOM      6  H   UNL A   1      36.739  22.377  22.848  1.00  0.00     0.163 HD
BRANCH   4   7
ATOM      7  C   UNL A   1      33.845  22.607  24.683  1.00  0.00     0.077 C 
ATOM      8  C   UNL A   1      32.606  21.893  24.083  1.00  0.00     0.022 C 
ATOM      9  C   UNL A   1      34.242  21.640  25.869  1.00  0.00     0.006 C 
ATOM     10  C   UNL A   1      32.644  20.417  24.461  1.00  0.00     0.002 C 
ATOM     11  C   UNL A   1      33.727  20.233  25.504  1.00  0.00     0.005 C 
ATOM     12  C   UNL A   1      33.622  21.898  27.260  1.00  0.00     0.009 C 
BRANCH   7  13
ATOM     13  C   UNL A   1      33.463  24.048  25.149  1.00  0.00    -0.032 A 
ATOM     14  C   UNL A   1      32.761  26.675  26.029  1.00  0.00    -0.045 A 
ATOM     15  C   UNL A   1      31.801  25.658  25.937  1.00  0.00     0.004 A 
ATOM     16  C   UNL A   1      34.094  26.327  25.784  1.00  0.00     0.004 A 
ATOM     17  C   UNL A   1      32.154  24.364  25.542  1.00  0.00     0.005 A 
ATOM     18  C   UNL A   1      34.438  25.038  25.357  1.00  0.00     0.005 A 
BRANCH  14  19
ATOM     19  C   UNL A   1      32.315  28.082  26.393  1.00  0.00     0.013 C 
ATOM     20  C   UNL A   1      31.484  28.191  27.677  1.00  0.00     0.012 C 
ATOM     21  C   UNL A   1      33.532  29.011  26.507  1.00  0.00     0.012 C 
ENDBRANCH  14  19
ENDBRANCH   7  13
ENDBRANCH   4   7
ENDBRANCH   2   3
ENDBRANCH   1   2
BRANCH   1  22
ATOM     22  C   UNL A   1      38.436  23.860  26.598  1.00  0.00     0.118 C 
BRANCH  22  23
ATOM     23  N   UNL A   1      39.829  23.812  26.155  1.00  0.00    -0.352 N 
ATOM     24  C   UNL A   1      40.861  24.696  26.375  1.00  0.00     0.251 C 
ATOM     25  H   UNL A   1      40.066  23.025  25.616  1.00  0.00     0.163 HD
ATOM     26  O   UNL A   1      41.891  24.603  25.725  1.00  0.00    -0.269 OA
BRANCH  24  27
ATOM     27  C   UNL A   1      40.706  25.756  27.392  1.00  0.00     0.039 A 
ATOM     28  C   UNL A   1      39.793  25.585  28.436  1.00  0.00     0.014 A 
ATOM     29  C   UNL A   1      41.466  26.922  27.305  1.00  0.00     0.014 A 
ATOM     30  C   UNL A   1      39.698  26.557  29.435  1.00  0.00     0.010 A 
ATOM     31  C   UNL A   1      41.451  27.830  28.350  1.00  0.00     0.010 A 
ATOM     32  C   UNL A   1      40.553  27.669  29.415  1.00  0.00    -0.014 A 
BRANCH  32  33
ATOM     33  C   UNL A   1      40.518  28.726  30.456  1.00  0.00     0.031 A 
ATOM     34  C   UNL A   1      41.413  28.591  31.657  1.00  0.00     0.074 A 
ATOM     35  C   UNL A   1      39.607  29.715  30.388  1.00  0.00     0.049 A 
ATOM     36  N   UNL A   1      41.394  29.249  32.785  1.00  0.00    -0.248 NA
ATOM     37  C   UNL A   1      42.434  27.531  31.598  1.00  0.00     0.031 C 
ATOM     38  C   UNL A   1      38.657  29.922  29.293  1.00  0.00     0.029 A 
ATOM     39  N   UNL A   1      39.309  30.715  31.278  1.00  0.00    -0.354 N 
ATOM     40  C   UNL A   1      42.365  28.654  33.583  1.00  0.00     0.074 A 
ATOM     41  C   UNL A   1      42.911  27.546  32.832  1.00  0.00     0.031 C 
ATOM     42  C   UNL A   1      37.888  30.985  29.574  1.00  0.00     0.029 A 
ATOM     43  C   UNL A   1      38.254  31.504  30.888  1.00  0.00     0.049 A 
ATOM     44  H   UNL A   1      39.804  30.854  32.118  1.00  0.00     0.167 HD
ATOM     45  C   UNL A   1      42.779  29.014  34.821  1.00  0.00     0.037 A 
ATOM     46  C   UNL A   1      37.638  32.516  31.529  1.00  0.00     0.037 A 
ATOM     47  C   UNL A   1      42.254  30.147  35.534  1.00  0.00     0.049 A 
ATOM     48  C   UNL A   1      38.129  32.924  32.890  1.00  0.00     0.074 A 
ATOM     49  C   UNL A   1      42.638  30.643  36.767  1.00  0.00     0.029 A 
ATOM     50  N   UNL A   1      41.234  30.967  35.071  1.00  0.00    -0.354 N 
ATOM     51  N   UNL A   1      39.076  32.380  33.619  1.00  0.00    -0.248 NA
ATOM     52  C   UNL A   1      37.481  34.083  33.516  1.00  0.00     0.031 C 
ATOM     53  C   UNL A   1      41.826  31.742  37.065  1.00  0.00     0.029 A 
ATOM     54  C   UNL A   1      40.971  31.962  35.996  1.00  0.00     0.049 A 
ATOM     55  H   UNL A   1      40.766  30.856  34.211  1.00  0.00     0.167 HD
ATOM     56  C   UNL A   1      39.161  33.150  34.772  1.00  0.00     0.074 A 
ATOM     57  C   UNL A   1      38.166  34.197  34.646  1.00  0.00     0.031 C 
ATOM     58  C   UNL A   1      39.991  33.009  35.835  1.00  0.00     0.037 A 
BRANCH  45  59
ATOM     59  C   UNL A   1      43.845  28.170  35.465  1.00  0.00     0.058 A 
ATOM     60  C   UNL A   1      45.211  28.389  35.219  1.00  0.00     0.135 A 
ATOM     61  C   UNL A   1      43.498  27.116  36.327  1.00  0.00     0.135 A 
ATOM     62  F   UNL A   1      45.602  29.372  34.393  1.00  0.00    -0.206 F 
ATOM     63  C   UNL A   1      46.190  27.559  35.757  1.00  0.00     0.059 A 
ATOM     64  C   UNL A   1      44.463  26.296  36.904  1.00  0.00     0.059 A 
ATOM     65  F   UNL A   1      42.209  26.864  36.601  1.00  0.00    -0.206 F 
ATOM     66  C   UNL A   1      45.805  26.510  36.591  1.00  0.00     0.060 A 
BRANCH  66  67
ATOM     67  S   UNL A   1      47.083  25.421  37.252  1.00  0.00     0.124 S 
ATOM     68  O   UNL A   1      47.227  24.453  36.169  1.00  0.00    -0.237 OA
ATOM     69  O   UNL A   1      48.207  26.332  37.440  1.00  0.00    -0.237 OA
ATOM     70  O   UNL A   1      46.487  24.902  38.480  1.00  0.00    -0.744 OA
ENDBRANCH  66  67
ENDBRANCH  45  59
BRANCH  46  71
ATOM     71  C   UNL A   1      36.510  33.225  30.866  1.00  0.00     0.058 A 
ATOM     72  C   UNL A   1      35.199  33.096  31.346  1.00  0.00     0.135 A 
ATOM     73  C   UNL A   1      36.728  34.091  29.782  1.00  0.00     0.135 A 
ATOM     74  F   UNL A   1      34.942  32.278  32.378  1.00  0.00    -0.206 F 
ATOM     75  C   UNL A   1      34.141  33.798  30.777  1.00  0.00     0.059 A 
ATOM     76  C   UNL A   1      35.690  34.821  29.211  1.00  0.00     0.059 A 
ATOM     77  F   UNL A   1      37.968  34.264  29.298  1.00  0.00    -0.206 F 
ATOM     78  C   UNL A   1      34.399  34.666  29.714  1.00  0.00     0.060 A 
BRANCH  78  79
ATOM     79  S   UNL A   1      33.031  35.633  29.037  1.00  0.00     0.124 S 
ATOM     80  O   UNL A   1      32.360  34.647  28.199  1.00  0.00    -0.237 OA
ATOM     81  O   UNL A   1      32.317  36.038  30.244  1.00  0.00    -0.237 OA
ATOM     82  O   UNL A   1      33.705  36.715  28.326  1.00  0.00    -0.744 OA
ENDBRANCH  78  79
ENDBRANCH  46  71
BRANCH  58  83
ATOM     83  C   UNL A   1      39.912  34.038  36.927  1.00  0.00     0.058 A 
ATOM     84  C   UNL A   1      40.518  35.297  36.806  1.00  0.00     0.135 A 
ATOM     85  C   UNL A   1      39.127  33.791  38.066  1.00  0.00     0.135 A 
ATOM     86  F   UNL A   1      41.283  35.578  35.739  1.00  0.00    -0.206 F 
ATOM     87  C   UNL A   1      40.350  36.277  37.778  1.00  0.00     0.059 A 
ATOM     88  C   UNL A   1      38.926  34.765  39.038  1.00  0.00     0.059 A 
ATOM     89  F   UNL A   1      38.519  32.605  38.224  1.00  0.00    -0.206 F 
ATOM     90  C   UNL A   1      39.544  36.005  38.885  1.00  0.00     0.060 A 
BRANCH  90  91
ATOM     91  S   UNL A   1      39.274  37.311  40.102  1.00  0.00     0.124 S 
ATOM     92  O   UNL A   1      40.642  37.730  40.393  1.00  0.00    -0.237 OA
ATOM     93  O   UNL A   1      38.464  38.269  39.356  1.00  0.00    -0.237 OA
ATOM     94  O   UNL A   1      38.581  36.626  41.189  1.00  0.00    -0.744 OA
ENDBRANCH  90  91
ENDBRANCH  58  83
ENDBRANCH  32  33
ENDBRANCH  24  27
ENDBRANCH  22  23
ENDBRANCH   1  22
TORSDOF 15
ENDMDL
MODEL 3
REMARK VINA RESULT:     -11.5      2.487      3.396
REMARK SMILES CC(C)c1ccc([C@]2(C(=O)NCCCNC(=O)c3ccc(-c4c5nc(c(-c6c(F)cc(S(=O)(=O)[O-])cc6F)c6ccc([nH]6)c(-c6c(F)cc(S(=O)(=O)[O-])cc6F)c6nc(c(-c7c(F)cc(S(=O)(=O)[O-])cc7F)c7ccc4[nH]7)C=C6)C=C5)cc3)CCC[C@@H]2C)cc1
REMARK SMILES IDX 13 1 12 2 11 3 9 4 10 5 8 7 84 8 87 9 85 10 86 11 88 12 7 13
REMARK SMILES IDX 4 14 5 15 90 16 6 17 89 18 2 19 1 20 3 21 14 22 15 23 16 24
REMARK SMILES IDX 17 26 18 27 19 28 83 29 20 30 82 31 21 32 22 33 23 34 76 35
REMARK SMILES IDX 24 36 81 37 75 38 77 39 25 40 80 41 74 42 73 43 26 45 60 46
REMARK SMILES IDX 39 47 59 48 40 49 43 50 58 51 78 52 41 53 42 54 57 56 79 57
REMARK SMILES IDX 44 58 27 59 28 60 37 61 29 62 30 63 36 64 38 65 31 66 32 67
REMARK SMILES IDX 33 68 34 69 35 70 61 71 62 72 71 73 63 74 64 75 70 76 72 77
REMARK SMILES IDX 65 78 66 79 67 80 68 81 69 82 45 83 46 84 55 85 47 86 48 87
REMARK SMILES IDX 54 88 56 89 49 90 50 91 51 92 52 93 53 94
REMARK H PARENT 11 6 15 25 77 44 43 55
REMARK Flexibility Score: inf
ROOT
ATOM      1  C   UNL A   1      34.091  28.953  27.513  1.00  0.00     0.042 C 
ENDROOT
BRANCH   1   2
ATOM      2  C   UNL A   1      32.861  29.464  26.786  1.00  0.00     0.117 C 
BRANCH   2   3
ATOM      3  N   UNL A   1      31.763  28.539  26.791  1.00  0.00    -0.355 N 
ATOM      4  C   UNL A   1      31.456  27.484  25.999  1.00  0.00     0.230 C 
ATOM      5  O   UNL A   1      30.774  26.640  26.605  1.00  0.00    -0.274 OA
ATOM      6  H   UNL A   1      31.108  28.703  27.507  1.00  0.00     0.163 HD
BRANCH   4   7
ATOM      7  C   UNL A   1      31.832  27.296  24.459  1.00  0.00     0.077 C 
ATOM      8  C   UNL A   1      30.626  26.795  23.624  1.00  0.00     0.022 C 
ATOM      9  C   UNL A   1      32.244  28.613  23.688  1.00  0.00     0.006 C 
ATOM     10  C   UNL A   1      30.028  27.965  22.851  1.00  0.00     0.002 C 
ATOM     11  C   UNL A   1      30.985  29.133  22.966  1.00  0.00     0.005 C 
ATOM     12  C   UNL A   1      33.286  28.498  22.552  1.00  0.00     0.009 C 
BRANCH   7  13
ATOM     13  C   UNL A   1      32.954  26.209  24.491  1.00  0.00    -0.032 A 
ATOM     14  C   UNL A   1      34.988  24.203  24.565  1.00  0.00    -0.045 A 
ATOM     15  C   UNL A   1      34.701  24.990  25.688  1.00  0.00     0.004 A 
ATOM     16  C   UNL A   1      34.165  24.357  23.444  1.00  0.00     0.004 A 
ATOM     17  C   UNL A   1      33.681  25.945  25.662  1.00  0.00     0.005 A 
ATOM     18  C   UNL A   1      33.165  25.337  23.409  1.00  0.00     0.005 A 
BRANCH  14  19
ATOM     19  C   UNL A   1      36.154  23.229  24.622  1.00  0.00     0.013 C 
ATOM     20  C   UNL A   1      36.661  22.738  23.261  1.00  0.00     0.012 C 
ATOM     21  C   UNL A   1      37.326  23.849  25.396  1.00  0.00     0.012 C 
ENDBRANCH  14  19
ENDBRANCH   7  13
ENDBRANCH   4   7
ENDBRANCH   2   3
ENDBRANCH   1   2
BRANCH   1  22
ATOM     22  C   UNL A   1      35.182  30.007  27.623  1.00  0.00     0.118 C 
BRANCH  22  23
ATOM     23  N   UNL A   1      35.220  30.617  28.952  1.00  0.00    -0.352 N 
ATOM     24  C   UNL A   1      36.194  30.571  29.922  1.00  0.00     0.251 C 
ATOM     25  H   UNL A   1      34.423  31.143  29.190  1.00  0.00     0.163 HD
ATOM     26  O   UNL A   1      35.943  30.947  31.057  1.00  0.00    -0.269 OA
BRANCH  24  27
ATOM     27  C   UNL A   1      37.537  30.058  29.580  1.00  0.00     0.039 A 
ATOM     28  C   UNL A   1      37.978  30.106  28.255  1.00  0.00     0.014 A 
ATOM     29  C   UNL A   1      38.355  29.526  30.577  1.00  0.00     0.014 A 
ATOM     30  C   UNL A   1      39.274  29.685  27.945  1.00  0.00     0.010 A 
ATOM     31  C   UNL A   1      39.672  29.213  30.288  1.00  0.00     0.010 A 
ATOM     32  C   UNL A   1      40.141  29.269  28.967  1.00  0.00    -0.014 A 
BRANCH  32  33
ATOM     33  C   UNL A   1      41.534  28.829  28.707  1.00  0.00     0.031 A 
ATOM     34  C   UNL A   1      42.626  29.864  28.674  1.00  0.00     0.074 A 
ATOM     35  C   UNL A   1      41.791  27.550  28.378  1.00  0.00     0.049 A 
ATOM     36  N   UNL A   1      43.855  29.759  28.247  1.00  0.00    -0.248 NA
ATOM     37  C   UNL A   1      42.263  31.216  29.135  1.00  0.00     0.031 C 
ATOM     38  C   UNL A   1      40.805  26.469  28.334  1.00  0.00     0.029 A 
ATOM     39  N   UNL A   1      42.960  26.949  27.983  1.00  0.00    -0.354 N 
ATOM     40  C   UNL A   1      44.396  31.036  28.344  1.00  0.00     0.074 A 
ATOM     41  C   UNL A   1      43.344  31.909  28.814  1.00  0.00     0.031 C 
ATOM     42  C   UNL A   1      41.411  25.337  27.942  1.00  0.00     0.029 A 
ATOM     43  C   UNL A   1      42.815  25.622  27.658  1.00  0.00     0.049 A 
ATOM     44  H   UNL A   1      43.821  27.425  27.938  1.00  0.00     0.167 HD
ATOM     45  C   UNL A   1      45.663  31.440  28.088  1.00  0.00     0.037 A 
ATOM     46  C   UNL A   1      43.707  24.742  27.165  1.00  0.00     0.037 A 
ATOM     47  C   UNL A   1      46.708  30.548  27.663  1.00  0.00     0.049 A 
ATOM     48  C   UNL A   1      45.118  25.198  26.914  1.00  0.00     0.074 A 
ATOM     49  C   UNL A   1      48.042  30.833  27.431  1.00  0.00     0.029 A 
ATOM     50  N   UNL A   1      46.537  29.193  27.416  1.00  0.00    -0.354 N 
ATOM     51  N   UNL A   1      45.629  26.400  27.049  1.00  0.00    -0.248 NA
ATOM     52  C   UNL A   1      46.076  24.185  26.453  1.00  0.00     0.031 C 
ATOM     53  C   UNL A   1      48.669  29.656  27.009  1.00  0.00     0.029 A 
ATOM     54  C   UNL A   1      47.738  28.628  27.027  1.00  0.00     0.049 A 
ATOM     55  H   UNL A   1      45.685  28.706  27.503  1.00  0.00     0.167 HD
ATOM     56  C   UNL A   1      46.975  26.281  26.724  1.00  0.00     0.074 A 
ATOM     57  C   UNL A   1      47.198  24.889  26.382  1.00  0.00     0.031 C 
ATOM     58  C   UNL A   1      47.940  27.233  26.716  1.00  0.00     0.037 A 
BRANCH  45  59
ATOM     59  C   UNL A   1      45.971  32.903  28.262  1.00  0.00     0.058 A 
ATOM     60  C   UNL A   1      45.852  33.814  27.200  1.00  0.00     0.135 A 
ATOM     61  C   UNL A   1      46.409  33.398  29.501  1.00  0.00     0.135 A 
ATOM     62  F   UNL A   1      45.453  33.395  25.989  1.00  0.00    -0.206 F 
ATOM     63  C   UNL A   1      46.210  35.151  27.344  1.00  0.00     0.059 A 
ATOM     64  C   UNL A   1      46.739  34.739  29.677  1.00  0.00     0.059 A 
ATOM     65  F   UNL A   1      46.538  32.573  30.552  1.00  0.00    -0.206 F 
ATOM     66  C   UNL A   1      46.661  35.602  28.584  1.00  0.00     0.060 A 
BRANCH  66  67
ATOM     67  S   UNL A   1      47.156  37.329  28.746  1.00  0.00     0.124 S 
ATOM     68  O   UNL A   1      46.375  37.955  27.684  1.00  0.00    -0.237 OA
ATOM     69  O   UNL A   1      46.741  37.649  30.108  1.00  0.00    -0.237 OA
ATOM     70  O   UNL A   1      48.598  37.292  28.525  1.00  0.00    -0.744 OA
ENDBRANCH  66  67
ENDBRANCH  45  59
BRANCH  46  71
ATOM     71  C   UNL A   1      43.288  23.338  26.910  1.00  0.00     0.058 A 
ATOM     72  C   UNL A   1      43.141  22.858  25.601  1.00  0.00     0.135 A 
ATOM     73  C   UNL A   1      43.087  22.432  27.965  1.00  0.00     0.135 A 
ATOM     74  F   UNL A   1      43.320  23.687  24.561  1.00  0.00    -0.206 F 
ATOM     75  C   UNL A   1      42.809  21.533  25.343  1.00  0.00     0.059 A 
ATOM     76  C   UNL A   1      42.777  21.096  27.731  1.00  0.00     0.059 A 
ATOM     77  F   UNL A   1      43.235  22.837  29.236  1.00  0.00    -0.206 F 
ATOM     78  C   UNL A   1      42.637  20.656  26.416  1.00  0.00     0.060 A 
BRANCH  78  79
ATOM     79  S   UNL A   1      42.286  18.919  26.065  1.00  0.00     0.124 S 
ATOM     80  O   UNL A   1      43.223  18.642  24.983  1.00  0.00    -0.237 OA
ATOM     81  O   UNL A   1      42.583  18.282  27.345  1.00  0.00    -0.237 OA
ATOM     82  O   UNL A   1      40.875  18.930  25.694  1.00  0.00    -0.744 OA
ENDBRANCH  78  79
ENDBRANCH  46  71
BRANCH  58  83
ATOM     83  C   UNL A   1      49.342  26.807  26.385  1.00  0.00     0.058 A 
ATOM     84  C   UNL A   1      50.151  26.134  27.312  1.00  0.00     0.135 A 
ATOM     85  C   UNL A   1      49.840  26.987  25.083  1.00  0.00     0.135 A 
ATOM     86  F   UNL A   1      49.723  25.945  28.571  1.00  0.00    -0.206 F 
ATOM     87  C   UNL A   1      51.408  25.654  26.961  1.00  0.00     0.059 A 
ATOM     88  C   UNL A   1      51.083  26.494  24.704  1.00  0.00     0.059 A 
ATOM     89  F   UNL A   1      49.100  27.618  24.158  1.00  0.00    -0.206 F 
ATOM     90  C   UNL A   1      51.861  25.829  25.652  1.00  0.00     0.060 A 
BRANCH  90  91
ATOM     91  S   UNL A   1      53.462  25.135  25.189  1.00  0.00     0.124 S 
ATOM     92  O   UNL A   1      54.355  25.797  26.135  1.00  0.00    -0.237 OA
ATOM     93  O   UNL A   1      53.256  23.707  25.404  1.00  0.00    -0.237 OA
ATOM     94  O   UNL A   1      53.616  25.536  23.793  1.00  0.00    -0.744 OA
ENDBRANCH  90  91
ENDBRANCH  58  83
ENDBRANCH  32  33
ENDBRANCH  24  27
ENDBRANCH  22  23
ENDBRANCH   1  22
TORSDOF 15
ENDMDL
