MODEL 1
REMARK VINA RESULT:     -10.1      0.000      0.000
REMARK SMILES C[C@H]([NH2+]CCc1ccccc1)[C@@H](C)C(=O)NCCCNC(=O)c1ccc(-c2c3nc(c(-c4c(F)cc(S(=O)(=O)[O-])cc4F)c4ccc([nH]4)c(-c4c(F)cc(S(=O)(=O)[O-])cc4F)c4nc(c(-c5c(F)cc(S(=O)(=O)[O-])cc5F)c5ccc2[nH]5)C=C4)C=C3)cc1
REMARK SMILES IDX 17 1 16 2 14 3 15 4 12 6 13 7 2 8 1 9 3 10 4 13 5 14 6 15
REMARK SMILES IDX 7 16 11 17 8 18 10 19 9 20 18 21 19 22 20 23 21 24 22 26
REMARK SMILES IDX 23 27 24 28 88 29 25 30 87 31 26 32 27 33 28 34 81 35 29 36
REMARK SMILES IDX 86 37 80 38 82 39 30 40 85 41 79 42 78 43 31 45 65 46 44 47
REMARK SMILES IDX 64 48 45 49 48 50 63 51 83 52 46 53 47 54 62 56 84 57 49 58
REMARK SMILES IDX 32 59 33 60 42 61 34 62 35 63 41 64 43 65 36 66 37 67 38 68
REMARK SMILES IDX 39 69 40 70 66 71 67 72 76 73 68 74 69 75 75 76 77 77 70 78
REMARK SMILES IDX 71 79 72 80 73 81 74 82 50 83 51 84 60 85 52 86 53 87 59 88
REMARK SMILES IDX 61 89 54 90 55 91 56 92 57 93 58 94
REMARK H PARENT 16 5 3 11 3 12 20 25 82 44 48 55
REMARK Flexibility Score: inf
ROOT
ATOM      1  C   UNL A   1      31.481  27.486  26.718  1.00  0.00     0.117 C 
ENDROOT
BRANCH   1   2
ATOM      2  N   UNL A   1      30.652  26.772  25.760  1.00  0.00    -0.356 N 
ATOM      3  C   UNL A   1      30.458  26.952  24.427  1.00  0.00     0.228 C 
ATOM      4  O   UNL A   1      29.670  26.186  23.864  1.00  0.00    -0.275 OA
ATOM      5  H   UNL A   1      30.141  26.025  26.146  1.00  0.00     0.163 HD
BRANCH   3   6
ATOM      6  C   UNL A   1      31.181  28.034  23.630  1.00  0.00     0.133 C 
ATOM      7  C   UNL A   1      30.258  28.592  22.542  1.00  0.00     0.024 C 
BRANCH   6   8
ATOM      8  C   UNL A   1      32.580  27.570  23.159  1.00  0.00     0.191 C 
ATOM      9  C   UNL A   1      33.402  28.770  22.643  1.00  0.00     0.076 C 
BRANCH   8  10
ATOM     10  N   UNL A   1      32.457  26.512  22.147  1.00  0.00    -0.343 N 
ATOM     11  H   UNL A   1      32.542  26.934  21.222  1.00  0.00     0.346 HD
ATOM     12  H   UNL A   1      31.551  26.065  22.276  1.00  0.00     0.346 HD
BRANCH  10  13
ATOM     13  C   UNL A   1      33.488  25.472  22.283  1.00  0.00     0.265 C 
BRANCH  13  14
ATOM     14  C   UNL A   1      33.459  24.805  23.672  1.00  0.00     0.097 C 
BRANCH  14  15
ATOM     15  C   UNL A   1      34.745  24.141  24.124  1.00  0.00    -0.042 A 
ATOM     16  C   UNL A   1      35.316  24.378  25.382  1.00  0.00     0.004 A 
ATOM     17  C   UNL A   1      35.386  23.242  23.260  1.00  0.00     0.004 A 
ATOM     18  C   UNL A   1      36.542  23.809  25.730  1.00  0.00     0.000 A 
ATOM     19  C   UNL A   1      36.600  22.652  23.618  1.00  0.00     0.000 A 
ATOM     20  C   UNL A   1      37.187  22.951  24.845  1.00  0.00     0.000 A 
ENDBRANCH  14  15
ENDBRANCH  13  14
ENDBRANCH  10  13
ENDBRANCH   8  10
ENDBRANCH   6   8
ENDBRANCH   3   6
ENDBRANCH   1   2
BRANCH   1  21
ATOM     21  C   UNL A   1      32.888  26.907  26.808  1.00  0.00     0.042 C 
BRANCH  21  22
ATOM     22  C   UNL A   1      33.987  27.909  26.480  1.00  0.00     0.118 C 
BRANCH  22  23
ATOM     23  N   UNL A   1      33.637  29.264  26.883  1.00  0.00    -0.352 N 
ATOM     24  C   UNL A   1      34.321  30.155  27.668  1.00  0.00     0.251 C 
ATOM     25  H   UNL A   1      32.775  29.591  26.537  1.00  0.00     0.163 HD
ATOM     26  O   UNL A   1      33.743  31.164  28.077  1.00  0.00    -0.269 OA
BRANCH  24  27
ATOM     27  C   UNL A   1      35.731  29.909  28.034  1.00  0.00     0.039 A 
ATOM     28  C   UNL A   1      36.035  29.523  29.342  1.00  0.00     0.014 A 
ATOM     29  C   UNL A   1      36.757  30.081  27.100  1.00  0.00     0.014 A 
ATOM     30  C   UNL A   1      37.359  29.250  29.694  1.00  0.00     0.010 A 
ATOM     31  C   UNL A   1      38.061  29.721  27.427  1.00  0.00     0.010 A 
ATOM     32  C   UNL A   1      38.379  29.312  28.729  1.00  0.00    -0.014 A 
BRANCH  32  33
ATOM     33  C   UNL A   1      39.782  28.958  29.063  1.00  0.00     0.031 A 
ATOM     34  C   UNL A   1      40.690  29.982  29.691  1.00  0.00     0.074 A 
ATOM     35  C   UNL A   1      40.257  27.738  28.740  1.00  0.00     0.049 A 
ATOM     36  N   UNL A   1      41.961  29.889  29.983  1.00  0.00    -0.248 NA
ATOM     37  C   UNL A   1      40.098  31.293  30.008  1.00  0.00     0.031 C 
ATOM     38  C   UNL A   1      39.488  26.677  28.084  1.00  0.00     0.029 A 
ATOM     39  N   UNL A   1      41.501  27.186  28.909  1.00  0.00    -0.354 N 
ATOM     40  C   UNL A   1      42.323  31.128  30.501  1.00  0.00     0.074 A 
ATOM     41  C   UNL A   1      41.151  31.974  30.432  1.00  0.00     0.031 C 
ATOM     42  C   UNL A   1      40.269  25.597  27.929  1.00  0.00     0.029 A 
ATOM     43  C   UNL A   1      41.605  25.900  28.433  1.00  0.00     0.049 A 
ATOM     44  H   UNL A   1      42.250  27.665  29.333  1.00  0.00     0.167 HD
ATOM     45  C   UNL A   1      43.516  31.517  31.014  1.00  0.00     0.037 A 
ATOM     46  C   UNL A   1      42.660  25.063  28.396  1.00  0.00     0.037 A 
ATOM     47  C   UNL A   1      44.668  30.660  31.103  1.00  0.00     0.049 A 
ATOM     48  C   UNL A   1      43.976  25.520  28.965  1.00  0.00     0.074 A 
ATOM     49  C   UNL A   1      45.906  30.939  31.656  1.00  0.00     0.029 A 
ATOM     50  N   UNL A   1      44.728  29.357  30.629  1.00  0.00    -0.354 N 
ATOM     51  N   UNL A   1      44.283  26.674  29.509  1.00  0.00    -0.248 NA
ATOM     52  C   UNL A   1      45.088  24.561  28.923  1.00  0.00     0.031 C 
ATOM     53  C   UNL A   1      46.729  29.824  31.473  1.00  0.00     0.029 A 
ATOM     54  C   UNL A   1      45.988  28.827  30.856  1.00  0.00     0.049 A 
ATOM     55  H   UNL A   1      43.985  28.879  30.195  1.00  0.00     0.167 HD
ATOM     56  C   UNL A   1      45.612  26.569  29.900  1.00  0.00     0.074 A 
ATOM     57  C   UNL A   1      46.048  25.235  29.542  1.00  0.00     0.031 C 
ATOM     58  C   UNL A   1      46.402  27.492  30.502  1.00  0.00     0.037 A 
BRANCH  45  59
ATOM     59  C   UNL A   1      43.633  32.928  31.524  1.00  0.00     0.058 A 
ATOM     60  C   UNL A   1      44.054  33.980  30.693  1.00  0.00     0.135 A 
ATOM     61  C   UNL A   1      43.275  33.242  32.844  1.00  0.00     0.135 A 
ATOM     62  F   UNL A   1      44.423  33.735  29.426  1.00  0.00    -0.206 F 
ATOM     63  C   UNL A   1      44.143  35.286  31.162  1.00  0.00     0.059 A 
ATOM     64  C   UNL A   1      43.327  34.548  33.325  1.00  0.00     0.059 A 
ATOM     65  F   UNL A   1      42.865  32.277  33.683  1.00  0.00    -0.206 F 
ATOM     66  C   UNL A   1      43.775  35.561  32.479  1.00  0.00     0.060 A 
BRANCH  66  67
ATOM     67  S   UNL A   1      43.881  37.265  33.064  1.00  0.00     0.124 S 
ATOM     68  O   UNL A   1      42.721  37.343  33.947  1.00  0.00    -0.237 OA
ATOM     69  O   UNL A   1      45.182  37.287  33.725  1.00  0.00    -0.237 OA
ATOM     70  O   UNL A   1      43.789  38.053  31.839  1.00  0.00    -0.744 OA
ENDBRANCH  66  67
ENDBRANCH  45  59
BRANCH  46  71
ATOM     71  C   UNL A   1      42.511  23.701  27.813  1.00  0.00     0.058 A 
ATOM     72  C   UNL A   1      42.474  23.510  26.424  1.00  0.00     0.135 A 
ATOM     73  C   UNL A   1      42.410  22.565  28.631  1.00  0.00     0.135 A 
ATOM     74  F   UNL A   1      42.562  24.565  25.600  1.00  0.00    -0.206 F 
ATOM     75  C   UNL A   1      42.320  22.245  25.865  1.00  0.00     0.059 A 
ATOM     76  C   UNL A   1      42.284  21.287  28.096  1.00  0.00     0.059 A 
ATOM     77  F   UNL A   1      42.460  22.690  29.966  1.00  0.00    -0.206 F 
ATOM     78  C   UNL A   1      42.228  21.139  26.711  1.00  0.00     0.060 A 
BRANCH  78  79
ATOM     79  S   UNL A   1      42.067  19.498  25.974  1.00  0.00     0.124 S 
ATOM     80  O   UNL A   1      40.632  19.426  25.727  1.00  0.00    -0.237 OA
ATOM     81  O   UNL A   1      42.916  19.609  24.793  1.00  0.00    -0.237 OA
ATOM     82  O   UNL A   1      42.574  18.611  27.019  1.00  0.00    -0.744 OA
ENDBRANCH  78  79
ENDBRANCH  46  71
BRANCH  58  83
ATOM     83  C   UNL A   1      47.807  27.083  30.850  1.00  0.00     0.058 A 
ATOM     84  C   UNL A   1      48.116  26.463  32.071  1.00  0.00     0.135 A 
ATOM     85  C   UNL A   1      48.848  27.264  29.924  1.00  0.00     0.135 A 
ATOM     86  F   UNL A   1      47.160  26.272  32.993  1.00  0.00    -0.206 F 
ATOM     87  C   UNL A   1      49.413  26.060  32.372  1.00  0.00     0.059 A 
ATOM     88  C   UNL A   1      50.145  26.842  30.193  1.00  0.00     0.059 A 
ATOM     89  F   UNL A   1      48.605  27.842  28.737  1.00  0.00    -0.206 F 
ATOM     90  C   UNL A   1      50.421  26.251  31.425  1.00  0.00     0.060 A 
BRANCH  90  91
ATOM     91  S   UNL A   1      52.091  25.690  31.815  1.00  0.00     0.124 S 
ATOM     92  O   UNL A   1      52.412  26.510  32.979  1.00  0.00    -0.237 OA
ATOM     93  O   UNL A   1      51.891  24.268  32.076  1.00  0.00    -0.237 OA
ATOM     94  O   UNL A   1      52.845  25.998  30.604  1.00  0.00    -0.744 OA
ENDBRANCH  90  91
ENDBRANCH  58  83
ENDBRANCH  32  33
ENDBRANCH  24  27
ENDBRANCH  22  23
ENDBRANCH  21  22
ENDBRANCH   1  21
TORSDOF 18
ENDMDL
MODEL 2
REMARK VINA RESULT:     -10.0      2.845      3.920
REMARK SMILES C[C@H]([NH2+]CCc1ccccc1)[C@@H](C)C(=O)NCCCNC(=O)c1ccc(-c2c3nc(c(-c4c(F)cc(S(=O)(=O)[O-])cc4F)c4ccc([nH]4)c(-c4c(F)cc(S(=O)(=O)[O-])cc4F)c4nc(c(-c5c(F)cc(S(=O)(=O)[O-])cc5F)c5ccc2[nH]5)C=C4)C=C3)cc1
REMARK SMILES IDX 17 1 16 2 14 3 15 4 12 6 13 7 2 8 1 9 3 10 4 13 5 14 6 15
REMARK SMILES IDX 7 16 11 17 8 18 10 19 9 20 18 21 19 22 20 23 21 24 22 26
REMARK SMILES IDX 23 27 24 28 88 29 25 30 87 31 26 32 27 33 28 34 81 35 29 36
REMARK SMILES IDX 86 37 80 38 82 39 30 40 85 41 79 42 78 43 31 45 65 46 44 47
REMARK SMILES IDX 64 48 45 49 48 50 63 51 83 52 46 53 47 54 62 56 84 57 49 58
REMARK SMILES IDX 32 59 33 60 42 61 34 62 35 63 41 64 43 65 36 66 37 67 38 68
REMARK SMILES IDX 39 69 40 70 66 71 67 72 76 73 68 74 69 75 75 76 77 77 70 78
REMARK SMILES IDX 71 79 72 80 73 81 74 82 50 83 51 84 60 85 52 86 53 87 59 88
REMARK SMILES IDX 61 89 54 90 55 91 56 92 57 93 58 94
REMARK H PARENT 16 5 3 11 3 12 20 25 82 44 48 55
REMARK Flexibility Score: inf
ROOT
ATOM      1  C   UNL A   1      32.792  26.234  25.005  1.00  0.00     0.117 C 
ENDROOT
BRANCH   1   2
ATOM      2  N   UNL A   1      33.435  25.300  25.915  1.00  0.00    -0.356 N 
ATOM      3  C   UNL A   1      33.356  23.947  26.021  1.00  0.00     0.228 C 
ATOM      4  O   UNL A   1      34.019  23.412  26.915  1.00  0.00    -0.275 OA
ATOM      5  H   UNL A   1      34.035  25.722  26.571  1.00  0.00     0.163 HD
BRANCH   3   6
ATOM      6  C   UNL A   1      32.509  23.097  25.078  1.00  0.00     0.133 C 
ATOM      7  C   UNL A   1      31.273  22.567  25.813  1.00  0.00     0.024 C 
BRANCH   6   8
ATOM      8  C   UNL A   1      33.357  22.041  24.330  1.00  0.00     0.191 C 
ATOM      9  C   UNL A   1      32.516  21.350  23.235  1.00  0.00     0.076 C 
BRANCH   8  10
ATOM     10  N   UNL A   1      33.927  21.073  25.278  1.00  0.00    -0.343 N 
ATOM     11  H   UNL A   1      33.364  20.222  25.252  1.00  0.00     0.346 HD
ATOM     12  H   UNL A   1      33.917  21.504  26.201  1.00  0.00     0.346 HD
BRANCH  10  13
ATOM     13  C   UNL A   1      35.320  20.723  24.966  1.00  0.00     0.265 C 
BRANCH  13  14
ATOM     14  C   UNL A   1      36.111  21.926  24.415  1.00  0.00     0.097 C 
BRANCH  14  15
ATOM     15  C   UNL A   1      37.265  22.417  25.268  1.00  0.00    -0.042 A 
ATOM     16  C   UNL A   1      37.313  23.713  25.800  1.00  0.00     0.004 A 
ATOM     17  C   UNL A   1      38.321  21.540  25.552  1.00  0.00     0.004 A 
ATOM     18  C   UNL A   1      38.429  24.153  26.513  1.00  0.00     0.000 A 
ATOM     19  C   UNL A   1      39.427  21.971  26.288  1.00  0.00     0.000 A 
ATOM     20  C   UNL A   1      39.489  23.284  26.751  1.00  0.00     0.000 A 
ENDBRANCH  14  15
ENDBRANCH  13  14
ENDBRANCH  10  13
ENDBRANCH   8  10
ENDBRANCH   6   8
ENDBRANCH   3   6
ENDBRANCH   1   2
BRANCH   1  21
ATOM     21  C   UNL A   1      33.614  27.502  24.806  1.00  0.00     0.042 C 
BRANCH  21  22
ATOM     22  C   UNL A   1      34.194  28.068  26.096  1.00  0.00     0.118 C 
BRANCH  22  23
ATOM     23  N   UNL A   1      33.812  29.457  26.311  1.00  0.00    -0.352 N 
ATOM     24  C   UNL A   1      34.311  30.383  27.190  1.00  0.00     0.251 C 
ATOM     25  H   UNL A   1      33.082  29.781  25.735  1.00  0.00     0.163 HD
ATOM     26  O   UNL A   1      33.692  31.433  27.374  1.00  0.00    -0.269 OA
BRANCH  24  27
ATOM     27  C   UNL A   1      35.569  30.126  27.921  1.00  0.00     0.039 A 
ATOM     28  C   UNL A   1      35.507  29.623  29.223  1.00  0.00     0.014 A 
ATOM     29  C   UNL A   1      36.809  30.401  27.337  1.00  0.00     0.014 A 
ATOM     30  C   UNL A   1      36.687  29.339  29.914  1.00  0.00     0.010 A 
ATOM     31  C   UNL A   1      37.981  30.034  27.991  1.00  0.00     0.010 A 
ATOM     32  C   UNL A   1      37.934  29.508  29.290  1.00  0.00    -0.014 A 
BRANCH  32  33
ATOM     33  C   UNL A   1      39.199  29.147  29.979  1.00  0.00     0.031 A 
ATOM     34  C   UNL A   1      39.641  29.915  31.196  1.00  0.00     0.074 A 
ATOM     35  C   UNL A   1      39.980  28.173  29.471  1.00  0.00     0.049 A 
ATOM     36  N   UNL A   1      40.746  29.802  31.887  1.00  0.00    -0.248 NA
ATOM     37  C   UNL A   1      38.735  30.967  31.686  1.00  0.00     0.031 C 
ATOM     38  C   UNL A   1      39.683  27.390  28.269  1.00  0.00     0.029 A 
ATOM     39  N   UNL A   1      41.188  27.679  29.894  1.00  0.00    -0.354 N 
ATOM     40  C   UNL A   1      40.675  30.774  32.879  1.00  0.00     0.074 A 
ATOM     41  C   UNL A   1      39.445  31.505  32.666  1.00  0.00     0.031 C 
ATOM     42  C   UNL A   1      40.668  26.501  28.065  1.00  0.00     0.029 A 
ATOM     43  C   UNL A   1      41.688  26.678  29.094  1.00  0.00     0.049 A 
ATOM     44  H   UNL A   1      41.655  28.012  30.695  1.00  0.00     0.167 HD
ATOM     45  C   UNL A   1      41.543  31.018  33.890  1.00  0.00     0.037 A 
ATOM     46  C   UNL A   1      42.842  25.988  29.173  1.00  0.00     0.037 A 
ATOM     47  C   UNL A   1      42.751  30.268  34.109  1.00  0.00     0.049 A 
ATOM     48  C   UNL A   1      43.793  26.281  30.302  1.00  0.00     0.074 A 
ATOM     49  C   UNL A   1      43.669  30.398  35.137  1.00  0.00     0.029 A 
ATOM     50  N   UNL A   1      43.212  29.247  33.290  1.00  0.00    -0.354 N 
ATOM     51  N   UNL A   1      43.679  27.162  31.268  1.00  0.00    -0.248 NA
ATOM     52  C   UNL A   1      45.025  25.484  30.359  1.00  0.00     0.031 C 
ATOM     53  C   UNL A   1      44.709  29.490  34.913  1.00  0.00     0.029 A 
ATOM     54  C   UNL A   1      44.412  28.754  33.777  1.00  0.00     0.049 A 
ATOM     55  H   UNL A   1      42.754  28.921  32.482  1.00  0.00     0.167 HD
ATOM     56  C   UNL A   1      44.808  27.004  32.063  1.00  0.00     0.074 A 
ATOM     57  C   UNL A   1      45.587  25.935  31.472  1.00  0.00     0.031 C 
ATOM     58  C   UNL A   1      45.170  27.682  33.181  1.00  0.00     0.037 A 
BRANCH  45  59
ATOM     59  C   UNL A   1      41.213  32.136  34.842  1.00  0.00     0.058 A 
ATOM     60  C   UNL A   1      40.395  31.932  35.965  1.00  0.00     0.135 A 
ATOM     61  C   UNL A   1      41.759  33.417  34.656  1.00  0.00     0.135 A 
ATOM     62  F   UNL A   1      39.833  30.733  36.184  1.00  0.00    -0.206 F 
ATOM     63  C   UNL A   1      40.108  32.964  36.853  1.00  0.00     0.059 A 
ATOM     64  C   UNL A   1      41.510  34.455  35.549  1.00  0.00     0.059 A 
ATOM     65  F   UNL A   1      42.548  33.669  33.599  1.00  0.00    -0.206 F 
ATOM     66  C   UNL A   1      40.672  34.221  36.638  1.00  0.00     0.060 A 
BRANCH  66  67
ATOM     67  S   UNL A   1      40.300  35.543  37.811  1.00  0.00     0.124 S 
ATOM     68  O   UNL A   1      39.912  36.627  36.914  1.00  0.00    -0.237 OA
ATOM     69  O   UNL A   1      39.224  34.961  38.605  1.00  0.00    -0.237 OA
ATOM     70  O   UNL A   1      41.563  35.737  38.517  1.00  0.00    -0.744 OA
ENDBRANCH  66  67
ENDBRANCH  45  59
BRANCH  46  71
ATOM     71  C   UNL A   1      43.156  24.940  28.164  1.00  0.00     0.058 A 
ATOM     72  C   UNL A   1      42.850  23.592  28.403  1.00  0.00     0.135 A 
ATOM     73  C   UNL A   1      43.760  25.265  26.940  1.00  0.00     0.135 A 
ATOM     74  F   UNL A   1      42.276  23.230  29.560  1.00  0.00    -0.206 F 
ATOM     75  C   UNL A   1      43.152  22.600  27.476  1.00  0.00     0.059 A 
ATOM     76  C   UNL A   1      44.047  24.295  25.984  1.00  0.00     0.059 A 
ATOM     77  F   UNL A   1      44.056  26.542  26.653  1.00  0.00    -0.206 F 
ATOM     78  C   UNL A   1      43.749  22.962  26.267  1.00  0.00     0.060 A 
BRANCH  78  79
ATOM     79  S   UNL A   1      44.101  21.671  25.054  1.00  0.00     0.124 S 
ATOM     80  O   UNL A   1      43.063  20.694  25.357  1.00  0.00    -0.237 OA
ATOM     81  O   UNL A   1      43.956  22.390  23.792  1.00  0.00    -0.237 OA
ATOM     82  O   UNL A   1      45.465  21.266  25.383  1.00  0.00    -0.744 OA
ENDBRANCH  78  79
ENDBRANCH  46  71
BRANCH  58  83
ATOM     83  C   UNL A   1      46.442  27.263  33.865  1.00  0.00     0.058 A 
ATOM     84  C   UNL A   1      47.675  27.865  33.567  1.00  0.00     0.135 A 
ATOM     85  C   UNL A   1      46.416  26.284  34.872  1.00  0.00     0.135 A 
ATOM     86  F   UNL A   1      47.756  28.801  32.609  1.00  0.00    -0.206 F 
ATOM     87  C   UNL A   1      48.841  27.493  34.227  1.00  0.00     0.059 A 
ATOM     88  C   UNL A   1      47.565  25.919  35.565  1.00  0.00     0.059 A 
ATOM     89  F   UNL A   1      45.261  25.685  35.203  1.00  0.00    -0.206 F 
ATOM     90  C   UNL A   1      48.776  26.520  35.227  1.00  0.00     0.060 A 
BRANCH  90  91
ATOM     91  S   UNL A   1      50.292  26.074  36.099  1.00  0.00     0.124 S 
ATOM     92  O   UNL A   1      49.838  26.060  37.487  1.00  0.00    -0.237 OA
ATOM     93  O   UNL A   1      50.612  24.771  35.523  1.00  0.00    -0.237 OA
ATOM     94  O   UNL A   1      51.214  27.149  35.752  1.00  0.00    -0.744 OA
ENDBRANCH  90  91
ENDBRANCH  58  83
ENDBRANCH  32  33
ENDBRANCH  24  27
ENDBRANCH  22  23
ENDBRANCH  21  22
ENDBRANCH   1  21
TORSDOF 18
ENDMDL
MODEL 3
REMARK VINA RESULT:     -10.0      4.969     10.454
REMARK SMILES C[C@H]([NH2+]CCc1ccccc1)[C@@H](C)C(=O)NCCCNC(=O)c1ccc(-c2c3nc(c(-c4c(F)cc(S(=O)(=O)[O-])cc4F)c4ccc([nH]4)c(-c4c(F)cc(S(=O)(=O)[O-])cc4F)c4nc(c(-c5c(F)cc(S(=O)(=O)[O-])cc5F)c5ccc2[nH]5)C=C4)C=C3)cc1
REMARK SMILES IDX 17 1 16 2 14 3 15 4 12 6 13 7 2 8 1 9 3 10 4 13 5 14 6 15
REMARK SMILES IDX 7 16 11 17 8 18 10 19 9 20 18 21 19 22 20 23 21 24 22 26
REMARK SMILES IDX 23 27 24 28 88 29 25 30 87 31 26 32 27 33 28 34 81 35 29 36
REMARK SMILES IDX 86 37 80 38 82 39 30 40 85 41 79 42 78 43 31 45 65 46 44 47
REMARK SMILES IDX 64 48 45 49 48 50 63 51 83 52 46 53 47 54 62 56 84 57 49 58
REMARK SMILES IDX 32 59 33 60 42 61 34 62 35 63 41 64 43 65 36 66 37 67 38 68
REMARK SMILES IDX 39 69 40 70 66 71 67 72 76 73 68 74 69 75 75 76 77 77 70 78
REMARK SMILES IDX 71 79 72 80 73 81 74 82 50 83 51 84 60 85 52 86 53 87 59 88
REMARK SMILES IDX 61 89 54 90 55 91 56 92 57 93 58 94
REMARK H PARENT 16 5 3 11 3 12 20 25 82 44 48 55
REMARK Flexibility Score: inf
ROOT
ATOM      1  C   UNL A   1      37.479  22.695  25.752  1.00  0.00     0.117 C 
ENDROOT
BRANCH   1   2
ATOM      2  N   UNL A   1      36.248  22.613  26.522  1.00  0.00    -0.356 N 
ATOM      3  C   UNL A   1      34.974  22.978  26.226  1.00  0.00     0.228 C 
ATOM      4  O   UNL A   1      34.118  22.797  27.097  1.00  0.00    -0.275 OA
ATOM      5  H   UNL A   1      36.358  22.222  27.419  1.00  0.00     0.163 HD
BRANCH   3   6
ATOM      6  C   UNL A   1      34.582  23.574  24.876  1.00  0.00     0.133 C 
ATOM      7  C   UNL A   1      34.035  24.992  25.064  1.00  0.00     0.024 C 
BRANCH   6   8
ATOM      8  C   UNL A   1      33.696  22.609  24.053  1.00  0.00     0.191 C 
ATOM      9  C   UNL A   1      33.226  23.287  22.748  1.00  0.00     0.076 C 
BRANCH   8  10
ATOM     10  N   UNL A   1      32.565  22.131  24.862  1.00  0.00    -0.343 N 
ATOM     11  H   UNL A   1      31.724  22.631  24.573  1.00  0.00     0.346 HD
ATOM     12  H   UNL A   1      32.792  22.306  25.840  1.00  0.00     0.346 HD
BRANCH  10  13
ATOM     13  C   UNL A   1      32.328  20.688  24.712  1.00  0.00     0.265 C 
BRANCH  13  14
ATOM     14  C   UNL A   1      33.589  19.938  24.242  1.00  0.00     0.097 C 
BRANCH  14  15
ATOM     15  C   UNL A   1      33.681  18.474  24.624  1.00  0.00    -0.042 A 
ATOM     16  C   UNL A   1      34.817  17.695  24.365  1.00  0.00     0.004 A 
ATOM     17  C   UNL A   1      32.595  17.873  25.277  1.00  0.00     0.004 A 
ATOM     18  C   UNL A   1      34.833  16.331  24.661  1.00  0.00     0.000 A 
ATOM     19  C   UNL A   1      32.620  16.513  25.598  1.00  0.00     0.000 A 
ATOM     20  C   UNL A   1      33.732  15.740  25.271  1.00  0.00     0.000 A 
ENDBRANCH  14  15
ENDBRANCH  13  14
ENDBRANCH  10  13
ENDBRANCH   8  10
ENDBRANCH   6   8
ENDBRANCH   3   6
ENDBRANCH   1   2
BRANCH   1  21
ATOM     21  C   UNL A   1      38.361  23.856  26.196  1.00  0.00     0.042 C 
BRANCH  21  22
ATOM     22  C   UNL A   1      39.668  23.422  26.845  1.00  0.00     0.118 C 
BRANCH  22  23
ATOM     23  N   UNL A   1      40.832  23.833  26.073  1.00  0.00    -0.352 N 
ATOM     24  C   UNL A   1      41.606  24.959  26.176  1.00  0.00     0.251 C 
ATOM     25  H   UNL A   1      41.105  23.204  25.366  1.00  0.00     0.163 HD
ATOM     26  O   UNL A   1      42.403  25.226  25.274  1.00  0.00    -0.269 OA
BRANCH  24  27
ATOM     27  C   UNL A   1      41.484  25.853  27.345  1.00  0.00     0.039 A 
ATOM     28  C   UNL A   1      42.468  26.820  27.567  1.00  0.00     0.014 A 
ATOM     29  C   UNL A   1      40.416  25.727  28.239  1.00  0.00     0.014 A 
ATOM     30  C   UNL A   1      42.348  27.697  28.646  1.00  0.00     0.010 A 
ATOM     31  C   UNL A   1      40.250  26.658  29.258  1.00  0.00     0.010 A 
ATOM     32  C   UNL A   1      41.218  27.648  29.481  1.00  0.00    -0.014 A 
BRANCH  32  33
ATOM     33  C   UNL A   1      41.034  28.616  30.592  1.00  0.00     0.031 A 
ATOM     34  C   UNL A   1      41.880  28.510  31.833  1.00  0.00     0.074 A 
ATOM     35  C   UNL A   1      40.062  29.546  30.511  1.00  0.00     0.049 A 
ATOM     36  N   UNL A   1      41.817  29.209  32.937  1.00  0.00    -0.248 NA
ATOM     37  C   UNL A   1      42.916  27.464  31.846  1.00  0.00     0.031 C 
ATOM     38  C   UNL A   1      39.145  29.716  29.381  1.00  0.00     0.029 A 
ATOM     39  N   UNL A   1      39.674  30.518  31.397  1.00  0.00    -0.354 N 
ATOM     40  C   UNL A   1      42.789  28.680  33.777  1.00  0.00     0.074 A 
ATOM     41  C   UNL A   1      43.391  27.565  33.078  1.00  0.00     0.031 C 
ATOM     42  C   UNL A   1      38.319  30.744  29.632  1.00  0.00     0.029 A 
ATOM     43  C   UNL A   1      38.616  31.279  30.958  1.00  0.00     0.049 A 
ATOM     44  H   UNL A   1      40.112  30.658  32.269  1.00  0.00     0.167 HD
ATOM     45  C   UNL A   1      43.166  29.100  35.009  1.00  0.00     0.037 A 
ATOM     46  C   UNL A   1      37.953  32.286  31.557  1.00  0.00     0.037 A 
ATOM     47  C   UNL A   1      42.579  30.227  35.686  1.00  0.00     0.049 A 
ATOM     48  C   UNL A   1      38.385  32.732  32.928  1.00  0.00     0.074 A 
ATOM     49  C   UNL A   1      42.927  30.769  36.911  1.00  0.00     0.029 A 
ATOM     50  N   UNL A   1      41.525  30.985  35.198  1.00  0.00    -0.354 N 
ATOM     51  N   UNL A   1      39.349  32.260  33.683  1.00  0.00    -0.248 NA
ATOM     52  C   UNL A   1      37.646  33.850  33.528  1.00  0.00     0.031 C 
ATOM     53  C   UNL A   1      42.051  31.825  37.186  1.00  0.00     0.029 A 
ATOM     54  C   UNL A   1      41.194  31.977  36.107  1.00  0.00     0.049 A 
ATOM     55  H   UNL A   1      41.077  30.840  34.333  1.00  0.00     0.167 HD
ATOM     56  C   UNL A   1      39.352  33.042  34.831  1.00  0.00     0.074 A 
ATOM     57  C   UNL A   1      38.302  34.027  34.668  1.00  0.00     0.031 C 
ATOM     58  C   UNL A   1      40.151  32.955  35.924  1.00  0.00     0.037 A 
BRANCH  45  59
ATOM     59  C   UNL A   1      44.267  28.345  35.702  1.00  0.00     0.058 A 
ATOM     60  C   UNL A   1      43.994  27.273  36.569  1.00  0.00     0.135 A 
ATOM     61  C   UNL A   1      45.613  28.663  35.462  1.00  0.00     0.135 A 
ATOM     62  F   UNL A   1      42.725  26.934  36.846  1.00  0.00    -0.206 F 
ATOM     63  C   UNL A   1      45.015  26.563  37.192  1.00  0.00     0.059 A 
ATOM     64  C   UNL A   1      46.651  27.947  36.052  1.00  0.00     0.059 A 
ATOM     65  F   UNL A   1      45.933  29.678  34.643  1.00  0.00    -0.206 F 
ATOM     66  C   UNL A   1      46.341  26.906  36.926  1.00  0.00     0.060 A 
BRANCH  66  67
ATOM     67  S   UNL A   1      47.652  25.964  37.732  1.00  0.00     0.124 S 
ATOM     68  O   UNL A   1      48.559  25.713  36.617  1.00  0.00    -0.237 OA
ATOM     69  O   UNL A   1      48.134  26.900  38.742  1.00  0.00    -0.237 OA
ATOM     70  O   UNL A   1      46.958  24.789  38.251  1.00  0.00    -0.744 OA
ENDBRANCH  66  67
ENDBRANCH  45  59
BRANCH  46  71
ATOM     71  C   UNL A   1      36.821  32.955  30.859  1.00  0.00     0.058 A 
ATOM     72  C   UNL A   1      37.051  33.952  29.900  1.00  0.00     0.135 A 
ATOM     73  C   UNL A   1      35.489  32.607  31.131  1.00  0.00     0.135 A 
ATOM     74  F   UNL A   1      38.307  34.323  29.607  1.00  0.00    -0.206 F 
ATOM     75  C   UNL A   1      36.003  34.596  29.250  1.00  0.00     0.059 A 
ATOM     76  C   UNL A   1      34.424  33.217  30.475  1.00  0.00     0.059 A 
ATOM     77  F   UNL A   1      35.214  31.645  32.027  1.00  0.00    -0.206 F 
ATOM     78  C   UNL A   1      34.692  34.219  29.544  1.00  0.00     0.060 A 
BRANCH  78  79
ATOM     79  S   UNL A   1      33.340  35.035  28.667  1.00  0.00     0.124 S 
ATOM     80  O   UNL A   1      34.062  35.991  27.838  1.00  0.00    -0.237 OA
ATOM     81  O   UNL A   1      32.715  33.919  27.964  1.00  0.00    -0.237 OA
ATOM     82  O   UNL A   1      32.541  35.611  29.746  1.00  0.00    -0.744 OA
ENDBRANCH  78  79
ENDBRANCH  46  71
BRANCH  58  83
ATOM     83  C   UNL A   1      39.951  33.974  37.012  1.00  0.00     0.058 A 
ATOM     84  C   UNL A   1      40.483  35.270  36.920  1.00  0.00     0.135 A 
ATOM     85  C   UNL A   1      39.169  33.665  38.137  1.00  0.00     0.135 A 
ATOM     86  F   UNL A   1      41.242  35.615  35.869  1.00  0.00    -0.206 F 
ATOM     87  C   UNL A   1      40.267  36.215  37.917  1.00  0.00     0.059 A 
ATOM     88  C   UNL A   1      38.917  34.604  39.132  1.00  0.00     0.059 A 
ATOM     89  F   UNL A   1      38.628  32.443  38.270  1.00  0.00    -0.206 F 
ATOM     90  C   UNL A   1      39.480  35.873  39.019  1.00  0.00     0.060 A 
BRANCH  90  91
ATOM     91  S   UNL A   1      39.179  37.121  40.287  1.00  0.00     0.124 S 
ATOM     92  O   UNL A   1      38.268  36.415  41.183  1.00  0.00    -0.237 OA
ATOM     93  O   UNL A   1      40.520  37.366  40.810  1.00  0.00    -0.237 OA
ATOM     94  O   UNL A   1      38.592  38.230  39.542  1.00  0.00    -0.744 OA
ENDBRANCH  90  91
ENDBRANCH  58  83
ENDBRANCH  32  33
ENDBRANCH  24  27
ENDBRANCH  22  23
ENDBRANCH  21  22
ENDBRANCH   1  21
TORSDOF 18
ENDMDL
