MODEL 1
REMARK VINA RESULT:     -13.2      0.000      0.000
REMARK SMILES O=C(NCCCNC(=O)c1ccc(-c2c3nc(c(-c4c(F)cc(S(=O)(=O)[O-])cc4F)c4ccc([nH]4)c(-c4c(F)cc(S(=O)(=O)[O-])cc4F)c4nc(c(-c5c(F)cc(S(=O)(=O)[O-])cc5F)c5ccc2[nH]5)C=C4)C=C3)cc1)C1=Cc2cc(Cl)c(Cl)cc2O[C@@H]1C(F)(F)F
REMARK SMILES IDX 6 1 5 2 4 3 3 4 1 5 2 6 76 8 77 9 87 10 78 11 86 12 79 13
REMARK SMILES IDX 85 14 80 15 84 16 81 17 82 18 83 19 88 20 89 21 90 22 91 23
REMARK SMILES IDX 7 24 8 25 9 27 10 28 11 29 75 30 12 31 74 32 13 33 14 34
REMARK SMILES IDX 15 35 68 36 16 37 73 38 67 39 69 40 17 41 72 42 66 43 65 44
REMARK SMILES IDX 18 46 52 47 31 48 51 49 32 50 35 51 50 52 70 53 33 54 34 55
REMARK SMILES IDX 49 57 71 58 36 59 19 60 20 61 29 62 21 63 22 64 28 65 30 66
REMARK SMILES IDX 23 67 24 68 25 69 26 70 27 71 53 72 54 73 63 74 55 75 56 76
REMARK SMILES IDX 62 77 64 78 57 79 58 80 59 81 60 82 61 83 37 84 38 85 47 86
REMARK SMILES IDX 39 87 40 88 46 89 48 90 41 91 42 92 43 93 44 94 45 95
REMARK H PARENT 3 7 7 26 69 45 35 56
REMARK Flexibility Score: inf
ROOT
ATOM      1  C   UNL A   1      38.543  24.009  26.508  1.00  0.00     0.118 C 
ENDROOT
BRANCH   1   2
ATOM      2  C   UNL A   1      37.679  23.034  25.720  1.00  0.00     0.042 C 
BRANCH   2   3
ATOM      3  C   UNL A   1      36.243  23.522  25.572  1.00  0.00     0.118 C 
BRANCH   3   4
ATOM      4  N   UNL A   1      35.372  23.105  26.672  1.00  0.00    -0.352 N 
ATOM      5  O   UNL A   1      33.962  21.722  27.794  1.00  0.00    -0.270 OA
ATOM      6  C   UNL A   1      34.457  22.083  26.736  1.00  0.00     0.251 C 
ATOM      7  H   UNL A   1      35.455  23.641  27.495  1.00  0.00     0.163 HD
BRANCH   6   8
ATOM      8  C   UNL A   1      34.147  21.391  25.472  1.00  0.00     0.067 C 
ATOM      9  C   UNL A   1      35.015  20.451  25.076  1.00  0.00     0.025 C 
ATOM     10  C   UNL A   1      32.738  21.477  24.975  1.00  0.00     0.314 C 
ATOM     11  C   UNL A   1      34.368  19.199  24.673  1.00  0.00     0.019 A 
ATOM     12  O   UNL A   1      32.121  20.170  24.836  1.00  0.00    -0.475 OA
ATOM     13  C   UNL A   1      35.152  18.039  24.690  1.00  0.00     0.034 A 
ATOM     14  C   UNL A   1      32.967  19.094  24.724  1.00  0.00     0.129 A 
ATOM     15  C   UNL A   1      34.548  16.797  24.898  1.00  0.00     0.060 A 
ATOM     16  C   UNL A   1      32.364  17.847  24.891  1.00  0.00     0.069 A 
ATOM     17  Cl  UNL A   1      35.591  15.439  25.123  1.00  0.00    -0.083 Cl
ATOM     18  C   UNL A   1      33.156  16.705  25.025  1.00  0.00     0.063 A 
ATOM     19  Cl  UNL A   1      32.364  15.231  25.449  1.00  0.00    -0.083 Cl
BRANCH  10  20
ATOM     20  C   UNL A   1      32.651  22.261  23.658  1.00  0.00     0.429 C 
ATOM     21  F   UNL A   1      33.871  22.728  23.290  1.00  0.00    -0.167 F 
ATOM     22  F   UNL A   1      32.206  21.493  22.636  1.00  0.00    -0.167 F 
ATOM     23  F   UNL A   1      31.825  23.330  23.747  1.00  0.00    -0.167 F 
ENDBRANCH  10  20
ENDBRANCH   6   8
ENDBRANCH   3   4
ENDBRANCH   2   3
ENDBRANCH   1   2
BRANCH   1  24
ATOM     24  N   UNL A   1      39.922  24.093  26.039  1.00  0.00    -0.352 N 
ATOM     25  C   UNL A   1      40.933  24.946  26.423  1.00  0.00     0.251 C 
ATOM     26  H   UNL A   1      40.168  23.439  25.345  1.00  0.00     0.163 HD
ATOM     27  O   UNL A   1      42.021  24.882  25.855  1.00  0.00    -0.269 OA
BRANCH  25  28
ATOM     28  C   UNL A   1      40.706  25.957  27.483  1.00  0.00     0.039 A 
ATOM     29  C   UNL A   1      39.782  25.689  28.499  1.00  0.00     0.014 A 
ATOM     30  C   UNL A   1      41.407  27.162  27.489  1.00  0.00     0.014 A 
ATOM     31  C   UNL A   1      39.617  26.601  29.546  1.00  0.00     0.010 A 
ATOM     32  C   UNL A   1      41.343  27.998  28.595  1.00  0.00     0.010 A 
ATOM     33  C   UNL A   1      40.422  27.749  29.621  1.00  0.00    -0.014 A 
BRANCH  33  34
ATOM     34  C   UNL A   1      40.283  28.739  30.721  1.00  0.00     0.031 A 
ATOM     35  C   UNL A   1      41.151  28.612  31.950  1.00  0.00     0.074 A 
ATOM     36  C   UNL A   1      39.336  29.695  30.655  1.00  0.00     0.049 A 
ATOM     37  N   UNL A   1      41.126  29.306  33.058  1.00  0.00    -0.248 NA
ATOM     38  C   UNL A   1      42.144  27.524  31.955  1.00  0.00     0.031 C 
ATOM     39  C   UNL A   1      38.379  29.869  29.559  1.00  0.00     0.029 A 
ATOM     40  N   UNL A   1      39.015  30.698  31.534  1.00  0.00    -0.354 N 
ATOM     41  C   UNL A   1      42.064  28.712  33.897  1.00  0.00     0.074 A 
ATOM     42  C   UNL A   1      42.584  27.558  33.202  1.00  0.00     0.031 C 
ATOM     43  C   UNL A   1      37.606  30.938  29.813  1.00  0.00     0.029 A 
ATOM     44  C   UNL A   1      37.988  31.506  31.102  1.00  0.00     0.049 A 
ATOM     45  H   UNL A   1      39.476  30.828  32.394  1.00  0.00     0.167 HD
ATOM     46  C   UNL A   1      42.487  29.114  35.119  1.00  0.00     0.037 A 
ATOM     47  C   UNL A   1      37.428  32.587  31.678  1.00  0.00     0.037 A 
ATOM     48  C   UNL A   1      42.014  30.306  35.771  1.00  0.00     0.049 A 
ATOM     49  C   UNL A   1      37.970  33.066  32.998  1.00  0.00     0.074 A 
ATOM     50  C   UNL A   1      42.432  30.859  36.967  1.00  0.00     0.029 A 
ATOM     51  N   UNL A   1      41.026  31.139  35.265  1.00  0.00    -0.354 N 
ATOM     52  N   UNL A   1      38.906  32.532  33.747  1.00  0.00    -0.248 NA
ATOM     53  C   UNL A   1      37.394  34.302  33.541  1.00  0.00     0.031 C 
ATOM     54  C   UNL A   1      41.672  32.010  37.202  1.00  0.00     0.029 A 
ATOM     55  C   UNL A   1      40.815  32.199  36.129  1.00  0.00     0.049 A 
ATOM     56  H   UNL A   1      40.546  30.997  34.417  1.00  0.00     0.167 HD
ATOM     57  C   UNL A   1      39.051  33.383  34.838  1.00  0.00     0.074 A 
ATOM     58  C   UNL A   1      38.116  34.473  34.640  1.00  0.00     0.031 C 
ATOM     59  C   UNL A   1      39.881  33.275  35.906  1.00  0.00     0.037 A 
BRANCH  46  60
ATOM     60  C   UNL A   1      43.522  28.267  35.812  1.00  0.00     0.058 A 
ATOM     61  C   UNL A   1      44.899  28.470  35.613  1.00  0.00     0.135 A 
ATOM     62  C   UNL A   1      43.136  27.240  36.687  1.00  0.00     0.135 A 
ATOM     63  F   UNL A   1      45.328  29.426  34.774  1.00  0.00    -0.206 F 
ATOM     64  C   UNL A   1      45.851  27.658  36.219  1.00  0.00     0.059 A 
ATOM     65  C   UNL A   1      44.073  26.436  37.331  1.00  0.00     0.059 A 
ATOM     66  F   UNL A   1      41.836  26.999  36.915  1.00  0.00    -0.206 F 
ATOM     67  C   UNL A   1      45.428  26.640  37.074  1.00  0.00     0.060 A 
BRANCH  67  68
ATOM     68  S   UNL A   1      46.676  25.589  37.848  1.00  0.00     0.124 S 
ATOM     69  O   UNL A   1      46.488  24.335  37.124  1.00  0.00    -0.237 OA
ATOM     70  O   UNL A   1      47.913  26.308  37.557  1.00  0.00    -0.237 OA
ATOM     71  O   UNL A   1      46.280  25.569  39.252  1.00  0.00    -0.744 OA
ENDBRANCH  67  68
ENDBRANCH  46  60
BRANCH  47  72
ATOM     72  C   UNL A   1      36.335  33.317  30.982  1.00  0.00     0.058 A 
ATOM     73  C   UNL A   1      35.021  33.287  31.474  1.00  0.00     0.135 A 
ATOM     74  C   UNL A   1      36.583  34.081  29.832  1.00  0.00     0.135 A 
ATOM     75  F   UNL A   1      34.732  32.568  32.569  1.00  0.00    -0.206 F 
ATOM     76  C   UNL A   1      33.989  33.975  30.844  1.00  0.00     0.059 A 
ATOM     77  C   UNL A   1      35.572  34.798  29.197  1.00  0.00     0.059 A 
ATOM     78  F   UNL A   1      37.826  34.160  29.332  1.00  0.00    -0.206 F 
ATOM     79  C   UNL A   1      34.275  34.732  29.707  1.00  0.00     0.060 A 
BRANCH  79  80
ATOM     80  S   UNL A   1      32.939  35.667  28.929  1.00  0.00     0.124 S 
ATOM     81  O   UNL A   1      32.366  34.671  28.032  1.00  0.00    -0.237 OA
ATOM     82  O   UNL A   1      32.119  36.042  30.077  1.00  0.00    -0.237 OA
ATOM     83  O   UNL A   1      33.638  36.773  28.281  1.00  0.00    -0.744 OA
ENDBRANCH  79  80
ENDBRANCH  47  72
BRANCH  59  84
ATOM     84  C   UNL A   1      39.840  34.383  36.919  1.00  0.00     0.058 A 
ATOM     85  C   UNL A   1      40.602  35.552  36.768  1.00  0.00     0.135 A 
ATOM     86  C   UNL A   1      39.002  34.284  38.042  1.00  0.00     0.135 A 
ATOM     87  F   UNL A   1      41.419  35.694  35.712  1.00  0.00    -0.206 F 
ATOM     88  C   UNL A   1      40.569  36.566  37.718  1.00  0.00     0.059 A 
ATOM     89  C   UNL A   1      38.931  35.300  38.988  1.00  0.00     0.059 A 
ATOM     90  F   UNL A   1      38.240  33.195  38.224  1.00  0.00    -0.206 F 
ATOM     91  C   UNL A   1      39.733  36.428  38.828  1.00  0.00     0.060 A 
BRANCH  91  92
ATOM     92  S   UNL A   1      39.695  37.752  40.054  1.00  0.00     0.124 S 
ATOM     93  O   UNL A   1      38.554  38.541  39.599  1.00  0.00    -0.237 OA
ATOM     94  O   UNL A   1      39.501  37.020  41.301  1.00  0.00    -0.237 OA
ATOM     95  O   UNL A   1      40.999  38.390  39.904  1.00  0.00    -0.744 OA
ENDBRANCH  91  92
ENDBRANCH  59  84
ENDBRANCH  33  34
ENDBRANCH  25  28
ENDBRANCH   1  24
TORSDOF 14
ENDMDL
MODEL 2
REMARK VINA RESULT:     -13.1      6.386     11.482
REMARK SMILES O=C(NCCCNC(=O)c1ccc(-c2c3nc(c(-c4c(F)cc(S(=O)(=O)[O-])cc4F)c4ccc([nH]4)c(-c4c(F)cc(S(=O)(=O)[O-])cc4F)c4nc(c(-c5c(F)cc(S(=O)(=O)[O-])cc5F)c5ccc2[nH]5)C=C4)C=C3)cc1)C1=Cc2cc(Cl)c(Cl)cc2O[C@@H]1C(F)(F)F
REMARK SMILES IDX 6 1 5 2 4 3 3 4 1 5 2 6 76 8 77 9 87 10 78 11 86 12 79 13
REMARK SMILES IDX 85 14 80 15 84 16 81 17 82 18 83 19 88 20 89 21 90 22 91 23
REMARK SMILES IDX 7 24 8 25 9 27 10 28 11 29 75 30 12 31 74 32 13 33 14 34
REMARK SMILES IDX 15 35 68 36 16 37 73 38 67 39 69 40 17 41 72 42 66 43 65 44
REMARK SMILES IDX 18 46 52 47 31 48 51 49 32 50 35 51 50 52 70 53 33 54 34 55
REMARK SMILES IDX 49 57 71 58 36 59 19 60 20 61 29 62 21 63 22 64 28 65 30 66
REMARK SMILES IDX 23 67 24 68 25 69 26 70 27 71 53 72 54 73 63 74 55 75 56 76
REMARK SMILES IDX 62 77 64 78 57 79 58 80 59 81 60 82 61 83 37 84 38 85 47 86
REMARK SMILES IDX 39 87 40 88 46 89 48 90 41 91 42 92 43 93 44 94 45 95
REMARK H PARENT 3 7 7 26 69 45 35 56
REMARK Flexibility Score: inf
ROOT
ATOM      1  C   UNL A   1      34.067  28.164  26.675  1.00  0.00     0.118 C 
ENDROOT
BRANCH   1   2
ATOM      2  C   UNL A   1      32.893  27.208  26.516  1.00  0.00     0.042 C 
BRANCH   2   3
ATOM      3  C   UNL A   1      32.960  26.422  25.212  1.00  0.00     0.118 C 
BRANCH   3   4
ATOM      4  N   UNL A   1      33.386  27.230  24.068  1.00  0.00    -0.352 N 
ATOM      5  O   UNL A   1      33.260  28.926  22.562  1.00  0.00    -0.270 OA
ATOM      6  C   UNL A   1      32.699  28.181  23.354  1.00  0.00     0.251 C 
ATOM      7  H   UNL A   1      34.308  27.066  23.763  1.00  0.00     0.163 HD
BRANCH   6   8
ATOM      8  C   UNL A   1      31.258  28.310  23.636  1.00  0.00     0.067 C 
ATOM      9  C   UNL A   1      30.869  29.427  24.263  1.00  0.00     0.025 C 
ATOM     10  C   UNL A   1      30.329  27.435  22.854  1.00  0.00     0.314 C 
ATOM     11  C   UNL A   1      29.710  30.069  23.636  1.00  0.00     0.019 A 
ATOM     12  O   UNL A   1      29.366  28.200  22.085  1.00  0.00    -0.475 OA
ATOM     13  C   UNL A   1      29.511  31.429  23.902  1.00  0.00     0.034 A 
ATOM     14  C   UNL A   1      29.128  29.489  22.495  1.00  0.00     0.129 A 
ATOM     15  C   UNL A   1      28.855  32.230  22.963  1.00  0.00     0.060 A 
ATOM     16  C   UNL A   1      28.439  30.285  21.580  1.00  0.00     0.069 A 
ATOM     17  Cl  UNL A   1      28.834  33.932  23.255  1.00  0.00    -0.083 Cl
ATOM     18  C   UNL A   1      28.343  31.662  21.790  1.00  0.00     0.063 A 
ATOM     19  Cl  UNL A   1      27.674  32.618  20.518  1.00  0.00    -0.083 Cl
BRANCH  10  20
ATOM     20  C   UNL A   1      29.617  26.418  23.758  1.00  0.00     0.429 C 
ATOM     21  F   UNL A   1      28.273  26.467  23.578  1.00  0.00    -0.167 F 
ATOM     22  F   UNL A   1      29.997  25.147  23.493  1.00  0.00    -0.167 F 
ATOM     23  F   UNL A   1      29.851  26.643  25.072  1.00  0.00    -0.167 F 
ENDBRANCH  10  20
ENDBRANCH   6   8
ENDBRANCH   3   4
ENDBRANCH   2   3
ENDBRANCH   1   2
BRANCH   1  24
ATOM     24  N   UNL A   1      33.703  29.463  27.229  1.00  0.00    -0.352 N 
ATOM     25  C   UNL A   1      34.462  30.356  27.954  1.00  0.00     0.251 C 
ATOM     26  H   UNL A   1      32.775  29.746  27.058  1.00  0.00     0.163 HD
ATOM     27  O   UNL A   1      33.938  31.384  28.378  1.00  0.00    -0.269 OA
BRANCH  25  28
ATOM     28  C   UNL A   1      35.885  30.068  28.254  1.00  0.00     0.039 A 
ATOM     29  C   UNL A   1      36.237  29.611  29.528  1.00  0.00     0.014 A 
ATOM     30  C   UNL A   1      36.872  30.233  27.283  1.00  0.00     0.014 A 
ATOM     31  C   UNL A   1      37.565  29.262  29.799  1.00  0.00     0.010 A 
ATOM     32  C   UNL A   1      38.156  29.758  27.510  1.00  0.00     0.010 A 
ATOM     33  C   UNL A   1      38.530  29.300  28.779  1.00  0.00    -0.014 A 
BRANCH  33  34
ATOM     34  C   UNL A   1      39.949  28.930  29.024  1.00  0.00     0.031 A 
ATOM     35  C   UNL A   1      40.891  29.951  29.616  1.00  0.00     0.074 A 
ATOM     36  C   UNL A   1      40.408  27.720  28.648  1.00  0.00     0.049 A 
ATOM     37  N   UNL A   1      42.181  29.869  29.820  1.00  0.00    -0.248 NA
ATOM     38  C   UNL A   1      40.317  31.259  29.975  1.00  0.00     0.031 C 
ATOM     39  C   UNL A   1      39.616  26.679  27.988  1.00  0.00     0.029 A 
ATOM     40  N   UNL A   1      41.657  27.164  28.759  1.00  0.00    -0.354 N 
ATOM     41  C   UNL A   1      42.569  31.120  30.289  1.00  0.00     0.074 A 
ATOM     42  C   UNL A   1      41.398  31.964  30.266  1.00  0.00     0.031 C 
ATOM     43  C   UNL A   1      40.388  25.597  27.790  1.00  0.00     0.029 A 
ATOM     44  C   UNL A   1      41.734  25.878  28.276  1.00  0.00     0.049 A 
ATOM     45  H   UNL A   1      42.425  27.640  29.148  1.00  0.00     0.167 HD
ATOM     46  C   UNL A   1      43.782  31.520  30.740  1.00  0.00     0.037 A 
ATOM     47  C   UNL A   1      42.774  25.022  28.241  1.00  0.00     0.037 A 
ATOM     48  C   UNL A   1      44.923  30.650  30.827  1.00  0.00     0.049 A 
ATOM     49  C   UNL A   1      44.091  25.458  28.823  1.00  0.00     0.074 A 
ATOM     50  C   UNL A   1      46.176  30.918  31.346  1.00  0.00     0.029 A 
ATOM     51  N   UNL A   1      44.941  29.330  30.397  1.00  0.00    -0.354 N 
ATOM     52  N   UNL A   1      44.424  26.623  29.327  1.00  0.00    -0.248 NA
ATOM     53  C   UNL A   1      45.167  24.460  28.851  1.00  0.00     0.031 C 
ATOM     54  C   UNL A   1      46.963  29.771  31.200  1.00  0.00     0.029 A 
ATOM     55  C   UNL A   1      46.186  28.773  30.633  1.00  0.00     0.049 A 
ATOM     56  H   UNL A   1      44.180  28.860  29.985  1.00  0.00     0.167 HD
ATOM     57  C   UNL A   1      45.740  26.490  29.756  1.00  0.00     0.074 A 
ATOM     58  C   UNL A   1      46.134  25.125  29.466  1.00  0.00     0.031 C 
ATOM     59  C   UNL A   1      46.550  27.409  30.339  1.00  0.00     0.037 A 
BRANCH  46  60
ATOM     60  C   UNL A   1      43.921  32.952  31.188  1.00  0.00     0.058 A 
ATOM     61  C   UNL A   1      43.798  33.320  32.539  1.00  0.00     0.135 A 
ATOM     62  C   UNL A   1      44.183  33.969  30.258  1.00  0.00     0.135 A 
ATOM     63  F   UNL A   1      43.531  32.392  33.472  1.00  0.00    -0.206 F 
ATOM     64  C   UNL A   1      43.883  34.647  32.944  1.00  0.00     0.059 A 
ATOM     65  C   UNL A   1      44.305  35.301  30.646  1.00  0.00     0.059 A 
ATOM     66  F   UNL A   1      44.310  33.678  28.954  1.00  0.00    -0.206 F 
ATOM     67  C   UNL A   1      44.133  35.633  31.988  1.00  0.00     0.060 A 
BRANCH  67  68
ATOM     68  S   UNL A   1      44.233  37.352  32.529  1.00  0.00     0.124 S 
ATOM     69  O   UNL A   1      44.130  38.062  31.258  1.00  0.00    -0.237 OA
ATOM     70  O   UNL A   1      43.079  37.469  33.415  1.00  0.00    -0.237 OA
ATOM     71  O   UNL A   1      45.534  37.427  33.186  1.00  0.00    -0.744 OA
ENDBRANCH  67  68
ENDBRANCH  46  60
BRANCH  47  72
ATOM     72  C   UNL A   1      42.590  23.653  27.687  1.00  0.00     0.058 A 
ATOM     73  C   UNL A   1      42.691  23.415  26.308  1.00  0.00     0.135 A 
ATOM     74  C   UNL A   1      42.340  22.554  28.522  1.00  0.00     0.135 A 
ATOM     75  F   UNL A   1      42.927  24.434  25.467  1.00  0.00    -0.206 F 
ATOM     76  C   UNL A   1      42.537  22.140  25.773  1.00  0.00     0.059 A 
ATOM     77  C   UNL A   1      42.205  21.265  28.014  1.00  0.00     0.059 A 
ATOM     78  F   UNL A   1      42.255  22.724  29.850  1.00  0.00    -0.206 F 
ATOM     79  C   UNL A   1      42.297  21.068  26.636  1.00  0.00     0.060 A 
BRANCH  79  80
ATOM     80  S   UNL A   1      42.154  19.409  25.938  1.00  0.00     0.124 S 
ATOM     81  O   UNL A   1      42.632  18.583  27.040  1.00  0.00    -0.237 OA
ATOM     82  O   UNL A   1      40.726  19.321  25.646  1.00  0.00    -0.237 OA
ATOM     83  O   UNL A   1      43.022  19.463  24.765  1.00  0.00    -0.744 OA
ENDBRANCH  79  80
ENDBRANCH  47  72
BRANCH  59  84
ATOM     84  C   UNL A   1      47.927  26.956  30.732  1.00  0.00     0.058 A 
ATOM     85  C   UNL A   1      48.170  26.303  31.951  1.00  0.00     0.135 A 
ATOM     86  C   UNL A   1      49.013  27.155  29.864  1.00  0.00     0.135 A 
ATOM     87  F   UNL A   1      47.166  26.091  32.816  1.00  0.00    -0.206 F 
ATOM     88  C   UNL A   1      49.450  25.900  32.314  1.00  0.00     0.059 A 
ATOM     89  C   UNL A   1      50.296  26.732  30.194  1.00  0.00     0.059 A 
ATOM     90  F   UNL A   1      48.831  27.759  28.679  1.00  0.00    -0.206 F 
ATOM     91  C   UNL A   1      50.508  26.124  31.430  1.00  0.00     0.060 A 
BRANCH  91  92
ATOM     92  S   UNL A   1      52.165  25.595  31.910  1.00  0.00     0.124 S 
ATOM     93  O   UNL A   1      51.948  24.182  32.204  1.00  0.00    -0.237 OA
ATOM     94  O   UNL A   1      52.946  25.879  30.710  1.00  0.00    -0.237 OA
ATOM     95  O   UNL A   1      52.469  26.437  33.062  1.00  0.00    -0.744 OA
ENDBRANCH  91  92
ENDBRANCH  59  84
ENDBRANCH  33  34
ENDBRANCH  25  28
ENDBRANCH   1  24
TORSDOF 14
ENDMDL
MODEL 3
REMARK VINA RESULT:     -12.9      5.078     10.475
REMARK SMILES O=C(NCCCNC(=O)c1ccc(-c2c3nc(c(-c4c(F)cc(S(=O)(=O)[O-])cc4F)c4ccc([nH]4)c(-c4c(F)cc(S(=O)(=O)[O-])cc4F)c4nc(c(-c5c(F)cc(S(=O)(=O)[O-])cc5F)c5ccc2[nH]5)C=C4)C=C3)cc1)C1=Cc2cc(Cl)c(Cl)cc2O[C@@H]1C(F)(F)F
REMARK SMILES IDX 6 1 5 2 4 3 3 4 1 5 2 6 76 8 77 9 87 10 78 11 86 12 79 13
REMARK SMILES IDX 85 14 80 15 84 16 81 17 82 18 83 19 88 20 89 21 90 22 91 23
REMARK SMILES IDX 7 24 8 25 9 27 10 28 11 29 75 30 12 31 74 32 13 33 14 34
REMARK SMILES IDX 15 35 68 36 16 37 73 38 67 39 69 40 17 41 72 42 66 43 65 44
REMARK SMILES IDX 18 46 52 47 31 48 51 49 32 50 35 51 50 52 70 53 33 54 34 55
REMARK SMILES IDX 49 57 71 58 36 59 19 60 20 61 29 62 21 63 22 64 28 65 30 66
REMARK SMILES IDX 23 67 24 68 25 69 26 70 27 71 53 72 54 73 63 74 55 75 56 76
REMARK SMILES IDX 62 77 64 78 57 79 58 80 59 81 60 82 61 83 37 84 38 85 47 86
REMARK SMILES IDX 39 87 40 88 46 89 48 90 41 91 42 92 43 93 44 94 45 95
REMARK H PARENT 3 7 7 26 69 45 35 56
REMARK Flexibility Score: inf
ROOT
ATOM      1  C   UNL A   1      33.667  28.235  27.046  1.00  0.00     0.118 C 
ENDROOT
BRANCH   1   2
ATOM      2  C   UNL A   1      33.435  28.069  25.550  1.00  0.00     0.042 C 
BRANCH   2   3
ATOM      3  C   UNL A   1      32.132  27.342  25.244  1.00  0.00     0.118 C 
BRANCH   3   4
ATOM      4  N   UNL A   1      31.927  26.147  26.064  1.00  0.00    -0.352 N 
ATOM      5  O   UNL A   1      32.446  24.116  26.939  1.00  0.00    -0.270 OA
ATOM      6  C   UNL A   1      32.586  24.942  26.048  1.00  0.00     0.251 C 
ATOM      7  H   UNL A   1      31.205  26.218  26.730  1.00  0.00     0.163 HD
BRANCH   6   8
ATOM      8  C   UNL A   1      33.525  24.714  24.936  1.00  0.00     0.067 C 
ATOM      9  C   UNL A   1      34.823  24.912  25.200  1.00  0.00     0.025 C 
ATOM     10  C   UNL A   1      33.032  23.900  23.781  1.00  0.00     0.314 C 
ATOM     11  C   UNL A   1      35.682  23.820  24.732  1.00  0.00     0.019 A 
ATOM     12  O   UNL A   1      33.834  22.711  23.561  1.00  0.00    -0.475 OA
ATOM     13  C   UNL A   1      36.938  23.690  25.336  1.00  0.00     0.034 A 
ATOM     14  C   UNL A   1      35.108  22.718  24.074  1.00  0.00     0.129 A 
ATOM     15  C   UNL A   1      37.548  22.435  25.404  1.00  0.00     0.060 A 
ATOM     16  C   UNL A   1      35.739  21.476  24.109  1.00  0.00     0.069 A 
ATOM     17  Cl  UNL A   1      38.988  22.308  26.348  1.00  0.00    -0.083 Cl
ATOM     18  C   UNL A   1      36.935  21.323  24.813  1.00  0.00     0.063 A 
ATOM     19  Cl  UNL A   1      37.550  19.721  25.005  1.00  0.00    -0.083 Cl
BRANCH  10  20
ATOM     20  C   UNL A   1      32.939  24.738  22.498  1.00  0.00     0.429 C 
ATOM     21  F   UNL A   1      31.719  25.322  22.387  1.00  0.00    -0.167 F 
ATOM     22  F   UNL A   1      33.850  25.739  22.476  1.00  0.00    -0.167 F 
ATOM     23  F   UNL A   1      33.129  23.996  21.382  1.00  0.00    -0.167 F 
ENDBRANCH  10  20
ENDBRANCH   6   8
ENDBRANCH   3   4
ENDBRANCH   2   3
ENDBRANCH   1   2
BRANCH   1  24
ATOM     24  N   UNL A   1      33.524  29.607  27.520  1.00  0.00    -0.352 N 
ATOM     25  C   UNL A   1      34.455  30.441  28.100  1.00  0.00     0.251 C 
ATOM     26  H   UNL A   1      32.627  29.997  27.407  1.00  0.00     0.163 HD
ATOM     27  O   UNL A   1      34.108  31.556  28.481  1.00  0.00    -0.269 OA
BRANCH  25  28
ATOM     28  C   UNL A   1      35.853  29.989  28.298  1.00  0.00     0.039 A 
ATOM     29  C   UNL A   1      36.760  30.083  27.238  1.00  0.00     0.014 A 
ATOM     30  C   UNL A   1      36.278  29.484  29.527  1.00  0.00     0.014 A 
ATOM     31  C   UNL A   1      38.100  29.733  27.437  1.00  0.00     0.010 A 
ATOM     32  C   UNL A   1      37.629  29.269  29.760  1.00  0.00     0.010 A 
ATOM     33  C   UNL A   1      38.553  29.355  28.711  1.00  0.00    -0.014 A 
BRANCH  33  34
ATOM     34  C   UNL A   1      39.970  28.982  28.965  1.00  0.00     0.031 A 
ATOM     35  C   UNL A   1      40.913  30.003  29.553  1.00  0.00     0.074 A 
ATOM     36  C   UNL A   1      40.425  27.767  28.601  1.00  0.00     0.049 A 
ATOM     37  N   UNL A   1      42.201  29.918  29.765  1.00  0.00    -0.248 NA
ATOM     38  C   UNL A   1      40.342  31.317  29.900  1.00  0.00     0.031 C 
ATOM     39  C   UNL A   1      39.633  26.724  27.945  1.00  0.00     0.029 A 
ATOM     40  N   UNL A   1      41.671  27.207  28.722  1.00  0.00    -0.354 N 
ATOM     41  C   UNL A   1      42.592  31.172  30.226  1.00  0.00     0.074 A 
ATOM     42  C   UNL A   1      41.424  32.020  30.190  1.00  0.00     0.031 C 
ATOM     43  C   UNL A   1      40.401  25.638  27.759  1.00  0.00     0.029 A 
ATOM     44  C   UNL A   1      41.747  25.917  28.250  1.00  0.00     0.049 A 
ATOM     45  H   UNL A   1      42.440  27.683  29.111  1.00  0.00     0.167 HD
ATOM     46  C   UNL A   1      43.804  31.571  30.680  1.00  0.00     0.037 A 
ATOM     47  C   UNL A   1      42.783  25.056  28.226  1.00  0.00     0.037 A 
ATOM     48  C   UNL A   1      44.941  30.697  30.779  1.00  0.00     0.049 A 
ATOM     49  C   UNL A   1      44.099  25.492  28.812  1.00  0.00     0.074 A 
ATOM     50  C   UNL A   1      46.193  30.964  31.302  1.00  0.00     0.029 A 
ATOM     51  N   UNL A   1      44.956  29.374  30.359  1.00  0.00    -0.354 N 
ATOM     52  N   UNL A   1      44.434  26.660  29.308  1.00  0.00    -0.248 NA
ATOM     53  C   UNL A   1      45.171  24.490  28.852  1.00  0.00     0.031 C 
ATOM     54  C   UNL A   1      46.976  29.813  31.168  1.00  0.00     0.029 A 
ATOM     55  C   UNL A   1      46.197  28.814  30.605  1.00  0.00     0.049 A 
ATOM     56  H   UNL A   1      44.196  28.903  29.947  1.00  0.00     0.167 HD
ATOM     57  C   UNL A   1      45.748  26.525  29.745  1.00  0.00     0.074 A 
ATOM     58  C   UNL A   1      46.137  25.157  29.467  1.00  0.00     0.031 C 
ATOM     59  C   UNL A   1      46.558  27.446  30.324  1.00  0.00     0.037 A 
BRANCH  46  60
ATOM     60  C   UNL A   1      43.947  33.005  31.117  1.00  0.00     0.058 A 
ATOM     61  C   UNL A   1      43.633  33.415  32.425  1.00  0.00     0.135 A 
ATOM     62  C   UNL A   1      44.403  33.983  30.221  1.00  0.00     0.135 A 
ATOM     63  F   UNL A   1      43.175  32.526  33.322  1.00  0.00    -0.206 F 
ATOM     64  C   UNL A   1      43.724  34.747  32.813  1.00  0.00     0.059 A 
ATOM     65  C   UNL A   1      44.534  35.318  30.598  1.00  0.00     0.059 A 
ATOM     66  F   UNL A   1      44.717  33.652  28.959  1.00  0.00    -0.206 F 
ATOM     67  C   UNL A   1      44.172  35.693  31.890  1.00  0.00     0.060 A 
BRANCH  67  68
ATOM     68  S   UNL A   1      44.276  37.419  32.408  1.00  0.00     0.124 S 
ATOM     69  O   UNL A   1      43.362  37.437  33.545  1.00  0.00    -0.237 OA
ATOM     70  O   UNL A   1      45.692  37.564  32.732  1.00  0.00    -0.237 OA
ATOM     71  O   UNL A   1      43.828  38.154  31.230  1.00  0.00    -0.744 OA
ENDBRANCH  67  68
ENDBRANCH  46  60
BRANCH  47  72
ATOM     72  C   UNL A   1      42.596  23.685  27.682  1.00  0.00     0.058 A 
ATOM     73  C   UNL A   1      42.681  23.439  26.303  1.00  0.00     0.135 A 
ATOM     74  C   UNL A   1      42.361  22.589  28.526  1.00  0.00     0.135 A 
ATOM     75  F   UNL A   1      42.902  24.454  25.454  1.00  0.00    -0.206 F 
ATOM     76  C   UNL A   1      42.523  22.161  25.777  1.00  0.00     0.059 A 
ATOM     77  C   UNL A   1      42.224  21.296  28.027  1.00  0.00     0.059 A 
ATOM     78  F   UNL A   1      42.292  22.766  29.855  1.00  0.00    -0.206 F 
ATOM     79  C   UNL A   1      42.299  21.093  26.649  1.00  0.00     0.060 A 
BRANCH  79  80
ATOM     80  S   UNL A   1      42.152  19.429  25.962  1.00  0.00     0.124 S 
ATOM     81  O   UNL A   1      40.717  19.336  25.719  1.00  0.00    -0.237 OA
ATOM     82  O   UNL A   1      42.997  19.512  24.774  1.00  0.00    -0.237 OA
ATOM     83  O   UNL A   1      42.669  18.579  27.030  1.00  0.00    -0.744 OA
ENDBRANCH  79  80
ENDBRANCH  47  72
BRANCH  59  84
ATOM     84  C   UNL A   1      47.931  26.991  30.728  1.00  0.00     0.058 A 
ATOM     85  C   UNL A   1      48.193  26.474  32.006  1.00  0.00     0.135 A 
ATOM     86  C   UNL A   1      48.994  27.048  29.811  1.00  0.00     0.135 A 
ATOM     87  F   UNL A   1      47.211  26.401  32.919  1.00  0.00    -0.206 F 
ATOM     88  C   UNL A   1      49.470  26.069  32.376  1.00  0.00     0.059 A 
ATOM     89  C   UNL A   1      50.272  26.619  30.151  1.00  0.00     0.059 A 
ATOM     90  F   UNL A   1      48.793  27.517  28.570  1.00  0.00    -0.206 F 
ATOM     91  C   UNL A   1      50.504  26.150  31.442  1.00  0.00     0.060 A 
BRANCH  91  92
ATOM     92  S   UNL A   1      52.159  25.619  31.932  1.00  0.00     0.124 S 
ATOM     93  O   UNL A   1      52.385  26.431  33.124  1.00  0.00    -0.237 OA
ATOM     94  O   UNL A   1      51.974  24.190  32.165  1.00  0.00    -0.237 OA
ATOM     95  O   UNL A   1      52.980  25.959  30.775  1.00  0.00    -0.744 OA
ENDBRANCH  91  92
ENDBRANCH  59  84
ENDBRANCH  33  34
ENDBRANCH  25  28
ENDBRANCH   1  24
TORSDOF 14
ENDMDL
