MODEL 1
REMARK VINA RESULT:     -12.2      0.000      0.000
REMARK SMILES Cc1ccc(C(=O)N[C@@H](C(=O)NCCCNC(=O)c2ccc(-c3c4nc(c(-c5c(F)cc(S(=O)(=O)[O-])cc5F)c5ccc([nH]5)c(-c5c(F)cc(S(=O)(=O)[O-])cc5F)c5nc(c(-c6c(F)cc(S(=O)(=O)[O-])cc6F)c6ccc3[nH]6)C=C5)C=C4)cc2)[C@@H](C)O)c(F)c1
REMARK SMILES IDX 14 1 13 2 12 3 10 4 11 5 9 7 8 8 6 9 7 10 5 12 1 13 2 14
REMARK SMILES IDX 3 15 90 16 4 17 88 18 89 19 85 20 86 21 87 22 15 24 16 25
REMARK SMILES IDX 17 26 18 28 19 29 20 30 84 31 21 32 83 33 22 34 23 35 24 36
REMARK SMILES IDX 77 37 25 38 82 39 76 40 78 41 26 42 81 43 75 44 74 45 27 47
REMARK SMILES IDX 61 48 40 49 60 50 41 51 44 52 59 53 79 54 42 55 43 56 58 58
REMARK SMILES IDX 80 59 45 60 28 61 29 62 38 63 30 64 31 65 37 66 39 67 32 68
REMARK SMILES IDX 33 69 34 70 35 71 36 72 62 73 63 74 72 75 64 76 65 77 71 78
REMARK SMILES IDX 73 79 66 80 67 81 68 82 69 83 70 84 46 85 47 86 56 87 48 88
REMARK SMILES IDX 49 89 55 90 57 91 50 92 51 93 52 94 53 95 54 96
REMARK H PARENT 12 6 8 11 87 23 16 27 78 46 44 57
REMARK Flexibility Score: inf
ROOT
ATOM      1  C   UNL A   1      34.647  32.880  28.030  1.00  0.00     0.042 C 
ENDROOT
BRANCH   1   2
ATOM      2  C   UNL A   1      35.046  34.342  28.183  1.00  0.00     0.117 C 
BRANCH   2   3
ATOM      3  N   UNL A   1      33.886  35.210  28.107  1.00  0.00    -0.354 N 
ATOM      4  C   UNL A   1      33.203  35.822  29.124  1.00  0.00     0.245 C 
ATOM      5  O   UNL A   1      32.158  36.405  28.840  1.00  0.00    -0.273 OA
ATOM      6  H   UNL A   1      33.544  35.383  27.201  1.00  0.00     0.163 HD
BRANCH   4   7
ATOM      7  C   UNL A   1      33.815  35.799  30.544  1.00  0.00     0.200 C 
BRANCH   7   8
ATOM      8  N   UNL A   1      33.710  34.458  31.131  1.00  0.00    -0.338 N 
ATOM      9  C   UNL A   1      34.513  33.695  31.946  1.00  0.00     0.254 C 
ATOM     10  O   UNL A   1      34.008  32.664  32.385  1.00  0.00    -0.269 OA
ATOM     11  H   UNL A   1      32.875  33.999  30.886  1.00  0.00     0.164 HD
BRANCH   9  12
ATOM     12  C   UNL A   1      35.934  34.019  32.267  1.00  0.00     0.075 A 
ATOM     13  C   UNL A   1      40.039  34.611  33.532  1.00  0.00     0.044 C 
ATOM     14  C   UNL A   1      38.619  34.433  33.086  1.00  0.00    -0.048 A 
ATOM     15  C   UNL A   1      38.313  34.163  31.751  1.00  0.00     0.004 A 
ATOM     16  C   UNL A   1      37.568  34.574  33.995  1.00  0.00     0.043 A 
ATOM     17  C   UNL A   1      36.984  33.993  31.344  1.00  0.00     0.017 A 
ATOM     18  C   UNL A   1      36.249  34.356  33.591  1.00  0.00     0.136 A 
ATOM     19  F   UNL A   1      35.300  34.458  34.532  1.00  0.00    -0.206 F 
ENDBRANCH   9  12
ENDBRANCH   7   8
BRANCH   7  20
ATOM     20  C   UNL A   1      33.140  36.865  31.451  1.00  0.00     0.143 C 
ATOM     21  C   UNL A   1      33.834  37.067  32.799  1.00  0.00     0.041 C 
BRANCH  20  22
ATOM     22  O   UNL A   1      33.127  38.140  30.792  1.00  0.00    -0.391 OA
ATOM     23  H   UNL A   1      33.551  38.059  29.922  1.00  0.00     0.211 HD
ENDBRANCH  20  22
ENDBRANCH   7  20
ENDBRANCH   4   7
ENDBRANCH   2   3
ENDBRANCH   1   2
BRANCH   1  24
ATOM     24  C   UNL A   1      35.762  31.926  28.438  1.00  0.00     0.118 C 
BRANCH  24  25
ATOM     25  N   UNL A   1      35.548  31.369  29.768  1.00  0.00    -0.352 N 
ATOM     26  C   UNL A   1      36.346  30.529  30.505  1.00  0.00     0.251 C 
ATOM     27  H   UNL A   1      34.707  31.636  30.204  1.00  0.00     0.163 HD
ATOM     28  O   UNL A   1      35.903  30.010  31.522  1.00  0.00    -0.269 OA
BRANCH  26  29
ATOM     29  C   UNL A   1      37.725  30.246  30.055  1.00  0.00     0.039 A 
ATOM     30  C   UNL A   1      38.760  30.277  30.991  1.00  0.00     0.014 A 
ATOM     31  C   UNL A   1      37.993  29.953  28.716  1.00  0.00     0.014 A 
ATOM     32  C   UNL A   1      40.058  29.954  30.592  1.00  0.00     0.010 A 
ATOM     33  C   UNL A   1      39.267  29.546  28.339  1.00  0.00     0.010 A 
ATOM     34  C   UNL A   1      40.315  29.550  29.272  1.00  0.00    -0.014 A 
BRANCH  34  35
ATOM     35  C   UNL A   1      41.672  29.127  28.844  1.00  0.00     0.031 A 
ATOM     36  C   UNL A   1      42.801  30.121  28.820  1.00  0.00     0.074 A 
ATOM     37  C   UNL A   1      41.868  27.866  28.416  1.00  0.00     0.049 A 
ATOM     38  N   UNL A   1      44.041  29.953  28.439  1.00  0.00    -0.248 NA
ATOM     39  C   UNL A   1      42.487  31.491  29.253  1.00  0.00     0.031 C 
ATOM     40  C   UNL A   1      40.840  26.825  28.352  1.00  0.00     0.029 A 
ATOM     41  N   UNL A   1      42.999  27.244  27.949  1.00  0.00    -0.354 N 
ATOM     42  C   UNL A   1      44.649  31.197  28.569  1.00  0.00     0.074 A 
ATOM     43  C   UNL A   1      43.625  32.121  29.005  1.00  0.00     0.031 C 
ATOM     44  C   UNL A   1      41.396  25.684  27.916  1.00  0.00     0.029 A 
ATOM     45  C   UNL A   1      42.807  25.922  27.624  1.00  0.00     0.049 A 
ATOM     46  H   UNL A   1      43.866  27.701  27.857  1.00  0.00     0.167 HD
ATOM     47  C   UNL A   1      45.946  31.533  28.365  1.00  0.00     0.037 A 
ATOM     48  C   UNL A   1      43.670  25.006  27.146  1.00  0.00     0.037 A 
ATOM     49  C   UNL A   1      46.957  30.600  27.940  1.00  0.00     0.049 A 
ATOM     50  C   UNL A   1      45.099  25.406  26.902  1.00  0.00     0.074 A 
ATOM     51  C   UNL A   1      48.312  30.818  27.765  1.00  0.00     0.029 A 
ATOM     52  N   UNL A   1      46.722  29.272  27.607  1.00  0.00    -0.354 N 
ATOM     53  N   UNL A   1      45.677  26.566  27.102  1.00  0.00    -0.248 NA
ATOM     54  C   UNL A   1      45.993  24.369  26.370  1.00  0.00     0.031 C 
ATOM     55  C   UNL A   1      48.884  29.642  27.268  1.00  0.00     0.029 A 
ATOM     56  C   UNL A   1      47.900  28.669  27.195  1.00  0.00     0.049 A 
ATOM     57  H   UNL A   1      45.846  28.824  27.658  1.00  0.00     0.167 HD
ATOM     58  C   UNL A   1      47.012  26.392  26.750  1.00  0.00     0.074 A 
ATOM     59  C   UNL A   1      47.153  25.012  26.332  1.00  0.00     0.031 C 
ATOM     60  C   UNL A   1      48.026  27.292  26.778  1.00  0.00     0.037 A 
BRANCH  47  61
ATOM     61  C   UNL A   1      46.328  32.974  28.581  1.00  0.00     0.058 A 
ATOM     62  C   UNL A   1      46.262  33.924  27.548  1.00  0.00     0.135 A 
ATOM     63  C   UNL A   1      46.781  33.410  29.837  1.00  0.00     0.135 A 
ATOM     64  F   UNL A   1      45.845  33.564  26.323  1.00  0.00    -0.206 F 
ATOM     65  C   UNL A   1      46.687  35.236  27.735  1.00  0.00     0.059 A 
ATOM     66  C   UNL A   1      47.177  34.727  30.057  1.00  0.00     0.059 A 
ATOM     67  F   UNL A   1      46.859  32.551  30.865  1.00  0.00    -0.206 F 
ATOM     68  C   UNL A   1      47.153  35.625  28.990  1.00  0.00     0.060 A 
BRANCH  68  69
ATOM     69  S   UNL A   1      47.746  37.317  29.204  1.00  0.00     0.124 S 
ATOM     70  O   UNL A   1      48.916  37.326  28.333  1.00  0.00    -0.237 OA
ATOM     71  O   UNL A   1      46.608  38.107  28.745  1.00  0.00    -0.237 OA
ATOM     72  O   UNL A   1      48.029  37.400  30.634  1.00  0.00    -0.744 OA
ENDBRANCH  68  69
ENDBRANCH  47  61
BRANCH  48  73
ATOM     73  C   UNL A   1      43.211  23.608  26.923  1.00  0.00     0.058 A 
ATOM     74  C   UNL A   1      42.969  23.137  25.625  1.00  0.00     0.135 A 
ATOM     75  C   UNL A   1      43.049  22.708  27.987  1.00  0.00     0.135 A 
ATOM     76  F   UNL A   1      43.103  23.963  24.576  1.00  0.00    -0.206 F 
ATOM     77  C   UNL A   1      42.583  21.823  25.386  1.00  0.00     0.059 A 
ATOM     78  C   UNL A   1      42.688  21.381  27.771  1.00  0.00     0.059 A 
ATOM     79  F   UNL A   1      43.282  23.106  29.247  1.00  0.00    -0.206 F 
ATOM     80  C   UNL A   1      42.454  20.949  26.467  1.00  0.00     0.060 A 
BRANCH  80  81
ATOM     81  S   UNL A   1      42.025  19.227  26.133  1.00  0.00     0.124 S 
ATOM     82  O   UNL A   1      40.587  19.319  25.908  1.00  0.00    -0.237 OA
ATOM     83  O   UNL A   1      42.838  18.934  24.957  1.00  0.00    -0.237 OA
ATOM     84  O   UNL A   1      42.429  18.536  27.354  1.00  0.00    -0.744 OA
ENDBRANCH  80  81
ENDBRANCH  48  73
BRANCH  60  85
ATOM     85  C   UNL A   1      49.394  26.807  26.376  1.00  0.00     0.058 A 
ATOM     86  C   UNL A   1      50.231  26.122  27.269  1.00  0.00     0.135 A 
ATOM     87  C   UNL A   1      49.851  26.989  25.060  1.00  0.00     0.135 A 
ATOM     88  F   UNL A   1      49.847  25.927  28.542  1.00  0.00    -0.206 F 
ATOM     89  C   UNL A   1      51.483  25.655  26.882  1.00  0.00     0.059 A 
ATOM     90  C   UNL A   1      51.085  26.503  24.641  1.00  0.00     0.059 A 
ATOM     91  F   UNL A   1      49.088  27.629  24.160  1.00  0.00    -0.206 F 
ATOM     92  C   UNL A   1      51.900  25.848  25.563  1.00  0.00     0.060 A 
BRANCH  92  93
ATOM     93  S   UNL A   1      53.511  25.206  25.062  1.00  0.00     0.124 S 
ATOM     94  O   UNL A   1      53.564  25.603  23.659  1.00  0.00    -0.237 OA
ATOM     95  O   UNL A   1      54.421  25.915  25.956  1.00  0.00    -0.237 OA
ATOM     96  O   UNL A   1      53.396  23.770  25.305  1.00  0.00    -0.744 OA
ENDBRANCH  92  93
ENDBRANCH  60  85
ENDBRANCH  34  35
ENDBRANCH  26  29
ENDBRANCH  24  25
ENDBRANCH   1  24
TORSDOF 17
ENDMDL
MODEL 2
REMARK VINA RESULT:     -11.4      4.924      6.740
REMARK SMILES Cc1ccc(C(=O)N[C@@H](C(=O)NCCCNC(=O)c2ccc(-c3c4nc(c(-c5c(F)cc(S(=O)(=O)[O-])cc5F)c5ccc([nH]5)c(-c5c(F)cc(S(=O)(=O)[O-])cc5F)c5nc(c(-c6c(F)cc(S(=O)(=O)[O-])cc6F)c6ccc3[nH]6)C=C5)C=C4)cc2)[C@@H](C)O)c(F)c1
REMARK SMILES IDX 14 1 13 2 12 3 10 4 11 5 9 7 8 8 6 9 7 10 5 12 1 13 2 14
REMARK SMILES IDX 3 15 90 16 4 17 88 18 89 19 85 20 86 21 87 22 15 24 16 25
REMARK SMILES IDX 17 26 18 28 19 29 20 30 84 31 21 32 83 33 22 34 23 35 24 36
REMARK SMILES IDX 77 37 25 38 82 39 76 40 78 41 26 42 81 43 75 44 74 45 27 47
REMARK SMILES IDX 61 48 40 49 60 50 41 51 44 52 59 53 79 54 42 55 43 56 58 58
REMARK SMILES IDX 80 59 45 60 28 61 29 62 38 63 30 64 31 65 37 66 39 67 32 68
REMARK SMILES IDX 33 69 34 70 35 71 36 72 62 73 63 74 72 75 64 76 65 77 71 78
REMARK SMILES IDX 73 79 66 80 67 81 68 82 69 83 70 84 46 85 47 86 56 87 48 88
REMARK SMILES IDX 49 89 55 90 57 91 50 92 51 93 52 94 53 95 54 96
REMARK H PARENT 12 6 8 11 87 23 16 27 78 46 44 57
REMARK Flexibility Score: inf
ROOT
ATOM      1  C   UNL A   1      32.516  27.998  26.339  1.00  0.00     0.042 C 
ENDROOT
BRANCH   1   2
ATOM      2  C   UNL A   1      31.911  29.138  25.531  1.00  0.00     0.117 C 
BRANCH   2   3
ATOM      3  N   UNL A   1      32.760  29.492  24.410  1.00  0.00    -0.354 N 
ATOM      4  C   UNL A   1      32.846  28.903  23.177  1.00  0.00     0.245 C 
ATOM      5  O   UNL A   1      33.741  29.283  22.424  1.00  0.00    -0.273 OA
ATOM      6  H   UNL A   1      33.357  30.262  24.556  1.00  0.00     0.163 HD
BRANCH   4   7
ATOM      7  C   UNL A   1      31.782  27.853  22.784  1.00  0.00     0.200 C 
BRANCH   7   8
ATOM      8  N   UNL A   1      32.373  26.810  21.936  1.00  0.00    -0.338 N 
ATOM      9  C   UNL A   1      32.844  25.538  22.157  1.00  0.00     0.254 C 
ATOM     10  O   UNL A   1      33.112  24.881  21.153  1.00  0.00    -0.269 OA
ATOM     11  H   UNL A   1      32.450  27.085  20.994  1.00  0.00     0.164 HD
BRANCH   9  12
ATOM     12  C   UNL A   1      33.090  24.955  23.509  1.00  0.00     0.075 A 
ATOM     13  C   UNL A   1      33.738  22.831  27.233  1.00  0.00     0.044 C 
ATOM     14  C   UNL A   1      33.506  23.588  25.960  1.00  0.00    -0.048 A 
ATOM     15  C   UNL A   1      34.465  24.471  25.464  1.00  0.00     0.004 A 
ATOM     16  C   UNL A   1      32.302  23.452  25.265  1.00  0.00     0.043 A 
ATOM     17  C   UNL A   1      34.243  25.170  24.270  1.00  0.00     0.017 A 
ATOM     18  C   UNL A   1      32.106  24.116  24.052  1.00  0.00     0.136 A 
ATOM     19  F   UNL A   1      30.947  23.895  23.417  1.00  0.00    -0.206 F 
ENDBRANCH   9  12
ENDBRANCH   7   8
BRANCH   7  20
ATOM     20  C   UNL A   1      30.573  28.530  22.083  1.00  0.00     0.143 C 
ATOM     21  C   UNL A   1      29.303  28.577  22.935  1.00  0.00     0.041 C 
BRANCH  20  22
ATOM     22  O   UNL A   1      30.895  29.885  21.738  1.00  0.00    -0.391 OA
ATOM     23  H   UNL A   1      30.509  30.486  22.395  1.00  0.00     0.211 HD
ENDBRANCH  20  22
ENDBRANCH   7  20
ENDBRANCH   4   7
ENDBRANCH   2   3
ENDBRANCH   1   2
BRANCH   1  24
ATOM     24  C   UNL A   1      33.689  28.451  27.199  1.00  0.00     0.118 C 
BRANCH  24  25
ATOM     25  N   UNL A   1      33.598  29.863  27.550  1.00  0.00    -0.352 N 
ATOM     26  C   UNL A   1      34.505  30.664  28.201  1.00  0.00     0.251 C 
ATOM     27  H   UNL A   1      32.763  30.309  27.280  1.00  0.00     0.163 HD
ATOM     28  O   UNL A   1      34.166  31.777  28.582  1.00  0.00    -0.269 OA
BRANCH  26  29
ATOM     29  C   UNL A   1      35.874  30.168  28.449  1.00  0.00     0.039 A 
ATOM     30  C   UNL A   1      36.817  30.247  27.422  1.00  0.00     0.014 A 
ATOM     31  C   UNL A   1      36.225  29.627  29.688  1.00  0.00     0.014 A 
ATOM     32  C   UNL A   1      38.130  29.839  27.661  1.00  0.00     0.010 A 
ATOM     33  C   UNL A   1      37.550  29.304  29.952  1.00  0.00     0.010 A 
ATOM     34  C   UNL A   1      38.515  29.398  28.938  1.00  0.00    -0.014 A 
BRANCH  34  35
ATOM     35  C   UNL A   1      39.923  29.033  29.236  1.00  0.00     0.031 A 
ATOM     36  C   UNL A   1      40.831  30.017  29.920  1.00  0.00     0.074 A 
ATOM     37  C   UNL A   1      40.397  27.840  28.830  1.00  0.00     0.049 A 
ATOM     38  N   UNL A   1      42.097  29.899  30.226  1.00  0.00    -0.248 NA
ATOM     39  C   UNL A   1      40.246  31.318  30.281  1.00  0.00     0.031 C 
ATOM     40  C   UNL A   1      39.625  26.819  28.119  1.00  0.00     0.029 A 
ATOM     41  N   UNL A   1      41.646  27.284  28.954  1.00  0.00    -0.354 N 
ATOM     42  C   UNL A   1      42.464  31.112  30.797  1.00  0.00     0.074 A 
ATOM     43  C   UNL A   1      41.302  31.972  30.739  1.00  0.00     0.031 C 
ATOM     44  C   UNL A   1      40.402  25.746  27.908  1.00  0.00     0.029 A 
ATOM     45  C   UNL A   1      41.740  26.018  28.426  1.00  0.00     0.049 A 
ATOM     46  H   UNL A   1      42.402  27.746  29.382  1.00  0.00     0.167 HD
ATOM     47  C   UNL A   1      43.653  31.469  31.341  1.00  0.00     0.037 A 
ATOM     48  C   UNL A   1      42.786  25.171  28.366  1.00  0.00     0.037 A 
ATOM     49  C   UNL A   1      44.798  30.599  31.402  1.00  0.00     0.049 A 
ATOM     50  C   UNL A   1      44.103  25.596  28.952  1.00  0.00     0.074 A 
ATOM     51  C   UNL A   1      46.030  30.836  31.986  1.00  0.00     0.029 A 
ATOM     52  N   UNL A   1      44.860  29.329  30.843  1.00  0.00    -0.354 N 
ATOM     53  N   UNL A   1      44.415  26.718  29.557  1.00  0.00    -0.248 NA
ATOM     54  C   UNL A   1      45.212  24.639  28.849  1.00  0.00     0.031 C 
ATOM     55  C   UNL A   1      46.855  29.736  31.728  1.00  0.00     0.029 A 
ATOM     56  C   UNL A   1      46.119  28.784  31.040  1.00  0.00     0.049 A 
ATOM     57  H   UNL A   1      44.118  28.881  30.377  1.00  0.00     0.167 HD
ATOM     58  C   UNL A   1      45.747  26.589  29.937  1.00  0.00     0.074 A 
ATOM     59  C   UNL A   1      46.178  25.277  29.497  1.00  0.00     0.031 C 
ATOM     60  C   UNL A   1      46.537  27.474  30.594  1.00  0.00     0.037 A 
BRANCH  47  61
ATOM     61  C   UNL A   1      43.769  32.868  31.890  1.00  0.00     0.058 A 
ATOM     62  C   UNL A   1      44.227  33.940  31.105  1.00  0.00     0.135 A 
ATOM     63  C   UNL A   1      43.431  33.139  33.226  1.00  0.00     0.135 A 
ATOM     64  F   UNL A   1      44.573  33.740  29.823  1.00  0.00    -0.206 F 
ATOM     65  C   UNL A   1      44.403  35.212  31.639  1.00  0.00     0.059 A 
ATOM     66  C   UNL A   1      43.564  34.412  33.772  1.00  0.00     0.059 A 
ATOM     67  F   UNL A   1      42.982  32.157  34.023  1.00  0.00    -0.206 F 
ATOM     68  C   UNL A   1      44.078  35.436  32.977  1.00  0.00     0.060 A 
BRANCH  68  69
ATOM     69  S   UNL A   1      44.357  37.080  33.669  1.00  0.00     0.124 S 
ATOM     70  O   UNL A   1      44.978  36.755  34.949  1.00  0.00    -0.237 OA
ATOM     71  O   UNL A   1      45.235  37.692  32.677  1.00  0.00    -0.237 OA
ATOM     72  O   UNL A   1      43.015  37.647  33.750  1.00  0.00    -0.744 OA
ENDBRANCH  68  69
ENDBRANCH  47  61
BRANCH  48  73
ATOM     73  C   UNL A   1      42.604  23.818  27.776  1.00  0.00     0.058 A 
ATOM     74  C   UNL A   1      42.695  23.627  26.390  1.00  0.00     0.135 A 
ATOM     75  C   UNL A   1      42.383  22.689  28.579  1.00  0.00     0.135 A 
ATOM     76  F   UNL A   1      42.898  24.678  25.580  1.00  0.00    -0.206 F 
ATOM     77  C   UNL A   1      42.575  22.366  25.818  1.00  0.00     0.059 A 
ATOM     78  C   UNL A   1      42.284  21.412  28.032  1.00  0.00     0.059 A 
ATOM     79  F   UNL A   1      42.302  22.816  29.912  1.00  0.00    -0.206 F 
ATOM     80  C   UNL A   1      42.378  21.262  26.649  1.00  0.00     0.060 A 
BRANCH  80  81
ATOM     81  S   UNL A   1      42.299  19.623  25.896  1.00  0.00     0.124 S 
ATOM     82  O   UNL A   1      43.274  19.745  24.819  1.00  0.00    -0.237 OA
ATOM     83  O   UNL A   1      42.681  18.758  27.009  1.00  0.00    -0.237 OA
ATOM     84  O   UNL A   1      40.906  19.512  25.475  1.00  0.00    -0.744 OA
ENDBRANCH  80  81
ENDBRANCH  48  73
BRANCH  60  85
ATOM     85  C   UNL A   1      47.944  27.044  30.912  1.00  0.00     0.058 A 
ATOM     86  C   UNL A   1      48.252  26.303  32.063  1.00  0.00     0.135 A 
ATOM     87  C   UNL A   1      48.992  27.339  30.024  1.00  0.00     0.135 A 
ATOM     88  F   UNL A   1      47.290  26.001  32.950  1.00  0.00    -0.206 F 
ATOM     89  C   UNL A   1      49.552  25.888  32.335  1.00  0.00     0.059 A 
ATOM     90  C   UNL A   1      50.293  26.907  30.259  1.00  0.00     0.059 A 
ATOM     91  F   UNL A   1      48.754  28.037  28.902  1.00  0.00    -0.206 F 
ATOM     92  C   UNL A   1      50.566  26.192  31.425  1.00  0.00     0.060 A 
BRANCH  92  93
ATOM     93  S   UNL A   1      52.241  25.617  31.771  1.00  0.00     0.124 S 
ATOM     94  O   UNL A   1      52.017  24.201  32.042  1.00  0.00    -0.237 OA
ATOM     95  O   UNL A   1      52.939  25.921  30.526  1.00  0.00    -0.237 OA
ATOM     96  O   UNL A   1      52.646  26.420  32.922  1.00  0.00    -0.744 OA
ENDBRANCH  92  93
ENDBRANCH  60  85
ENDBRANCH  34  35
ENDBRANCH  26  29
ENDBRANCH  24  25
ENDBRANCH   1  24
TORSDOF 17
ENDMDL
MODEL 3
REMARK VINA RESULT:     -11.3      6.716     13.348
REMARK SMILES Cc1ccc(C(=O)N[C@@H](C(=O)NCCCNC(=O)c2ccc(-c3c4nc(c(-c5c(F)cc(S(=O)(=O)[O-])cc5F)c5ccc([nH]5)c(-c5c(F)cc(S(=O)(=O)[O-])cc5F)c5nc(c(-c6c(F)cc(S(=O)(=O)[O-])cc6F)c6ccc3[nH]6)C=C5)C=C4)cc2)[C@@H](C)O)c(F)c1
REMARK SMILES IDX 14 1 13 2 12 3 10 4 11 5 9 7 8 8 6 9 7 10 5 12 1 13 2 14
REMARK SMILES IDX 3 15 90 16 4 17 88 18 89 19 85 20 86 21 87 22 15 24 16 25
REMARK SMILES IDX 17 26 18 28 19 29 20 30 84 31 21 32 83 33 22 34 23 35 24 36
REMARK SMILES IDX 77 37 25 38 82 39 76 40 78 41 26 42 81 43 75 44 74 45 27 47
REMARK SMILES IDX 61 48 40 49 60 50 41 51 44 52 59 53 79 54 42 55 43 56 58 58
REMARK SMILES IDX 80 59 45 60 28 61 29 62 38 63 30 64 31 65 37 66 39 67 32 68
REMARK SMILES IDX 33 69 34 70 35 71 36 72 62 73 63 74 72 75 64 76 65 77 71 78
REMARK SMILES IDX 73 79 66 80 67 81 68 82 69 83 70 84 46 85 47 86 56 87 48 88
REMARK SMILES IDX 49 89 55 90 57 91 50 92 51 93 52 94 53 95 54 96
REMARK H PARENT 12 6 8 11 87 23 16 27 78 46 44 57
REMARK Flexibility Score: inf
ROOT
ATOM      1  C   UNL A   1      37.977  23.074  25.998  1.00  0.00     0.042 C 
ENDROOT
BRANCH   1   2
ATOM      2  C   UNL A   1      36.493  23.392  26.125  1.00  0.00     0.117 C 
BRANCH   2   3
ATOM      3  N   UNL A   1      35.732  22.207  26.470  1.00  0.00    -0.354 N 
ATOM      4  C   UNL A   1      34.374  22.037  26.504  1.00  0.00     0.245 C 
ATOM      5  O   UNL A   1      33.942  20.980  26.963  1.00  0.00    -0.273 OA
ATOM      6  H   UNL A   1      36.266  21.416  26.712  1.00  0.00     0.163 HD
BRANCH   4   7
ATOM      7  C   UNL A   1      33.475  23.144  25.909  1.00  0.00     0.200 C 
BRANCH   7   8
ATOM      8  N   UNL A   1      32.200  23.221  26.633  1.00  0.00    -0.338 N 
ATOM      9  C   UNL A   1      31.128  24.082  26.613  1.00  0.00     0.254 C 
ATOM     10  O   UNL A   1      30.139  23.723  27.248  1.00  0.00    -0.269 OA
ATOM     11  H   UNL A   1      32.086  22.488  27.280  1.00  0.00     0.164 HD
BRANCH   9  12
ATOM     12  C   UNL A   1      31.128  25.407  25.928  1.00  0.00     0.075 A 
ATOM     13  C   UNL A   1      30.652  29.199  23.879  1.00  0.00     0.044 C 
ATOM     14  C   UNL A   1      30.843  27.887  24.579  1.00  0.00    -0.048 A 
ATOM     15  C   UNL A   1      31.417  27.828  25.850  1.00  0.00     0.004 A 
ATOM     16  C   UNL A   1      30.486  26.692  23.953  1.00  0.00     0.043 A 
ATOM     17  C   UNL A   1      31.587  26.598  26.500  1.00  0.00     0.017 A 
ATOM     18  C   UNL A   1      30.615  25.474  24.625  1.00  0.00     0.136 A 
ATOM     19  F   UNL A   1      30.202  24.375  23.978  1.00  0.00    -0.206 F 
ENDBRANCH   9  12
ENDBRANCH   7   8
BRANCH   7  20
ATOM     20  C   UNL A   1      33.246  22.911  24.390  1.00  0.00     0.143 C 
ATOM     21  C   UNL A   1      33.810  24.019  23.496  1.00  0.00     0.041 C 
BRANCH  20  22
ATOM     22  O   UNL A   1      33.868  21.685  23.978  1.00  0.00    -0.391 OA
ATOM     23  H   UNL A   1      34.241  21.794  23.088  1.00  0.00     0.211 HD
ENDBRANCH  20  22
ENDBRANCH   7  20
ENDBRANCH   4   7
ENDBRANCH   2   3
ENDBRANCH   1   2
BRANCH   1  24
ATOM     24  C   UNL A   1      38.859  24.146  26.626  1.00  0.00     0.118 C 
BRANCH  24  25
ATOM     25  N   UNL A   1      40.227  24.092  26.126  1.00  0.00    -0.352 N 
ATOM     26  C   UNL A   1      41.312  24.866  26.458  1.00  0.00     0.251 C 
ATOM     27  H   UNL A   1      40.399  23.397  25.451  1.00  0.00     0.163 HD
ATOM     28  O   UNL A   1      42.331  24.801  25.783  1.00  0.00    -0.269 OA
BRANCH  26  29
ATOM     29  C   UNL A   1      41.232  25.782  27.615  1.00  0.00     0.039 A 
ATOM     30  C   UNL A   1      42.126  26.852  27.692  1.00  0.00     0.014 A 
ATOM     31  C   UNL A   1      40.282  25.583  28.619  1.00  0.00     0.014 A 
ATOM     32  C   UNL A   1      42.024  27.758  28.748  1.00  0.00     0.010 A 
ATOM     33  C   UNL A   1      40.124  26.535  29.620  1.00  0.00     0.010 A 
ATOM     34  C   UNL A   1      40.999  27.627  29.700  1.00  0.00    -0.014 A 
BRANCH  34  35
ATOM     35  C   UNL A   1      40.823  28.623  30.786  1.00  0.00     0.031 A 
ATOM     36  C   UNL A   1      41.688  28.561  32.015  1.00  0.00     0.074 A 
ATOM     37  C   UNL A   1      39.841  29.539  30.693  1.00  0.00     0.049 A 
ATOM     38  N   UNL A   1      41.658  29.313  33.086  1.00  0.00    -0.248 NA
ATOM     39  C   UNL A   1      42.701  27.496  32.060  1.00  0.00     0.031 C 
ATOM     40  C   UNL A   1      38.910  29.670  29.570  1.00  0.00     0.029 A 
ATOM     41  N   UNL A   1      39.458  30.533  31.558  1.00  0.00    -0.354 N 
ATOM     42  C   UNL A   1      42.631  28.801  33.936  1.00  0.00     0.074 A 
ATOM     43  C   UNL A   1      43.191  27.638  33.282  1.00  0.00     0.031 C 
ATOM     44  C   UNL A   1      38.094  30.711  29.794  1.00  0.00     0.029 A 
ATOM     45  C   UNL A   1      38.409  31.292  31.095  1.00  0.00     0.049 A 
ATOM     46  H   UNL A   1      39.893  30.689  32.426  1.00  0.00     0.167 HD
ATOM     47  C   UNL A   1      43.037  29.269  35.141  1.00  0.00     0.037 A 
ATOM     48  C   UNL A   1      37.775  32.340  31.656  1.00  0.00     0.037 A 
ATOM     49  C   UNL A   1      42.477  30.434  35.777  1.00  0.00     0.049 A 
ATOM     50  C   UNL A   1      38.223  32.828  33.005  1.00  0.00     0.074 A 
ATOM     51  C   UNL A   1      42.856  31.033  36.965  1.00  0.00     0.029 A 
ATOM     52  N   UNL A   1      41.407  31.169  35.284  1.00  0.00    -0.354 N 
ATOM     53  N   UNL A   1      39.196  32.381  33.764  1.00  0.00    -0.248 NA
ATOM     54  C   UNL A   1      37.489  33.965  33.574  1.00  0.00     0.031 C 
ATOM     55  C   UNL A   1      41.977  32.090  37.221  1.00  0.00     0.029 A 
ATOM     56  C   UNL A   1      41.090  32.194  36.161  1.00  0.00     0.049 A 
ATOM     57  H   UNL A   1      40.942  30.989  34.435  1.00  0.00     0.167 HD
ATOM     58  C   UNL A   1      39.212  33.203  34.886  1.00  0.00     0.074 A 
ATOM     59  C   UNL A   1      38.155  34.177  34.701  1.00  0.00     0.031 C 
ATOM     60  C   UNL A   1      40.031  33.158  35.966  1.00  0.00     0.037 A 
BRANCH  47  61
ATOM     61  C   UNL A   1      44.123  28.502  35.850  1.00  0.00     0.058 A 
ATOM     62  C   UNL A   1      43.833  27.462  36.750  1.00  0.00     0.135 A 
ATOM     63  C   UNL A   1      45.474  28.821  35.639  1.00  0.00     0.135 A 
ATOM     64  F   UNL A   1      42.560  27.118  36.999  1.00  0.00    -0.206 F 
ATOM     65  C   UNL A   1      44.838  26.809  37.457  1.00  0.00     0.059 A 
ATOM     66  C   UNL A   1      46.498  28.156  36.309  1.00  0.00     0.059 A 
ATOM     67  F   UNL A   1      45.814  29.800  34.787  1.00  0.00    -0.206 F 
ATOM     68  C   UNL A   1      46.167  27.170  37.237  1.00  0.00     0.060 A 
BRANCH  68  69
ATOM     69  S   UNL A   1      47.455  26.347  38.197  1.00  0.00     0.124 S 
ATOM     70  O   UNL A   1      46.743  26.042  39.435  1.00  0.00    -0.237 OA
ATOM     71  O   UNL A   1      47.785  25.200  37.358  1.00  0.00    -0.237 OA
ATOM     72  O   UNL A   1      48.498  27.361  38.309  1.00  0.00    -0.744 OA
ENDBRANCH  68  69
ENDBRANCH  47  61
BRANCH  48  73
ATOM     73  C   UNL A   1      36.686  33.026  30.910  1.00  0.00     0.058 A 
ATOM     74  C   UNL A   1      35.348  32.871  31.300  1.00  0.00     0.135 A 
ATOM     75  C   UNL A   1      36.958  33.878  29.829  1.00  0.00     0.135 A 
ATOM     76  F   UNL A   1      35.038  32.060  32.324  1.00  0.00    -0.206 F 
ATOM     77  C   UNL A   1      34.317  33.537  30.648  1.00  0.00     0.059 A 
ATOM     78  C   UNL A   1      35.944  34.575  29.176  1.00  0.00     0.059 A 
ATOM     79  F   UNL A   1      38.223  34.071  29.425  1.00  0.00    -0.206 F 
ATOM     80  C   UNL A   1      34.626  34.395  29.592  1.00  0.00     0.060 A 
BRANCH  80  81
ATOM     81  S   UNL A   1      33.283  35.309  28.805  1.00  0.00     0.124 S 
ATOM     82  O   UNL A   1      32.537  35.793  29.961  1.00  0.00    -0.237 OA
ATOM     83  O   UNL A   1      34.008  36.321  28.044  1.00  0.00    -0.237 OA
ATOM     84  O   UNL A   1      32.609  34.294  28.001  1.00  0.00    -0.744 OA
ENDBRANCH  80  81
ENDBRANCH  48  73
BRANCH  60  85
ATOM     85  C   UNL A   1      39.844  34.213  37.023  1.00  0.00     0.058 A 
ATOM     86  C   UNL A   1      40.409  35.492  36.905  1.00  0.00     0.135 A 
ATOM     87  C   UNL A   1      39.044  33.953  38.149  1.00  0.00     0.135 A 
ATOM     88  F   UNL A   1      41.189  35.791  35.853  1.00  0.00    -0.206 F 
ATOM     89  C   UNL A   1      40.210  36.469  37.875  1.00  0.00     0.059 A 
ATOM     90  C   UNL A   1      38.804  34.925  39.115  1.00  0.00     0.059 A 
ATOM     91  F   UNL A   1      38.470  32.750  38.309  1.00  0.00    -0.206 F 
ATOM     92  C   UNL A   1      39.401  36.177  38.976  1.00  0.00     0.060 A 
BRANCH  92  93
ATOM     93  S   UNL A   1      39.120  37.464  40.209  1.00  0.00     0.124 S 
ATOM     94  O   UNL A   1      38.169  38.329  39.520  1.00  0.00    -0.237 OA
ATOM     95  O   UNL A   1      38.585  36.705  41.335  1.00  0.00    -0.237 OA
ATOM     96  O   UNL A   1      40.449  38.032  40.418  1.00  0.00    -0.744 OA
ENDBRANCH  92  93
ENDBRANCH  60  85
ENDBRANCH  34  35
ENDBRANCH  26  29
ENDBRANCH  24  25
ENDBRANCH   1  24
TORSDOF 17
ENDMDL
