MODEL 1
REMARK VINA RESULT:     -11.9      0.000      0.000
REMARK SMILES COc1ccc([C@H](C)[N@H+]2CC[C@H](C(=O)NCCCNC(=O)c3ccc(-c4c5nc(c(-c6c(F)cc(S(=O)(=O)[O-])cc6F)c6ccc([nH]6)c(-c6c(F)cc(S(=O)(=O)[O-])cc6F)c6nc(c(-c7c(F)cc(S(=O)(=O)[O-])cc7F)c7ccc4[nH]7)C=C6)C=C5)cc3)[C@@H]2C)cc1
REMARK SMILES IDX 17 1 16 2 15 3 13 4 14 5 12 7 9 8 10 9 88 10 11 12 89 13
REMARK SMILES IDX 7 14 8 15 6 16 3 17 4 18 91 19 5 20 90 21 2 22 1 23 18 24
REMARK SMILES IDX 19 25 20 26 21 28 22 29 23 30 87 31 24 32 86 33 25 34 26 35
REMARK SMILES IDX 27 36 80 37 28 38 85 39 79 40 81 41 29 42 84 43 78 44 77 45
REMARK SMILES IDX 30 47 64 48 43 49 63 50 44 51 47 52 62 53 82 54 45 55 46 56
REMARK SMILES IDX 61 58 83 59 48 60 31 61 32 62 41 63 33 64 34 65 40 66 42 67
REMARK SMILES IDX 35 68 36 69 37 70 38 71 39 72 65 73 66 74 75 75 67 76 68 77
REMARK SMILES IDX 74 78 76 79 69 80 70 81 71 82 72 83 73 84 49 85 50 86 59 87
REMARK SMILES IDX 51 88 52 89 58 90 60 91 53 92 54 93 55 94 56 95 57 96
REMARK H PARENT 15 6 9 11 19 27 81 46 47 57
REMARK Flexibility Score: inf
ROOT
ATOM      1  C   UNL A   1      38.061  20.099  25.148  1.00  0.00     0.042 C 
ENDROOT
BRANCH   1   2
ATOM      2  C   UNL A   1      37.404  21.271  24.441  1.00  0.00     0.117 C 
BRANCH   2   3
ATOM      3  N   UNL A   1      37.672  22.565  25.043  1.00  0.00    -0.356 N 
ATOM      4  C   UNL A   1      36.890  23.519  25.593  1.00  0.00     0.229 C 
ATOM      5  O   UNL A   1      37.496  24.388  26.239  1.00  0.00    -0.275 OA
ATOM      6  H   UNL A   1      38.630  22.796  25.053  1.00  0.00     0.163 HD
BRANCH   4   7
ATOM      7  C   UNL A   1      35.393  23.701  25.383  1.00  0.00     0.142 C 
ATOM      8  N   UNL A   1      34.051  21.945  24.467  1.00  0.00    -0.326 N 
ATOM      9  C   UNL A   1      34.585  22.739  23.349  1.00  0.00     0.264 C 
ATOM     10  C   UNL A   1      34.338  22.652  25.728  1.00  0.00     0.194 C 
ATOM     11  H   UNL A   1      34.536  21.049  24.538  1.00  0.00     0.348 HD
ATOM     12  C   UNL A   1      35.090  24.036  23.933  1.00  0.00     0.081 C 
ATOM     13  C   UNL A   1      34.647  21.775  26.939  1.00  0.00     0.076 C 
BRANCH   8  14
ATOM     14  C   UNL A   1      32.663  21.466  24.245  1.00  0.00     0.212 C 
ATOM     15  C   UNL A   1      31.988  22.088  23.003  1.00  0.00     0.081 C 
BRANCH  14  16
ATOM     16  C   UNL A   1      32.648  19.926  24.233  1.00  0.00     0.009 A 
ATOM     17  C   UNL A   1      33.100  17.145  24.225  1.00  0.00     0.118 A 
ATOM     18  C   UNL A   1      33.120  17.852  25.424  1.00  0.00     0.047 A 
ATOM     19  C   UNL A   1      32.755  17.796  23.045  1.00  0.00     0.047 A 
ATOM     20  C   UNL A   1      32.900  19.233  25.429  1.00  0.00     0.013 A 
ATOM     21  C   UNL A   1      32.530  19.175  23.049  1.00  0.00     0.013 A 
BRANCH  17  22
ATOM     22  O   UNL A   1      33.394  15.812  24.287  1.00  0.00    -0.497 OA
ATOM     23  C   UNL A   1      32.633  15.111  25.272  1.00  0.00     0.278 C 
ENDBRANCH  17  22
ENDBRANCH  14  16
ENDBRANCH   8  14
ENDBRANCH   4   7
ENDBRANCH   2   3
ENDBRANCH   1   2
BRANCH   1  24
ATOM     24  C   UNL A   1      39.264  20.447  26.008  1.00  0.00     0.118 C 
BRANCH  24  25
ATOM     25  N   UNL A   1      40.270  19.395  26.064  1.00  0.00    -0.352 N 
ATOM     26  C   UNL A   1      41.638  19.473  26.204  1.00  0.00     0.251 C 
ATOM     27  H   UNL A   1      39.914  18.480  25.990  1.00  0.00     0.163 HD
ATOM     28  O   UNL A   1      42.311  18.456  26.100  1.00  0.00    -0.269 OA
BRANCH  26  29
ATOM     29  C   UNL A   1      42.300  20.780  26.435  1.00  0.00     0.039 A 
ATOM     30  C   UNL A   1      42.764  21.504  25.332  1.00  0.00     0.014 A 
ATOM     31  C   UNL A   1      42.463  21.300  27.720  1.00  0.00     0.014 A 
ATOM     32  C   UNL A   1      43.305  22.781  25.516  1.00  0.00     0.010 A 
ATOM     33  C   UNL A   1      42.898  22.611  27.890  1.00  0.00     0.010 A 
ATOM     34  C   UNL A   1      43.328  23.368  26.791  1.00  0.00    -0.014 A 
BRANCH  34  35
ATOM     35  C   UNL A   1      43.800  24.764  27.000  1.00  0.00     0.031 A 
ATOM     36  C   UNL A   1      45.254  25.108  26.809  1.00  0.00     0.074 A 
ATOM     37  C   UNL A   1      42.937  25.706  27.432  1.00  0.00     0.049 A 
ATOM     38  N   UNL A   1      45.870  26.243  27.021  1.00  0.00    -0.248 NA
ATOM     39  C   UNL A   1      46.139  24.027  26.347  1.00  0.00     0.031 C 
ATOM     40  C   UNL A   1      41.515  25.490  27.709  1.00  0.00     0.029 A 
ATOM     41  N   UNL A   1      43.129  27.035  27.725  1.00  0.00    -0.354 N 
ATOM     42  C   UNL A   1      47.211  26.006  26.739  1.00  0.00     0.074 A 
ATOM     43  C   UNL A   1      47.330  24.606  26.399  1.00  0.00     0.031 C 
ATOM     44  C   UNL A   1      40.960  26.647  28.103  1.00  0.00     0.029 A 
ATOM     45  C   UNL A   1      41.990  27.678  28.151  1.00  0.00     0.049 A 
ATOM     46  H   UNL A   1      44.001  27.483  27.638  1.00  0.00     0.167 HD
ATOM     47  C   UNL A   1      48.246  26.882  26.737  1.00  0.00     0.037 A 
ATOM     48  C   UNL A   1      41.798  28.953  28.545  1.00  0.00     0.037 A 
ATOM     49  C   UNL A   1      48.116  28.281  27.047  1.00  0.00     0.049 A 
ATOM     50  C   UNL A   1      42.962  29.907  28.533  1.00  0.00     0.074 A 
ATOM     51  C   UNL A   1      49.092  29.263  27.013  1.00  0.00     0.029 A 
ATOM     52  N   UNL A   1      46.942  28.899  27.451  1.00  0.00    -0.354 N 
ATOM     53  N   UNL A   1      44.211  29.680  28.199  1.00  0.00    -0.248 NA
ATOM     54  C   UNL A   1      42.693  31.291  28.945  1.00  0.00     0.031 C 
ATOM     55  C   UNL A   1      48.518  30.464  27.442  1.00  0.00     0.029 A 
ATOM     56  C   UNL A   1      47.173  30.244  27.691  1.00  0.00     0.049 A 
ATOM     57  H   UNL A   1      46.072  28.449  27.552  1.00  0.00     0.167 HD
ATOM     58  C   UNL A   1      44.868  30.899  28.333  1.00  0.00     0.074 A 
ATOM     59  C   UNL A   1      43.876  31.861  28.766  1.00  0.00     0.031 C 
ATOM     60  C   UNL A   1      46.174  31.194  28.114  1.00  0.00     0.037 A 
BRANCH  47  61
ATOM     61  C   UNL A   1      49.609  26.350  26.381  1.00  0.00     0.058 A 
ATOM     62  C   UNL A   1      50.155  26.513  25.097  1.00  0.00     0.135 A 
ATOM     63  C   UNL A   1      50.397  25.701  27.346  1.00  0.00     0.135 A 
ATOM     64  F   UNL A   1      49.441  27.112  24.130  1.00  0.00    -0.206 F 
ATOM     65  C   UNL A   1      51.414  26.021  24.773  1.00  0.00     0.059 A 
ATOM     66  C   UNL A   1      51.673  25.229  27.053  1.00  0.00     0.059 A 
ATOM     67  F   UNL A   1      49.927  25.518  28.591  1.00  0.00    -0.206 F 
ATOM     68  C   UNL A   1      52.167  25.380  25.758  1.00  0.00     0.060 A 
BRANCH  68  69
ATOM     69  S   UNL A   1      53.802  24.754  25.321  1.00  0.00     0.124 S 
ATOM     70  O   UNL A   1      54.146  25.608  24.187  1.00  0.00    -0.237 OA
ATOM     71  O   UNL A   1      54.563  24.990  26.543  1.00  0.00    -0.237 OA
ATOM     72  O   UNL A   1      53.556  23.353  24.999  1.00  0.00    -0.744 OA
ENDBRANCH  68  69
ENDBRANCH  47  61
BRANCH  48  73
ATOM     73  C   UNL A   1      40.443  29.407  28.961  1.00  0.00     0.058 A 
ATOM     74  C   UNL A   1      40.124  29.576  30.317  1.00  0.00     0.135 A 
ATOM     75  C   UNL A   1      39.444  29.691  28.017  1.00  0.00     0.135 A 
ATOM     76  F   UNL A   1      41.042  29.312  31.260  1.00  0.00    -0.206 F 
ATOM     77  C   UNL A   1      38.860  29.992  30.724  1.00  0.00     0.059 A 
ATOM     78  C   UNL A   1      38.182  30.136  28.397  1.00  0.00     0.059 A 
ATOM     79  F   UNL A   1      39.701  29.559  26.706  1.00  0.00    -0.206 F 
ATOM     80  C   UNL A   1      37.895  30.271  29.754  1.00  0.00     0.060 A 
BRANCH  80  81
ATOM     81  S   UNL A   1      36.270  30.847  30.295  1.00  0.00     0.124 S 
ATOM     82  O   UNL A   1      35.970  29.908  31.370  1.00  0.00    -0.237 OA
ATOM     83  O   UNL A   1      36.553  32.219  30.706  1.00  0.00    -0.237 OA
ATOM     84  O   UNL A   1      35.451  30.716  29.094  1.00  0.00    -0.744 OA
ENDBRANCH  80  81
ENDBRANCH  48  73
BRANCH  60  85
ATOM     85  C   UNL A   1      46.605  32.623  28.304  1.00  0.00     0.058 A 
ATOM     86  C   UNL A   1      47.152  33.078  29.513  1.00  0.00     0.135 A 
ATOM     87  C   UNL A   1      46.519  33.535  27.239  1.00  0.00     0.135 A 
ATOM     88  F   UNL A   1      47.251  32.249  30.564  1.00  0.00    -0.206 F 
ATOM     89  C   UNL A   1      47.577  34.394  29.668  1.00  0.00     0.059 A 
ATOM     90  C   UNL A   1      46.966  34.847  27.362  1.00  0.00     0.059 A 
ATOM     91  F   UNL A   1      46.013  33.150  26.056  1.00  0.00    -0.206 F 
ATOM     92  C   UNL A   1      47.483  35.270  28.586  1.00  0.00     0.060 A 
BRANCH  92  93
ATOM     93  S   UNL A   1      48.072  36.964  28.791  1.00  0.00     0.124 S 
ATOM     94  O   UNL A   1      47.018  37.545  29.614  1.00  0.00    -0.237 OA
ATOM     95  O   UNL A   1      49.359  36.769  29.453  1.00  0.00    -0.237 OA
ATOM     96  O   UNL A   1      48.149  37.466  27.422  1.00  0.00    -0.744 OA
ENDBRANCH  92  93
ENDBRANCH  60  85
ENDBRANCH  34  35
ENDBRANCH  26  29
ENDBRANCH  24  25
ENDBRANCH   1  24
TORSDOF 16
ENDMDL
MODEL 2
REMARK VINA RESULT:     -11.9      0.464      8.274
REMARK SMILES COc1ccc([C@H](C)[N@H+]2CC[C@H](C(=O)NCCCNC(=O)c3ccc(-c4c5nc(c(-c6c(F)cc(S(=O)(=O)[O-])cc6F)c6ccc([nH]6)c(-c6c(F)cc(S(=O)(=O)[O-])cc6F)c6nc(c(-c7c(F)cc(S(=O)(=O)[O-])cc7F)c7ccc4[nH]7)C=C6)C=C5)cc3)[C@@H]2C)cc1
REMARK SMILES IDX 17 1 16 2 15 3 13 4 14 5 12 7 9 8 10 9 88 10 11 12 89 13
REMARK SMILES IDX 7 14 8 15 6 16 3 17 4 18 91 19 5 20 90 21 2 22 1 23 18 24
REMARK SMILES IDX 19 25 20 26 21 28 22 29 23 30 87 31 24 32 86 33 25 34 26 35
REMARK SMILES IDX 27 36 80 37 28 38 85 39 79 40 81 41 29 42 84 43 78 44 77 45
REMARK SMILES IDX 30 47 64 48 43 49 63 50 44 51 47 52 62 53 82 54 45 55 46 56
REMARK SMILES IDX 61 58 83 59 48 60 31 61 32 62 41 63 33 64 34 65 40 66 42 67
REMARK SMILES IDX 35 68 36 69 37 70 38 71 39 72 65 73 66 74 75 75 67 76 68 77
REMARK SMILES IDX 74 78 76 79 69 80 70 81 71 82 72 83 73 84 49 85 50 86 59 87
REMARK SMILES IDX 51 88 52 89 58 90 60 91 53 92 54 93 55 94 56 95 57 96
REMARK H PARENT 15 6 9 11 19 27 81 46 47 57
REMARK Flexibility Score: inf
ROOT
ATOM      1  C   UNL A   1      38.101  20.030  25.113  1.00  0.00     0.042 C 
ENDROOT
BRANCH   1   2
ATOM      2  C   UNL A   1      37.344  21.208  24.524  1.00  0.00     0.117 C 
BRANCH   2   3
ATOM      3  N   UNL A   1      37.653  22.488  25.135  1.00  0.00    -0.356 N 
ATOM      4  C   UNL A   1      36.900  23.461  25.695  1.00  0.00     0.229 C 
ATOM      5  O   UNL A   1      37.533  24.306  26.346  1.00  0.00    -0.275 OA
ATOM      6  H   UNL A   1      38.616  22.690  25.145  1.00  0.00     0.163 HD
BRANCH   4   7
ATOM      7  C   UNL A   1      35.408  23.689  25.489  1.00  0.00     0.142 C 
ATOM      8  N   UNL A   1      34.014  21.981  24.560  1.00  0.00    -0.326 N 
ATOM      9  C   UNL A   1      34.569  22.768  23.448  1.00  0.00     0.264 C 
ATOM     10  C   UNL A   1      34.324  22.668  25.827  1.00  0.00     0.194 C 
ATOM     11  H   UNL A   1      34.472  21.071  24.623  1.00  0.00     0.348 HD
ATOM     12  C   UNL A   1      35.113  24.045  24.042  1.00  0.00     0.081 C 
ATOM     13  C   UNL A   1      34.608  21.773  27.030  1.00  0.00     0.076 C 
BRANCH   8  14
ATOM     14  C   UNL A   1      32.611  21.546  24.337  1.00  0.00     0.212 C 
ATOM     15  C   UNL A   1      31.930  22.253  23.145  1.00  0.00     0.081 C 
BRANCH  14  16
ATOM     16  C   UNL A   1      32.562  20.010  24.237  1.00  0.00     0.009 A 
ATOM     17  C   UNL A   1      32.949  17.222  24.102  1.00  0.00     0.118 A 
ATOM     18  C   UNL A   1      32.902  17.861  25.338  1.00  0.00     0.047 A 
ATOM     19  C   UNL A   1      32.702  17.946  22.940  1.00  0.00     0.047 A 
ATOM     20  C   UNL A   1      32.714  19.245  25.406  1.00  0.00     0.013 A 
ATOM     21  C   UNL A   1      32.509  19.328  23.007  1.00  0.00     0.013 A 
BRANCH  17  22
ATOM     22  O   UNL A   1      33.207  15.880  24.108  1.00  0.00    -0.497 OA
ATOM     23  C   UNL A   1      32.942  15.259  25.366  1.00  0.00     0.278 C 
ENDBRANCH  17  22
ENDBRANCH  14  16
ENDBRANCH   8  14
ENDBRANCH   4   7
ENDBRANCH   2   3
ENDBRANCH   1   2
BRANCH   1  24
ATOM     24  C   UNL A   1      39.376  20.381  25.860  1.00  0.00     0.118 C 
BRANCH  24  25
ATOM     25  N   UNL A   1      40.335  19.289  25.932  1.00  0.00    -0.352 N 
ATOM     26  C   UNL A   1      41.698  19.306  26.136  1.00  0.00     0.251 C 
ATOM     27  H   UNL A   1      39.947  18.391  25.813  1.00  0.00     0.163 HD
ATOM     28  O   UNL A   1      42.334  18.266  26.034  1.00  0.00    -0.269 OA
BRANCH  26  29
ATOM     29  C   UNL A   1      42.399  20.578  26.437  1.00  0.00     0.039 A 
ATOM     30  C   UNL A   1      42.996  21.283  25.388  1.00  0.00     0.014 A 
ATOM     31  C   UNL A   1      42.469  21.085  27.736  1.00  0.00     0.014 A 
ATOM     32  C   UNL A   1      43.580  22.530  25.629  1.00  0.00     0.010 A 
ATOM     33  C   UNL A   1      42.950  22.372  27.956  1.00  0.00     0.010 A 
ATOM     34  C   UNL A   1      43.515  23.111  26.906  1.00  0.00    -0.014 A 
BRANCH  34  35
ATOM     35  C   UNL A   1      44.034  24.481  27.168  1.00  0.00     0.031 A 
ATOM     36  C   UNL A   1      43.092  25.584  27.575  1.00  0.00     0.074 A 
ATOM     37  C   UNL A   1      45.341  24.752  26.969  1.00  0.00     0.049 A 
ATOM     38  N   UNL A   1      43.339  26.854  27.766  1.00  0.00    -0.248 NA
ATOM     39  C   UNL A   1      41.679  25.217  27.762  1.00  0.00     0.031 C 
ATOM     40  C   UNL A   1      46.348  23.787  26.521  1.00  0.00     0.029 A 
ATOM     41  N   UNL A   1      46.047  25.922  27.107  1.00  0.00    -0.354 N 
ATOM     42  C   UNL A   1      42.115  27.437  28.075  1.00  0.00     0.074 A 
ATOM     43  C   UNL A   1      41.117  26.395  27.987  1.00  0.00     0.031 C 
ATOM     44  C   UNL A   1      47.542  24.396  26.449  1.00  0.00     0.029 A 
ATOM     45  C   UNL A   1      47.383  25.803  26.800  1.00  0.00     0.049 A 
ATOM     46  H   UNL A   1      45.634  26.768  27.398  1.00  0.00     0.167 HD
ATOM     47  C   UNL A   1      41.849  28.719  28.428  1.00  0.00     0.037 A 
ATOM     48  C   UNL A   1      48.368  26.723  26.794  1.00  0.00     0.037 A 
ATOM     49  C   UNL A   1      42.852  29.745  28.543  1.00  0.00     0.049 A 
ATOM     50  C   UNL A   1      48.049  28.140  27.190  1.00  0.00     0.074 A 
ATOM     51  C   UNL A   1      42.694  31.058  28.953  1.00  0.00     0.029 A 
ATOM     52  N   UNL A   1      44.197  29.579  28.248  1.00  0.00    -0.354 N 
ATOM     53  N   UNL A   1      46.896  28.658  27.544  1.00  0.00    -0.248 NA
ATOM     54  C   UNL A   1      49.164  29.097  27.193  1.00  0.00     0.031 C 
ATOM     55  C   UNL A   1      43.934  31.698  28.859  1.00  0.00     0.029 A 
ATOM     56  C   UNL A   1      44.876  30.770  28.444  1.00  0.00     0.049 A 
ATOM     57  H   UNL A   1      44.609  28.738  27.944  1.00  0.00     0.167 HD
ATOM     58  C   UNL A   1      47.153  29.992  27.839  1.00  0.00     0.074 A 
ATOM     59  C   UNL A   1      48.572  30.199  27.634  1.00  0.00     0.031 C 
ATOM     60  C   UNL A   1      46.292  30.959  28.244  1.00  0.00     0.037 A 
BRANCH  47  61
ATOM     61  C   UNL A   1      40.417  29.080  28.720  1.00  0.00     0.058 A 
ATOM     62  C   UNL A   1      39.929  29.167  30.034  1.00  0.00     0.135 A 
ATOM     63  C   UNL A   1      39.529  29.379  27.673  1.00  0.00     0.135 A 
ATOM     64  F   UNL A   1      40.730  28.878  31.073  1.00  0.00    -0.206 F 
ATOM     65  C   UNL A   1      38.606  29.502  30.299  1.00  0.00     0.059 A 
ATOM     66  C   UNL A   1      38.208  29.748  27.917  1.00  0.00     0.059 A 
ATOM     67  F   UNL A   1      39.940  29.314  26.397  1.00  0.00    -0.206 F 
ATOM     68  C   UNL A   1      37.752  29.792  29.234  1.00  0.00     0.060 A 
BRANCH  68  69
ATOM     69  S   UNL A   1      36.040  30.230  29.597  1.00  0.00     0.124 S 
ATOM     70  O   UNL A   1      35.331  29.557  28.512  1.00  0.00    -0.237 OA
ATOM     71  O   UNL A   1      35.848  29.662  30.927  1.00  0.00    -0.237 OA
ATOM     72  O   UNL A   1      36.041  31.688  29.534  1.00  0.00    -0.744 OA
ENDBRANCH  68  69
ENDBRANCH  47  61
BRANCH  48  73
ATOM     73  C   UNL A   1      49.754  26.328  26.422  1.00  0.00     0.058 A 
ATOM     74  C   UNL A   1      50.653  25.855  27.389  1.00  0.00     0.135 A 
ATOM     75  C   UNL A   1      50.205  26.404  25.095  1.00  0.00     0.135 A 
ATOM     76  F   UNL A   1      50.273  25.769  28.674  1.00  0.00    -0.206 F 
ATOM     77  C   UNL A   1      51.955  25.490  27.061  1.00  0.00     0.059 A 
ATOM     78  C   UNL A   1      51.492  26.018  24.736  1.00  0.00     0.059 A 
ATOM     79  F   UNL A   1      49.380  26.837  24.128  1.00  0.00    -0.206 F 
ATOM     80  C   UNL A   1      52.364  25.573  25.728  1.00  0.00     0.060 A 
BRANCH  80  81
ATOM     81  S   UNL A   1      54.045  25.059  25.309  1.00  0.00     0.124 S 
ATOM     82  O   UNL A   1      54.739  25.267  26.574  1.00  0.00    -0.237 OA
ATOM     83  O   UNL A   1      53.848  23.669  24.909  1.00  0.00    -0.237 OA
ATOM     84  O   UNL A   1      54.414  25.968  24.229  1.00  0.00    -0.744 OA
ENDBRANCH  80  81
ENDBRANCH  48  73
BRANCH  60  85
ATOM     85  C   UNL A   1      46.862  32.322  28.530  1.00  0.00     0.058 A 
ATOM     86  C   UNL A   1      47.364  32.664  29.795  1.00  0.00     0.135 A 
ATOM     87  C   UNL A   1      46.955  33.279  27.506  1.00  0.00     0.135 A 
ATOM     88  F   UNL A   1      47.294  31.790  30.810  1.00  0.00    -0.206 F 
ATOM     89  C   UNL A   1      47.918  33.917  30.041  1.00  0.00     0.059 A 
ATOM     90  C   UNL A   1      47.534  34.527  27.722  1.00  0.00     0.059 A 
ATOM     91  F   UNL A   1      46.500  33.000  26.274  1.00  0.00    -0.206 F 
ATOM     92  C   UNL A   1      48.002  34.840  28.997  1.00  0.00     0.060 A 
BRANCH  92  93
ATOM     93  S   UNL A   1      48.756  36.448  29.322  1.00  0.00     0.124 S 
ATOM     94  O   UNL A   1      49.790  36.098  30.289  1.00  0.00    -0.237 OA
ATOM     95  O   UNL A   1      49.232  36.843  27.999  1.00  0.00    -0.237 OA
ATOM     96  O   UNL A   1      47.649  37.243  29.846  1.00  0.00    -0.744 OA
ENDBRANCH  92  93
ENDBRANCH  60  85
ENDBRANCH  34  35
ENDBRANCH  26  29
ENDBRANCH  24  25
ENDBRANCH   1  24
TORSDOF 16
ENDMDL
MODEL 3
REMARK VINA RESULT:     -11.7      7.235     11.247
REMARK SMILES COc1ccc([C@H](C)[N@H+]2CC[C@H](C(=O)NCCCNC(=O)c3ccc(-c4c5nc(c(-c6c(F)cc(S(=O)(=O)[O-])cc6F)c6ccc([nH]6)c(-c6c(F)cc(S(=O)(=O)[O-])cc6F)c6nc(c(-c7c(F)cc(S(=O)(=O)[O-])cc7F)c7ccc4[nH]7)C=C6)C=C5)cc3)[C@@H]2C)cc1
REMARK SMILES IDX 17 1 16 2 15 3 13 4 14 5 12 7 9 8 10 9 88 10 11 12 89 13
REMARK SMILES IDX 7 14 8 15 6 16 3 17 4 18 91 19 5 20 90 21 2 22 1 23 18 24
REMARK SMILES IDX 19 25 20 26 21 28 22 29 23 30 87 31 24 32 86 33 25 34 26 35
REMARK SMILES IDX 27 36 80 37 28 38 85 39 79 40 81 41 29 42 84 43 78 44 77 45
REMARK SMILES IDX 30 47 64 48 43 49 63 50 44 51 47 52 62 53 82 54 45 55 46 56
REMARK SMILES IDX 61 58 83 59 48 60 31 61 32 62 41 63 33 64 34 65 40 66 42 67
REMARK SMILES IDX 35 68 36 69 37 70 38 71 39 72 65 73 66 74 75 75 67 76 68 77
REMARK SMILES IDX 74 78 76 79 69 80 70 81 71 82 72 83 73 84 49 85 50 86 59 87
REMARK SMILES IDX 51 88 52 89 58 90 60 91 53 92 54 93 55 94 56 95 57 96
REMARK H PARENT 15 6 9 11 19 27 81 46 47 57
REMARK Flexibility Score: inf
ROOT
ATOM      1  C   UNL A   1      31.668  31.993  26.824  1.00  0.00     0.042 C 
ENDROOT
BRANCH   1   2
ATOM      2  C   UNL A   1      31.819  30.485  26.734  1.00  0.00     0.117 C 
BRANCH   2   3
ATOM      3  N   UNL A   1      33.104  29.981  27.184  1.00  0.00    -0.356 N 
ATOM      4  C   UNL A   1      33.917  28.987  26.763  1.00  0.00     0.229 C 
ATOM      5  O   UNL A   1      35.063  29.008  27.237  1.00  0.00    -0.275 OA
ATOM      6  H   UNL A   1      33.459  30.467  27.963  1.00  0.00     0.163 HD
BRANCH   4   7
ATOM      7  C   UNL A   1      33.526  27.798  25.895  1.00  0.00     0.142 C 
ATOM      8  N   UNL A   1      31.489  27.801  24.640  1.00  0.00    -0.326 N 
ATOM      9  C   UNL A   1      31.194  27.272  25.981  1.00  0.00     0.264 C 
ATOM     10  C   UNL A   1      32.951  27.910  24.484  1.00  0.00     0.194 C 
ATOM     11  H   UNL A   1      31.131  28.752  24.540  1.00  0.00     0.348 HD
ATOM     12  C   UNL A   1      32.518  26.916  26.613  1.00  0.00     0.081 C 
ATOM     13  C   UNL A   1      33.457  29.087  23.654  1.00  0.00     0.076 C 
BRANCH   8  14
ATOM     14  C   UNL A   1      30.729  27.127  23.556  1.00  0.00     0.212 C 
ATOM     15  C   UNL A   1      30.034  25.825  24.010  1.00  0.00     0.081 C 
BRANCH  14  16
ATOM     16  C   UNL A   1      29.761  28.135  22.908  1.00  0.00     0.009 A 
ATOM     17  C   UNL A   1      28.138  30.278  22.065  1.00  0.00     0.118 A 
ATOM     18  C   UNL A   1      29.476  30.224  21.685  1.00  0.00     0.047 A 
ATOM     19  C   UNL A   1      27.578  29.221  22.774  1.00  0.00     0.047 A 
ATOM     20  C   UNL A   1      30.284  29.163  22.106  1.00  0.00     0.013 A 
ATOM     21  C   UNL A   1      28.383  28.158  23.191  1.00  0.00     0.013 A 
BRANCH  17  22
ATOM     22  O   UNL A   1      27.428  31.379  21.677  1.00  0.00    -0.497 OA
ATOM     23  C   UNL A   1      28.009  32.065  20.568  1.00  0.00     0.278 C 
ENDBRANCH  17  22
ENDBRANCH  14  16
ENDBRANCH   8  14
ENDBRANCH   4   7
ENDBRANCH   2   3
ENDBRANCH   1   2
BRANCH   1  24
ATOM     24  C   UNL A   1      32.818  32.726  27.493  1.00  0.00     0.118 C 
BRANCH  24  25
ATOM     25  N   UNL A   1      32.532  34.122  27.791  1.00  0.00    -0.352 N 
ATOM     26  C   UNL A   1      33.112  34.980  28.699  1.00  0.00     0.251 C 
ATOM     27  H   UNL A   1      31.803  34.516  27.258  1.00  0.00     0.163 HD
ATOM     28  O   UNL A   1      32.626  36.090  28.873  1.00  0.00    -0.269 OA
BRANCH  26  29
ATOM     29  C   UNL A   1      34.291  34.554  29.493  1.00  0.00     0.039 A 
ATOM     30  C   UNL A   1      34.092  34.085  30.796  1.00  0.00     0.014 A 
ATOM     31  C   UNL A   1      35.583  34.606  28.969  1.00  0.00     0.014 A 
ATOM     32  C   UNL A   1      35.174  33.589  31.529  1.00  0.00     0.010 A 
ATOM     33  C   UNL A   1      36.637  34.011  29.655  1.00  0.00     0.010 A 
ATOM     34  C   UNL A   1      36.448  33.498  30.946  1.00  0.00    -0.014 A 
BRANCH  34  35
ATOM     35  C   UNL A   1      37.593  32.877  31.666  1.00  0.00     0.031 A 
ATOM     36  C   UNL A   1      38.275  31.659  31.099  1.00  0.00     0.074 A 
ATOM     37  C   UNL A   1      37.974  33.364  32.866  1.00  0.00     0.049 A 
ATOM     38  N   UNL A   1      39.230  30.930  31.616  1.00  0.00    -0.248 NA
ATOM     39  C   UNL A   1      37.798  31.177  29.793  1.00  0.00     0.031 C 
ATOM     40  C   UNL A   1      37.361  34.504  33.551  1.00  0.00     0.029 A 
ATOM     41  N   UNL A   1      38.963  32.956  33.728  1.00  0.00    -0.354 N 
ATOM     42  C   UNL A   1      39.454  29.899  30.711  1.00  0.00     0.074 A 
ATOM     43  C   UNL A   1      38.494  30.060  29.643  1.00  0.00     0.031 C 
ATOM     44  C   UNL A   1      38.003  34.721  34.710  1.00  0.00     0.029 A 
ATOM     45  C   UNL A   1      39.043  33.711  34.875  1.00  0.00     0.049 A 
ATOM     46  H   UNL A   1      39.557  32.194  33.542  1.00  0.00     0.167 HD
ATOM     47  C   UNL A   1      40.392  28.921  30.752  1.00  0.00     0.037 A 
ATOM     48  C   UNL A   1      39.856  33.600  35.945  1.00  0.00     0.037 A 
ATOM     49  C   UNL A   1      41.364  28.783  31.804  1.00  0.00     0.049 A 
ATOM     50  C   UNL A   1      40.890  32.506  35.967  1.00  0.00     0.074 A 
ATOM     51  C   UNL A   1      42.395  27.865  31.906  1.00  0.00     0.029 A 
ATOM     52  N   UNL A   1      41.428  29.582  32.936  1.00  0.00    -0.354 N 
ATOM     53  N   UNL A   1      41.130  31.580  35.069  1.00  0.00    -0.248 NA
ATOM     54  C   UNL A   1      41.769  32.445  37.143  1.00  0.00     0.031 C 
ATOM     55  C   UNL A   1      43.051  28.077  33.123  1.00  0.00     0.029 A 
ATOM     56  C   UNL A   1      42.466  29.164  33.753  1.00  0.00     0.049 A 
ATOM     57  H   UNL A   1      40.825  30.336  33.130  1.00  0.00     0.167 HD
ATOM     58  C   UNL A   1      42.205  30.845  35.559  1.00  0.00     0.074 A 
ATOM     59  C   UNL A   1      42.576  31.443  36.825  1.00  0.00     0.031 C 
ATOM     60  C   UNL A   1      42.829  29.774  35.008  1.00  0.00     0.037 A 
BRANCH  47  61
ATOM     61  C   UNL A   1      40.413  27.927  29.621  1.00  0.00     0.058 A 
ATOM     62  C   UNL A   1      41.293  28.061  28.535  1.00  0.00     0.135 A 
ATOM     63  C   UNL A   1      39.569  26.804  29.641  1.00  0.00     0.135 A 
ATOM     64  F   UNL A   1      42.113  29.123  28.455  1.00  0.00    -0.206 F 
ATOM     65  C   UNL A   1      41.311  27.140  27.493  1.00  0.00     0.059 A 
ATOM     66  C   UNL A   1      39.592  25.852  28.625  1.00  0.00     0.059 A 
ATOM     67  F   UNL A   1      38.708  26.623  30.656  1.00  0.00    -0.206 F 
ATOM     68  C   UNL A   1      40.456  26.038  27.547  1.00  0.00     0.060 A 
BRANCH  68  69
ATOM     69  S   UNL A   1      40.497  24.850  26.190  1.00  0.00     0.124 S 
ATOM     70  O   UNL A   1      39.080  24.523  26.047  1.00  0.00    -0.237 OA
ATOM     71  O   UNL A   1      41.078  25.635  25.106  1.00  0.00    -0.237 OA
ATOM     72  O   UNL A   1      41.339  23.774  26.703  1.00  0.00    -0.744 OA
ENDBRANCH  68  69
ENDBRANCH  47  61
BRANCH  48  73
ATOM     73  C   UNL A   1      39.740  34.564  37.072  1.00  0.00     0.058 A 
ATOM     74  C   UNL A   1      40.400  35.802  37.033  1.00  0.00     0.135 A 
ATOM     75  C   UNL A   1      38.962  34.276  38.204  1.00  0.00     0.135 A 
ATOM     76  F   UNL A   1      41.162  36.122  35.975  1.00  0.00    -0.206 F 
ATOM     77  C   UNL A   1      40.310  36.711  38.082  1.00  0.00     0.059 A 
ATOM     78  C   UNL A   1      38.832  35.181  39.253  1.00  0.00     0.059 A 
ATOM     79  F   UNL A   1      38.299  33.112  38.286  1.00  0.00    -0.206 F 
ATOM     80  C   UNL A   1      39.521  36.391  39.189  1.00  0.00     0.060 A 
BRANCH  80  81
ATOM     81  S   UNL A   1      39.381  37.598  40.526  1.00  0.00     0.124 S 
ATOM     82  O   UNL A   1      38.318  38.464  40.029  1.00  0.00    -0.237 OA
ATOM     83  O   UNL A   1      39.037  36.753  41.665  1.00  0.00    -0.237 OA
ATOM     84  O   UNL A   1      40.711  38.197  40.578  1.00  0.00    -0.744 OA
ENDBRANCH  80  81
ENDBRANCH  48  73
BRANCH  60  85
ATOM     85  C   UNL A   1      44.004  29.196  35.751  1.00  0.00     0.058 A 
ATOM     86  C   UNL A   1      43.868  28.099  36.614  1.00  0.00     0.135 A 
ATOM     87  C   UNL A   1      45.293  29.716  35.550  1.00  0.00     0.135 A 
ATOM     88  F   UNL A   1      42.657  27.568  36.847  1.00  0.00    -0.206 F 
ATOM     89  C   UNL A   1      44.965  27.552  37.272  1.00  0.00     0.059 A 
ATOM     90  C   UNL A   1      46.410  29.166  36.173  1.00  0.00     0.059 A 
ATOM     91  F   UNL A   1      45.483  30.759  34.725  1.00  0.00    -0.206 F 
ATOM     92  C   UNL A   1      46.233  28.090  37.042  1.00  0.00     0.060 A 
BRANCH  92  93
ATOM     93  S   UNL A   1      47.652  27.347  37.874  1.00  0.00     0.124 S 
ATOM     94  O   UNL A   1      47.077  26.110  38.390  1.00  0.00    -0.237 OA
ATOM     95  O   UNL A   1      48.609  27.193  36.782  1.00  0.00    -0.237 OA
ATOM     96  O   UNL A   1      48.014  28.340  38.882  1.00  0.00    -0.744 OA
ENDBRANCH  92  93
ENDBRANCH  60  85
ENDBRANCH  34  35
ENDBRANCH  26  29
ENDBRANCH  24  25
ENDBRANCH   1  24
TORSDOF 16
ENDMDL
