MODEL 1
REMARK VINA RESULT:     -11.5      0.000      0.000
REMARK SMILES O=C(/C=C/c1cc(F)cc(COCc2ccco2)c1)NCCCNC(=O)c1ccc(-c2c3nc(c(-c4c(F)cc(S(=O)(=O)[O-])cc4F)c4ccc([nH]4)c(-c4c(F)cc(S(=O)(=O)[O-])cc4F)c4nc(c(-c5c(F)cc(S(=O)(=O)[O-])cc5F)c5ccc2[nH]5)C=C4)C=C3)cc1
REMARK SMILES IDX 21 1 20 2 1 3 2 4 3 6 4 7 5 8 6 9 19 10 7 11 10 12 8 13 9 14
REMARK SMILES IDX 11 15 12 16 13 17 14 18 15 19 18 20 16 21 17 22 22 23 23 24
REMARK SMILES IDX 24 25 25 26 26 28 27 29 28 30 92 31 29 32 91 33 30 34 31 35
REMARK SMILES IDX 32 36 85 37 33 38 90 39 84 40 86 41 34 42 89 43 83 44 82 45
REMARK SMILES IDX 35 47 69 48 48 49 68 50 49 51 52 52 67 53 87 54 50 55 51 56
REMARK SMILES IDX 66 58 88 59 53 60 36 61 37 62 46 63 38 64 39 65 45 66 47 67
REMARK SMILES IDX 40 68 41 69 42 70 43 71 44 72 70 73 71 74 80 75 72 76 73 77
REMARK SMILES IDX 79 78 81 79 74 80 75 81 76 82 77 83 78 84 54 85 55 86 64 87
REMARK SMILES IDX 56 88 57 89 63 90 65 91 58 92 59 93 60 94 61 95 62 96
REMARK H PARENT 20 5 24 27 86 46 52 57
REMARK Flexibility Score: inf
ROOT
ATOM      1  C   UNL A   1      42.014  21.086  26.874  1.00  0.00     0.118 C 
ENDROOT
BRANCH   1   2
ATOM      2  N   UNL A   1      40.652  21.273  26.408  1.00  0.00    -0.352 N 
ATOM      3  O   UNL A   1      40.343  19.105  25.720  1.00  0.00    -0.270 OA
ATOM      4  C   UNL A   1      39.921  20.249  25.869  1.00  0.00     0.244 C 
ATOM      5  H   UNL A   1      40.241  22.165  26.481  1.00  0.00     0.163 HD
BRANCH   4   6
ATOM      6  C   UNL A   1      38.517  20.550  25.482  1.00  0.00     0.072 C 
ATOM      7  C   UNL A   1      37.968  21.756  25.267  1.00  0.00     0.014 C 
BRANCH   7   8
ATOM      8  C   UNL A   1      36.574  21.919  24.827  1.00  0.00    -0.022 A 
ATOM      9  C   UNL A   1      36.178  22.911  23.926  1.00  0.00     0.047 A 
ATOM     10  C   UNL A   1      35.609  21.033  25.323  1.00  0.00     0.014 A 
ATOM     11  C   UNL A   1      34.837  23.030  23.573  1.00  0.00     0.124 A 
ATOM     12  C   UNL A   1      34.250  21.166  24.986  1.00  0.00    -0.019 A 
ATOM     13  F   UNL A   1      34.467  23.991  22.717  1.00  0.00    -0.207 F 
ATOM     14  C   UNL A   1      33.870  22.179  24.101  1.00  0.00     0.045 A 
BRANCH  12  15
ATOM     15  C   UNL A   1      33.215  20.267  25.618  1.00  0.00     0.196 C 
BRANCH  15  16
ATOM     16  O   UNL A   1      32.214  19.788  24.724  1.00  0.00    -0.369 OA
BRANCH  16  17
ATOM     17  C   UNL A   1      32.624  18.854  23.721  1.00  0.00     0.235 C 
BRANCH  17  18
ATOM     18  C   UNL A   1      33.170  17.598  24.304  1.00  0.00     0.129 A 
ATOM     19  C   UNL A   1      34.394  16.956  24.288  1.00  0.00     0.048 A 
ATOM     20  O   UNL A   1      32.323  16.923  25.141  1.00  0.00    -0.467 OA
ATOM     21  C   UNL A   1      34.288  15.843  25.155  1.00  0.00     0.042 A 
ATOM     22  C   UNL A   1      33.007  15.866  25.647  1.00  0.00     0.195 A 
ENDBRANCH  17  18
ENDBRANCH  16  17
ENDBRANCH  15  16
ENDBRANCH  12  15
ENDBRANCH   7   8
ENDBRANCH   4   6
ENDBRANCH   1   2
BRANCH   1  23
ATOM     23  C   UNL A   1      42.361  21.966  28.072  1.00  0.00     0.042 C 
BRANCH  23  24
ATOM     24  C   UNL A   1      43.168  23.219  27.740  1.00  0.00     0.118 C 
BRANCH  24  25
ATOM     25  N   UNL A   1      42.823  23.808  26.454  1.00  0.00    -0.352 N 
ATOM     26  C   UNL A   1      42.219  25.005  26.154  1.00  0.00     0.251 C 
ATOM     27  H   UNL A   1      43.061  23.259  25.672  1.00  0.00     0.163 HD
ATOM     28  O   UNL A   1      41.917  25.240  24.984  1.00  0.00    -0.269 OA
BRANCH  26  29
ATOM     29  C   UNL A   1      41.904  25.996  27.208  1.00  0.00     0.039 A 
ATOM     30  C   UNL A   1      40.843  25.728  28.078  1.00  0.00     0.014 A 
ATOM     31  C   UNL A   1      42.618  27.191  27.337  1.00  0.00     0.014 A 
ATOM     32  C   UNL A   1      40.547  26.617  29.116  1.00  0.00     0.010 A 
ATOM     33  C   UNL A   1      42.368  28.043  28.416  1.00  0.00     0.010 A 
ATOM     34  C   UNL A   1      41.335  27.762  29.322  1.00  0.00    -0.014 A 
BRANCH  34  35
ATOM     35  C   UNL A   1      41.111  28.640  30.503  1.00  0.00     0.031 A 
ATOM     36  C   UNL A   1      41.970  28.521  31.733  1.00  0.00     0.074 A 
ATOM     37  C   UNL A   1      40.095  29.528  30.479  1.00  0.00     0.049 A 
ATOM     38  N   UNL A   1      41.897  29.188  32.857  1.00  0.00    -0.248 NA
ATOM     39  C   UNL A   1      43.036  27.507  31.708  1.00  0.00     0.031 C 
ATOM     40  C   UNL A   1      39.161  29.711  29.365  1.00  0.00     0.029 A 
ATOM     41  N   UNL A   1      39.678  30.445  31.412  1.00  0.00    -0.354 N 
ATOM     42  C   UNL A   1      42.903  28.680  33.669  1.00  0.00     0.074 A 
ATOM     43  C   UNL A   1      43.536  27.608  32.932  1.00  0.00     0.031 C 
ATOM     44  C   UNL A   1      38.308  30.703  29.663  1.00  0.00     0.029 A 
ATOM     45  C   UNL A   1      38.601  31.198  31.004  1.00  0.00     0.049 A 
ATOM     46  H   UNL A   1      40.108  30.552  32.291  1.00  0.00     0.167 HD
ATOM     47  C   UNL A   1      43.281  29.086  34.906  1.00  0.00     0.037 A 
ATOM     48  C   UNL A   1      37.923  32.178  31.634  1.00  0.00     0.037 A 
ATOM     49  C   UNL A   1      42.658  30.165  35.630  1.00  0.00     0.049 A 
ATOM     50  C   UNL A   1      38.349  32.597  33.015  1.00  0.00     0.074 A 
ATOM     51  C   UNL A   1      43.004  30.681  36.867  1.00  0.00     0.029 A 
ATOM     52  N   UNL A   1      41.563  30.893  35.189  1.00  0.00    -0.354 N 
ATOM     53  N   UNL A   1      39.337  32.139  33.745  1.00  0.00    -0.248 NA
ATOM     54  C   UNL A   1      37.571  33.664  33.655  1.00  0.00     0.031 C 
ATOM     55  C   UNL A   1      42.088  31.685  37.197  1.00  0.00     0.029 A 
ATOM     56  C   UNL A   1      41.204  31.834  36.142  1.00  0.00     0.049 A 
ATOM     57  H   UNL A   1      41.107  30.762  34.327  1.00  0.00     0.167 HD
ATOM     58  C   UNL A   1      39.309  32.872  34.926  1.00  0.00     0.074 A 
ATOM     59  C   UNL A   1      38.222  33.821  34.801  1.00  0.00     0.031 C 
ATOM     60  C   UNL A   1      40.110  32.767  36.016  1.00  0.00     0.037 A 
BRANCH  47  61
ATOM     61  C   UNL A   1      44.437  28.376  35.559  1.00  0.00     0.058 A 
ATOM     62  C   UNL A   1      44.216  27.292  36.425  1.00  0.00     0.135 A 
ATOM     63  C   UNL A   1      45.760  28.815  35.387  1.00  0.00     0.135 A 
ATOM     64  F   UNL A   1      42.973  26.826  36.623  1.00  0.00    -0.206 F 
ATOM     65  C   UNL A   1      45.263  26.681  37.109  1.00  0.00     0.059 A 
ATOM     66  C   UNL A   1      46.825  28.200  36.039  1.00  0.00     0.059 A 
ATOM     67  F   UNL A   1      46.031  29.834  34.556  1.00  0.00    -0.206 F 
ATOM     68  C   UNL A   1      46.564  27.143  36.910  1.00  0.00     0.060 A 
BRANCH  68  69
ATOM     69  S   UNL A   1      47.914  26.322  37.785  1.00  0.00     0.124 S 
ATOM     70  O   UNL A   1      48.911  26.175  36.731  1.00  0.00    -0.237 OA
ATOM     71  O   UNL A   1      48.230  27.290  38.831  1.00  0.00    -0.237 OA
ATOM     72  O   UNL A   1      47.306  25.081  38.256  1.00  0.00    -0.744 OA
ENDBRANCH  68  69
ENDBRANCH  47  61
BRANCH  48  73
ATOM     73  C   UNL A   1      36.786  32.847  30.947  1.00  0.00     0.058 A 
ATOM     74  C   UNL A   1      37.001  33.810  29.948  1.00  0.00     0.135 A 
ATOM     75  C   UNL A   1      35.460  32.564  31.307  1.00  0.00     0.135 A 
ATOM     76  F   UNL A   1      38.250  34.125  29.573  1.00  0.00    -0.206 F 
ATOM     77  C   UNL A   1      35.944  34.489  29.353  1.00  0.00     0.059 A 
ATOM     78  C   UNL A   1      34.383  33.210  30.704  1.00  0.00     0.059 A 
ATOM     79  F   UNL A   1      35.203  31.642  32.247  1.00  0.00    -0.206 F 
ATOM     80  C   UNL A   1      34.638  34.186  29.741  1.00  0.00     0.060 A 
BRANCH  80  81
ATOM     81  S   UNL A   1      33.282  35.095  28.970  1.00  0.00     0.124 S 
ATOM     82  O   UNL A   1      33.994  36.210  28.353  1.00  0.00    -0.237 OA
ATOM     83  O   UNL A   1      32.735  34.104  28.050  1.00  0.00    -0.237 OA
ATOM     84  O   UNL A   1      32.425  35.444  30.098  1.00  0.00    -0.744 OA
ENDBRANCH  80  81
ENDBRANCH  48  73
BRANCH  60  85
ATOM     85  C   UNL A   1      39.844  33.700  37.166  1.00  0.00     0.058 A 
ATOM     86  C   UNL A   1      38.887  33.381  38.141  1.00  0.00     0.135 A 
ATOM     87  C   UNL A   1      40.501  34.937  37.276  1.00  0.00     0.135 A 
ATOM     88  F   UNL A   1      38.222  32.215  38.082  1.00  0.00    -0.206 F 
ATOM     89  C   UNL A   1      38.582  34.256  39.178  1.00  0.00     0.059 A 
ATOM     90  C   UNL A   1      40.236  35.815  38.322  1.00  0.00     0.059 A 
ATOM     91  F   UNL A   1      41.434  35.287  36.375  1.00  0.00    -0.206 F 
ATOM     92  C   UNL A   1      39.265  35.471  39.262  1.00  0.00     0.060 A 
BRANCH  92  93
ATOM     93  S   UNL A   1      38.884  36.578  40.636  1.00  0.00     0.124 S 
ATOM     94  O   UNL A   1      40.209  36.842  41.185  1.00  0.00    -0.237 OA
ATOM     95  O   UNL A   1      38.241  37.700  39.958  1.00  0.00    -0.237 OA
ATOM     96  O   UNL A   1      38.002  35.778  41.482  1.00  0.00    -0.744 OA
ENDBRANCH  92  93
ENDBRANCH  60  85
ENDBRANCH  34  35
ENDBRANCH  26  29
ENDBRANCH  24  25
ENDBRANCH  23  24
ENDBRANCH   1  23
TORSDOF 18
ENDMDL
MODEL 2
REMARK VINA RESULT:     -11.4      2.832      4.277
REMARK SMILES O=C(/C=C/c1cc(F)cc(COCc2ccco2)c1)NCCCNC(=O)c1ccc(-c2c3nc(c(-c4c(F)cc(S(=O)(=O)[O-])cc4F)c4ccc([nH]4)c(-c4c(F)cc(S(=O)(=O)[O-])cc4F)c4nc(c(-c5c(F)cc(S(=O)(=O)[O-])cc5F)c5ccc2[nH]5)C=C4)C=C3)cc1
REMARK SMILES IDX 21 1 20 2 1 3 2 4 3 6 4 7 5 8 6 9 19 10 7 11 10 12 8 13 9 14
REMARK SMILES IDX 11 15 12 16 13 17 14 18 15 19 18 20 16 21 17 22 22 23 23 24
REMARK SMILES IDX 24 25 25 26 26 28 27 29 28 30 92 31 29 32 91 33 30 34 31 35
REMARK SMILES IDX 32 36 85 37 33 38 90 39 84 40 86 41 34 42 89 43 83 44 82 45
REMARK SMILES IDX 35 47 69 48 48 49 68 50 49 51 52 52 67 53 87 54 50 55 51 56
REMARK SMILES IDX 66 58 88 59 53 60 36 61 37 62 46 63 38 64 39 65 45 66 47 67
REMARK SMILES IDX 40 68 41 69 42 70 43 71 44 72 70 73 71 74 80 75 72 76 73 77
REMARK SMILES IDX 79 78 81 79 74 80 75 81 76 82 77 83 78 84 54 85 55 86 64 87
REMARK SMILES IDX 56 88 57 89 63 90 65 91 58 92 59 93 60 94 61 95 62 96
REMARK H PARENT 20 5 24 27 86 46 52 57
REMARK Flexibility Score: inf
ROOT
ATOM      1  C   UNL A   1      39.502  21.612  26.009  1.00  0.00     0.118 C 
ENDROOT
BRANCH   1   2
ATOM      2  N   UNL A   1      38.261  22.336  26.213  1.00  0.00    -0.352 N 
ATOM      3  O   UNL A   1      37.310  21.738  24.211  1.00  0.00    -0.270 OA
ATOM      4  C   UNL A   1      37.254  22.331  25.286  1.00  0.00     0.244 C 
ATOM      5  H   UNL A   1      38.138  22.847  27.046  1.00  0.00     0.163 HD
BRANCH   4   6
ATOM      6  C   UNL A   1      36.007  23.061  25.635  1.00  0.00     0.072 C 
ATOM      7  C   UNL A   1      35.412  24.042  24.938  1.00  0.00     0.014 C 
BRANCH   7   8
ATOM      8  C   UNL A   1      34.140  24.647  25.362  1.00  0.00    -0.022 A 
ATOM      9  C   UNL A   1      33.199  23.961  26.135  1.00  0.00     0.047 A 
ATOM     10  C   UNL A   1      33.869  25.969  24.984  1.00  0.00     0.014 A 
ATOM     11  C   UNL A   1      32.000  24.581  26.477  1.00  0.00     0.124 A 
ATOM     12  C   UNL A   1      32.649  26.588  25.310  1.00  0.00    -0.019 A 
ATOM     13  F   UNL A   1      31.101  23.910  27.210  1.00  0.00    -0.207 F 
ATOM     14  C   UNL A   1      31.711  25.878  26.064  1.00  0.00     0.045 A 
BRANCH  12  15
ATOM     15  C   UNL A   1      32.337  27.974  24.800  1.00  0.00     0.196 C 
BRANCH  15  16
ATOM     16  O   UNL A   1      31.109  28.085  24.085  1.00  0.00    -0.369 OA
BRANCH  16  17
ATOM     17  C   UNL A   1      31.102  28.912  22.918  1.00  0.00     0.235 C 
BRANCH  17  18
ATOM     18  C   UNL A   1      29.843  29.695  22.784  1.00  0.00     0.129 A 
ATOM     19  C   UNL A   1      29.211  30.675  23.524  1.00  0.00     0.048 A 
ATOM     20  O   UNL A   1      29.151  29.499  21.619  1.00  0.00    -0.467 OA
ATOM     21  C   UNL A   1      28.085  31.096  22.777  1.00  0.00     0.042 A 
ATOM     22  C   UNL A   1      28.093  30.348  21.626  1.00  0.00     0.195 A 
ENDBRANCH  17  18
ENDBRANCH  16  17
ENDBRANCH  15  16
ENDBRANCH  12  15
ENDBRANCH   7   8
ENDBRANCH   4   6
ENDBRANCH   1   2
BRANCH   1  23
ATOM     23  C   UNL A   1      40.414  21.632  27.233  1.00  0.00     0.042 C 
BRANCH  23  24
ATOM     24  C   UNL A   1      41.042  22.987  27.546  1.00  0.00     0.118 C 
BRANCH  24  25
ATOM     25  N   UNL A   1      41.535  23.685  26.368  1.00  0.00    -0.352 N 
ATOM     26  C   UNL A   1      41.663  25.030  26.116  1.00  0.00     0.251 C 
ATOM     27  H   UNL A   1      41.823  23.100  25.632  1.00  0.00     0.163 HD
ATOM     28  O   UNL A   1      41.996  25.393  24.988  1.00  0.00    -0.269 OA
BRANCH  26  29
ATOM     29  C   UNL A   1      41.383  26.042  27.161  1.00  0.00     0.039 A 
ATOM     30  C   UNL A   1      40.329  25.807  28.049  1.00  0.00     0.014 A 
ATOM     31  C   UNL A   1      42.122  27.223  27.264  1.00  0.00     0.014 A 
ATOM     32  C   UNL A   1      40.066  26.716  29.079  1.00  0.00     0.010 A 
ATOM     33  C   UNL A   1      41.905  28.094  28.335  1.00  0.00     0.010 A 
ATOM     34  C   UNL A   1      40.880  27.846  29.259  1.00  0.00    -0.014 A 
BRANCH  34  35
ATOM     35  C   UNL A   1      40.691  28.745  30.430  1.00  0.00     0.031 A 
ATOM     36  C   UNL A   1      41.544  28.604  31.662  1.00  0.00     0.074 A 
ATOM     37  C   UNL A   1      39.711  29.672  30.397  1.00  0.00     0.049 A 
ATOM     38  N   UNL A   1      41.498  29.285  32.779  1.00  0.00    -0.248 NA
ATOM     39  C   UNL A   1      42.570  27.549  31.647  1.00  0.00     0.031 C 
ATOM     40  C   UNL A   1      38.784  29.880  29.281  1.00  0.00     0.029 A 
ATOM     41  N   UNL A   1      39.330  30.613  31.321  1.00  0.00    -0.354 N 
ATOM     42  C   UNL A   1      42.483  28.746  33.597  1.00  0.00     0.074 A 
ATOM     43  C   UNL A   1      43.074  27.642  32.870  1.00  0.00     0.031 C 
ATOM     44  C   UNL A   1      37.971  30.907  29.569  1.00  0.00     0.029 A 
ATOM     45  C   UNL A   1      38.284  31.405  30.905  1.00  0.00     0.049 A 
ATOM     46  H   UNL A   1      39.764  30.713  32.199  1.00  0.00     0.167 HD
ATOM     47  C   UNL A   1      42.877  29.150  34.829  1.00  0.00     0.037 A 
ATOM     48  C   UNL A   1      37.645  32.416  31.525  1.00  0.00     0.037 A 
ATOM     49  C   UNL A   1      42.297  30.260  35.542  1.00  0.00     0.049 A 
ATOM     50  C   UNL A   1      38.087  32.832  32.901  1.00  0.00     0.074 A 
ATOM     51  C   UNL A   1      42.664  30.774  36.775  1.00  0.00     0.029 A 
ATOM     52  N   UNL A   1      41.231  31.025  35.094  1.00  0.00    -0.354 N 
ATOM     53  N   UNL A   1      39.057  32.343  33.636  1.00  0.00    -0.248 NA
ATOM     54  C   UNL A   1      37.351  33.936  33.531  1.00  0.00     0.031 C 
ATOM     55  C   UNL A   1      41.788  31.816  37.094  1.00  0.00     0.029 A 
ATOM     56  C   UNL A   1      40.909  31.989  36.037  1.00  0.00     0.049 A 
ATOM     57  H   UNL A   1      40.770  30.904  34.233  1.00  0.00     0.167 HD
ATOM     58  C   UNL A   1      39.057  33.089  34.810  1.00  0.00     0.074 A 
ATOM     59  C   UNL A   1      38.008  34.078  34.675  1.00  0.00     0.031 C 
ATOM     60  C   UNL A   1      39.853  32.963  35.901  1.00  0.00     0.037 A 
BRANCH  47  61
ATOM     61  C   UNL A   1      44.004  28.401  35.490  1.00  0.00     0.058 A 
ATOM     62  C   UNL A   1      43.741  27.334  36.365  1.00  0.00     0.135 A 
ATOM     63  C   UNL A   1      45.344  28.787  35.316  1.00  0.00     0.135 A 
ATOM     64  F   UNL A   1      42.481  26.918  36.565  1.00  0.00    -0.206 F 
ATOM     65  C   UNL A   1      44.763  26.689  37.056  1.00  0.00     0.059 A 
ATOM     66  C   UNL A   1      46.384  28.138  35.975  1.00  0.00     0.059 A 
ATOM     67  F   UNL A   1      45.655  29.788  34.477  1.00  0.00    -0.206 F 
ATOM     68  C   UNL A   1      46.081  27.098  36.854  1.00  0.00     0.060 A 
BRANCH  68  69
ATOM     69  S   UNL A   1      47.397  26.234  37.737  1.00  0.00     0.124 S 
ATOM     70  O   UNL A   1      47.445  24.958  37.034  1.00  0.00    -0.237 OA
ATOM     71  O   UNL A   1      48.538  27.121  37.526  1.00  0.00    -0.237 OA
ATOM     72  O   UNL A   1      46.904  26.179  39.110  1.00  0.00    -0.744 OA
ENDBRANCH  68  69
ENDBRANCH  47  61
BRANCH  48  73
ATOM     73  C   UNL A   1      36.535  33.123  30.830  1.00  0.00     0.058 A 
ATOM     74  C   UNL A   1      36.786  34.049  29.806  1.00  0.00     0.135 A 
ATOM     75  C   UNL A   1      35.200  32.914  31.208  1.00  0.00     0.135 A 
ATOM     76  F   UNL A   1      38.046  34.294  29.413  1.00  0.00    -0.206 F 
ATOM     77  C   UNL A   1      35.757  34.764  29.203  1.00  0.00     0.059 A 
ATOM     78  C   UNL A   1      34.150  33.596  30.599  1.00  0.00     0.059 A 
ATOM     79  F   UNL A   1      34.908  32.028  32.173  1.00  0.00    -0.206 F 
ATOM     80  C   UNL A   1      34.443  34.534  29.609  1.00  0.00     0.060 A 
BRANCH  80  81
ATOM     81  S   UNL A   1      33.125  35.488  28.827  1.00  0.00     0.124 S 
ATOM     82  O   UNL A   1      32.502  34.480  27.975  1.00  0.00    -0.237 OA
ATOM     83  O   UNL A   1      32.339  35.922  29.976  1.00  0.00    -0.237 OA
ATOM     84  O   UNL A   1      33.845  36.546  28.125  1.00  0.00    -0.744 OA
ENDBRANCH  80  81
ENDBRANCH  48  73
BRANCH  60  85
ATOM     85  C   UNL A   1      39.625  33.918  37.041  1.00  0.00     0.058 A 
ATOM     86  C   UNL A   1      40.175  35.209  37.016  1.00  0.00     0.135 A 
ATOM     87  C   UNL A   1      38.904  33.537  38.185  1.00  0.00     0.135 A 
ATOM     88  F   UNL A   1      40.880  35.625  35.951  1.00  0.00    -0.206 F 
ATOM     89  C   UNL A   1      40.027  36.086  38.086  1.00  0.00     0.059 A 
ATOM     90  C   UNL A   1      38.717  34.407  39.254  1.00  0.00     0.059 A 
ATOM     91  F   UNL A   1      38.348  32.316  38.257  1.00  0.00    -0.206 F 
ATOM     92  C   UNL A   1      39.293  35.676  39.200  1.00  0.00     0.060 A 
BRANCH  92  93
ATOM     93  S   UNL A   1      39.080  36.840  40.564  1.00  0.00     0.124 S 
ATOM     94  O   UNL A   1      38.148  36.123  41.427  1.00  0.00    -0.237 OA
ATOM     95  O   UNL A   1      40.442  36.974  41.070  1.00  0.00    -0.237 OA
ATOM     96  O   UNL A   1      38.542  38.031  39.912  1.00  0.00    -0.744 OA
ENDBRANCH  92  93
ENDBRANCH  60  85
ENDBRANCH  34  35
ENDBRANCH  26  29
ENDBRANCH  24  25
ENDBRANCH  23  24
ENDBRANCH   1  23
TORSDOF 18
ENDMDL
MODEL 3
REMARK VINA RESULT:     -11.3      6.935     12.738
REMARK SMILES O=C(/C=C/c1cc(F)cc(COCc2ccco2)c1)NCCCNC(=O)c1ccc(-c2c3nc(c(-c4c(F)cc(S(=O)(=O)[O-])cc4F)c4ccc([nH]4)c(-c4c(F)cc(S(=O)(=O)[O-])cc4F)c4nc(c(-c5c(F)cc(S(=O)(=O)[O-])cc5F)c5ccc2[nH]5)C=C4)C=C3)cc1
REMARK SMILES IDX 21 1 20 2 1 3 2 4 3 6 4 7 5 8 6 9 19 10 7 11 10 12 8 13 9 14
REMARK SMILES IDX 11 15 12 16 13 17 14 18 15 19 18 20 16 21 17 22 22 23 23 24
REMARK SMILES IDX 24 25 25 26 26 28 27 29 28 30 92 31 29 32 91 33 30 34 31 35
REMARK SMILES IDX 32 36 85 37 33 38 90 39 84 40 86 41 34 42 89 43 83 44 82 45
REMARK SMILES IDX 35 47 69 48 48 49 68 50 49 51 52 52 67 53 87 54 50 55 51 56
REMARK SMILES IDX 66 58 88 59 53 60 36 61 37 62 46 63 38 64 39 65 45 66 47 67
REMARK SMILES IDX 40 68 41 69 42 70 43 71 44 72 70 73 71 74 80 75 72 76 73 77
REMARK SMILES IDX 79 78 81 79 74 80 75 81 76 82 77 83 78 84 54 85 55 86 64 87
REMARK SMILES IDX 56 88 57 89 63 90 65 91 58 92 59 93 60 94 61 95 62 96
REMARK H PARENT 20 5 24 27 86 46 52 57
REMARK Flexibility Score: inf
ROOT
ATOM      1  C   UNL A   1      35.451  32.211  27.741  1.00  0.00     0.118 C 
ENDROOT
BRANCH   1   2
ATOM      2  N   UNL A   1      34.469  31.210  27.367  1.00  0.00    -0.352 N 
ATOM      3  O   UNL A   1      35.823  29.398  27.754  1.00  0.00    -0.270 OA
ATOM      4  C   UNL A   1      34.741  29.870  27.413  1.00  0.00     0.244 C 
ATOM      5  H   UNL A   1      33.577  31.504  27.071  1.00  0.00     0.163 HD
BRANCH   4   6
ATOM      6  C   UNL A   1      33.635  28.940  27.064  1.00  0.00     0.072 C 
ATOM      7  C   UNL A   1      33.615  28.025  26.082  1.00  0.00     0.014 C 
BRANCH   7   8
ATOM      8  C   UNL A   1      32.475  27.118  25.875  1.00  0.00    -0.022 A 
ATOM      9  C   UNL A   1      32.321  25.926  26.587  1.00  0.00     0.047 A 
ATOM     10  C   UNL A   1      31.499  27.474  24.935  1.00  0.00     0.014 A 
ATOM     11  C   UNL A   1      31.235  25.097  26.322  1.00  0.00     0.124 A 
ATOM     12  C   UNL A   1      30.413  26.628  24.650  1.00  0.00    -0.019 A 
ATOM     13  F   UNL A   1      31.103  23.951  27.004  1.00  0.00    -0.207 F 
ATOM     14  C   UNL A   1      30.289  25.427  25.356  1.00  0.00     0.045 A 
BRANCH  12  15
ATOM     15  C   UNL A   1      29.434  26.983  23.557  1.00  0.00     0.196 C 
BRANCH  15  16
ATOM     16  O   UNL A   1      29.223  28.381  23.376  1.00  0.00    -0.369 OA
BRANCH  16  17
ATOM     17  C   UNL A   1      27.924  28.798  22.947  1.00  0.00     0.235 C 
BRANCH  17  18
ATOM     18  C   UNL A   1      27.922  30.187  22.411  1.00  0.00     0.129 A 
ATOM     19  C   UNL A   1      27.928  31.454  22.961  1.00  0.00     0.048 A 
ATOM     20  O   UNL A   1      28.030  30.290  21.050  1.00  0.00    -0.467 OA
ATOM     21  C   UNL A   1      28.046  32.370  21.889  1.00  0.00     0.042 A 
ATOM     22  C   UNL A   1      28.102  31.611  20.747  1.00  0.00     0.195 A 
ENDBRANCH  17  18
ENDBRANCH  16  17
ENDBRANCH  15  16
ENDBRANCH  12  15
ENDBRANCH   7   8
ENDBRANCH   4   6
ENDBRANCH   1   2
BRANCH   1  23
ATOM     23  C   UNL A   1      35.138  32.888  29.072  1.00  0.00     0.042 C 
BRANCH  23  24
ATOM     24  C   UNL A   1      36.228  32.761  30.133  1.00  0.00     0.118 C 
BRANCH  24  25
ATOM     25  N   UNL A   1      35.984  31.691  31.090  1.00  0.00    -0.352 N 
ATOM     26  C   UNL A   1      36.731  30.579  31.394  1.00  0.00     0.251 C 
ATOM     27  H   UNL A   1      35.148  31.779  31.602  1.00  0.00     0.163 HD
ATOM     28  O   UNL A   1      36.260  29.740  32.163  1.00  0.00    -0.269 OA
BRANCH  26  29
ATOM     29  C   UNL A   1      38.068  30.360  30.797  1.00  0.00     0.039 A 
ATOM     30  C   UNL A   1      39.150  30.131  31.653  1.00  0.00     0.014 A 
ATOM     31  C   UNL A   1      38.277  30.400  29.415  1.00  0.00     0.014 A 
ATOM     32  C   UNL A   1      40.418  29.871  31.123  1.00  0.00     0.010 A 
ATOM     33  C   UNL A   1      39.527  30.070  28.887  1.00  0.00     0.010 A 
ATOM     34  C   UNL A   1      40.610  29.794  29.734  1.00  0.00    -0.014 A 
BRANCH  34  35
ATOM     35  C   UNL A   1      41.924  29.386  29.166  1.00  0.00     0.031 A 
ATOM     36  C   UNL A   1      43.060  30.367  29.055  1.00  0.00     0.074 A 
ATOM     37  C   UNL A   1      42.080  28.126  28.709  1.00  0.00     0.049 A 
ATOM     38  N   UNL A   1      44.259  30.187  28.565  1.00  0.00    -0.248 NA
ATOM     39  C   UNL A   1      42.811  31.735  29.538  1.00  0.00     0.031 C 
ATOM     40  C   UNL A   1      41.043  27.091  28.717  1.00  0.00     0.029 A 
ATOM     41  N   UNL A   1      43.167  27.499  28.152  1.00  0.00    -0.354 N 
ATOM     42  C   UNL A   1      44.908  31.410  28.680  1.00  0.00     0.074 A 
ATOM     43  C   UNL A   1      43.950  32.342  29.234  1.00  0.00     0.031 C 
ATOM     44  C   UNL A   1      41.554  25.952  28.227  1.00  0.00     0.029 A 
ATOM     45  C   UNL A   1      42.939  26.181  27.829  1.00  0.00     0.049 A 
ATOM     46  H   UNL A   1      44.029  27.949  27.998  1.00  0.00     0.167 HD
ATOM     47  C   UNL A   1      46.192  31.721  28.376  1.00  0.00     0.037 A 
ATOM     48  C   UNL A   1      43.749  25.258  27.273  1.00  0.00     0.037 A 
ATOM     49  C   UNL A   1      47.148  30.786  27.840  1.00  0.00     0.049 A 
ATOM     50  C   UNL A   1      45.163  25.634  26.926  1.00  0.00     0.074 A 
ATOM     51  C   UNL A   1      48.485  30.997  27.547  1.00  0.00     0.029 A 
ATOM     52  N   UNL A   1      46.874  29.466  27.513  1.00  0.00    -0.354 N 
ATOM     53  N   UNL A   1      45.773  26.783  27.092  1.00  0.00    -0.248 NA
ATOM     54  C   UNL A   1      45.998  24.590  26.318  1.00  0.00     0.031 C 
ATOM     55  C   UNL A   1      49.005  29.822  26.997  1.00  0.00     0.029 A 
ATOM     56  C   UNL A   1      48.009  28.860  26.996  1.00  0.00     0.049 A 
ATOM     57  H   UNL A   1      46.003  29.024  27.631  1.00  0.00     0.167 HD
ATOM     58  C   UNL A   1      47.069  26.596  26.623  1.00  0.00     0.074 A 
ATOM     59  C   UNL A   1      47.161  25.217  26.191  1.00  0.00     0.031 C 
ATOM     60  C   UNL A   1      48.089  27.488  26.555  1.00  0.00     0.037 A 
BRANCH  47  61
ATOM     61  C   UNL A   1      46.655  33.132  28.631  1.00  0.00     0.058 A 
ATOM     62  C   UNL A   1      47.154  33.507  29.888  1.00  0.00     0.135 A 
ATOM     63  C   UNL A   1      46.534  34.132  27.652  1.00  0.00     0.135 A 
ATOM     64  F   UNL A   1      47.296  32.592  30.861  1.00  0.00    -0.206 F 
ATOM     65  C   UNL A   1      47.501  34.825  30.172  1.00  0.00     0.059 A 
ATOM     66  C   UNL A   1      46.902  35.451  27.904  1.00  0.00     0.059 A 
ATOM     67  F   UNL A   1      46.081  33.826  26.425  1.00  0.00    -0.206 F 
ATOM     68  C   UNL A   1      47.371  35.790  29.173  1.00  0.00     0.060 A 
BRANCH  68  69
ATOM     69  S   UNL A   1      47.850  37.489  29.548  1.00  0.00     0.124 S 
ATOM     70  O   UNL A   1      47.629  38.154  28.269  1.00  0.00    -0.237 OA
ATOM     71  O   UNL A   1      46.919  37.838  30.617  1.00  0.00    -0.237 OA
ATOM     72  O   UNL A   1      49.245  37.365  29.961  1.00  0.00    -0.744 OA
ENDBRANCH  68  69
ENDBRANCH  47  61
BRANCH  48  73
ATOM     73  C   UNL A   1      43.243  23.878  27.040  1.00  0.00     0.058 A 
ATOM     74  C   UNL A   1      43.090  22.967  28.097  1.00  0.00     0.135 A 
ATOM     75  C   UNL A   1      42.941  23.432  25.744  1.00  0.00     0.135 A 
ATOM     76  F   UNL A   1      43.374  23.340  29.355  1.00  0.00    -0.206 F 
ATOM     77  C   UNL A   1      42.685  21.656  27.875  1.00  0.00     0.059 A 
ATOM     78  C   UNL A   1      42.506  22.132  25.500  1.00  0.00     0.059 A 
ATOM     79  F   UNL A   1      43.059  24.270  24.703  1.00  0.00    -0.206 F 
ATOM     80  C   UNL A   1      42.400  21.246  26.572  1.00  0.00     0.060 A 
BRANCH  80  81
ATOM     81  S   UNL A   1      41.896  19.533  26.304  1.00  0.00     0.124 S 
ATOM     82  O   UNL A   1      42.394  18.891  27.517  1.00  0.00    -0.237 OA
ATOM     83  O   UNL A   1      40.447  19.654  26.199  1.00  0.00    -0.237 OA
ATOM     84  O   UNL A   1      42.586  19.166  25.071  1.00  0.00    -0.744 OA
ENDBRANCH  80  81
ENDBRANCH  48  73
BRANCH  60  85
ATOM     85  C   UNL A   1      49.397  27.005  25.991  1.00  0.00     0.058 A 
ATOM     86  C   UNL A   1      50.369  26.430  26.826  1.00  0.00     0.135 A 
ATOM     87  C   UNL A   1      49.713  27.158  24.631  1.00  0.00     0.135 A 
ATOM     88  F   UNL A   1      50.125  26.267  28.137  1.00  0.00    -0.206 F 
ATOM     89  C   UNL A   1      51.608  26.033  26.337  1.00  0.00     0.059 A 
ATOM     90  C   UNL A   1      50.935  26.740  24.113  1.00  0.00     0.059 A 
ATOM     91  F   UNL A   1      48.816  27.692  23.787  1.00  0.00    -0.206 F 
ATOM     92  C   UNL A   1      51.881  26.190  24.976  1.00  0.00     0.060 A 
BRANCH  92  93
ATOM     93  S   UNL A   1      53.481  25.634  24.351  1.00  0.00     0.124 S 
ATOM     94  O   UNL A   1      53.534  24.261  24.840  1.00  0.00    -0.237 OA
ATOM     95  O   UNL A   1      53.320  25.791  22.909  1.00  0.00    -0.237 OA
ATOM     96  O   UNL A   1      54.427  26.558  24.972  1.00  0.00    -0.744 OA
ENDBRANCH  92  93
ENDBRANCH  60  85
ENDBRANCH  34  35
ENDBRANCH  26  29
ENDBRANCH  24  25
ENDBRANCH  23  24
ENDBRANCH   1  23
TORSDOF 18
ENDMDL
