MODEL 1
REMARK VINA RESULT:     -14.8      0.000      0.000
REMARK SMILES COc1cc(Cl)c(C)cc1N1C(=O)C[C@H](Nc2cc(C(=O)NCCCNC(=O)c3ccc(-c4c5nc(c(-c6c(F)cc(S(=O)(=O)[O-])cc6F)c6ccc([nH]6)c(-c6c(F)cc(S(=O)(=O)[O-])cc6F)c6nc(c(-c7c(F)cc(S(=O)(=O)[O-])cc7F)c7ccc4[nH]7)C=C6)C=C5)cc3)ccc2C)C1=O
REMARK SMILES IDX 23 1 22 2 20 3 21 4 19 6 17 7 18 8 97 9 96 10 98 11 95 12
REMARK SMILES IDX 16 13 15 15 11 16 12 17 99 18 13 19 14 20 100 21 10 22 3 23
REMARK SMILES IDX 4 24 5 25 9 26 6 27 7 28 8 29 2 30 1 31 24 32 25 33 26 34
REMARK SMILES IDX 27 35 28 37 29 38 30 39 94 40 31 41 93 42 32 43 33 44 34 45
REMARK SMILES IDX 87 46 35 47 92 48 86 49 88 50 36 51 91 52 85 53 84 54 37 56
REMARK SMILES IDX 71 57 50 58 70 59 51 60 54 61 69 62 89 63 52 64 53 65 68 67
REMARK SMILES IDX 90 68 55 69 38 70 39 71 48 72 40 73 41 74 47 75 49 76 42 77
REMARK SMILES IDX 43 78 44 79 45 80 46 81 72 82 73 83 82 84 74 85 75 86 81 87
REMARK SMILES IDX 83 88 76 89 77 90 78 91 79 92 80 93 56 94 57 95 66 96 58 97
REMARK SMILES IDX 59 98 65 99 67 100 60 101 61 102 62 103 63 104 64 105
REMARK H PARENT 22 5 16 14 26 36 88 55 54 66
REMARK Flexibility Score: inf
ROOT
ATOM      1  C   UNL A   1      32.808  30.445  25.950  1.00  0.00     0.118 C 
ENDROOT
BRANCH   1   2
ATOM      2  N   UNL A   1      33.368  29.827  24.754  1.00  0.00    -0.352 N 
ATOM      3  C   UNL A   1      32.886  28.920  23.843  1.00  0.00     0.251 C 
ATOM      4  O   UNL A   1      33.584  28.692  22.852  1.00  0.00    -0.269 OA
ATOM      5  H   UNL A   1      34.287  30.123  24.558  1.00  0.00     0.163 HD
BRANCH   3   6
ATOM      6  C   UNL A   1      31.578  28.201  23.960  1.00  0.00     0.041 A 
ATOM      7  C   UNL A   1      30.131  26.370  24.717  1.00  0.00     0.038 A 
ATOM      8  C   UNL A   1      31.382  27.006  24.650  1.00  0.00     0.039 A 
ATOM      9  C   UNL A   1      29.057  26.891  23.986  1.00  0.00    -0.028 A 
ATOM     10  C   UNL A   1      29.240  28.086  23.276  1.00  0.00     0.006 A 
ATOM     11  C   UNL A   1      27.708  26.230  23.952  1.00  0.00     0.046 C 
ATOM     12  C   UNL A   1      30.480  28.734  23.271  1.00  0.00     0.014 A 
BRANCH   7  13
ATOM     13  N   UNL A   1      30.014  25.159  25.412  1.00  0.00    -0.373 N 
ATOM     14  H   UNL A   1      29.549  25.100  26.278  1.00  0.00     0.161 HD
BRANCH  13  15
ATOM     15  C   UNL A   1      30.623  23.983  24.775  1.00  0.00     0.179 C 
ATOM     16  N   UNL A   1      32.823  23.309  24.396  1.00  0.00    -0.245 N 
ATOM     17  C   UNL A   1      32.382  23.761  23.183  1.00  0.00     0.236 C 
ATOM     18  C   UNL A   1      31.951  23.619  25.408  1.00  0.00     0.256 C 
ATOM     19  O   UNL A   1      32.982  23.764  22.117  1.00  0.00    -0.274 OA
ATOM     20  C   UNL A   1      30.989  24.294  23.335  1.00  0.00     0.136 C 
ATOM     21  O   UNL A   1      32.196  23.729  26.603  1.00  0.00    -0.272 OA
BRANCH  16  22
ATOM     22  C   UNL A   1      34.087  22.735  24.631  1.00  0.00     0.094 A 
ATOM     23  C   UNL A   1      34.255  21.344  24.583  1.00  0.00     0.144 A 
ATOM     24  C   UNL A   1      35.495  20.765  24.852  1.00  0.00     0.069 A 
ATOM     25  C   UNL A   1      36.583  21.578  25.173  1.00  0.00     0.047 A 
ATOM     26  C   UNL A   1      35.190  23.545  24.926  1.00  0.00     0.035 A 
ATOM     27  Cl  UNL A   1      38.106  20.822  25.477  1.00  0.00    -0.084 Cl
ATOM     28  C   UNL A   1      36.438  22.975  25.238  1.00  0.00    -0.030 A 
ATOM     29  C   UNL A   1      37.571  23.872  25.654  1.00  0.00     0.046 C 
BRANCH  23  30
ATOM     30  O   UNL A   1      33.215  20.509  24.267  1.00  0.00    -0.495 OA
ATOM     31  C   UNL A   1      32.968  19.561  25.308  1.00  0.00     0.278 C 
ENDBRANCH  23  30
ENDBRANCH  16  22
ENDBRANCH  13  15
ENDBRANCH   7  13
ENDBRANCH   3   6
ENDBRANCH   1   2
BRANCH   1  32
ATOM     32  C   UNL A   1      32.955  29.565  27.193  1.00  0.00     0.042 C 
BRANCH  32  33
ATOM     33  C   UNL A   1      34.382  29.479  27.708  1.00  0.00     0.118 C 
BRANCH  33  34
ATOM     34  N   UNL A   1      34.790  30.646  28.485  1.00  0.00    -0.352 N 
ATOM     35  C   UNL A   1      35.981  30.816  29.171  1.00  0.00     0.251 C 
ATOM     36  H   UNL A   1      34.150  31.393  28.523  1.00  0.00     0.163 HD
ATOM     37  O   UNL A   1      36.223  31.814  29.820  1.00  0.00    -0.269 OA
BRANCH  35  38
ATOM     38  C   UNL A   1      36.961  29.712  29.070  1.00  0.00     0.039 A 
ATOM     39  C   UNL A   1      37.258  28.965  30.214  1.00  0.00     0.014 A 
ATOM     40  C   UNL A   1      37.739  29.610  27.918  1.00  0.00     0.014 A 
ATOM     41  C   UNL A   1      38.439  28.221  30.250  1.00  0.00     0.010 A 
ATOM     42  C   UNL A   1      38.945  28.937  27.988  1.00  0.00     0.010 A 
ATOM     43  C   UNL A   1      39.318  28.268  29.163  1.00  0.00    -0.014 A 
BRANCH  43  44
ATOM     44  C   UNL A   1      40.687  27.752  29.205  1.00  0.00     0.031 A 
ATOM     45  C   UNL A   1      41.025  26.414  28.655  1.00  0.00     0.074 A 
ATOM     46  C   UNL A   1      41.695  28.493  29.718  1.00  0.00     0.049 A 
ATOM     47  N   UNL A   1      42.052  25.721  29.031  1.00  0.00    -0.248 NA
ATOM     48  C   UNL A   1      40.209  25.731  27.657  1.00  0.00     0.031 C 
ATOM     49  C   UNL A   1      43.126  28.257  29.544  1.00  0.00     0.029 A 
ATOM     50  N   UNL A   1      41.633  29.506  30.667  1.00  0.00    -0.354 N 
ATOM     51  C   UNL A   1      42.175  24.648  28.182  1.00  0.00     0.074 A 
ATOM     52  C   UNL A   1      40.978  24.673  27.370  1.00  0.00     0.031 C 
ATOM     53  C   UNL A   1      43.798  28.909  30.502  1.00  0.00     0.029 A 
ATOM     54  C   UNL A   1      42.827  29.488  31.409  1.00  0.00     0.049 A 
ATOM     55  H   UNL A   1      40.882  30.129  30.797  1.00  0.00     0.167 HD
ATOM     56  C   UNL A   1      43.319  23.904  28.170  1.00  0.00     0.037 A 
ATOM     57  C   UNL A   1      42.821  29.321  32.765  1.00  0.00     0.037 A 
ATOM     58  C   UNL A   1      44.312  24.390  29.123  1.00  0.00     0.049 A 
ATOM     59  C   UNL A   1      43.510  28.064  33.257  1.00  0.00     0.074 A 
ATOM     60  C   UNL A   1      45.433  25.197  29.017  1.00  0.00     0.029 A 
ATOM     61  N   UNL A   1      44.076  24.242  30.475  1.00  0.00    -0.354 N 
ATOM     62  N   UNL A   1      44.106  27.197  32.488  1.00  0.00    -0.248 NA
ATOM     63  C   UNL A   1      43.489  27.639  34.660  1.00  0.00     0.031 C 
ATOM     64  C   UNL A   1      45.878  25.520  30.328  1.00  0.00     0.029 A 
ATOM     65  C   UNL A   1      45.017  24.921  31.226  1.00  0.00     0.049 A 
ATOM     66  H   UNL A   1      43.334  23.717  30.855  1.00  0.00     0.167 HD
ATOM     67  C   UNL A   1      44.420  26.085  33.228  1.00  0.00     0.074 A 
ATOM     68  C   UNL A   1      44.059  26.425  34.589  1.00  0.00     0.031 C 
ATOM     69  C   UNL A   1      44.885  24.934  32.670  1.00  0.00     0.037 A 
BRANCH  56  70
ATOM     70  C   UNL A   1      43.619  22.864  27.118  1.00  0.00     0.058 A 
ATOM     71  C   UNL A   1      42.901  21.651  27.070  1.00  0.00     0.135 A 
ATOM     72  C   UNL A   1      44.627  22.998  26.144  1.00  0.00     0.135 A 
ATOM     73  F   UNL A   1      41.851  21.423  27.871  1.00  0.00    -0.206 F 
ATOM     74  C   UNL A   1      43.239  20.605  26.215  1.00  0.00     0.059 A 
ATOM     75  C   UNL A   1      45.024  21.945  25.315  1.00  0.00     0.059 A 
ATOM     76  F   UNL A   1      45.250  24.171  25.951  1.00  0.00    -0.206 F 
ATOM     77  C   UNL A   1      44.333  20.742  25.371  1.00  0.00     0.060 A 
BRANCH  77  78
ATOM     78  S   UNL A   1      44.848  19.320  24.390  1.00  0.00     0.124 S 
ATOM     79  O   UNL A   1      44.044  18.243  24.961  1.00  0.00    -0.237 OA
ATOM     80  O   UNL A   1      44.486  19.735  23.040  1.00  0.00    -0.237 OA
ATOM     81  O   UNL A   1      46.281  19.227  24.658  1.00  0.00    -0.744 OA
ENDBRANCH  77  78
ENDBRANCH  56  70
BRANCH  57  82
ATOM     82  C   UNL A   1      41.650  29.957  33.419  1.00  0.00     0.058 A 
ATOM     83  C   UNL A   1      41.712  31.342  33.659  1.00  0.00     0.135 A 
ATOM     84  C   UNL A   1      40.390  29.347  33.402  1.00  0.00     0.135 A 
ATOM     85  F   UNL A   1      42.899  31.968  33.696  1.00  0.00    -0.206 F 
ATOM     86  C   UNL A   1      40.563  32.119  33.713  1.00  0.00     0.059 A 
ATOM     87  C   UNL A   1      39.223  30.107  33.461  1.00  0.00     0.059 A 
ATOM     88  F   UNL A   1      40.277  28.030  33.179  1.00  0.00    -0.206 F 
ATOM     89  C   UNL A   1      39.327  31.498  33.544  1.00  0.00     0.060 A 
BRANCH  89  90
ATOM     90  S   UNL A   1      37.899  32.557  33.219  1.00  0.00     0.124 S 
ATOM     91  O   UNL A   1      37.908  33.444  34.378  1.00  0.00    -0.237 OA
ATOM     92  O   UNL A   1      38.281  33.175  31.950  1.00  0.00    -0.237 OA
ATOM     93  O   UNL A   1      36.791  31.612  33.152  1.00  0.00    -0.744 OA
ENDBRANCH  89  90
ENDBRANCH  57  82
BRANCH  69  94
ATOM     94  C   UNL A   1      45.235  23.716  33.469  1.00  0.00     0.058 A 
ATOM     95  C   UNL A   1      44.266  22.769  33.837  1.00  0.00     0.135 A 
ATOM     96  C   UNL A   1      46.528  23.535  34.000  1.00  0.00     0.135 A 
ATOM     97  F   UNL A   1      43.001  22.882  33.402  1.00  0.00    -0.206 F 
ATOM     98  C   UNL A   1      44.566  21.692  34.671  1.00  0.00     0.059 A 
ATOM     99  C   UNL A   1      46.841  22.491  34.865  1.00  0.00     0.059 A 
ATOM    100  F   UNL A   1      47.533  24.360  33.669  1.00  0.00    -0.206 F 
ATOM    101  C   UNL A   1      45.856  21.564  35.185  1.00  0.00     0.060 A 
BRANCH 101 102
ATOM    102  S   UNL A   1      46.240  20.200  36.301  1.00  0.00     0.124 S 
ATOM    103  O   UNL A   1      45.702  20.665  37.577  1.00  0.00    -0.237 OA
ATOM    104  O   UNL A   1      45.514  19.099  35.677  1.00  0.00    -0.237 OA
ATOM    105  O   UNL A   1      47.695  20.114  36.238  1.00  0.00    -0.744 OA
ENDBRANCH 101 102
ENDBRANCH  69  94
ENDBRANCH  43  44
ENDBRANCH  35  38
ENDBRANCH  33  34
ENDBRANCH  32  33
ENDBRANCH   1  32
TORSDOF 17
ENDMDL
MODEL 2
REMARK VINA RESULT:     -14.4      4.656     11.244
REMARK SMILES COc1cc(Cl)c(C)cc1N1C(=O)C[C@H](Nc2cc(C(=O)NCCCNC(=O)c3ccc(-c4c5nc(c(-c6c(F)cc(S(=O)(=O)[O-])cc6F)c6ccc([nH]6)c(-c6c(F)cc(S(=O)(=O)[O-])cc6F)c6nc(c(-c7c(F)cc(S(=O)(=O)[O-])cc7F)c7ccc4[nH]7)C=C6)C=C5)cc3)ccc2C)C1=O
REMARK SMILES IDX 23 1 22 2 20 3 21 4 19 6 17 7 18 8 97 9 96 10 98 11 95 12
REMARK SMILES IDX 16 13 15 15 11 16 12 17 99 18 13 19 14 20 100 21 10 22 3 23
REMARK SMILES IDX 4 24 5 25 9 26 6 27 7 28 8 29 2 30 1 31 24 32 25 33 26 34
REMARK SMILES IDX 27 35 28 37 29 38 30 39 94 40 31 41 93 42 32 43 33 44 34 45
REMARK SMILES IDX 87 46 35 47 92 48 86 49 88 50 36 51 91 52 85 53 84 54 37 56
REMARK SMILES IDX 71 57 50 58 70 59 51 60 54 61 69 62 89 63 52 64 53 65 68 67
REMARK SMILES IDX 90 68 55 69 38 70 39 71 48 72 40 73 41 74 47 75 49 76 42 77
REMARK SMILES IDX 43 78 44 79 45 80 46 81 72 82 73 83 82 84 74 85 75 86 81 87
REMARK SMILES IDX 83 88 76 89 77 90 78 91 79 92 80 93 56 94 57 95 66 96 58 97
REMARK SMILES IDX 59 98 65 99 67 100 60 101 61 102 62 103 63 104 64 105
REMARK H PARENT 22 5 16 14 26 36 88 55 54 66
REMARK Flexibility Score: inf
ROOT
ATOM      1  C   UNL A   1      37.016  21.404  25.562  1.00  0.00     0.118 C 
ENDROOT
BRANCH   1   2
ATOM      2  N   UNL A   1      35.903  21.522  26.497  1.00  0.00    -0.352 N 
ATOM      3  C   UNL A   1      34.539  21.453  26.358  1.00  0.00     0.251 C 
ATOM      4  O   UNL A   1      33.866  21.472  27.392  1.00  0.00    -0.269 OA
ATOM      5  H   UNL A   1      36.192  21.686  27.425  1.00  0.00     0.163 HD
BRANCH   3   6
ATOM      6  C   UNL A   1      33.815  21.348  25.053  1.00  0.00     0.041 A 
ATOM      7  C   UNL A   1      32.901  22.246  22.961  1.00  0.00     0.038 A 
ATOM      8  C   UNL A   1      33.599  22.404  24.171  1.00  0.00     0.039 A 
ATOM      9  C   UNL A   1      32.310  21.012  22.666  1.00  0.00    -0.028 A 
ATOM     10  C   UNL A   1      32.507  19.941  23.549  1.00  0.00     0.006 A 
ATOM     11  C   UNL A   1      31.491  20.785  21.427  1.00  0.00     0.046 C 
ATOM     12  C   UNL A   1      33.255  20.106  24.720  1.00  0.00     0.014 A 
BRANCH   7  13
ATOM     13  N   UNL A   1      32.704  23.359  22.133  1.00  0.00    -0.373 N 
ATOM     14  H   UNL A   1      33.193  23.469  21.285  1.00  0.00     0.161 HD
BRANCH  13  15
ATOM     15  C   UNL A   1      31.728  24.353  22.601  1.00  0.00     0.179 C 
ATOM     16  N   UNL A   1      31.752  25.979  24.273  1.00  0.00    -0.245 N 
ATOM     17  C   UNL A   1      30.993  24.963  24.784  1.00  0.00     0.236 C 
ATOM     18  C   UNL A   1      32.399  25.608  23.122  1.00  0.00     0.256 C 
ATOM     19  O   UNL A   1      30.406  24.928  25.857  1.00  0.00    -0.274 OA
ATOM     20  C   UNL A   1      30.977  23.824  23.810  1.00  0.00     0.136 C 
ATOM     21  O   UNL A   1      33.419  26.089  22.646  1.00  0.00    -0.272 OA
BRANCH  16  22
ATOM     22  C   UNL A   1      31.986  27.211  24.912  1.00  0.00     0.094 A 
ATOM     23  C   UNL A   1      31.153  28.311  24.662  1.00  0.00     0.144 A 
ATOM     24  C   UNL A   1      31.399  29.546  25.261  1.00  0.00     0.069 A 
ATOM     25  C   UNL A   1      32.489  29.691  26.121  1.00  0.00     0.047 A 
ATOM     26  C   UNL A   1      33.060  27.358  25.798  1.00  0.00     0.035 A 
ATOM     27  Cl  UNL A   1      32.745  31.231  26.860  1.00  0.00    -0.084 Cl
ATOM     28  C   UNL A   1      33.346  28.607  26.380  1.00  0.00    -0.030 A 
ATOM     29  C   UNL A   1      34.570  28.751  27.242  1.00  0.00     0.046 C 
BRANCH  23  30
ATOM     30  O   UNL A   1      30.068  28.210  23.828  1.00  0.00    -0.495 OA
ATOM     31  C   UNL A   1      29.889  29.400  23.055  1.00  0.00     0.278 C 
ENDBRANCH  23  30
ENDBRANCH  16  22
ENDBRANCH  13  15
ENDBRANCH   7  13
ENDBRANCH   3   6
ENDBRANCH   1   2
BRANCH   1  32
ATOM     32  C   UNL A   1      37.399  22.744  24.928  1.00  0.00     0.042 C 
BRANCH  32  33
ATOM     33  C   UNL A   1      38.087  23.695  25.893  1.00  0.00     0.118 C 
BRANCH  33  34
ATOM     34  N   UNL A   1      39.470  23.327  26.183  1.00  0.00    -0.352 N 
ATOM     35  C   UNL A   1      40.441  24.123  26.769  1.00  0.00     0.251 C 
ATOM     36  H   UNL A   1      39.742  22.413  25.936  1.00  0.00     0.163 HD
ATOM     37  O   UNL A   1      41.580  23.740  26.943  1.00  0.00    -0.269 OA
BRANCH  35  38
ATOM     38  C   UNL A   1      40.015  25.478  27.182  1.00  0.00     0.039 A 
ATOM     39  C   UNL A   1      40.525  26.585  26.498  1.00  0.00     0.014 A 
ATOM     40  C   UNL A   1      39.329  25.626  28.386  1.00  0.00     0.014 A 
ATOM     41  C   UNL A   1      40.476  27.841  27.107  1.00  0.00     0.010 A 
ATOM     42  C   UNL A   1      39.354  26.856  29.020  1.00  0.00     0.010 A 
ATOM     43  C   UNL A   1      39.956  27.961  28.400  1.00  0.00    -0.014 A 
BRANCH  43  44
ATOM     44  C   UNL A   1      40.102  29.162  29.224  1.00  0.00     0.031 A 
ATOM     45  C   UNL A   1      39.011  30.166  29.325  1.00  0.00     0.074 A 
ATOM     46  C   UNL A   1      41.225  29.380  29.945  1.00  0.00     0.049 A 
ATOM     47  N   UNL A   1      39.203  31.406  29.643  1.00  0.00    -0.248 NA
ATOM     48  C   UNL A   1      37.613  29.858  29.042  1.00  0.00     0.031 C 
ATOM     49  C   UNL A   1      41.388  30.339  31.034  1.00  0.00     0.029 A 
ATOM     50  N   UNL A   1      42.511  28.910  29.712  1.00  0.00    -0.354 N 
ATOM     51  C   UNL A   1      37.975  31.989  29.844  1.00  0.00     0.074 A 
ATOM     52  C   UNL A   1      37.014  30.996  29.414  1.00  0.00     0.031 C 
ATOM     53  C   UNL A   1      42.695  30.572  31.221  1.00  0.00     0.029 A 
ATOM     54  C   UNL A   1      43.423  29.872  30.181  1.00  0.00     0.049 A 
ATOM     55  H   UNL A   1      42.745  28.051  29.291  1.00  0.00     0.167 HD
ATOM     56  C   UNL A   1      37.880  33.207  30.451  1.00  0.00     0.037 A 
ATOM     57  C   UNL A   1      44.349  30.441  29.352  1.00  0.00     0.037 A 
ATOM     58  C   UNL A   1      39.182  33.749  30.825  1.00  0.00     0.049 A 
ATOM     59  C   UNL A   1      44.199  31.935  29.156  1.00  0.00     0.074 A 
ATOM     60  C   UNL A   1      39.911  33.780  32.003  1.00  0.00     0.029 A 
ATOM     61  N   UNL A   1      40.047  34.167  29.833  1.00  0.00    -0.354 N 
ATOM     62  N   UNL A   1      43.294  32.672  29.738  1.00  0.00    -0.248 NA
ATOM     63  C   UNL A   1      45.006  32.701  28.201  1.00  0.00     0.031 C 
ATOM     64  C   UNL A   1      41.223  34.237  31.707  1.00  0.00     0.029 A 
ATOM     65  C   UNL A   1      41.294  34.469  30.347  1.00  0.00     0.049 A 
ATOM     66  H   UNL A   1      39.805  34.242  28.881  1.00  0.00     0.167 HD
ATOM     67  C   UNL A   1      43.303  33.921  29.171  1.00  0.00     0.074 A 
ATOM     68  C   UNL A   1      44.419  33.908  28.249  1.00  0.00     0.031 C 
ATOM     69  C   UNL A   1      42.353  34.859  29.437  1.00  0.00     0.037 A 
BRANCH  56  70
ATOM     70  C   UNL A   1      36.572  33.802  30.911  1.00  0.00     0.058 A 
ATOM     71  C   UNL A   1      35.589  34.201  29.982  1.00  0.00     0.135 A 
ATOM     72  C   UNL A   1      36.242  34.030  32.261  1.00  0.00     0.135 A 
ATOM     73  F   UNL A   1      35.721  33.960  28.671  1.00  0.00    -0.206 F 
ATOM     74  C   UNL A   1      34.434  34.888  30.350  1.00  0.00     0.059 A 
ATOM     75  C   UNL A   1      35.120  34.766  32.653  1.00  0.00     0.059 A 
ATOM     76  F   UNL A   1      36.994  33.523  33.251  1.00  0.00    -0.206 F 
ATOM     77  C   UNL A   1      34.228  35.208  31.685  1.00  0.00     0.060 A 
BRANCH  77  78
ATOM     78  S   UNL A   1      32.810  36.232  32.118  1.00  0.00     0.124 S 
ATOM     79  O   UNL A   1      31.810  35.235  32.489  1.00  0.00    -0.237 OA
ATOM     80  O   UNL A   1      33.340  37.038  33.212  1.00  0.00    -0.237 OA
ATOM     81  O   UNL A   1      32.527  36.957  30.881  1.00  0.00    -0.744 OA
ENDBRANCH  77  78
ENDBRANCH  56  70
BRANCH  57  82
ATOM     82  C   UNL A   1      44.858  29.498  28.325  1.00  0.00     0.058 A 
ATOM     83  C   UNL A   1      45.812  28.547  28.731  1.00  0.00     0.135 A 
ATOM     84  C   UNL A   1      44.142  29.251  27.148  1.00  0.00     0.135 A 
ATOM     85  F   UNL A   1      46.531  28.746  29.847  1.00  0.00    -0.206 F 
ATOM     86  C   UNL A   1      45.931  27.322  28.089  1.00  0.00     0.059 A 
ATOM     87  C   UNL A   1      44.250  28.030  26.483  1.00  0.00     0.059 A 
ATOM     88  F   UNL A   1      43.223  30.128  26.717  1.00  0.00    -0.206 F 
ATOM     89  C   UNL A   1      45.096  27.050  27.007  1.00  0.00     0.060 A 
BRANCH  89  90
ATOM     90  S   UNL A   1      44.985  25.334  26.450  1.00  0.00     0.124 S 
ATOM     91  O   UNL A   1      46.330  25.093  25.939  1.00  0.00    -0.237 OA
ATOM     92  O   UNL A   1      44.653  24.646  27.697  1.00  0.00    -0.237 OA
ATOM     93  O   UNL A   1      43.925  25.375  25.451  1.00  0.00    -0.744 OA
ENDBRANCH  89  90
ENDBRANCH  57  82
BRANCH  69  94
ATOM     94  C   UNL A   1      42.355  36.228  28.827  1.00  0.00     0.058 A 
ATOM     95  C   UNL A   1      41.816  36.470  27.553  1.00  0.00     0.135 A 
ATOM     96  C   UNL A   1      43.018  37.306  29.448  1.00  0.00     0.135 A 
ATOM     97  F   UNL A   1      41.194  35.492  26.877  1.00  0.00    -0.206 F 
ATOM     98  C   UNL A   1      41.912  37.718  26.937  1.00  0.00     0.059 A 
ATOM     99  C   UNL A   1      43.162  38.547  28.836  1.00  0.00     0.059 A 
ATOM    100  F   UNL A   1      43.525  37.185  30.684  1.00  0.00    -0.206 F 
ATOM    101  C   UNL A   1      42.592  38.750  27.584  1.00  0.00     0.060 A 
BRANCH 101 102
ATOM    102  S   UNL A   1      42.762  40.352  26.774  1.00  0.00     0.124 S 
ATOM    103  O   UNL A   1      43.764  40.089  25.744  1.00  0.00    -0.237 OA
ATOM    104  O   UNL A   1      41.405  40.577  26.288  1.00  0.00    -0.237 OA
ATOM    105  O   UNL A   1      43.201  41.229  27.854  1.00  0.00    -0.744 OA
ENDBRANCH 101 102
ENDBRANCH  69  94
ENDBRANCH  43  44
ENDBRANCH  35  38
ENDBRANCH  33  34
ENDBRANCH  32  33
ENDBRANCH   1  32
TORSDOF 17
ENDMDL
MODEL 3
REMARK VINA RESULT:     -13.9      1.436      2.224
REMARK SMILES COc1cc(Cl)c(C)cc1N1C(=O)C[C@H](Nc2cc(C(=O)NCCCNC(=O)c3ccc(-c4c5nc(c(-c6c(F)cc(S(=O)(=O)[O-])cc6F)c6ccc([nH]6)c(-c6c(F)cc(S(=O)(=O)[O-])cc6F)c6nc(c(-c7c(F)cc(S(=O)(=O)[O-])cc7F)c7ccc4[nH]7)C=C6)C=C5)cc3)ccc2C)C1=O
REMARK SMILES IDX 23 1 22 2 20 3 21 4 19 6 17 7 18 8 97 9 96 10 98 11 95 12
REMARK SMILES IDX 16 13 15 15 11 16 12 17 99 18 13 19 14 20 100 21 10 22 3 23
REMARK SMILES IDX 4 24 5 25 9 26 6 27 7 28 8 29 2 30 1 31 24 32 25 33 26 34
REMARK SMILES IDX 27 35 28 37 29 38 30 39 94 40 31 41 93 42 32 43 33 44 34 45
REMARK SMILES IDX 87 46 35 47 92 48 86 49 88 50 36 51 91 52 85 53 84 54 37 56
REMARK SMILES IDX 71 57 50 58 70 59 51 60 54 61 69 62 89 63 52 64 53 65 68 67
REMARK SMILES IDX 90 68 55 69 38 70 39 71 48 72 40 73 41 74 47 75 49 76 42 77
REMARK SMILES IDX 43 78 44 79 45 80 46 81 72 82 73 83 82 84 74 85 75 86 81 87
REMARK SMILES IDX 83 88 76 89 77 90 78 91 79 92 80 93 56 94 57 95 66 96 58 97
REMARK SMILES IDX 59 98 65 99 67 100 60 101 61 102 62 103 63 104 64 105
REMARK H PARENT 22 5 16 14 26 36 88 55 54 66
REMARK Flexibility Score: inf
ROOT
ATOM      1  C   UNL A   1      32.492  30.447  26.424  1.00  0.00     0.118 C 
ENDROOT
BRANCH   1   2
ATOM      2  N   UNL A   1      31.732  29.492  27.222  1.00  0.00    -0.352 N 
ATOM      3  C   UNL A   1      31.419  28.165  27.064  1.00  0.00     0.251 C 
ATOM      4  O   UNL A   1      30.850  27.604  28.004  1.00  0.00    -0.269 OA
ATOM      5  H   UNL A   1      31.366  29.882  28.049  1.00  0.00     0.163 HD
BRANCH   3   6
ATOM      6  C   UNL A   1      31.724  27.351  25.844  1.00  0.00     0.041 A 
ATOM      7  C   UNL A   1      33.195  26.044  24.379  1.00  0.00     0.038 A 
ATOM      8  C   UNL A   1      32.965  26.791  25.547  1.00  0.00     0.039 A 
ATOM      9  C   UNL A   1      32.178  25.935  23.423  1.00  0.00    -0.028 A 
ATOM     10  C   UNL A   1      30.927  26.504  23.701  1.00  0.00     0.006 A 
ATOM     11  C   UNL A   1      32.369  25.212  22.120  1.00  0.00     0.046 C 
ATOM     12  C   UNL A   1      30.703  27.194  24.897  1.00  0.00     0.014 A 
BRANCH   7  13
ATOM     13  N   UNL A   1      34.474  25.528  24.136  1.00  0.00    -0.373 N 
ATOM     14  H   UNL A   1      35.086  25.940  23.483  1.00  0.00     0.161 HD
BRANCH  13  15
ATOM     15  C   UNL A   1      34.852  24.337  24.911  1.00  0.00     0.179 C 
ATOM     16  N   UNL A   1      34.093  22.133  24.958  1.00  0.00    -0.245 N 
ATOM     17  C   UNL A   1      33.554  22.711  26.073  1.00  0.00     0.236 C 
ATOM     18  C   UNL A   1      34.658  23.060  24.119  1.00  0.00     0.256 C 
ATOM     19  O   UNL A   1      32.870  22.184  26.940  1.00  0.00    -0.274 OA
ATOM     20  C   UNL A   1      33.921  24.165  26.098  1.00  0.00     0.136 C 
ATOM     21  O   UNL A   1      34.855  22.961  22.915  1.00  0.00    -0.272 OA
BRANCH  16  22
ATOM     22  C   UNL A   1      33.959  20.775  24.609  1.00  0.00     0.094 A 
ATOM     23  C   UNL A   1      32.795  20.317  23.976  1.00  0.00     0.144 A 
ATOM     24  C   UNL A   1      32.637  18.968  23.661  1.00  0.00     0.069 A 
ATOM     25  C   UNL A   1      33.649  18.061  23.979  1.00  0.00     0.047 A 
ATOM     26  C   UNL A   1      34.981  19.863  24.898  1.00  0.00     0.035 A 
ATOM     27  Cl  UNL A   1      33.422  16.403  23.550  1.00  0.00    -0.084 Cl
ATOM     28  C   UNL A   1      34.821  18.493  24.623  1.00  0.00    -0.030 A 
ATOM     29  C   UNL A   1      35.896  17.530  25.045  1.00  0.00     0.046 C 
BRANCH  23  30
ATOM     30  O   UNL A   1      31.778  21.175  23.641  1.00  0.00    -0.495 OA
ATOM     31  C   UNL A   1      31.780  21.469  22.242  1.00  0.00     0.278 C 
ENDBRANCH  23  30
ENDBRANCH  16  22
ENDBRANCH  13  15
ENDBRANCH   7  13
ENDBRANCH   3   6
ENDBRANCH   1   2
BRANCH   1  32
ATOM     32  C   UNL A   1      33.974  30.081  26.317  1.00  0.00     0.042 C 
BRANCH  32  33
ATOM     33  C   UNL A   1      34.581  29.627  27.634  1.00  0.00     0.118 C 
BRANCH  33  34
ATOM     34  N   UNL A   1      34.951  30.733  28.513  1.00  0.00    -0.352 N 
ATOM     35  C   UNL A   1      36.101  30.842  29.278  1.00  0.00     0.251 C 
ATOM     36  H   UNL A   1      34.316  31.483  28.567  1.00  0.00     0.163 HD
ATOM     37  O   UNL A   1      36.312  31.789  30.008  1.00  0.00    -0.269 OA
BRANCH  35  38
ATOM     38  C   UNL A   1      37.077  29.736  29.157  1.00  0.00     0.039 A 
ATOM     39  C   UNL A   1      37.355  28.953  30.281  1.00  0.00     0.014 A 
ATOM     40  C   UNL A   1      37.871  29.666  28.014  1.00  0.00     0.014 A 
ATOM     41  C   UNL A   1      38.531  28.202  30.311  1.00  0.00     0.010 A 
ATOM     42  C   UNL A   1      39.074  28.985  28.079  1.00  0.00     0.010 A 
ATOM     43  C   UNL A   1      39.426  28.278  29.239  1.00  0.00    -0.014 A 
BRANCH  43  44
ATOM     44  C   UNL A   1      40.792  27.754  29.284  1.00  0.00     0.031 A 
ATOM     45  C   UNL A   1      41.127  26.422  28.717  1.00  0.00     0.074 A 
ATOM     46  C   UNL A   1      41.800  28.482  29.817  1.00  0.00     0.049 A 
ATOM     47  N   UNL A   1      42.147  25.718  29.090  1.00  0.00    -0.248 NA
ATOM     48  C   UNL A   1      40.317  25.759  27.702  1.00  0.00     0.031 C 
ATOM     49  C   UNL A   1      43.231  28.240  29.651  1.00  0.00     0.029 A 
ATOM     50  N   UNL A   1      41.735  29.481  30.780  1.00  0.00    -0.354 N 
ATOM     51  C   UNL A   1      42.272  24.658  28.226  1.00  0.00     0.074 A 
ATOM     52  C   UNL A   1      41.082  24.701  27.406  1.00  0.00     0.031 C 
ATOM     53  C   UNL A   1      43.898  28.875  30.624  1.00  0.00     0.029 A 
ATOM     54  C   UNL A   1      42.922  29.445  31.532  1.00  0.00     0.049 A 
ATOM     55  H   UNL A   1      40.986  30.106  30.913  1.00  0.00     0.167 HD
ATOM     56  C   UNL A   1      43.412  23.908  28.213  1.00  0.00     0.037 A 
ATOM     57  C   UNL A   1      42.904  29.258  32.885  1.00  0.00     0.037 A 
ATOM     58  C   UNL A   1      44.400  24.374  29.181  1.00  0.00     0.049 A 
ATOM     59  C   UNL A   1      43.582  27.990  33.363  1.00  0.00     0.074 A 
ATOM     60  C   UNL A   1      45.526  25.177  29.097  1.00  0.00     0.029 A 
ATOM     61  N   UNL A   1      44.152  24.207  30.529  1.00  0.00    -0.354 N 
ATOM     62  N   UNL A   1      44.180  27.131  32.587  1.00  0.00    -0.248 NA
ATOM     63  C   UNL A   1      43.548  27.544  34.760  1.00  0.00     0.031 C 
ATOM     64  C   UNL A   1      45.961  25.477  30.416  1.00  0.00     0.029 A 
ATOM     65  C   UNL A   1      45.089  24.869  31.298  1.00  0.00     0.049 A 
ATOM     66  H   UNL A   1      43.404  23.680  30.895  1.00  0.00     0.167 HD
ATOM     67  C   UNL A   1      44.482  26.007  33.313  1.00  0.00     0.074 A 
ATOM     68  C   UNL A   1      44.111  26.328  34.675  1.00  0.00     0.031 C 
ATOM     69  C   UNL A   1      44.946  24.862  32.741  1.00  0.00     0.037 A 
BRANCH  56  70
ATOM     70  C   UNL A   1      43.715  22.883  27.148  1.00  0.00     0.058 A 
ATOM     71  C   UNL A   1      42.972  21.687  27.058  1.00  0.00     0.135 A 
ATOM     72  C   UNL A   1      44.750  23.013  26.202  1.00  0.00     0.135 A 
ATOM     73  F   UNL A   1      41.898  21.467  27.828  1.00  0.00    -0.206 F 
ATOM     74  C   UNL A   1      43.309  20.650  26.191  1.00  0.00     0.059 A 
ATOM     75  C   UNL A   1      45.144  21.967  25.362  1.00  0.00     0.059 A 
ATOM     76  F   UNL A   1      45.403  24.175  26.048  1.00  0.00    -0.206 F 
ATOM     77  C   UNL A   1      44.426  20.779  25.376  1.00  0.00     0.060 A 
BRANCH  77  78
ATOM     78  S   UNL A   1      44.934  19.366  24.381  1.00  0.00     0.124 S 
ATOM     79  O   UNL A   1      46.376  19.333  24.603  1.00  0.00    -0.237 OA
ATOM     80  O   UNL A   1      44.173  18.278  24.986  1.00  0.00    -0.237 OA
ATOM     81  O   UNL A   1      44.528  19.742  23.029  1.00  0.00    -0.744 OA
ENDBRANCH  77  78
ENDBRANCH  56  70
BRANCH  57  82
ATOM     82  C   UNL A   1      41.731  29.890  33.538  1.00  0.00     0.058 A 
ATOM     83  C   UNL A   1      41.786  31.277  33.773  1.00  0.00     0.135 A 
ATOM     84  C   UNL A   1      40.474  29.274  33.527  1.00  0.00     0.135 A 
ATOM     85  F   UNL A   1      42.970  31.910  33.804  1.00  0.00    -0.206 F 
ATOM     86  C   UNL A   1      40.633  32.047  33.826  1.00  0.00     0.059 A 
ATOM     87  C   UNL A   1      39.303  30.027  33.585  1.00  0.00     0.059 A 
ATOM     88  F   UNL A   1      40.369  27.955  33.310  1.00  0.00    -0.206 F 
ATOM     89  C   UNL A   1      39.400  31.419  33.662  1.00  0.00     0.060 A 
BRANCH  89  90
ATOM     90  S   UNL A   1      37.966  32.469  33.336  1.00  0.00     0.124 S 
ATOM     91  O   UNL A   1      36.909  31.485  33.127  1.00  0.00    -0.237 OA
ATOM     92  O   UNL A   1      37.878  33.233  34.580  1.00  0.00    -0.237 OA
ATOM     93  O   UNL A   1      38.368  33.227  32.158  1.00  0.00    -0.744 OA
ENDBRANCH  89  90
ENDBRANCH  57  82
BRANCH  69  94
ATOM     94  C   UNL A   1      45.282  23.629  33.524  1.00  0.00     0.058 A 
ATOM     95  C   UNL A   1      44.294  22.720  33.932  1.00  0.00     0.135 A 
ATOM     96  C   UNL A   1      46.589  23.399  34.001  1.00  0.00     0.135 A 
ATOM     97  F   UNL A   1      43.018  22.880  33.549  1.00  0.00    -0.206 F 
ATOM     98  C   UNL A   1      44.589  21.630  34.752  1.00  0.00     0.059 A 
ATOM     99  C   UNL A   1      46.898  22.343  34.853  1.00  0.00     0.059 A 
ATOM    100  F   UNL A   1      47.609  24.187  33.630  1.00  0.00    -0.206 F 
ATOM    101  C   UNL A   1      45.893  21.453  35.212  1.00  0.00     0.060 A 
BRANCH 101 102
ATOM    102  S   UNL A   1      46.272  20.073  36.311  1.00  0.00     0.124 S 
ATOM    103  O   UNL A   1      45.624  18.944  35.648  1.00  0.00    -0.237 OA
ATOM    104  O   UNL A   1      47.730  20.068  36.279  1.00  0.00    -0.237 OA
ATOM    105  O   UNL A   1      45.668  20.477  37.576  1.00  0.00    -0.744 OA
ENDBRANCH 101 102
ENDBRANCH  69  94
ENDBRANCH  43  44
ENDBRANCH  35  38
ENDBRANCH  33  34
ENDBRANCH  32  33
ENDBRANCH   1  32
TORSDOF 17
ENDMDL
