MODEL 1
REMARK VINA RESULT:     -12.7      0.000      0.000
REMARK SMILES CC(C)(C[N@H+]1C[C@@H]2C[NH2+]C[C@H]2C1(C)C)C(=O)NCCCNC(=O)c1ccc(-c2c3nc(c(-c4c(F)cc(S(=O)(=O)[O-])cc4F)c4ccc([nH]4)c(-c4c(F)cc(S(=O)(=O)[O-])cc4F)c4nc(c(-c5c(F)cc(S(=O)(=O)[O-])cc5F)c5ccc2[nH]5)C=C4)C=C3)cc1
REMARK SMILES IDX 19 1 18 2 17 3 15 4 16 5 2 7 1 8 3 9 4 10 5 11 6 12 12 13
REMARK SMILES IDX 7 15 11 16 13 17 14 18 8 19 10 20 9 21 20 24 21 25 22 26
REMARK SMILES IDX 23 28 24 29 25 30 89 31 26 32 88 33 27 34 28 35 29 36 82 37
REMARK SMILES IDX 30 38 87 39 81 40 83 41 31 42 86 43 80 44 79 45 32 47 66 48
REMARK SMILES IDX 45 49 65 50 46 51 49 52 64 53 84 54 47 55 48 56 63 58 85 59
REMARK SMILES IDX 50 60 33 61 34 62 43 63 35 64 36 65 42 66 44 67 37 68 38 69
REMARK SMILES IDX 39 70 40 71 41 72 67 73 68 74 77 75 69 76 70 77 76 78 78 79
REMARK SMILES IDX 71 80 72 81 73 82 74 83 75 84 51 85 52 86 61 87 53 88 54 89
REMARK SMILES IDX 60 90 62 91 55 92 56 93 57 94 58 95 59 96
REMARK H PARENT 17 6 5 14 9 22 9 23 21 27 83 46 49 57
REMARK Flexibility Score: inf
ROOT
ATOM      1  C   UNL A   1      40.159  21.805  26.828  1.00  0.00     0.042 C 
ENDROOT
BRANCH   1   2
ATOM      2  C   UNL A   1      38.852  21.667  26.037  1.00  0.00     0.117 C 
BRANCH   2   3
ATOM      3  N   UNL A   1      37.899  22.752  26.205  1.00  0.00    -0.355 N 
ATOM      4  C   UNL A   1      36.693  23.088  25.681  1.00  0.00     0.231 C 
ATOM      5  O   UNL A   1      36.164  24.060  26.239  1.00  0.00    -0.274 OA
ATOM      6  H   UNL A   1      38.207  23.411  26.869  1.00  0.00     0.163 HD
BRANCH   4   7
ATOM      7  C   UNL A   1      35.988  22.379  24.506  1.00  0.00     0.092 C 
ATOM      8  C   UNL A   1      35.975  20.862  24.829  1.00  0.00     0.027 C 
ATOM      9  C   UNL A   1      36.836  22.478  23.216  1.00  0.00     0.027 C 
BRANCH   7  10
ATOM     10  C   UNL A   1      34.547  22.925  24.218  1.00  0.00     0.279 C 
BRANCH  10  11
ATOM     11  N   UNL A   1      33.622  23.320  25.272  1.00  0.00    -0.329 N 
ATOM     12  C   UNL A   1      33.125  24.690  25.429  1.00  0.00     0.272 C 
ATOM     13  C   UNL A   1      32.798  22.365  26.056  1.00  0.00     0.101 C 
ATOM     14  H   UNL A   1      34.587  23.246  25.598  1.00  0.00     0.348 HD
ATOM     15  C   UNL A   1      31.662  24.387  25.599  1.00  0.00     0.114 C 
ATOM     16  C   UNL A   1      31.725  23.289  26.635  1.00  0.00     0.119 C 
ATOM     17  C   UNL A   1      32.174  21.244  25.246  1.00  0.00     0.079 C 
ATOM     18  C   UNL A   1      33.655  21.751  27.175  1.00  0.00     0.079 C 
ATOM     19  C   UNL A   1      30.634  25.292  26.216  1.00  0.00     0.270 C 
ATOM     20  C   UNL A   1      30.255  22.982  26.789  1.00  0.00     0.271 C 
ATOM     21  N   UNL A   1      29.617  24.327  26.717  1.00  0.00    -0.345 N 
ATOM     22  H   UNL A   1      28.821  24.300  26.080  1.00  0.00     0.346 HD
ATOM     23  H   UNL A   1      29.283  24.611  27.638  1.00  0.00     0.346 HD
ENDBRANCH  10  11
ENDBRANCH   7  10
ENDBRANCH   4   7
ENDBRANCH   2   3
ENDBRANCH   1   2
BRANCH   1  24
ATOM     24  C   UNL A   1      40.572  23.218  27.240  1.00  0.00     0.118 C 
BRANCH  24  25
ATOM     25  N   UNL A   1      41.181  23.962  26.155  1.00  0.00    -0.352 N 
ATOM     26  C   UNL A   1      41.427  25.311  26.058  1.00  0.00     0.251 C 
ATOM     27  H   UNL A   1      41.458  23.426  25.378  1.00  0.00     0.163 HD
ATOM     28  O   UNL A   1      41.760  25.781  24.974  1.00  0.00    -0.269 OA
BRANCH  26  29
ATOM     29  C   UNL A   1      41.277  26.208  27.232  1.00  0.00     0.039 A 
ATOM     30  C   UNL A   1      40.180  26.019  28.079  1.00  0.00     0.014 A 
ATOM     31  C   UNL A   1      42.156  27.271  27.466  1.00  0.00     0.014 A 
ATOM     32  C   UNL A   1      39.981  26.871  29.171  1.00  0.00     0.010 A 
ATOM     33  C   UNL A   1      41.985  28.089  28.588  1.00  0.00     0.010 A 
ATOM     34  C   UNL A   1      40.888  27.907  29.445  1.00  0.00    -0.014 A 
BRANCH  34  35
ATOM     35  C   UNL A   1      40.673  28.821  30.601  1.00  0.00     0.031 A 
ATOM     36  C   UNL A   1      41.533  28.708  31.834  1.00  0.00     0.074 A 
ATOM     37  C   UNL A   1      39.695  29.747  30.556  1.00  0.00     0.049 A 
ATOM     38  N   UNL A   1      41.486  29.404  32.943  1.00  0.00    -0.248 NA
ATOM     39  C   UNL A   1      42.571  27.667  31.822  1.00  0.00     0.031 C 
ATOM     40  C   UNL A   1      38.779  29.954  29.434  1.00  0.00     0.029 A 
ATOM     41  N   UNL A   1      39.310  30.691  31.477  1.00  0.00    -0.354 N 
ATOM     42  C   UNL A   1      42.481  28.881  33.762  1.00  0.00     0.074 A 
ATOM     43  C   UNL A   1      43.080  27.778  33.041  1.00  0.00     0.031 C 
ATOM     44  C   UNL A   1      37.958  30.979  29.720  1.00  0.00     0.029 A 
ATOM     45  C   UNL A   1      38.266  31.481  31.056  1.00  0.00     0.049 A 
ATOM     46  H   UNL A   1      39.741  30.792  32.357  1.00  0.00     0.167 HD
ATOM     47  C   UNL A   1      42.877  29.293  34.992  1.00  0.00     0.037 A 
ATOM     48  C   UNL A   1      37.630  32.496  31.674  1.00  0.00     0.037 A 
ATOM     49  C   UNL A   1      42.293  30.398  35.706  1.00  0.00     0.049 A 
ATOM     50  C   UNL A   1      38.066  32.920  33.050  1.00  0.00     0.074 A 
ATOM     51  C   UNL A   1      42.648  30.911  36.943  1.00  0.00     0.029 A 
ATOM     52  N   UNL A   1      41.228  31.163  35.251  1.00  0.00    -0.354 N 
ATOM     53  N   UNL A   1      39.035  32.439  33.792  1.00  0.00    -0.248 NA
ATOM     54  C   UNL A   1      37.326  34.027  33.670  1.00  0.00     0.031 C 
ATOM     55  C   UNL A   1      41.777  31.963  37.250  1.00  0.00     0.029 A 
ATOM     56  C   UNL A   1      40.904  32.132  36.187  1.00  0.00     0.049 A 
ATOM     57  H   UNL A   1      40.771  31.036  34.388  1.00  0.00     0.167 HD
ATOM     58  C   UNL A   1      39.039  33.203  34.955  1.00  0.00     0.074 A 
ATOM     59  C   UNL A   1      37.978  34.180  34.815  1.00  0.00     0.031 C 
ATOM     60  C   UNL A   1      39.850  33.105  36.036  1.00  0.00     0.037 A 
BRANCH  47  61
ATOM     61  C   UNL A   1      44.002  28.533  35.640  1.00  0.00     0.058 A 
ATOM     62  C   UNL A   1      45.346  28.841  35.374  1.00  0.00     0.135 A 
ATOM     63  C   UNL A   1      43.736  27.486  36.537  1.00  0.00     0.135 A 
ATOM     64  F   UNL A   1      45.656  29.826  34.517  1.00  0.00    -0.206 F 
ATOM     65  C   UNL A   1      46.386  28.107  35.936  1.00  0.00     0.059 A 
ATOM     66  C   UNL A   1      44.762  26.755  37.131  1.00  0.00     0.059 A 
ATOM     67  F   UNL A   1      42.470  27.153  36.833  1.00  0.00    -0.206 F 
ATOM     68  C   UNL A   1      46.083  27.058  36.805  1.00  0.00     0.060 A 
BRANCH  68  69
ATOM     69  S   UNL A   1      47.439  26.090  37.498  1.00  0.00     0.124 S 
ATOM     70  O   UNL A   1      46.940  24.729  37.328  1.00  0.00    -0.237 OA
ATOM     71  O   UNL A   1      48.564  26.463  36.645  1.00  0.00    -0.237 OA
ATOM     72  O   UNL A   1      47.522  26.561  38.878  1.00  0.00    -0.744 OA
ENDBRANCH  68  69
ENDBRANCH  47  61
BRANCH  48  73
ATOM     73  C   UNL A   1      36.531  33.212  30.974  1.00  0.00     0.058 A 
ATOM     74  C   UNL A   1      35.193  33.004  31.341  1.00  0.00     0.135 A 
ATOM     75  C   UNL A   1      36.793  34.127  29.944  1.00  0.00     0.135 A 
ATOM     76  F   UNL A   1      34.892  32.130  32.313  1.00  0.00    -0.206 F 
ATOM     77  C   UNL A   1      34.152  33.677  30.711  1.00  0.00     0.059 A 
ATOM     78  C   UNL A   1      35.770  34.828  29.312  1.00  0.00     0.059 A 
ATOM     79  F   UNL A   1      38.058  34.369  29.565  1.00  0.00    -0.206 F 
ATOM     80  C   UNL A   1      34.452  34.591  29.699  1.00  0.00     0.060 A 
BRANCH  80  81
ATOM     81  S   UNL A   1      33.098  35.510  28.932  1.00  0.00     0.124 S 
ATOM     82  O   UNL A   1      33.824  36.517  28.168  1.00  0.00    -0.237 OA
ATOM     83  O   UNL A   1      32.428  34.475  28.150  1.00  0.00    -0.237 OA
ATOM     84  O   UNL A   1      32.341  36.007  30.077  1.00  0.00    -0.744 OA
ENDBRANCH  80  81
ENDBRANCH  48  73
BRANCH  60  85
ATOM     85  C   UNL A   1      39.650  34.102  37.145  1.00  0.00     0.058 A 
ATOM     86  C   UNL A   1      38.916  33.784  38.298  1.00  0.00     0.135 A 
ATOM     87  C   UNL A   1      40.238  35.374  37.071  1.00  0.00     0.135 A 
ATOM     88  F   UNL A   1      38.326  32.584  38.415  1.00  0.00    -0.206 F 
ATOM     89  C   UNL A   1      38.754  34.702  39.331  1.00  0.00     0.059 A 
ATOM     90  C   UNL A   1      40.109  36.300  38.102  1.00  0.00     0.059 A 
ATOM     91  F   UNL A   1      40.957  35.724  35.992  1.00  0.00    -0.206 F 
ATOM     92  C   UNL A   1      39.355  35.959  39.224  1.00  0.00     0.060 A 
BRANCH  92  93
ATOM     93  S   UNL A   1      39.167  37.130  40.585  1.00  0.00     0.124 S 
ATOM     94  O   UNL A   1      40.543  37.567  40.789  1.00  0.00    -0.237 OA
ATOM     95  O   UNL A   1      38.262  38.126  40.020  1.00  0.00    -0.237 OA
ATOM     96  O   UNL A   1      38.600  36.315  41.656  1.00  0.00    -0.744 OA
ENDBRANCH  92  93
ENDBRANCH  60  85
ENDBRANCH  34  35
ENDBRANCH  26  29
ENDBRANCH  24  25
ENDBRANCH   1  24
TORSDOF 15
ENDMDL
MODEL 2
REMARK VINA RESULT:     -12.6      1.394      2.644
REMARK SMILES CC(C)(C[N@H+]1C[C@@H]2C[NH2+]C[C@H]2C1(C)C)C(=O)NCCCNC(=O)c1ccc(-c2c3nc(c(-c4c(F)cc(S(=O)(=O)[O-])cc4F)c4ccc([nH]4)c(-c4c(F)cc(S(=O)(=O)[O-])cc4F)c4nc(c(-c5c(F)cc(S(=O)(=O)[O-])cc5F)c5ccc2[nH]5)C=C4)C=C3)cc1
REMARK SMILES IDX 19 1 18 2 17 3 15 4 16 5 2 7 1 8 3 9 4 10 5 11 6 12 12 13
REMARK SMILES IDX 7 15 11 16 13 17 14 18 8 19 10 20 9 21 20 24 21 25 22 26
REMARK SMILES IDX 23 28 24 29 25 30 89 31 26 32 88 33 27 34 28 35 29 36 82 37
REMARK SMILES IDX 30 38 87 39 81 40 83 41 31 42 86 43 80 44 79 45 32 47 66 48
REMARK SMILES IDX 45 49 65 50 46 51 49 52 64 53 84 54 47 55 48 56 63 58 85 59
REMARK SMILES IDX 50 60 33 61 34 62 43 63 35 64 36 65 42 66 44 67 37 68 38 69
REMARK SMILES IDX 39 70 40 71 41 72 67 73 68 74 77 75 69 76 70 77 76 78 78 79
REMARK SMILES IDX 71 80 72 81 73 82 74 83 75 84 51 85 52 86 61 87 53 88 54 89
REMARK SMILES IDX 60 90 62 91 55 92 56 93 57 94 58 95 59 96
REMARK H PARENT 17 6 5 14 9 22 9 23 21 27 83 46 49 57
REMARK Flexibility Score: inf
ROOT
ATOM      1  C   UNL A   1      37.354  23.548  25.404  1.00  0.00     0.042 C 
ENDROOT
BRANCH   1   2
ATOM      2  C   UNL A   1      36.623  22.246  25.752  1.00  0.00     0.117 C 
BRANCH   2   3
ATOM      3  N   UNL A   1      35.503  22.380  26.669  1.00  0.00    -0.355 N 
ATOM      4  C   UNL A   1      34.153  22.469  26.563  1.00  0.00     0.231 C 
ATOM      5  O   UNL A   1      33.566  22.428  27.654  1.00  0.00    -0.274 OA
ATOM      6  H   UNL A   1      35.800  22.416  27.608  1.00  0.00     0.163 HD
BRANCH   4   7
ATOM      7  C   UNL A   1      33.357  22.609  25.248  1.00  0.00     0.092 C 
ATOM      8  C   UNL A   1      31.854  22.658  25.626  1.00  0.00     0.027 C 
ATOM      9  C   UNL A   1      33.484  21.328  24.390  1.00  0.00     0.027 C 
BRANCH   7  10
ATOM     10  C   UNL A   1      33.781  23.850  24.388  1.00  0.00     0.279 C 
BRANCH  10  11
ATOM     11  N   UNL A   1      33.189  25.170  24.552  1.00  0.00    -0.329 N 
ATOM     12  C   UNL A   1      33.517  26.063  25.667  1.00  0.00     0.272 C 
ATOM     13  C   UNL A   1      32.497  25.912  23.467  1.00  0.00     0.101 C 
ATOM     14  H   UNL A   1      32.572  24.417  24.862  1.00  0.00     0.348 HD
ATOM     15  C   UNL A   1      33.743  27.331  24.890  1.00  0.00     0.114 C 
ATOM     16  C   UNL A   1      32.511  27.340  24.014  1.00  0.00     0.119 C 
ATOM     17  C   UNL A   1      33.176  25.840  22.111  1.00  0.00     0.079 C 
ATOM     18  C   UNL A   1      31.058  25.392  23.330  1.00  0.00     0.079 C 
ATOM     19  C   UNL A   1      33.704  28.727  25.440  1.00  0.00     0.270 C 
ATOM     20  C   UNL A   1      32.753  28.607  23.229  1.00  0.00     0.271 C 
ATOM     21  N   UNL A   1      33.331  29.533  24.244  1.00  0.00    -0.345 N 
ATOM     22  H   UNL A   1      34.158  29.992  23.864  1.00  0.00     0.346 HD
ATOM     23  H   UNL A   1      32.651  30.250  24.498  1.00  0.00     0.346 HD
ENDBRANCH  10  11
ENDBRANCH   7  10
ENDBRANCH   4   7
ENDBRANCH   2   3
ENDBRANCH   1   2
BRANCH   1  24
ATOM     24  C   UNL A   1      38.264  24.140  26.482  1.00  0.00     0.118 C 
BRANCH  24  25
ATOM     25  N   UNL A   1      39.668  24.074  26.129  1.00  0.00    -0.352 N 
ATOM     26  C   UNL A   1      40.705  24.879  26.536  1.00  0.00     0.251 C 
ATOM     27  H   UNL A   1      39.914  23.349  25.511  1.00  0.00     0.163 HD
ATOM     28  O   UNL A   1      41.788  24.792  25.965  1.00  0.00    -0.269 OA
BRANCH  26  29
ATOM     29  C   UNL A   1      40.531  25.861  27.637  1.00  0.00     0.039 A 
ATOM     30  C   UNL A   1      41.409  26.947  27.706  1.00  0.00     0.014 A 
ATOM     31  C   UNL A   1      39.567  25.686  28.636  1.00  0.00     0.014 A 
ATOM     32  C   UNL A   1      41.305  27.869  28.753  1.00  0.00     0.010 A 
ATOM     33  C   UNL A   1      39.429  26.638  29.653  1.00  0.00     0.010 A 
ATOM     34  C   UNL A   1      40.305  27.732  29.730  1.00  0.00    -0.014 A 
BRANCH  34  35
ATOM     35  C   UNL A   1      40.199  28.707  30.851  1.00  0.00     0.031 A 
ATOM     36  C   UNL A   1      41.106  28.594  32.050  1.00  0.00     0.074 A 
ATOM     37  C   UNL A   1      39.278  29.690  30.806  1.00  0.00     0.049 A 
ATOM     38  N   UNL A   1      41.152  29.338  33.126  1.00  0.00    -0.248 NA
ATOM     39  C   UNL A   1      42.077  27.490  32.041  1.00  0.00     0.031 C 
ATOM     40  C   UNL A   1      38.325  29.905  29.716  1.00  0.00     0.029 A 
ATOM     41  N   UNL A   1      38.994  30.695  31.698  1.00  0.00    -0.354 N 
ATOM     42  C   UNL A   1      42.151  28.790  33.925  1.00  0.00     0.074 A 
ATOM     43  C   UNL A   1      42.648  27.622  33.230  1.00  0.00     0.031 C 
ATOM     44  C   UNL A   1      37.582  30.990  29.990  1.00  0.00     0.029 A 
ATOM     45  C   UNL A   1      37.981  31.530  31.287  1.00  0.00     0.049 A 
ATOM     46  H   UNL A   1      39.470  30.807  32.553  1.00  0.00     0.167 HD
ATOM     47  C   UNL A   1      42.627  29.230  35.116  1.00  0.00     0.037 A 
ATOM     48  C   UNL A   1      37.437  32.608  31.884  1.00  0.00     0.037 A 
ATOM     49  C   UNL A   1      42.144  30.399  35.804  1.00  0.00     0.049 A 
ATOM     50  C   UNL A   1      37.961  33.063  33.220  1.00  0.00     0.074 A 
ATOM     51  C   UNL A   1      42.586  30.941  36.999  1.00  0.00     0.029 A 
ATOM     52  N   UNL A   1      41.108  31.209  35.360  1.00  0.00    -0.354 N 
ATOM     53  N   UNL A   1      38.932  32.555  33.940  1.00  0.00    -0.248 NA
ATOM     54  C   UNL A   1      37.319  34.241  33.819  1.00  0.00     0.031 C 
ATOM     55  C   UNL A   1      41.795  32.058  37.295  1.00  0.00     0.029 A 
ATOM     56  C   UNL A   1      40.886  32.236  36.264  1.00  0.00     0.049 A 
ATOM     57  H   UNL A   1      40.605  31.073  34.525  1.00  0.00     0.167 HD
ATOM     58  C   UNL A   1      39.035  33.367  35.065  1.00  0.00     0.074 A 
ATOM     59  C   UNL A   1      38.031  34.402  34.926  1.00  0.00     0.031 C 
ATOM     60  C   UNL A   1      39.888  33.265  36.114  1.00  0.00     0.037 A 
BRANCH  47  61
ATOM     61  C   UNL A   1      43.732  28.429  35.750  1.00  0.00     0.058 A 
ATOM     62  C   UNL A   1      43.460  27.391  36.656  1.00  0.00     0.135 A 
ATOM     63  C   UNL A   1      45.076  28.700  35.451  1.00  0.00     0.135 A 
ATOM     64  F   UNL A   1      42.193  27.096  36.985  1.00  0.00    -0.206 F 
ATOM     65  C   UNL A   1      44.482  26.682  37.279  1.00  0.00     0.059 A 
ATOM     66  C   UNL A   1      46.115  27.986  36.043  1.00  0.00     0.059 A 
ATOM     67  F   UNL A   1      45.394  29.676  34.587  1.00  0.00    -0.206 F 
ATOM     68  C   UNL A   1      45.807  26.995  36.974  1.00  0.00     0.060 A 
BRANCH  68  69
ATOM     69  S   UNL A   1      47.125  26.094  37.817  1.00  0.00     0.124 S 
ATOM     70  O   UNL A   1      46.453  24.842  38.150  1.00  0.00    -0.237 OA
ATOM     71  O   UNL A   1      48.156  26.005  36.787  1.00  0.00    -0.237 OA
ATOM     72  O   UNL A   1      47.452  26.953  38.951  1.00  0.00    -0.744 OA
ENDBRANCH  68  69
ENDBRANCH  47  61
BRANCH  48  73
ATOM     73  C   UNL A   1      36.352  33.361  31.200  1.00  0.00     0.058 A 
ATOM     74  C   UNL A   1      36.624  34.128  30.058  1.00  0.00     0.135 A 
ATOM     75  C   UNL A   1      35.027  33.313  31.658  1.00  0.00     0.135 A 
ATOM     76  F   UNL A   1      37.878  34.212  29.589  1.00  0.00    -0.206 F 
ATOM     77  C   UNL A   1      35.621  34.825  29.393  1.00  0.00     0.059 A 
ATOM     78  C   UNL A   1      34.002  33.985  30.997  1.00  0.00     0.059 A 
ATOM     79  F   UNL A   1      34.715  32.583  32.740  1.00  0.00    -0.206 F 
ATOM     80  C   UNL A   1      34.311  34.743  29.869  1.00  0.00     0.060 A 
BRANCH  80  81
ATOM     81  S   UNL A   1      33.004  35.597  28.960  1.00  0.00     0.124 S 
ATOM     82  O   UNL A   1      32.442  34.512  28.166  1.00  0.00    -0.237 OA
ATOM     83  O   UNL A   1      32.161  36.104  30.038  1.00  0.00    -0.237 OA
ATOM     84  O   UNL A   1      33.731  36.619  28.211  1.00  0.00    -0.744 OA
ENDBRANCH  80  81
ENDBRANCH  48  73
BRANCH  60  85
ATOM     85  C   UNL A   1      39.800  34.320  37.183  1.00  0.00     0.058 A 
ATOM     86  C   UNL A   1      40.427  35.567  37.042  1.00  0.00     0.135 A 
ATOM     87  C   UNL A   1      39.042  34.093  38.343  1.00  0.00     0.135 A 
ATOM     88  F   UNL A   1      41.170  35.831  35.955  1.00  0.00    -0.206 F 
ATOM     89  C   UNL A   1      40.323  36.548  38.023  1.00  0.00     0.059 A 
ATOM     90  C   UNL A   1      38.905  35.067  39.328  1.00  0.00     0.059 A 
ATOM     91  F   UNL A   1      38.416  32.920  38.523  1.00  0.00    -0.206 F 
ATOM     92  C   UNL A   1      39.559  36.289  39.164  1.00  0.00     0.060 A 
BRANCH  92  93
ATOM     93  S   UNL A   1      39.403  37.580  40.416  1.00  0.00     0.124 S 
ATOM     94  O   UNL A   1      39.213  36.792  41.629  1.00  0.00    -0.237 OA
ATOM     95  O   UNL A   1      40.679  38.280  40.307  1.00  0.00    -0.237 OA
ATOM     96  O   UNL A   1      38.238  38.341  39.973  1.00  0.00    -0.744 OA
ENDBRANCH  92  93
ENDBRANCH  60  85
ENDBRANCH  34  35
ENDBRANCH  26  29
ENDBRANCH  24  25
ENDBRANCH   1  24
TORSDOF 15
ENDMDL
MODEL 3
REMARK VINA RESULT:     -12.5      4.639     10.408
REMARK SMILES CC(C)(C[N@H+]1C[C@@H]2C[NH2+]C[C@H]2C1(C)C)C(=O)NCCCNC(=O)c1ccc(-c2c3nc(c(-c4c(F)cc(S(=O)(=O)[O-])cc4F)c4ccc([nH]4)c(-c4c(F)cc(S(=O)(=O)[O-])cc4F)c4nc(c(-c5c(F)cc(S(=O)(=O)[O-])cc5F)c5ccc2[nH]5)C=C4)C=C3)cc1
REMARK SMILES IDX 19 1 18 2 17 3 15 4 16 5 2 7 1 8 3 9 4 10 5 11 6 12 12 13
REMARK SMILES IDX 7 15 11 16 13 17 14 18 8 19 10 20 9 21 20 24 21 25 22 26
REMARK SMILES IDX 23 28 24 29 25 30 89 31 26 32 88 33 27 34 28 35 29 36 82 37
REMARK SMILES IDX 30 38 87 39 81 40 83 41 31 42 86 43 80 44 79 45 32 47 66 48
REMARK SMILES IDX 45 49 65 50 46 51 49 52 64 53 84 54 47 55 48 56 63 58 85 59
REMARK SMILES IDX 50 60 33 61 34 62 43 63 35 64 36 65 42 66 44 67 37 68 38 69
REMARK SMILES IDX 39 70 40 71 41 72 67 73 68 74 77 75 69 76 70 77 76 78 78 79
REMARK SMILES IDX 71 80 72 81 73 82 74 83 75 84 51 85 52 86 61 87 53 88 54 89
REMARK SMILES IDX 60 90 62 91 55 92 56 93 57 94 58 95 59 96
REMARK H PARENT 17 6 5 14 9 22 9 23 21 27 83 46 49 57
REMARK Flexibility Score: inf
ROOT
ATOM      1  C   UNL A   1      33.573  27.594  25.721  1.00  0.00     0.042 C 
ENDROOT
BRANCH   1   2
ATOM      2  C   UNL A   1      32.531  26.639  25.126  1.00  0.00     0.117 C 
BRANCH   2   3
ATOM      3  N   UNL A   1      31.886  25.744  26.072  1.00  0.00    -0.355 N 
ATOM      4  C   UNL A   1      31.579  24.424  26.122  1.00  0.00     0.231 C 
ATOM      5  O   UNL A   1      31.139  24.057  27.221  1.00  0.00    -0.274 OA
ATOM      6  H   UNL A   1      31.598  26.218  26.887  1.00  0.00     0.163 HD
BRANCH   4   7
ATOM      7  C   UNL A   1      31.734  23.416  24.963  1.00  0.00     0.092 C 
ATOM      8  C   UNL A   1      30.714  23.819  23.866  1.00  0.00     0.027 C 
ATOM      9  C   UNL A   1      31.275  22.004  25.398  1.00  0.00     0.027 C 
BRANCH   7  10
ATOM     10  C   UNL A   1      33.193  23.332  24.397  1.00  0.00     0.279 C 
BRANCH  10  11
ATOM     11  N   UNL A   1      34.242  22.534  25.019  1.00  0.00    -0.329 N 
ATOM     12  C   UNL A   1      34.722  21.267  24.460  1.00  0.00     0.272 C 
ATOM     13  C   UNL A   1      35.187  23.054  26.040  1.00  0.00     0.101 C 
ATOM     14  H   UNL A   1      33.332  22.410  25.465  1.00  0.00     0.348 HD
ATOM     15  C   UNL A   1      36.202  21.517  24.558  1.00  0.00     0.114 C 
ATOM     16  C   UNL A   1      36.305  22.012  25.982  1.00  0.00     0.119 C 
ATOM     17  C   UNL A   1      35.724  24.447  25.765  1.00  0.00     0.079 C 
ATOM     18  C   UNL A   1      34.504  23.049  27.417  1.00  0.00     0.079 C 
ATOM     19  C   UNL A   1      37.281  20.473  24.548  1.00  0.00     0.270 C 
ATOM     20  C   UNL A   1      37.790  22.273  26.066  1.00  0.00     0.271 C 
ATOM     21  N   UNL A   1      38.380  21.139  25.300  1.00  0.00    -0.345 N 
ATOM     22  H   UNL A   1      39.083  21.489  24.650  1.00  0.00     0.346 HD
ATOM     23  H   UNL A   1      38.827  20.477  25.934  1.00  0.00     0.346 HD
ENDBRANCH  10  11
ENDBRANCH   7  10
ENDBRANCH   4   7
ENDBRANCH   2   3
ENDBRANCH   1   2
BRANCH   1  24
ATOM     24  C   UNL A   1      33.384  27.999  27.184  1.00  0.00     0.118 C 
BRANCH  24  25
ATOM     25  N   UNL A   1      33.242  29.432  27.355  1.00  0.00    -0.352 N 
ATOM     26  C   UNL A   1      34.145  30.341  27.851  1.00  0.00     0.251 C 
ATOM     27  H   UNL A   1      32.376  29.806  27.075  1.00  0.00     0.163 HD
ATOM     28  O   UNL A   1      33.765  31.480  28.111  1.00  0.00    -0.269 OA
BRANCH  26  29
ATOM     29  C   UNL A   1      35.561  29.965  28.095  1.00  0.00     0.039 A 
ATOM     30  C   UNL A   1      35.934  29.575  29.385  1.00  0.00     0.014 A 
ATOM     31  C   UNL A   1      36.533  30.063  27.094  1.00  0.00     0.014 A 
ATOM     32  C   UNL A   1      37.267  29.256  29.665  1.00  0.00     0.010 A 
ATOM     33  C   UNL A   1      37.856  29.692  27.361  1.00  0.00     0.010 A 
ATOM     34  C   UNL A   1      38.240  29.298  28.653  1.00  0.00    -0.014 A 
BRANCH  34  35
ATOM     35  C   UNL A   1      39.662  28.968  28.950  1.00  0.00     0.031 A 
ATOM     36  C   UNL A   1      40.557  29.982  29.616  1.00  0.00     0.074 A 
ATOM     37  C   UNL A   1      40.160  27.763  28.611  1.00  0.00     0.049 A 
ATOM     38  N   UNL A   1      41.822  29.883  29.941  1.00  0.00    -0.248 NA
ATOM     39  C   UNL A   1      39.953  31.282  29.944  1.00  0.00     0.031 C 
ATOM     40  C   UNL A   1      39.411  26.696  27.947  1.00  0.00     0.029 A 
ATOM     41  N   UNL A   1      41.416  27.232  28.782  1.00  0.00    -0.354 N 
ATOM     42  C   UNL A   1      42.167  31.107  30.505  1.00  0.00     0.074 A 
ATOM     43  C   UNL A   1      40.991  31.947  30.432  1.00  0.00     0.031 C 
ATOM     44  C   UNL A   1      40.212  25.628  27.793  1.00  0.00     0.029 A 
ATOM     45  C   UNL A   1      41.539  25.943  28.316  1.00  0.00     0.049 A 
ATOM     46  H   UNL A   1      42.158  27.726  29.198  1.00  0.00     0.167 HD
ATOM     47  C   UNL A   1      43.345  31.490  31.056  1.00  0.00     0.037 A 
ATOM     48  C   UNL A   1      42.597  25.110  28.312  1.00  0.00     0.037 A 
ATOM     49  C   UNL A   1      44.513  30.652  31.143  1.00  0.00     0.049 A 
ATOM     50  C   UNL A   1      43.905  25.564  28.902  1.00  0.00     0.074 A 
ATOM     51  C   UNL A   1      45.742  30.941  31.712  1.00  0.00     0.029 A 
ATOM     52  N   UNL A   1      44.600  29.359  30.647  1.00  0.00    -0.354 N 
ATOM     53  N   UNL A   1      44.199  26.711  29.467  1.00  0.00    -0.248 NA
ATOM     54  C   UNL A   1      45.021  24.610  28.859  1.00  0.00     0.031 C 
ATOM     55  C   UNL A   1      46.582  29.837  31.529  1.00  0.00     0.029 A 
ATOM     56  C   UNL A   1      45.864  28.843  30.882  1.00  0.00     0.049 A 
ATOM     57  H   UNL A   1      43.869  28.879  30.194  1.00  0.00     0.167 HD
ATOM     58  C   UNL A   1      45.526  26.606  29.871  1.00  0.00     0.074 A 
ATOM     59  C   UNL A   1      45.975  25.282  29.490  1.00  0.00     0.031 C 
ATOM     60  C   UNL A   1      46.300  27.521  30.504  1.00  0.00     0.037 A 
BRANCH  47  61
ATOM     61  C   UNL A   1      43.423  32.889  31.605  1.00  0.00     0.058 A 
ATOM     62  C   UNL A   1      43.774  33.978  30.791  1.00  0.00     0.135 A 
ATOM     63  C   UNL A   1      43.143  33.145  32.956  1.00  0.00     0.135 A 
ATOM     64  F   UNL A   1      44.062  33.789  29.494  1.00  0.00    -0.206 F 
ATOM     65  C   UNL A   1      43.893  35.265  31.309  1.00  0.00     0.059 A 
ATOM     66  C   UNL A   1      43.230  34.428  33.490  1.00  0.00     0.059 A 
ATOM     67  F   UNL A   1      42.795  32.143  33.778  1.00  0.00    -0.206 F 
ATOM     68  C   UNL A   1      43.630  35.477  32.663  1.00  0.00     0.060 A 
BRANCH  68  69
ATOM     69  S   UNL A   1      43.823  37.143  33.331  1.00  0.00     0.124 S 
ATOM     70  O   UNL A   1      45.096  37.027  34.033  1.00  0.00    -0.237 OA
ATOM     71  O   UNL A   1      43.838  37.968  32.126  1.00  0.00    -0.237 OA
ATOM     72  O   UNL A   1      42.648  37.306  34.181  1.00  0.00    -0.744 OA
ENDBRANCH  68  69
ENDBRANCH  47  61
BRANCH  48  73
ATOM     73  C   UNL A   1      42.452  23.736  27.761  1.00  0.00     0.058 A 
ATOM     74  C   UNL A   1      42.431  23.519  26.376  1.00  0.00     0.135 A 
ATOM     75  C   UNL A   1      42.351  22.618  28.602  1.00  0.00     0.135 A 
ATOM     76  F   UNL A   1      42.514  24.559  25.532  1.00  0.00    -0.206 F 
ATOM     77  C   UNL A   1      42.314  22.241  25.840  1.00  0.00     0.059 A 
ATOM     78  C   UNL A   1      42.253  21.327  28.090  1.00  0.00     0.059 A 
ATOM     79  F   UNL A   1      42.377  22.773  29.934  1.00  0.00    -0.206 F 
ATOM     80  C   UNL A   1      42.229  21.150  26.707  1.00  0.00     0.060 A 
BRANCH  80  81
ATOM     81  S   UNL A   1      42.144  19.488  26.003  1.00  0.00     0.124 S 
ATOM     82  O   UNL A   1      43.054  19.604  24.870  1.00  0.00    -0.237 OA
ATOM     83  O   UNL A   1      42.607  18.660  27.113  1.00  0.00    -0.237 OA
ATOM     84  O   UNL A   1      40.731  19.339  25.669  1.00  0.00    -0.744 OA
ENDBRANCH  80  81
ENDBRANCH  48  73
BRANCH  60  85
ATOM     85  C   UNL A   1      47.704  27.116  30.858  1.00  0.00     0.058 A 
ATOM     86  C   UNL A   1      48.017  26.557  32.107  1.00  0.00     0.135 A 
ATOM     87  C   UNL A   1      48.740  27.249  29.920  1.00  0.00     0.135 A 
ATOM     88  F   UNL A   1      47.064  26.416  33.042  1.00  0.00    -0.206 F 
ATOM     89  C   UNL A   1      49.313  26.161  32.421  1.00  0.00     0.059 A 
ATOM     90  C   UNL A   1      50.040  26.840  30.205  1.00  0.00     0.059 A 
ATOM     91  F   UNL A   1      48.492  27.771  28.709  1.00  0.00    -0.206 F 
ATOM     92  C   UNL A   1      50.319  26.307  31.463  1.00  0.00     0.060 A 
BRANCH  92  93
ATOM     93  S   UNL A   1      51.991  25.760  31.869  1.00  0.00     0.124 S 
ATOM     94  O   UNL A   1      52.730  26.162  30.677  1.00  0.00    -0.237 OA
ATOM     95  O   UNL A   1      52.284  26.518  33.082  1.00  0.00    -0.237 OA
ATOM     96  O   UNL A   1      51.840  24.321  32.059  1.00  0.00    -0.744 OA
ENDBRANCH  92  93
ENDBRANCH  60  85
ENDBRANCH  34  35
ENDBRANCH  26  29
ENDBRANCH  24  25
ENDBRANCH   1  24
TORSDOF 15
ENDMDL
