MODEL 1
REMARK VINA RESULT:     -12.3      0.000      0.000
REMARK SMILES CC1=Nn2c(nnc(CCC(=O)NCCCNC(=O)c3ccc(-c4c5nc(c(-c6c(F)cc(S(=O)(=O)[O-])cc6F)c6ccc([nH]6)c(-c6c(F)cc(S(=O)(=O)[O-])cc6F)c6nc(c(-c7c(F)cc(S(=O)(=O)[O-])cc7F)c7ccc4[nH]7)C=C6)C=C5)cc3)c2=O)SC1
REMARK SMILES IDX 15 1 14 2 13 3 11 4 12 5 10 7 9 8 8 9 1 10 2 11 3 12 89 13
REMARK SMILES IDX 4 14 88 15 5 16 86 17 6 18 87 19 7 20 16 21 17 22 18 23
REMARK SMILES IDX 19 25 20 26 21 27 85 28 22 29 84 30 23 31 24 32 25 33 78 34
REMARK SMILES IDX 26 35 83 36 77 37 79 38 27 39 82 40 76 41 75 42 28 44 62 45
REMARK SMILES IDX 41 46 61 47 42 48 45 49 60 50 80 51 43 52 44 53 59 55 81 56
REMARK SMILES IDX 46 57 29 58 30 59 39 60 31 61 32 62 38 63 40 64 33 65 34 66
REMARK SMILES IDX 35 67 36 68 37 69 63 70 64 71 73 72 65 73 66 74 72 75 74 76
REMARK SMILES IDX 67 77 68 78 69 79 70 80 71 81 47 82 48 83 57 84 49 85 50 86
REMARK SMILES IDX 56 87 58 88 51 89 52 90 53 91 54 92 55 93
REMARK H PARENT 13 6 17 24 79 43 45 54
REMARK Flexibility Score: inf
ROOT
ATOM      1  C   UNL A   1      37.894  23.536  26.147  1.00  0.00     0.042 C 
ENDROOT
BRANCH   1   2
ATOM      2  C   UNL A   1      36.735  22.637  25.644  1.00  0.00     0.117 C 
BRANCH   2   3
ATOM      3  N   UNL A   1      35.748  22.295  26.667  1.00  0.00    -0.356 N 
ATOM      4  C   UNL A   1      34.406  22.037  26.593  1.00  0.00     0.220 C 
ATOM      5  O   UNL A   1      33.846  21.645  27.620  1.00  0.00    -0.275 OA
ATOM      6  H   UNL A   1      36.117  22.240  27.579  1.00  0.00     0.163 HD
BRANCH   4   7
ATOM      7  C   UNL A   1      33.605  22.212  25.311  1.00  0.00     0.106 C 
BRANCH   7   8
ATOM      8  C   UNL A   1      32.123  21.872  25.494  1.00  0.00     0.074 C 
BRANCH   8   9
ATOM      9  C   UNL A   1      31.278  23.038  25.060  1.00  0.00     0.131 A 
ATOM     10  C   UNL A   1      32.288  28.074  27.147  1.00  0.00     0.064 C 
ATOM     11  C   UNL A   1      31.365  27.363  26.196  1.00  0.00     0.046 C 
ATOM     12  N   UNL A   1      31.056  26.175  26.594  1.00  0.00    -0.172 NA
ATOM     13  C   UNL A   1      31.070  27.965  24.845  1.00  0.00     0.131 C 
ATOM     14  N   UNL A   1      30.672  25.241  25.689  1.00  0.00    -0.169 N 
ATOM     15  S   UNL A   1      29.857  27.033  23.916  1.00  0.00    -0.078 SA
ATOM     16  C   UNL A   1      30.391  25.442  24.366  1.00  0.00     0.214 A 
ATOM     17  C   UNL A   1      30.804  23.952  26.153  1.00  0.00     0.296 A 
ATOM     18  N   UNL A   1      30.492  24.523  23.457  1.00  0.00    -0.123 NA
ATOM     19  O   UNL A   1      30.693  23.542  27.280  1.00  0.00    -0.265 OA
ATOM     20  N   UNL A   1      31.100  23.301  23.803  1.00  0.00    -0.147 NA
ENDBRANCH   8   9
ENDBRANCH   7   8
ENDBRANCH   4   7
ENDBRANCH   2   3
ENDBRANCH   1   2
BRANCH   1  21
ATOM     21  C   UNL A   1      39.244  22.866  26.508  1.00  0.00     0.118 C 
BRANCH  21  22
ATOM     22  N   UNL A   1      40.462  23.624  26.112  1.00  0.00    -0.352 N 
ATOM     23  C   UNL A   1      41.319  24.652  26.449  1.00  0.00     0.251 C 
ATOM     24  H   UNL A   1      40.789  23.234  25.269  1.00  0.00     0.163 HD
ATOM     25  O   UNL A   1      42.318  24.722  25.720  1.00  0.00    -0.269 OA
BRANCH  23  26
ATOM     26  C   UNL A   1      41.199  25.738  27.477  1.00  0.00     0.039 A 
ATOM     27  C   UNL A   1      40.040  25.729  28.285  1.00  0.00     0.014 A 
ATOM     28  C   UNL A   1      42.040  26.831  27.638  1.00  0.00     0.014 A 
ATOM     29  C   UNL A   1      39.805  26.690  29.300  1.00  0.00     0.010 A 
ATOM     30  C   UNL A   1      41.856  27.742  28.721  1.00  0.00     0.010 A 
ATOM     31  C   UNL A   1      40.744  27.686  29.587  1.00  0.00    -0.014 A 
BRANCH  31  32
ATOM     32  C   UNL A   1      40.550  28.666  30.731  1.00  0.00     0.031 A 
ATOM     33  C   UNL A   1      41.352  28.527  32.018  1.00  0.00     0.074 A 
ATOM     34  C   UNL A   1      39.622  29.654  30.680  1.00  0.00     0.049 A 
ATOM     35  N   UNL A   1      41.309  29.249  33.113  1.00  0.00    -0.248 NA
ATOM     36  C   UNL A   1      42.300  27.405  32.095  1.00  0.00     0.031 C 
ATOM     37  C   UNL A   1      38.694  29.897  29.573  1.00  0.00     0.029 A 
ATOM     38  N   UNL A   1      39.280  30.635  31.596  1.00  0.00    -0.354 N 
ATOM     39  C   UNL A   1      42.207  28.664  34.002  1.00  0.00     0.074 A 
ATOM     40  C   UNL A   1      42.718  27.479  33.350  1.00  0.00     0.031 C 
ATOM     41  C   UNL A   1      37.896  30.939  29.873  1.00  0.00     0.029 A 
ATOM     42  C   UNL A   1      38.246  31.458  31.193  1.00  0.00     0.049 A 
ATOM     43  H   UNL A   1      39.735  30.737  32.463  1.00  0.00     0.167 HD
ATOM     44  C   UNL A   1      42.619  29.084  35.225  1.00  0.00     0.037 A 
ATOM     45  C   UNL A   1      37.651  32.515  31.796  1.00  0.00     0.037 A 
ATOM     46  C   UNL A   1      42.164  30.289  35.871  1.00  0.00     0.049 A 
ATOM     47  C   UNL A   1      38.150  32.997  33.139  1.00  0.00     0.074 A 
ATOM     48  C   UNL A   1      42.605  30.843  37.063  1.00  0.00     0.029 A 
ATOM     49  N   UNL A   1      41.176  31.127  35.384  1.00  0.00    -0.354 N 
ATOM     50  N   UNL A   1      39.096  32.492  33.894  1.00  0.00    -0.248 NA
ATOM     51  C   UNL A   1      37.522  34.206  33.703  1.00  0.00     0.031 C 
ATOM     52  C   UNL A   1      41.859  31.998  37.313  1.00  0.00     0.029 A 
ATOM     53  C   UNL A   1      40.985  32.187  36.254  1.00  0.00     0.049 A 
ATOM     54  H   UNL A   1      40.682  30.990  34.543  1.00  0.00     0.167 HD
ATOM     55  C   UNL A   1      39.204  33.342  34.993  1.00  0.00     0.074 A 
ATOM     56  C   UNL A   1      38.231  34.396  34.809  1.00  0.00     0.031 C 
ATOM     57  C   UNL A   1      40.040  33.255  36.055  1.00  0.00     0.037 A 
BRANCH  44  58
ATOM     58  C   UNL A   1      43.677  28.277  35.936  1.00  0.00     0.058 A 
ATOM     59  C   UNL A   1      43.327  27.197  36.763  1.00  0.00     0.135 A 
ATOM     60  C   UNL A   1      45.045  28.512  35.716  1.00  0.00     0.135 A 
ATOM     61  F   UNL A   1      42.036  26.929  37.015  1.00  0.00    -0.206 F 
ATOM     62  C   UNL A   1      44.291  26.392  37.358  1.00  0.00     0.059 A 
ATOM     63  C   UNL A   1      46.027  27.699  36.278  1.00  0.00     0.059 A 
ATOM     64  F   UNL A   1      45.439  29.527  34.930  1.00  0.00    -0.206 F 
ATOM     65  C   UNL A   1      45.639  26.644  37.103  1.00  0.00     0.060 A 
BRANCH  65  66
ATOM     66  S   UNL A   1      46.867  25.551  37.850  1.00  0.00     0.124 S 
ATOM     67  O   UNL A   1      48.077  25.938  37.131  1.00  0.00    -0.237 OA
ATOM     68  O   UNL A   1      46.813  25.942  39.255  1.00  0.00    -0.237 OA
ATOM     69  O   UNL A   1      46.362  24.215  37.553  1.00  0.00    -0.744 OA
ENDBRANCH  65  66
ENDBRANCH  44  58
BRANCH  45  70
ATOM     70  C   UNL A   1      36.549  33.260  31.111  1.00  0.00     0.058 A 
ATOM     71  C   UNL A   1      35.229  33.184  31.586  1.00  0.00     0.135 A 
ATOM     72  C   UNL A   1      36.777  34.034  29.963  1.00  0.00     0.135 A 
ATOM     73  F   UNL A   1      34.950  32.439  32.667  1.00  0.00    -0.206 F 
ATOM     74  C   UNL A   1      34.177  33.834  30.945  1.00  0.00     0.059 A 
ATOM     75  C   UNL A   1      35.743  34.714  29.315  1.00  0.00     0.059 A 
ATOM     76  F   UNL A   1      38.018  34.145  29.463  1.00  0.00    -0.206 F 
ATOM     77  C   UNL A   1      34.445  34.601  29.811  1.00  0.00     0.060 A 
BRANCH  77  78
ATOM     78  S   UNL A   1      33.073  35.476  29.020  1.00  0.00     0.124 S 
ATOM     79  O   UNL A   1      32.531  34.446  28.141  1.00  0.00    -0.237 OA
ATOM     80  O   UNL A   1      32.243  35.838  30.165  1.00  0.00    -0.237 OA
ATOM     81  O   UNL A   1      33.729  36.595  28.351  1.00  0.00    -0.744 OA
ENDBRANCH  77  78
ENDBRANCH  45  70
BRANCH  57  82
ATOM     82  C   UNL A   1      39.996  34.338  37.099  1.00  0.00     0.058 A 
ATOM     83  C   UNL A   1      40.732  35.524  36.961  1.00  0.00     0.135 A 
ATOM     84  C   UNL A   1      39.112  34.237  38.186  1.00  0.00     0.135 A 
ATOM     85  F   UNL A   1      41.594  35.669  35.942  1.00  0.00    -0.206 F 
ATOM     86  C   UNL A   1      40.592  36.574  37.864  1.00  0.00     0.059 A 
ATOM     87  C   UNL A   1      38.939  35.284  39.088  1.00  0.00     0.059 A 
ATOM     88  F   UNL A   1      38.376  33.128  38.359  1.00  0.00    -0.206 F 
ATOM     89  C   UNL A   1      39.684  36.449  38.918  1.00  0.00     0.060 A 
BRANCH  89  90
ATOM     90  S   UNL A   1      39.456  37.853  40.031  1.00  0.00     0.124 S 
ATOM     91  O   UNL A   1      38.198  38.413  39.548  1.00  0.00    -0.237 OA
ATOM     92  O   UNL A   1      39.402  37.207  41.339  1.00  0.00    -0.237 OA
ATOM     93  O   UNL A   1      40.640  38.674  39.794  1.00  0.00    -0.744 OA
ENDBRANCH  89  90
ENDBRANCH  57  82
ENDBRANCH  31  32
ENDBRANCH  23  26
ENDBRANCH  21  22
ENDBRANCH   1  21
TORSDOF 15
ENDMDL
MODEL 2
REMARK VINA RESULT:     -12.1      1.152      1.925
REMARK SMILES CC1=Nn2c(nnc(CCC(=O)NCCCNC(=O)c3ccc(-c4c5nc(c(-c6c(F)cc(S(=O)(=O)[O-])cc6F)c6ccc([nH]6)c(-c6c(F)cc(S(=O)(=O)[O-])cc6F)c6nc(c(-c7c(F)cc(S(=O)(=O)[O-])cc7F)c7ccc4[nH]7)C=C6)C=C5)cc3)c2=O)SC1
REMARK SMILES IDX 15 1 14 2 13 3 11 4 12 5 10 7 9 8 8 9 1 10 2 11 3 12 89 13
REMARK SMILES IDX 4 14 88 15 5 16 86 17 6 18 87 19 7 20 16 21 17 22 18 23
REMARK SMILES IDX 19 25 20 26 21 27 85 28 22 29 84 30 23 31 24 32 25 33 78 34
REMARK SMILES IDX 26 35 83 36 77 37 79 38 27 39 82 40 76 41 75 42 28 44 62 45
REMARK SMILES IDX 41 46 61 47 42 48 45 49 60 50 80 51 43 52 44 53 59 55 81 56
REMARK SMILES IDX 46 57 29 58 30 59 39 60 31 61 32 62 38 63 40 64 33 65 34 66
REMARK SMILES IDX 35 67 36 68 37 69 63 70 64 71 73 72 65 73 66 74 72 75 74 76
REMARK SMILES IDX 67 77 68 78 69 79 70 80 71 81 47 82 48 83 57 84 49 85 50 86
REMARK SMILES IDX 56 87 58 88 51 89 52 90 53 91 54 92 55 93
REMARK H PARENT 13 6 17 24 79 43 45 54
REMARK Flexibility Score: inf
ROOT
ATOM      1  C   UNL A   1      40.282  22.135  26.998  1.00  0.00     0.042 C 
ENDROOT
BRANCH   1   2
ATOM      2  C   UNL A   1      39.089  21.961  26.022  1.00  0.00     0.117 C 
BRANCH   2   3
ATOM      3  N   UNL A   1      37.970  22.869  26.269  1.00  0.00    -0.356 N 
ATOM      4  C   UNL A   1      36.762  23.023  25.645  1.00  0.00     0.220 C 
ATOM      5  O   UNL A   1      35.951  23.797  26.160  1.00  0.00    -0.275 OA
ATOM      6  H   UNL A   1      38.112  23.485  27.025  1.00  0.00     0.163 HD
BRANCH   4   7
ATOM      7  C   UNL A   1      36.398  22.281  24.366  1.00  0.00     0.106 C 
BRANCH   7   8
ATOM      8  C   UNL A   1      34.934  21.832  24.345  1.00  0.00     0.074 C 
BRANCH   8   9
ATOM      9  C   UNL A   1      34.128  22.770  23.490  1.00  0.00     0.131 A 
ATOM     10  C   UNL A   1      29.999  25.686  25.768  1.00  0.00     0.064 C 
ATOM     11  C   UNL A   1      30.687  25.461  24.449  1.00  0.00     0.046 C 
ATOM     12  N   UNL A   1      31.049  24.235  24.278  1.00  0.00    -0.172 NA
ATOM     13  C   UNL A   1      31.065  26.640  23.589  1.00  0.00     0.131 C 
ATOM     14  N   UNL A   1      32.071  23.947  23.435  1.00  0.00    -0.169 N 
ATOM     15  S   UNL A   1      31.757  26.159  22.010  1.00  0.00    -0.078 SA
ATOM     16  C   UNL A   1      32.691  24.805  22.569  1.00  0.00     0.214 A 
ATOM     17  C   UNL A   1      32.639  22.715  23.673  1.00  0.00     0.296 A 
ATOM     18  N   UNL A   1      33.908  24.654  22.149  1.00  0.00    -0.123 NA
ATOM     19  O   UNL A   1      32.115  21.713  24.086  1.00  0.00    -0.265 OA
ATOM     20  N   UNL A   1      34.709  23.663  22.751  1.00  0.00    -0.147 NA
ENDBRANCH   8   9
ENDBRANCH   7   8
ENDBRANCH   4   7
ENDBRANCH   2   3
ENDBRANCH   1   2
BRANCH   1  21
ATOM     21  C   UNL A   1      41.673  22.482  26.407  1.00  0.00     0.118 C 
BRANCH  21  22
ATOM     22  N   UNL A   1      41.783  23.822  25.770  1.00  0.00    -0.352 N 
ATOM     23  C   UNL A   1      41.825  25.184  25.990  1.00  0.00     0.251 C 
ATOM     24  H   UNL A   1      41.856  23.679  24.799  1.00  0.00     0.163 HD
ATOM     25  O   UNL A   1      42.082  25.842  24.973  1.00  0.00    -0.269 OA
BRANCH  23  26
ATOM     26  C   UNL A   1      41.526  25.994  27.217  1.00  0.00     0.039 A 
ATOM     27  C   UNL A   1      42.426  27.036  27.533  1.00  0.00     0.014 A 
ATOM     28  C   UNL A   1      40.530  25.751  28.154  1.00  0.00     0.014 A 
ATOM     29  C   UNL A   1      42.258  27.882  28.656  1.00  0.00     0.010 A 
ATOM     30  C   UNL A   1      40.301  26.661  29.231  1.00  0.00     0.010 A 
ATOM     31  C   UNL A   1      41.149  27.755  29.500  1.00  0.00    -0.014 A 
BRANCH  31  32
ATOM     32  C   UNL A   1      40.904  28.712  30.653  1.00  0.00     0.031 A 
ATOM     33  C   UNL A   1      41.693  28.586  31.949  1.00  0.00     0.074 A 
ATOM     34  C   UNL A   1      39.941  29.667  30.602  1.00  0.00     0.049 A 
ATOM     35  N   UNL A   1      41.608  29.292  33.052  1.00  0.00    -0.248 NA
ATOM     36  C   UNL A   1      42.679  27.498  32.026  1.00  0.00     0.031 C 
ATOM     37  C   UNL A   1      39.020  29.890  29.484  1.00  0.00     0.029 A 
ATOM     38  N   UNL A   1      39.551  30.623  31.525  1.00  0.00    -0.354 N 
ATOM     39  C   UNL A   1      42.515  28.728  33.947  1.00  0.00     0.074 A 
ATOM     40  C   UNL A   1      43.077  27.571  33.288  1.00  0.00     0.031 C 
ATOM     41  C   UNL A   1      38.181  30.899  29.785  1.00  0.00     0.029 A 
ATOM     42  C   UNL A   1      38.494  31.413  31.117  1.00  0.00     0.049 A 
ATOM     43  H   UNL A   1      39.991  30.730  32.399  1.00  0.00     0.167 HD
ATOM     44  C   UNL A   1      42.894  29.148  35.181  1.00  0.00     0.037 A 
ATOM     45  C   UNL A   1      37.852  32.440  31.724  1.00  0.00     0.037 A 
ATOM     46  C   UNL A   1      42.387  30.326  35.835  1.00  0.00     0.049 A 
ATOM     47  C   UNL A   1      38.315  32.923  33.080  1.00  0.00     0.074 A 
ATOM     48  C   UNL A   1      42.792  30.881  37.039  1.00  0.00     0.029 A 
ATOM     49  N   UNL A   1      41.377  31.135  35.345  1.00  0.00    -0.354 N 
ATOM     50  N   UNL A   1      39.269  32.443  33.842  1.00  0.00    -0.248 NA
ATOM     51  C   UNL A   1      37.637  34.101  33.650  1.00  0.00     0.031 C 
ATOM     52  C   UNL A   1      42.001  32.005  37.293  1.00  0.00     0.029 A 
ATOM     53  C   UNL A   1      41.136  32.176  36.225  1.00  0.00     0.049 A 
ATOM     54  H   UNL A   1      40.899  30.991  34.495  1.00  0.00     0.167 HD
ATOM     55  C   UNL A   1      39.330  33.282  34.952  1.00  0.00     0.074 A 
ATOM     56  C   UNL A   1      38.323  34.302  34.768  1.00  0.00     0.031 C 
ATOM     57  C   UNL A   1      40.155  33.211  36.026  1.00  0.00     0.037 A 
BRANCH  44  58
ATOM     58  C   UNL A   1      43.972  28.371  35.896  1.00  0.00     0.058 A 
ATOM     59  C   UNL A   1      45.324  28.732  35.775  1.00  0.00     0.135 A 
ATOM     60  C   UNL A   1      43.653  27.330  36.785  1.00  0.00     0.135 A 
ATOM     61  F   UNL A   1      45.689  29.713  34.935  1.00  0.00    -0.206 F 
ATOM     62  C   UNL A   1      46.321  28.081  36.492  1.00  0.00     0.059 A 
ATOM     63  C   UNL A   1      44.633  26.683  37.537  1.00  0.00     0.059 A 
ATOM     64  F   UNL A   1      42.378  26.945  36.947  1.00  0.00    -0.206 F 
ATOM     65  C   UNL A   1      45.965  27.064  37.378  1.00  0.00     0.060 A 
BRANCH  65  66
ATOM     66  S   UNL A   1      47.275  26.269  38.333  1.00  0.00     0.124 S 
ATOM     67  O   UNL A   1      48.437  26.495  37.479  1.00  0.00    -0.237 OA
ATOM     68  O   UNL A   1      47.251  27.026  39.580  1.00  0.00    -0.237 OA
ATOM     69  O   UNL A   1      46.832  24.882  38.435  1.00  0.00    -0.744 OA
ENDBRANCH  65  66
ENDBRANCH  44  58
BRANCH  45  70
ATOM     70  C   UNL A   1      36.734  33.153  31.033  1.00  0.00     0.058 A 
ATOM     71  C   UNL A   1      35.405  32.984  31.457  1.00  0.00     0.135 A 
ATOM     72  C   UNL A   1      36.955  33.989  29.928  1.00  0.00     0.135 A 
ATOM     73  F   UNL A   1      35.132  32.178  32.494  1.00  0.00    -0.206 F 
ATOM     74  C   UNL A   1      34.340  33.603  30.808  1.00  0.00     0.059 A 
ATOM     75  C   UNL A   1      35.908  34.640  29.274  1.00  0.00     0.059 A 
ATOM     76  F   UNL A   1      38.204  34.190  29.478  1.00  0.00    -0.206 F 
ATOM     77  C   UNL A   1      34.602  34.435  29.717  1.00  0.00     0.060 A 
BRANCH  77  78
ATOM     78  S   UNL A   1      33.210  35.267  28.916  1.00  0.00     0.124 S 
ATOM     79  O   UNL A   1      32.457  35.759  30.064  1.00  0.00    -0.237 OA
ATOM     80  O   UNL A   1      33.884  36.282  28.113  1.00  0.00    -0.237 OA
ATOM     81  O   UNL A   1      32.572  34.197  28.155  1.00  0.00    -0.744 OA
ENDBRANCH  77  78
ENDBRANCH  45  70
BRANCH  57  82
ATOM     82  C   UNL A   1      40.057  34.279  37.082  1.00  0.00     0.058 A 
ATOM     83  C   UNL A   1      40.708  35.513  36.943  1.00  0.00     0.135 A 
ATOM     84  C   UNL A   1      39.204  34.107  38.185  1.00  0.00     0.135 A 
ATOM     85  F   UNL A   1      41.537  35.728  35.910  1.00  0.00    -0.206 F 
ATOM     86  C   UNL A   1      40.514  36.543  37.860  1.00  0.00     0.059 A 
ATOM     87  C   UNL A   1      38.977  35.131  39.101  1.00  0.00     0.059 A 
ATOM     88  F   UNL A   1      38.549  32.948  38.358  1.00  0.00    -0.206 F 
ATOM     89  C   UNL A   1      39.638  36.346  38.929  1.00  0.00     0.060 A 
BRANCH  89  90
ATOM     90  S   UNL A   1      39.336  37.720  40.062  1.00  0.00     0.124 S 
ATOM     91  O   UNL A   1      40.581  38.474  39.952  1.00  0.00    -0.237 OA
ATOM     92  O   UNL A   1      38.158  38.352  39.478  1.00  0.00    -0.237 OA
ATOM     93  O   UNL A   1      39.114  37.062  41.347  1.00  0.00    -0.744 OA
ENDBRANCH  89  90
ENDBRANCH  57  82
ENDBRANCH  31  32
ENDBRANCH  23  26
ENDBRANCH  21  22
ENDBRANCH   1  21
TORSDOF 15
ENDMDL
MODEL 3
REMARK VINA RESULT:     -11.9      6.961     11.807
REMARK SMILES CC1=Nn2c(nnc(CCC(=O)NCCCNC(=O)c3ccc(-c4c5nc(c(-c6c(F)cc(S(=O)(=O)[O-])cc6F)c6ccc([nH]6)c(-c6c(F)cc(S(=O)(=O)[O-])cc6F)c6nc(c(-c7c(F)cc(S(=O)(=O)[O-])cc7F)c7ccc4[nH]7)C=C6)C=C5)cc3)c2=O)SC1
REMARK SMILES IDX 15 1 14 2 13 3 11 4 12 5 10 7 9 8 8 9 1 10 2 11 3 12 89 13
REMARK SMILES IDX 4 14 88 15 5 16 86 17 6 18 87 19 7 20 16 21 17 22 18 23
REMARK SMILES IDX 19 25 20 26 21 27 85 28 22 29 84 30 23 31 24 32 25 33 78 34
REMARK SMILES IDX 26 35 83 36 77 37 79 38 27 39 82 40 76 41 75 42 28 44 62 45
REMARK SMILES IDX 41 46 61 47 42 48 45 49 60 50 80 51 43 52 44 53 59 55 81 56
REMARK SMILES IDX 46 57 29 58 30 59 39 60 31 61 32 62 38 63 40 64 33 65 34 66
REMARK SMILES IDX 35 67 36 68 37 69 63 70 64 71 73 72 65 73 66 74 72 75 74 76
REMARK SMILES IDX 67 77 68 78 69 79 70 80 71 81 47 82 48 83 57 84 49 85 50 86
REMARK SMILES IDX 56 87 58 88 51 89 52 90 53 91 54 92 55 93
REMARK H PARENT 13 6 17 24 79 43 45 54
REMARK Flexibility Score: inf
ROOT
ATOM      1  C   UNL A   1      32.947  29.383  26.574  1.00  0.00     0.042 C 
ENDROOT
BRANCH   1   2
ATOM      2  C   UNL A   1      32.748  29.042  25.074  1.00  0.00     0.117 C 
BRANCH   2   3
ATOM      3  N   UNL A   1      31.601  29.703  24.452  1.00  0.00    -0.356 N 
ATOM      4  C   UNL A   1      30.506  29.209  23.798  1.00  0.00     0.220 C 
ATOM      5  O   UNL A   1      29.622  30.011  23.485  1.00  0.00    -0.275 OA
ATOM      6  H   UNL A   1      31.622  30.686  24.515  1.00  0.00     0.163 HD
BRANCH   4   7
ATOM      7  C   UNL A   1      30.347  27.734  23.457  1.00  0.00     0.106 C 
BRANCH   7   8
ATOM      8  C   UNL A   1      31.413  27.242  22.473  1.00  0.00     0.074 C 
BRANCH   8   9
ATOM      9  C   UNL A   1      31.500  25.741  22.529  1.00  0.00     0.131 A 
ATOM     10  C   UNL A   1      36.310  23.327  23.860  1.00  0.00     0.064 C 
ATOM     11  C   UNL A   1      34.892  22.989  23.486  1.00  0.00     0.046 C 
ATOM     12  N   UNL A   1      34.405  23.792  22.601  1.00  0.00    -0.172 NA
ATOM     13  C   UNL A   1      34.135  21.950  24.274  1.00  0.00     0.131 C 
ATOM     14  N   UNL A   1      33.063  23.959  22.513  1.00  0.00    -0.169 N 
ATOM     15  S   UNL A   1      32.515  21.603  23.596  1.00  0.00    -0.078 SA
ATOM     16  C   UNL A   1      32.097  23.230  23.151  1.00  0.00     0.214 A 
ATOM     17  C   UNL A   1      32.703  25.125  21.875  1.00  0.00     0.296 A 
ATOM     18  N   UNL A   1      30.912  23.680  23.423  1.00  0.00    -0.123 NA
ATOM     19  O   UNL A   1      33.277  25.707  20.991  1.00  0.00    -0.265 OA
ATOM     20  N   UNL A   1      30.653  25.050  23.226  1.00  0.00    -0.147 NA
ENDBRANCH   8   9
ENDBRANCH   7   8
ENDBRANCH   4   7
ENDBRANCH   2   3
ENDBRANCH   1   2
BRANCH   1  21
ATOM     21  C   UNL A   1      34.267  28.949  27.260  1.00  0.00     0.118 C 
BRANCH  21  22
ATOM     22  N   UNL A   1      34.782  29.876  28.304  1.00  0.00    -0.352 N 
ATOM     23  C   UNL A   1      35.910  30.379  28.921  1.00  0.00     0.251 C 
ATOM     24  H   UNL A   1      34.002  30.306  28.724  1.00  0.00     0.163 HD
ATOM     25  O   UNL A   1      35.674  31.308  29.704  1.00  0.00    -0.269 OA
BRANCH  23  26
ATOM     26  C   UNL A   1      37.342  29.933  28.870  1.00  0.00     0.039 A 
ATOM     27  C   UNL A   1      37.906  29.736  27.590  1.00  0.00     0.014 A 
ATOM     28  C   UNL A   1      38.140  29.566  29.945  1.00  0.00     0.014 A 
ATOM     29  C   UNL A   1      39.248  29.326  27.398  1.00  0.00     0.010 A 
ATOM     30  C   UNL A   1      39.519  29.247  29.758  1.00  0.00     0.010 A 
ATOM     31  C   UNL A   1      40.111  29.134  28.483  1.00  0.00    -0.014 A 
BRANCH  31  32
ATOM     32  C   UNL A   1      41.576  28.785  28.291  1.00  0.00     0.031 A 
ATOM     33  C   UNL A   1      42.000  27.361  27.960  1.00  0.00     0.074 A 
ATOM     34  C   UNL A   1      42.561  29.702  28.468  1.00  0.00     0.049 A 
ATOM     35  N   UNL A   1      43.202  26.865  27.785  1.00  0.00    -0.248 NA
ATOM     36  C   UNL A   1      40.931  26.357  27.849  1.00  0.00     0.031 C 
ATOM     37  C   UNL A   1      42.366  31.096  28.874  1.00  0.00     0.029 A 
ATOM     38  N   UNL A   1      43.937  29.598  28.354  1.00  0.00    -0.354 N 
ATOM     39  C   UNL A   1      43.032  25.501  27.557  1.00  0.00     0.074 A 
ATOM     40  C   UNL A   1      41.619  25.233  27.700  1.00  0.00     0.031 C 
ATOM     41  C   UNL A   1      43.561  31.707  28.979  1.00  0.00     0.029 A 
ATOM     42  C   UNL A   1      44.624  30.761  28.644  1.00  0.00     0.049 A 
ATOM     43  H   UNL A   1      44.389  28.765  28.088  1.00  0.00     0.167 HD
ATOM     44  C   UNL A   1      43.943  24.557  27.211  1.00  0.00     0.037 A 
ATOM     45  C   UNL A   1      45.947  31.051  28.633  1.00  0.00     0.037 A 
ATOM     46  C   UNL A   1      45.348  24.810  27.011  1.00  0.00     0.049 A 
ATOM     47  C   UNL A   1      46.946  30.001  28.204  1.00  0.00     0.074 A 
ATOM     48  C   UNL A   1      46.322  23.935  26.559  1.00  0.00     0.029 A 
ATOM     49  N   UNL A   1      45.976  26.022  27.241  1.00  0.00    -0.354 N 
ATOM     50  N   UNL A   1      46.732  28.751  27.867  1.00  0.00    -0.248 NA
ATOM     51  C   UNL A   1      48.362  30.402  28.125  1.00  0.00     0.031 C 
ATOM     52  C   UNL A   1      47.547  24.608  26.550  1.00  0.00     0.029 A 
ATOM     53  C   UNL A   1      47.326  25.915  26.952  1.00  0.00     0.049 A 
ATOM     54  H   UNL A   1      45.530  26.839  27.562  1.00  0.00     0.167 HD
ATOM     55  C   UNL A   1      47.972  28.236  27.499  1.00  0.00     0.074 A 
ATOM     56  C   UNL A   1      48.936  29.304  27.649  1.00  0.00     0.031 C 
ATOM     57  C   UNL A   1      48.280  26.987  27.069  1.00  0.00     0.037 A 
BRANCH  44  58
ATOM     58  C   UNL A   1      43.451  23.155  26.947  1.00  0.00     0.058 A 
ATOM     59  C   UNL A   1      43.403  22.641  25.640  1.00  0.00     0.135 A 
ATOM     60  C   UNL A   1      43.124  22.286  28.001  1.00  0.00     0.135 A 
ATOM     61  F   UNL A   1      43.697  23.427  24.593  1.00  0.00    -0.206 F 
ATOM     62  C   UNL A   1      43.032  21.326  25.387  1.00  0.00     0.059 A 
ATOM     63  C   UNL A   1      42.779  20.955  27.772  1.00  0.00     0.059 A 
ATOM     64  F   UNL A   1      43.159  22.720  29.271  1.00  0.00    -0.206 F 
ATOM     65  C   UNL A   1      42.731  20.487  26.459  1.00  0.00     0.060 A 
BRANCH  65  66
ATOM     66  S   UNL A   1      42.301  18.769  26.104  1.00  0.00     0.124 S 
ATOM     67  O   UNL A   1      40.889  18.889  25.754  1.00  0.00    -0.237 OA
ATOM     68  O   UNL A   1      43.201  18.448  25.001  1.00  0.00    -0.237 OA
ATOM     69  O   UNL A   1      42.579  18.080  27.360  1.00  0.00    -0.744 OA
ENDBRANCH  65  66
ENDBRANCH  44  58
BRANCH  45  70
ATOM     70  C   UNL A   1      46.427  32.427  28.971  1.00  0.00     0.058 A 
ATOM     71  C   UNL A   1      46.550  33.409  27.974  1.00  0.00     0.135 A 
ATOM     72  C   UNL A   1      46.798  32.784  30.277  1.00  0.00     0.135 A 
ATOM     73  F   UNL A   1      46.232  33.115  26.704  1.00  0.00    -0.206 F 
ATOM     74  C   UNL A   1      47.032  34.685  28.253  1.00  0.00     0.059 A 
ATOM     75  C   UNL A   1      47.262  34.064  30.587  1.00  0.00     0.059 A 
ATOM     76  F   UNL A   1      46.701  31.888  31.271  1.00  0.00    -0.206 F 
ATOM     77  C   UNL A   1      47.382  35.006  29.566  1.00  0.00     0.060 A 
BRANCH  77  78
ATOM     78  S   UNL A   1      47.962  36.683  29.916  1.00  0.00     0.124 S 
ATOM     79  O   UNL A   1      49.239  36.710  29.212  1.00  0.00    -0.237 OA
ATOM     80  O   UNL A   1      46.899  37.499  29.340  1.00  0.00    -0.237 OA
ATOM     81  O   UNL A   1      48.045  36.712  31.373  1.00  0.00    -0.744 OA
ENDBRANCH  77  78
ENDBRANCH  45  70
BRANCH  57  82
ATOM     82  C   UNL A   1      49.703  26.688  26.681  1.00  0.00     0.058 A 
ATOM     83  C   UNL A   1      50.637  26.218  27.615  1.00  0.00     0.135 A 
ATOM     84  C   UNL A   1      50.098  26.757  25.335  1.00  0.00     0.135 A 
ATOM     85  F   UNL A   1      50.311  26.137  28.915  1.00  0.00    -0.206 F 
ATOM     86  C   UNL A   1      51.916  25.824  27.228  1.00  0.00     0.059 A 
ATOM     87  C   UNL A   1      51.363  26.346  24.922  1.00  0.00     0.059 A 
ATOM     88  F   UNL A   1      49.239  27.190  24.399  1.00  0.00    -0.206 F 
ATOM     89  C   UNL A   1      52.265  25.880  25.877  1.00  0.00     0.060 A 
BRANCH  89  90
ATOM     90  S   UNL A   1      53.898  25.288  25.382  1.00  0.00     0.124 S 
ATOM     91  O   UNL A   1      53.561  24.085  24.627  1.00  0.00    -0.237 OA
ATOM     92  O   UNL A   1      54.410  26.407  24.597  1.00  0.00    -0.237 OA
ATOM     93  O   UNL A   1      54.579  25.060  26.654  1.00  0.00    -0.744 OA
ENDBRANCH  89  90
ENDBRANCH  57  82
ENDBRANCH  31  32
ENDBRANCH  23  26
ENDBRANCH  21  22
ENDBRANCH   1  21
TORSDOF 15
ENDMDL
