MODEL 1
REMARK VINA RESULT:     -12.5      0.000      0.000
REMARK SMILES Cc1cccc(NC(=O)[C@H]2C=C[C@@H]([NH3+])C2)c1C(=O)NCCCNC(=O)c1ccc(-c2c3nc(c(-c4c(F)cc(S(=O)(=O)[O-])cc4F)c4ccc([nH]4)c(-c4c(F)cc(S(=O)(=O)[O-])cc4F)c4nc(c(-c5c(F)cc(S(=O)(=O)[O-])cc5F)c5ccc2[nH]5)C=C4)C=C3)cc1
REMARK SMILES IDX 21 1 20 2 19 3 17 4 18 5 16 7 1 8 2 9 3 10 4 11 6 12 5 13
REMARK SMILES IDX 7 14 8 15 9 17 10 18 11 19 15 20 12 21 13 22 14 23 22 27
REMARK SMILES IDX 23 28 24 29 25 31 26 32 27 33 91 34 28 35 90 36 29 37 30 38
REMARK SMILES IDX 31 39 84 40 32 41 89 42 83 43 85 44 33 45 88 46 82 47 81 48
REMARK SMILES IDX 34 50 68 51 47 52 67 53 48 54 51 55 66 56 86 57 49 58 50 59
REMARK SMILES IDX 65 61 87 62 52 63 35 64 36 65 45 66 37 67 38 68 44 69 46 70
REMARK SMILES IDX 39 71 40 72 41 73 42 74 43 75 69 76 70 77 79 78 71 79 72 80
REMARK SMILES IDX 78 81 80 82 73 83 74 84 75 85 76 86 77 87 53 88 54 89 63 90
REMARK SMILES IDX 55 91 56 92 62 93 64 94 57 95 58 96 59 97 60 98 61 99
REMARK H PARENT 19 6 7 16 14 24 14 25 14 26 23 30 85 49 51 60
REMARK Flexibility Score: inf
ROOT
ATOM      1  C   UNL A   1      31.788  26.010  26.513  1.00  0.00     0.042 C 
ENDROOT
BRANCH   1   2
ATOM      2  C   UNL A   1      30.704  24.849  26.128  1.00  0.00     0.118 C 
BRANCH   2   3
ATOM      3  N   UNL A   1      30.988  23.903  25.012  1.00  0.00    -0.352 N 
ATOM      4  C   UNL A   1      32.014  23.069  24.589  1.00  0.00     0.253 C 
ATOM      5  O   UNL A   1      31.764  22.159  23.790  1.00  0.00    -0.269 OA
ATOM      6  H   UNL A   1      30.223  23.856  24.394  1.00  0.00     0.163 HD
BRANCH   4   7
ATOM      7  C   UNL A   1      33.441  23.185  25.031  1.00  0.00     0.066 A 
ATOM      8  C   UNL A   1      32.981  22.651  27.501  1.00  0.00     0.045 C 
ATOM      9  C   UNL A   1      33.858  22.713  26.290  1.00  0.00    -0.036 A 
ATOM     10  C   UNL A   1      35.213  22.556  26.571  1.00  0.00     0.004 A 
ATOM     11  C   UNL A   1      36.099  23.350  25.898  1.00  0.00     0.002 A 
ATOM     12  C   UNL A   1      34.404  23.906  24.266  1.00  0.00     0.054 A 
ATOM     13  C   UNL A   1      35.629  24.141  24.863  1.00  0.00     0.027 A 
BRANCH  12  14
ATOM     14  N   UNL A   1      34.178  24.418  22.965  1.00  0.00    -0.325 N 
ATOM     15  C   UNL A   1      33.558  25.530  22.458  1.00  0.00     0.231 C 
ATOM     16  H   UNL A   1      34.554  23.841  22.261  1.00  0.00     0.169 HD
ATOM     17  O   UNL A   1      33.576  25.636  21.216  1.00  0.00    -0.274 OA
BRANCH  15  18
ATOM     18  C   UNL A   1      32.786  26.664  23.210  1.00  0.00     0.107 C 
ATOM     19  C   UNL A   1      33.681  27.821  23.560  1.00  0.00    -0.012 C 
ATOM     20  C   UNL A   1      31.482  27.334  22.735  1.00  0.00     0.087 C 
ATOM     21  C   UNL A   1      33.061  29.001  23.445  1.00  0.00     0.033 C 
ATOM     22  C   UNL A   1      31.640  28.858  23.008  1.00  0.00     0.205 C 
BRANCH  22  23
ATOM     23  N   UNL A   1      31.366  29.728  21.870  1.00  0.00    -0.352 N 
ATOM     24  H   UNL A   1      30.597  30.356  22.100  1.00  0.00     0.345 HD
ATOM     25  H   UNL A   1      31.112  29.160  21.062  1.00  0.00     0.345 HD
ATOM     26  H   UNL A   1      32.198  30.275  21.653  1.00  0.00     0.345 HD
ENDBRANCH  22  23
ENDBRANCH  15  18
ENDBRANCH  12  14
ENDBRANCH   4   7
ENDBRANCH   2   3
ENDBRANCH   1   2
BRANCH   1  27
ATOM     27  C   UNL A   1      31.296  27.520  26.461  1.00  0.00     0.118 C 
BRANCH  27  28
ATOM     28  N   UNL A   1      31.742  28.691  27.407  1.00  0.00    -0.352 N 
ATOM     29  C   UNL A   1      32.604  29.872  27.336  1.00  0.00     0.251 C 
ATOM     30  H   UNL A   1      31.326  28.608  28.296  1.00  0.00     0.163 HD
ATOM     31  O   UNL A   1      31.974  30.937  27.482  1.00  0.00    -0.269 OA
BRANCH  29  32
ATOM     32  C   UNL A   1      34.169  30.101  27.177  1.00  0.00     0.039 A 
ATOM     33  C   UNL A   1      35.047  29.017  26.847  1.00  0.00     0.014 A 
ATOM     34  C   UNL A   1      34.864  31.280  27.411  1.00  0.00     0.014 A 
ATOM     35  C   UNL A   1      36.414  28.979  27.346  1.00  0.00     0.010 A 
ATOM     36  C   UNL A   1      36.205  31.246  27.912  1.00  0.00     0.010 A 
ATOM     37  C   UNL A   1      36.895  30.043  28.127  1.00  0.00    -0.014 A 
BRANCH  37  38
ATOM     38  C   UNL A   1      37.855  29.909  29.312  1.00  0.00     0.031 A 
ATOM     39  C   UNL A   1      37.712  30.759  30.488  1.00  0.00     0.074 A 
ATOM     40  C   UNL A   1      38.816  28.960  29.563  1.00  0.00     0.049 A 
ATOM     41  N   UNL A   1      38.673  31.422  31.047  1.00  0.00    -0.248 NA
ATOM     42  C   UNL A   1      36.443  30.801  31.189  1.00  0.00     0.031 C 
ATOM     43  C   UNL A   1      39.663  28.649  30.732  1.00  0.00     0.029 A 
ATOM     44  N   UNL A   1      39.223  27.923  28.756  1.00  0.00    -0.354 N 
ATOM     45  C   UNL A   1      38.229  31.689  32.325  1.00  0.00     0.074 A 
ATOM     46  C   UNL A   1      36.792  31.485  32.279  1.00  0.00     0.031 C 
ATOM     47  C   UNL A   1      40.675  27.827  30.362  1.00  0.00     0.029 A 
ATOM     48  C   UNL A   1      40.565  27.600  28.935  1.00  0.00     0.049 A 
ATOM     49  H   UNL A   1      38.631  27.460  28.121  1.00  0.00     0.167 HD
ATOM     50  C   UNL A   1      39.084  31.745  33.394  1.00  0.00     0.037 A 
ATOM     51  C   UNL A   1      41.448  27.836  27.909  1.00  0.00     0.037 A 
ATOM     52  C   UNL A   1      40.427  31.225  33.065  1.00  0.00     0.049 A 
ATOM     53  C   UNL A   1      42.316  29.016  28.264  1.00  0.00     0.074 A 
ATOM     54  C   UNL A   1      41.147  30.102  33.455  1.00  0.00     0.029 A 
ATOM     55  N   UNL A   1      41.126  31.734  31.983  1.00  0.00    -0.354 N 
ATOM     56  N   UNL A   1      42.432  29.463  29.479  1.00  0.00    -0.248 NA
ATOM     57  C   UNL A   1      43.031  29.849  27.299  1.00  0.00     0.031 C 
ATOM     58  C   UNL A   1      42.289  29.967  32.611  1.00  0.00     0.029 A 
ATOM     59  C   UNL A   1      42.281  31.017  31.714  1.00  0.00     0.049 A 
ATOM     60  H   UNL A   1      40.835  32.517  31.463  1.00  0.00     0.167 HD
ATOM     61  C   UNL A   1      43.048  30.677  29.468  1.00  0.00     0.074 A 
ATOM     62  C   UNL A   1      43.460  30.854  28.085  1.00  0.00     0.031 C 
ATOM     63  C   UNL A   1      43.117  31.443  30.595  1.00  0.00     0.037 A 
BRANCH  50  64
ATOM     64  C   UNL A   1      38.598  31.984  34.818  1.00  0.00     0.058 A 
ATOM     65  C   UNL A   1      38.421  33.280  35.343  1.00  0.00     0.135 A 
ATOM     66  C   UNL A   1      38.225  30.949  35.707  1.00  0.00     0.135 A 
ATOM     67  F   UNL A   1      38.570  34.373  34.583  1.00  0.00    -0.206 F 
ATOM     68  C   UNL A   1      38.030  33.524  36.665  1.00  0.00     0.059 A 
ATOM     69  C   UNL A   1      37.914  31.159  37.053  1.00  0.00     0.059 A 
ATOM     70  F   UNL A   1      38.059  29.687  35.283  1.00  0.00    -0.206 F 
ATOM     71  C   UNL A   1      37.808  32.456  37.523  1.00  0.00     0.060 A 
BRANCH  71  72
ATOM     72  S   UNL A   1      37.273  32.780  39.212  1.00  0.00     0.124 S 
ATOM     73  O   UNL A   1      35.819  32.767  39.088  1.00  0.00    -0.237 OA
ATOM     74  O   UNL A   1      37.860  31.656  39.934  1.00  0.00    -0.237 OA
ATOM     75  O   UNL A   1      37.858  34.086  39.512  1.00  0.00    -0.744 OA
ENDBRANCH  71  72
ENDBRANCH  50  64
BRANCH  51  76
ATOM     76  C   UNL A   1      40.944  27.533  26.471  1.00  0.00     0.058 A 
ATOM     77  C   UNL A   1      41.732  28.116  25.460  1.00  0.00     0.135 A 
ATOM     78  C   UNL A   1      40.732  26.184  26.261  1.00  0.00     0.135 A 
ATOM     79  F   UNL A   1      41.500  29.379  25.083  1.00  0.00    -0.206 F 
ATOM     80  C   UNL A   1      42.790  27.424  24.870  1.00  0.00     0.059 A 
ATOM     81  C   UNL A   1      41.803  25.479  25.704  1.00  0.00     0.059 A 
ATOM     82  F   UNL A   1      39.826  25.518  26.998  1.00  0.00    -0.206 F 
ATOM     83  C   UNL A   1      42.936  26.095  25.209  1.00  0.00     0.060 A 
BRANCH  83  84
ATOM     84  S   UNL A   1      44.755  25.288  25.330  1.00  0.00     0.124 S 
ATOM     85  O   UNL A   1      44.546  24.146  24.453  1.00  0.00    -0.237 OA
ATOM     86  O   UNL A   1      45.672  26.254  24.790  1.00  0.00    -0.237 OA
ATOM     87  O   UNL A   1      44.986  24.930  26.727  1.00  0.00    -0.744 OA
ENDBRANCH  83  84
ENDBRANCH  51  76
BRANCH  63  88
ATOM     88  C   UNL A   1      43.943  32.692  30.713  1.00  0.00     0.058 A 
ATOM     89  C   UNL A   1      45.222  32.698  31.293  1.00  0.00     0.135 A 
ATOM     90  C   UNL A   1      43.423  33.962  30.370  1.00  0.00     0.135 A 
ATOM     91  F   UNL A   1      45.758  31.583  31.813  1.00  0.00    -0.206 F 
ATOM     92  C   UNL A   1      45.983  33.860  31.402  1.00  0.00     0.059 A 
ATOM     93  C   UNL A   1      44.144  35.137  30.514  1.00  0.00     0.059 A 
ATOM     94  F   UNL A   1      42.189  34.125  29.879  1.00  0.00    -0.206 F 
ATOM     95  C   UNL A   1      45.439  35.073  30.993  1.00  0.00     0.060 A 
BRANCH  95  96
ATOM     96  S   UNL A   1      46.423  36.569  31.122  1.00  0.00     0.124 S 
ATOM     97  O   UNL A   1      47.065  36.409  32.424  1.00  0.00    -0.237 OA
ATOM     98  O   UNL A   1      47.301  36.438  29.963  1.00  0.00    -0.237 OA
ATOM     99  O   UNL A   1      45.434  37.639  31.045  1.00  0.00    -0.744 OA
ENDBRANCH  95  96
ENDBRANCH  63  88
ENDBRANCH  37  38
ENDBRANCH  29  32
ENDBRANCH  27  28
ENDBRANCH   1  27
TORSDOF 16
ENDMDL
MODEL 2
REMARK VINA RESULT:     -12.0      3.542      8.654
REMARK SMILES Cc1cccc(NC(=O)[C@H]2C=C[C@@H]([NH3+])C2)c1C(=O)NCCCNC(=O)c1ccc(-c2c3nc(c(-c4c(F)cc(S(=O)(=O)[O-])cc4F)c4ccc([nH]4)c(-c4c(F)cc(S(=O)(=O)[O-])cc4F)c4nc(c(-c5c(F)cc(S(=O)(=O)[O-])cc5F)c5ccc2[nH]5)C=C4)C=C3)cc1
REMARK SMILES IDX 21 1 20 2 19 3 17 4 18 5 16 7 1 8 2 9 3 10 4 11 6 12 5 13
REMARK SMILES IDX 7 14 8 15 9 17 10 18 11 19 15 20 12 21 13 22 14 23 22 27
REMARK SMILES IDX 23 28 24 29 25 31 26 32 27 33 91 34 28 35 90 36 29 37 30 38
REMARK SMILES IDX 31 39 84 40 32 41 89 42 83 43 85 44 33 45 88 46 82 47 81 48
REMARK SMILES IDX 34 50 68 51 47 52 67 53 48 54 51 55 66 56 86 57 49 58 50 59
REMARK SMILES IDX 65 61 87 62 52 63 35 64 36 65 45 66 37 67 38 68 44 69 46 70
REMARK SMILES IDX 39 71 40 72 41 73 42 74 43 75 69 76 70 77 79 78 71 79 72 80
REMARK SMILES IDX 78 81 80 82 73 83 74 84 75 85 76 86 77 87 53 88 54 89 63 90
REMARK SMILES IDX 55 91 56 92 62 93 64 94 57 95 58 96 59 97 60 98 61 99
REMARK H PARENT 19 6 7 16 14 24 14 25 14 26 23 30 85 49 51 60
REMARK Flexibility Score: inf
ROOT
ATOM      1  C   UNL A   1      37.825  23.364  25.654  1.00  0.00     0.042 C 
ENDROOT
BRANCH   1   2
ATOM      2  C   UNL A   1      36.367  23.952  25.205  1.00  0.00     0.118 C 
BRANCH   2   3
ATOM      3  N   UNL A   1      35.772  23.556  23.899  1.00  0.00    -0.352 N 
ATOM      4  C   UNL A   1      34.515  23.345  23.347  1.00  0.00     0.253 C 
ATOM      5  O   UNL A   1      34.383  23.356  22.118  1.00  0.00    -0.269 OA
ATOM      6  H   UNL A   1      36.476  23.396  23.230  1.00  0.00     0.163 HD
BRANCH   4   7
ATOM      7  C   UNL A   1      33.269  23.099  24.142  1.00  0.00     0.066 A 
ATOM      8  C   UNL A   1      33.789  20.639  24.668  1.00  0.00     0.045 C 
ATOM      9  C   UNL A   1      33.129  21.953  24.947  1.00  0.00    -0.036 A 
ATOM     10  C   UNL A   1      32.112  21.877  25.897  1.00  0.00     0.004 A 
ATOM     11  C   UNL A   1      30.975  22.603  25.671  1.00  0.00     0.002 A 
ATOM     12  C   UNL A   1      32.120  23.932  24.007  1.00  0.00     0.054 A 
ATOM     13  C   UNL A   1      30.956  23.496  24.613  1.00  0.00     0.027 A 
BRANCH  12  14
ATOM     14  N   UNL A   1      32.086  25.144  23.275  1.00  0.00    -0.325 N 
ATOM     15  C   UNL A   1      32.652  26.383  23.430  1.00  0.00     0.231 C 
ATOM     16  H   UNL A   1      31.525  25.083  22.469  1.00  0.00     0.169 HD
ATOM     17  O   UNL A   1      32.380  27.212  22.540  1.00  0.00    -0.274 OA
BRANCH  15  18
ATOM     18  C   UNL A   1      33.552  26.923  24.588  1.00  0.00     0.107 C 
ATOM     19  C   UNL A   1      33.772  28.408  24.489  1.00  0.00    -0.012 C 
ATOM     20  C   UNL A   1      33.325  26.682  26.093  1.00  0.00     0.087 C 
ATOM     21  C   UNL A   1      33.794  29.003  25.686  1.00  0.00     0.033 C 
ATOM     22  C   UNL A   1      33.604  28.036  26.808  1.00  0.00     0.205 C 
BRANCH  22  23
ATOM     23  N   UNL A   1      32.551  28.496  27.707  1.00  0.00    -0.352 N 
ATOM     24  H   UNL A   1      32.063  27.692  28.099  1.00  0.00     0.345 HD
ATOM     25  H   UNL A   1      31.891  29.075  27.188  1.00  0.00     0.345 HD
ATOM     26  H   UNL A   1      32.965  29.044  28.461  1.00  0.00     0.345 HD
ENDBRANCH  22  23
ENDBRANCH  15  18
ENDBRANCH  12  14
ENDBRANCH   4   7
ENDBRANCH   2   3
ENDBRANCH   1   2
BRANCH   1  27
ATOM     27  C   UNL A   1      38.434  23.878  27.028  1.00  0.00     0.118 C 
BRANCH  27  28
ATOM     28  N   UNL A   1      39.391  25.104  27.236  1.00  0.00    -0.352 N 
ATOM     29  C   UNL A   1      39.823  25.965  28.338  1.00  0.00     0.251 C 
ATOM     30  H   UNL A   1      39.821  25.367  26.391  1.00  0.00     0.163 HD
ATOM     31  O   UNL A   1      41.043  25.874  28.571  1.00  0.00    -0.269 OA
BRANCH  29  32
ATOM     32  C   UNL A   1      39.100  27.038  29.262  1.00  0.00     0.039 A 
ATOM     33  C   UNL A   1      38.499  28.213  28.704  1.00  0.00     0.014 A 
ATOM     34  C   UNL A   1      39.035  27.030  30.649  1.00  0.00     0.014 A 
ATOM     35  C   UNL A   1      38.466  29.465  29.446  1.00  0.00     0.010 A 
ATOM     36  C   UNL A   1      39.014  28.260  31.383  1.00  0.00     0.010 A 
ATOM     37  C   UNL A   1      38.993  29.511  30.748  1.00  0.00    -0.014 A 
BRANCH  37  38
ATOM     38  C   UNL A   1      39.749  30.695  31.356  1.00  0.00     0.031 A 
ATOM     39  C   UNL A   1      40.936  30.479  32.176  1.00  0.00     0.074 A 
ATOM     40  C   UNL A   1      39.597  32.042  31.137  1.00  0.00     0.049 A 
ATOM     41  N   UNL A   1      41.144  31.014  33.337  1.00  0.00    -0.248 NA
ATOM     42  C   UNL A   1      42.044  29.714  31.641  1.00  0.00     0.031 C 
ATOM     43  C   UNL A   1      40.372  33.235  31.537  1.00  0.00     0.029 A 
ATOM     44  N   UNL A   1      38.653  32.682  30.369  1.00  0.00    -0.354 N 
ATOM     45  C   UNL A   1      42.507  30.932  33.529  1.00  0.00     0.074 A 
ATOM     46  C   UNL A   1      42.968  29.940  32.575  1.00  0.00     0.031 C 
ATOM     47  C   UNL A   1      39.627  34.352  31.346  1.00  0.00     0.029 A 
ATOM     48  C   UNL A   1      38.326  33.942  30.860  1.00  0.00     0.049 A 
ATOM     49  H   UNL A   1      38.250  32.291  29.560  1.00  0.00     0.167 HD
ATOM     50  C   UNL A   1      43.201  31.891  34.218  1.00  0.00     0.037 A 
ATOM     51  C   UNL A   1      37.063  34.154  31.361  1.00  0.00     0.037 A 
ATOM     52  C   UNL A   1      42.391  33.103  34.463  1.00  0.00     0.049 A 
ATOM     53  C   UNL A   1      37.138  34.260  32.863  1.00  0.00     0.074 A 
ATOM     54  C   UNL A   1      42.448  34.410  33.993  1.00  0.00     0.029 A 
ATOM     55  N   UNL A   1      41.155  33.003  35.080  1.00  0.00    -0.354 N 
ATOM     56  N   UNL A   1      38.250  34.482  33.498  1.00  0.00    -0.248 NA
ATOM     57  C   UNL A   1      36.020  34.026  33.775  1.00  0.00     0.031 C 
ATOM     58  C   UNL A   1      41.246  35.086  34.359  1.00  0.00     0.029 A 
ATOM     59  C   UNL A   1      40.460  34.201  35.070  1.00  0.00     0.049 A 
ATOM     60  H   UNL A   1      40.809  32.173  35.480  1.00  0.00     0.167 HD
ATOM     61  C   UNL A   1      38.075  34.261  34.828  1.00  0.00     0.074 A 
ATOM     62  C   UNL A   1      36.646  34.035  34.966  1.00  0.00     0.031 C 
ATOM     63  C   UNL A   1      39.137  34.240  35.686  1.00  0.00     0.037 A 
BRANCH  50  64
ATOM     64  C   UNL A   1      44.714  31.841  34.391  1.00  0.00     0.058 A 
ATOM     65  C   UNL A   1      45.328  31.093  35.416  1.00  0.00     0.135 A 
ATOM     66  C   UNL A   1      45.629  32.473  33.516  1.00  0.00     0.135 A 
ATOM     67  F   UNL A   1      44.618  30.303  36.232  1.00  0.00    -0.206 F 
ATOM     68  C   UNL A   1      46.711  31.077  35.628  1.00  0.00     0.059 A 
ATOM     69  C   UNL A   1      47.004  32.543  33.751  1.00  0.00     0.059 A 
ATOM     70  F   UNL A   1      45.234  32.980  32.338  1.00  0.00    -0.206 F 
ATOM     71  C   UNL A   1      47.541  31.830  34.809  1.00  0.00     0.060 A 
BRANCH  71  72
ATOM     72  S   UNL A   1      49.322  31.775  35.070  1.00  0.00     0.124 S 
ATOM     73  O   UNL A   1      49.604  33.108  35.591  1.00  0.00    -0.237 OA
ATOM     74  O   UNL A   1      49.453  30.678  36.023  1.00  0.00    -0.237 OA
ATOM     75  O   UNL A   1      49.855  31.507  33.735  1.00  0.00    -0.744 OA
ENDBRANCH  71  72
ENDBRANCH  50  64
BRANCH  51  76
ATOM     76  C   UNL A   1      35.889  33.484  30.597  1.00  0.00     0.058 A 
ATOM     77  C   UNL A   1      34.847  33.042  31.435  1.00  0.00     0.135 A 
ATOM     78  C   UNL A   1      35.429  34.261  29.552  1.00  0.00     0.135 A 
ATOM     79  F   UNL A   1      34.925  31.836  32.011  1.00  0.00    -0.206 F 
ATOM     80  C   UNL A   1      33.750  33.854  31.725  1.00  0.00     0.059 A 
ATOM     81  C   UNL A   1      34.352  35.103  29.847  1.00  0.00     0.059 A 
ATOM     82  F   UNL A   1      36.248  34.581  28.535  1.00  0.00    -0.206 F 
ATOM     83  C   UNL A   1      33.653  35.044  31.036  1.00  0.00     0.060 A 
BRANCH  83  84
ATOM     84  S   UNL A   1      32.878  36.653  31.924  1.00  0.00     0.124 S 
ATOM     85  O   UNL A   1      33.878  36.831  32.965  1.00  0.00    -0.237 OA
ATOM     86  O   UNL A   1      32.887  37.707  30.948  1.00  0.00    -0.237 OA
ATOM     87  O   UNL A   1      31.556  36.286  32.425  1.00  0.00    -0.744 OA
ENDBRANCH  83  84
ENDBRANCH  51  76
BRANCH  63  88
ATOM     88  C   UNL A   1      39.008  34.200  37.182  1.00  0.00     0.058 A 
ATOM     89  C   UNL A   1      38.532  33.071  37.869  1.00  0.00     0.135 A 
ATOM     90  C   UNL A   1      39.227  35.349  37.977  1.00  0.00     0.135 A 
ATOM     91  F   UNL A   1      38.128  31.973  37.211  1.00  0.00    -0.206 F 
ATOM     92  C   UNL A   1      38.412  33.040  39.256  1.00  0.00     0.059 A 
ATOM     93  C   UNL A   1      39.068  35.356  39.354  1.00  0.00     0.059 A 
ATOM     94  F   UNL A   1      39.606  36.522  37.457  1.00  0.00    -0.206 F 
ATOM     95  C   UNL A   1      38.699  34.185  39.991  1.00  0.00     0.060 A 
BRANCH  95  96
ATOM     96  S   UNL A   1      38.556  34.144  41.780  1.00  0.00     0.124 S 
ATOM     97  O   UNL A   1      39.941  34.312  42.208  1.00  0.00    -0.237 OA
ATOM     98  O   UNL A   1      37.675  35.283  42.025  1.00  0.00    -0.237 OA
ATOM     99  O   UNL A   1      37.977  32.832  42.049  1.00  0.00    -0.744 OA
ENDBRANCH  95  96
ENDBRANCH  63  88
ENDBRANCH  37  38
ENDBRANCH  29  32
ENDBRANCH  27  28
ENDBRANCH   1  27
TORSDOF 16
ENDMDL
MODEL 3
REMARK VINA RESULT:     -11.9      5.567      9.897
REMARK SMILES Cc1cccc(NC(=O)[C@H]2C=C[C@@H]([NH3+])C2)c1C(=O)NCCCNC(=O)c1ccc(-c2c3nc(c(-c4c(F)cc(S(=O)(=O)[O-])cc4F)c4ccc([nH]4)c(-c4c(F)cc(S(=O)(=O)[O-])cc4F)c4nc(c(-c5c(F)cc(S(=O)(=O)[O-])cc5F)c5ccc2[nH]5)C=C4)C=C3)cc1
REMARK SMILES IDX 21 1 20 2 19 3 17 4 18 5 16 7 1 8 2 9 3 10 4 11 6 12 5 13
REMARK SMILES IDX 7 14 8 15 9 17 10 18 11 19 15 20 12 21 13 22 14 23 22 27
REMARK SMILES IDX 23 28 24 29 25 31 26 32 27 33 91 34 28 35 90 36 29 37 30 38
REMARK SMILES IDX 31 39 84 40 32 41 89 42 83 43 85 44 33 45 88 46 82 47 81 48
REMARK SMILES IDX 34 50 68 51 47 52 67 53 48 54 51 55 66 56 86 57 49 58 50 59
REMARK SMILES IDX 65 61 87 62 52 63 35 64 36 65 45 66 37 67 38 68 44 69 46 70
REMARK SMILES IDX 39 71 40 72 41 73 42 74 43 75 69 76 70 77 79 78 71 79 72 80
REMARK SMILES IDX 78 81 80 82 73 83 74 84 75 85 76 86 77 87 53 88 54 89 63 90
REMARK SMILES IDX 55 91 56 92 62 93 64 94 57 95 58 96 59 97 60 98 61 99
REMARK H PARENT 19 6 7 16 14 24 14 25 14 26 23 30 85 49 51 60
REMARK Flexibility Score: inf
ROOT
ATOM      1  C   UNL A   1      38.874  24.131  26.597  1.00  0.00     0.042 C 
ENDROOT
BRANCH   1   2
ATOM      2  C   UNL A   1      37.432  23.739  25.937  1.00  0.00     0.118 C 
BRANCH   2   3
ATOM      3  N   UNL A   1      37.351  23.334  24.505  1.00  0.00    -0.352 N 
ATOM      4  C   UNL A   1      36.389  22.929  23.590  1.00  0.00     0.253 C 
ATOM      5  O   UNL A   1      36.634  23.006  22.380  1.00  0.00    -0.269 OA
ATOM      6  H   UNL A   1      38.241  23.363  24.085  1.00  0.00     0.163 HD
BRANCH   4   7
ATOM      7  C   UNL A   1      35.040  22.390  23.957  1.00  0.00     0.066 A 
ATOM      8  C   UNL A   1      35.915  20.210  24.995  1.00  0.00     0.045 C 
ATOM      9  C   UNL A   1      34.902  21.300  24.836  1.00  0.00    -0.036 A 
ATOM     10  C   UNL A   1      33.663  20.998  25.397  1.00  0.00     0.004 A 
ATOM     11  C   UNL A   1      32.543  21.361  24.701  1.00  0.00     0.002 A 
ATOM     12  C   UNL A   1      33.851  22.858  23.325  1.00  0.00     0.054 A 
ATOM     13  C   UNL A   1      32.690  22.150  23.572  1.00  0.00     0.027 A 
BRANCH  12  14
ATOM     14  N   UNL A   1      33.790  23.968  22.446  1.00  0.00    -0.325 N 
ATOM     15  C   UNL A   1      33.435  25.285  22.576  1.00  0.00     0.231 C 
ATOM     16  H   UNL A   1      34.065  23.739  21.529  1.00  0.00     0.169 HD
ATOM     17  O   UNL A   1      33.525  25.970  21.538  1.00  0.00    -0.274 OA
BRANCH  15  18
ATOM     18  C   UNL A   1      32.887  26.044  23.828  1.00  0.00     0.107 C 
ATOM     19  C   UNL A   1      33.853  26.007  24.980  1.00  0.00    -0.012 C 
ATOM     20  C   UNL A   1      32.349  27.489  23.841  1.00  0.00     0.087 C 
ATOM     21  C   UNL A   1      33.867  27.151  25.673  1.00  0.00     0.033 C 
ATOM     22  C   UNL A   1      32.913  28.161  25.126  1.00  0.00     0.205 C 
BRANCH  22  23
ATOM     23  N   UNL A   1      33.585  29.439  24.919  1.00  0.00    -0.352 N 
ATOM     24  H   UNL A   1      33.172  30.144  25.528  1.00  0.00     0.345 HD
ATOM     25  H   UNL A   1      33.478  29.725  23.945  1.00  0.00     0.345 HD
ATOM     26  H   UNL A   1      34.577  29.340  25.136  1.00  0.00     0.345 HD
ENDBRANCH  22  23
ENDBRANCH  15  18
ENDBRANCH  12  14
ENDBRANCH   4   7
ENDBRANCH   2   3
ENDBRANCH   1   2
BRANCH   1  27
ATOM     27  C   UNL A   1      39.828  22.941  27.040  1.00  0.00     0.118 C 
BRANCH  27  28
ATOM     28  N   UNL A   1      40.726  22.052  26.108  1.00  0.00    -0.352 N 
ATOM     29  C   UNL A   1      42.145  21.728  25.960  1.00  0.00     0.251 C 
ATOM     30  H   UNL A   1      40.182  21.581  25.436  1.00  0.00     0.163 HD
ATOM     31  O   UNL A   1      42.387  20.523  26.158  1.00  0.00    -0.269 OA
BRANCH  29  32
ATOM     32  C   UNL A   1      43.438  22.554  25.542  1.00  0.00     0.039 A 
ATOM     33  C   UNL A   1      44.752  22.099  25.889  1.00  0.00     0.014 A 
ATOM     34  C   UNL A   1      43.466  23.789  24.909  1.00  0.00     0.014 A 
ATOM     35  C   UNL A   1      45.826  23.043  26.165  1.00  0.00     0.010 A 
ATOM     36  C   UNL A   1      44.514  24.725  25.186  1.00  0.00     0.010 A 
ATOM     37  C   UNL A   1      45.581  24.422  26.045  1.00  0.00    -0.014 A 
BRANCH  37  38
ATOM     38  C   UNL A   1      46.173  25.508  26.948  1.00  0.00     0.031 A 
ATOM     39  C   UNL A   1      47.402  25.268  27.695  1.00  0.00     0.074 A 
ATOM     40  C   UNL A   1      45.817  26.827  27.086  1.00  0.00     0.049 A 
ATOM     41  N   UNL A   1      47.564  25.509  28.956  1.00  0.00    -0.248 NA
ATOM     42  C   UNL A   1      48.595  24.843  26.989  1.00  0.00     0.031 C 
ATOM     43  C   UNL A   1      46.419  27.978  27.790  1.00  0.00     0.029 A 
ATOM     44  N   UNL A   1      44.766  27.495  26.502  1.00  0.00    -0.354 N 
ATOM     45  C   UNL A   1      48.929  25.586  29.134  1.00  0.00     0.074 A 
ATOM     46  C   UNL A   1      49.503  24.955  27.959  1.00  0.00     0.031 C 
ATOM     47  C   UNL A   1      45.513  28.982  27.890  1.00  0.00     0.029 A 
ATOM     48  C   UNL A   1      44.272  28.521  27.301  1.00  0.00     0.049 A 
ATOM     49  H   UNL A   1      44.402  27.271  25.615  1.00  0.00     0.167 HD
ATOM     50  C   UNL A   1      49.495  26.426  30.056  1.00  0.00     0.037 A 
ATOM     51  C   UNL A   1      43.007  28.403  27.828  1.00  0.00     0.037 A 
ATOM     52  C   UNL A   1      48.523  27.397  30.600  1.00  0.00     0.049 A 
ATOM     53  C   UNL A   1      43.111  28.127  29.306  1.00  0.00     0.074 A 
ATOM     54  C   UNL A   1      48.372  28.774  30.488  1.00  0.00     0.029 A 
ATOM     55  N   UNL A   1      47.334  26.956  31.158  1.00  0.00    -0.354 N 
ATOM     56  N   UNL A   1      44.196  28.341  29.988  1.00  0.00    -0.248 NA
ATOM     57  C   UNL A   1      42.067  27.499  30.115  1.00  0.00     0.031 C 
ATOM     58  C   UNL A   1      47.095  29.144  31.006  1.00  0.00     0.029 A 
ATOM     59  C   UNL A   1      46.469  27.997  31.454  1.00  0.00     0.049 A 
ATOM     60  H   UNL A   1      47.126  26.009  31.324  1.00  0.00     0.167 HD
ATOM     61  C   UNL A   1      44.096  27.760  31.213  1.00  0.00     0.074 A 
ATOM     62  C   UNL A   1      42.720  27.293  31.273  1.00  0.00     0.031 C 
ATOM     63  C   UNL A   1      45.174  27.676  32.046  1.00  0.00     0.037 A 
BRANCH  50  64
ATOM     64  C   UNL A   1      51.003  26.561  30.224  1.00  0.00     0.058 A 
ATOM     65  C   UNL A   1      51.737  25.738  31.103  1.00  0.00     0.135 A 
ATOM     66  C   UNL A   1      51.802  27.460  29.480  1.00  0.00     0.135 A 
ATOM     67  F   UNL A   1      51.161  24.724  31.762  1.00  0.00    -0.206 F 
ATOM     68  C   UNL A   1      53.112  25.880  31.315  1.00  0.00     0.059 A 
ATOM     69  C   UNL A   1      53.158  27.681  29.730  1.00  0.00     0.059 A 
ATOM     70  F   UNL A   1      51.316  28.106  28.409  1.00  0.00    -0.206 F 
ATOM     71  C   UNL A   1      53.811  26.876  30.647  1.00  0.00     0.060 A 
BRANCH  71  72
ATOM     72  S   UNL A   1      55.588  27.028  30.902  1.00  0.00     0.124 S 
ATOM     73  O   UNL A   1      55.783  26.332  32.170  1.00  0.00    -0.237 OA
ATOM     74  O   UNL A   1      56.120  26.359  29.720  1.00  0.00    -0.237 OA
ATOM     75  O   UNL A   1      55.804  28.473  30.949  1.00  0.00    -0.744 OA
ENDBRANCH  71  72
ENDBRANCH  50  64
BRANCH  51  76
ATOM     76  C   UNL A   1      41.922  27.786  26.905  1.00  0.00     0.058 A 
ATOM     77  C   UNL A   1      41.063  26.885  27.564  1.00  0.00     0.135 A 
ATOM     78  C   UNL A   1      41.231  28.745  26.191  1.00  0.00     0.135 A 
ATOM     79  F   UNL A   1      41.423  25.603  27.699  1.00  0.00    -0.206 F 
ATOM     80  C   UNL A   1      39.860  27.307  28.129  1.00  0.00     0.059 A 
ATOM     81  C   UNL A   1      40.042  29.197  26.771  1.00  0.00     0.059 A 
ATOM     82  F   UNL A   1      41.879  29.544  25.326  1.00  0.00    -0.206 F 
ATOM     83  C   UNL A   1      39.474  28.608  27.884  1.00  0.00     0.060 A 
BRANCH  83  84
ATOM     84  S   UNL A   1      38.484  29.637  29.275  1.00  0.00     0.124 S 
ATOM     85  O   UNL A   1      39.623  30.178  29.999  1.00  0.00    -0.237 OA
ATOM     86  O   UNL A   1      37.726  30.643  28.583  1.00  0.00    -0.237 OA
ATOM     87  O   UNL A   1      37.688  28.684  30.044  1.00  0.00    -0.744 OA
ENDBRANCH  83  84
ENDBRANCH  51  76
BRANCH  63  88
ATOM     88  C   UNL A   1      45.097  27.231  33.479  1.00  0.00     0.058 A 
ATOM     89  C   UNL A   1      45.052  25.876  33.846  1.00  0.00     0.135 A 
ATOM     90  C   UNL A   1      44.926  28.155  34.535  1.00  0.00     0.135 A 
ATOM     91  F   UNL A   1      45.035  24.902  32.922  1.00  0.00    -0.206 F 
ATOM     92  C   UNL A   1      44.978  25.469  35.176  1.00  0.00     0.059 A 
ATOM     93  C   UNL A   1      44.802  27.772  35.862  1.00  0.00     0.059 A 
ATOM     94  F   UNL A   1      44.869  29.476  34.332  1.00  0.00    -0.206 F 
ATOM     95  C   UNL A   1      44.870  26.428  36.178  1.00  0.00     0.060 A 
BRANCH  95  96
ATOM     96  S   UNL A   1      44.786  25.905  37.893  1.00  0.00     0.124 S 
ATOM     97  O   UNL A   1      43.652  26.674  38.399  1.00  0.00    -0.237 OA
ATOM     98  O   UNL A   1      44.561  24.470  37.747  1.00  0.00    -0.237 OA
ATOM     99  O   UNL A   1      46.086  26.287  38.434  1.00  0.00    -0.744 OA
ENDBRANCH  95  96
ENDBRANCH  63  88
ENDBRANCH  37  38
ENDBRANCH  29  32
ENDBRANCH  27  28
ENDBRANCH   1  27
TORSDOF 16
ENDMDL
