MODEL 1
REMARK VINA RESULT:     -11.8      0.000      0.000
REMARK SMILES CC1(C)C(CNC(=O)[C@H]2C[C@H]2C(=O)NCCCNC(=O)c2ccc(-c3c4nc(c(-c5c(F)cc(S(=O)(=O)[O-])cc5F)c5ccc([nH]5)c(-c5c(F)cc(S(=O)(=O)[O-])cc5F)c5nc(c(-c6c(F)cc(S(=O)(=O)[O-])cc6F)c6ccc3[nH]6)C=C5)C=C4)cc2)C1(C)C
REMARK SMILES IDX 16 1 15 2 14 3 12 4 13 5 11 7 9 8 10 9 7 10 6 11 8 13 5 14
REMARK SMILES IDX 4 15 1 16 2 17 3 18 87 19 88 20 89 21 17 22 18 23 19 24
REMARK SMILES IDX 20 26 21 27 22 28 86 29 23 30 85 31 24 32 25 33 26 34 79 35
REMARK SMILES IDX 27 36 84 37 78 38 80 39 28 40 83 41 77 42 76 43 29 45 63 46
REMARK SMILES IDX 42 47 62 48 43 49 46 50 61 51 81 52 44 53 45 54 60 56 82 57
REMARK SMILES IDX 47 58 30 59 31 60 40 61 32 62 33 63 39 64 41 65 34 66 35 67
REMARK SMILES IDX 36 68 37 69 38 70 64 71 65 72 74 73 66 74 67 75 73 76 75 77
REMARK SMILES IDX 68 78 69 79 70 80 71 81 72 82 48 83 49 84 58 85 50 86 51 87
REMARK SMILES IDX 57 88 59 89 52 90 53 91 54 92 55 93 56 94
REMARK H PARENT 14 6 6 12 18 25 80 44 46 55
REMARK Flexibility Score: inf
ROOT
ATOM      1  C   UNL A   1      33.847  33.485  28.559  1.00  0.00     0.042 C 
ENDROOT
BRANCH   1   2
ATOM      2  C   UNL A   1      34.535  34.300  29.649  1.00  0.00     0.117 C 
BRANCH   2   3
ATOM      3  N   UNL A   1      34.038  35.661  29.722  1.00  0.00    -0.356 N 
ATOM      4  C   UNL A   1      33.079  36.301  30.456  1.00  0.00     0.223 C 
ATOM      5  O   UNL A   1      32.902  37.494  30.205  1.00  0.00    -0.275 OA
ATOM      6  H   UNL A   1      34.499  36.265  29.096  1.00  0.00     0.163 HD
BRANCH   4   7
ATOM      7  C   UNL A   1      32.301  35.727  31.586  1.00  0.00     0.091 C 
ATOM      8  C   UNL A   1      32.651  35.816  33.060  1.00  0.00     0.091 C 
ATOM      9  C   UNL A   1      31.421  36.503  32.514  1.00  0.00     0.028 C 
BRANCH   8  10
ATOM     10  C   UNL A   1      33.948  36.392  33.470  1.00  0.00     0.223 C 
ATOM     11  N   UNL A   1      35.072  35.618  33.518  1.00  0.00    -0.356 N 
ATOM     12  H   UNL A   1      35.918  36.111  33.614  1.00  0.00     0.163 HD
ATOM     13  O   UNL A   1      34.027  37.599  33.674  1.00  0.00    -0.275 OA
BRANCH  11  14
ATOM     14  C   UNL A   1      35.202  34.185  33.447  1.00  0.00     0.120 C 
BRANCH  14  15
ATOM     15  C   UNL A   1      36.479  33.730  34.064  1.00  0.00     0.021 C 
ATOM     16  C   UNL A   1      37.959  31.764  34.932  1.00  0.00     0.012 C 
ATOM     17  C   UNL A   1      37.202  32.415  33.789  1.00  0.00    -0.025 C 
ATOM     18  C   UNL A   1      36.580  31.384  32.873  1.00  0.00     0.012 C 
ATOM     19  C   UNL A   1      37.754  33.745  33.231  1.00  0.00    -0.025 C 
ATOM     20  C   UNL A   1      38.951  34.417  33.872  1.00  0.00     0.012 C 
ATOM     21  C   UNL A   1      37.699  34.014  31.740  1.00  0.00     0.012 C 
ENDBRANCH  14  15
ENDBRANCH  11  14
ENDBRANCH   8  10
ENDBRANCH   4   7
ENDBRANCH   2   3
ENDBRANCH   1   2
BRANCH   1  22
ATOM     22  C   UNL A   1      34.786  32.587  27.765  1.00  0.00     0.118 C 
BRANCH  22  23
ATOM     23  N   UNL A   1      34.190  31.294  27.462  1.00  0.00    -0.352 N 
ATOM     24  C   UNL A   1      34.740  30.034  27.462  1.00  0.00     0.251 C 
ATOM     25  H   UNL A   1      33.238  31.326  27.218  1.00  0.00     0.163 HD
ATOM     26  O   UNL A   1      34.099  29.109  26.968  1.00  0.00    -0.269 OA
BRANCH  24  27
ATOM     27  C   UNL A   1      36.087  29.779  28.027  1.00  0.00     0.039 A 
ATOM     28  C   UNL A   1      36.185  29.329  29.348  1.00  0.00     0.014 A 
ATOM     29  C   UNL A   1      37.252  30.028  27.297  1.00  0.00     0.014 A 
ATOM     30  C   UNL A   1      37.439  29.079  29.912  1.00  0.00     0.010 A 
ATOM     31  C   UNL A   1      38.498  29.705  27.832  1.00  0.00     0.010 A 
ATOM     32  C   UNL A   1      38.607  29.237  29.149  1.00  0.00    -0.014 A 
BRANCH  32  33
ATOM     33  C   UNL A   1      39.946  28.933  29.719  1.00  0.00     0.031 A 
ATOM     34  C   UNL A   1      40.506  29.775  30.836  1.00  0.00     0.074 A 
ATOM     35  C   UNL A   1      40.683  27.934  29.195  1.00  0.00     0.049 A 
ATOM     36  N   UNL A   1      41.675  29.700  31.420  1.00  0.00    -0.248 NA
ATOM     37  C   UNL A   1      39.649  30.858  31.345  1.00  0.00     0.031 C 
ATOM     38  C   UNL A   1      40.279  27.081  28.075  1.00  0.00     0.029 A 
ATOM     39  N   UNL A   1      41.932  27.472  29.528  1.00  0.00    -0.354 N 
ATOM     40  C   UNL A   1      41.704  30.737  32.346  1.00  0.00     0.074 A 
ATOM     41  C   UNL A   1      40.452  31.452  32.217  1.00  0.00     0.031 C 
ATOM     42  C   UNL A   1      41.250  26.186  27.831  1.00  0.00     0.029 A 
ATOM     43  C   UNL A   1      42.357  26.419  28.754  1.00  0.00     0.049 A 
ATOM     44  H   UNL A   1      42.473  27.860  30.255  1.00  0.00     0.167 HD
ATOM     45  C   UNL A   1      42.673  31.053  33.238  1.00  0.00     0.037 A 
ATOM     46  C   UNL A   1      43.507  25.719  28.784  1.00  0.00     0.037 A 
ATOM     47  C   UNL A   1      43.902  30.318  33.392  1.00  0.00     0.049 A 
ATOM     48  C   UNL A   1      44.551  26.061  29.809  1.00  0.00     0.074 A 
ATOM     49  C   UNL A   1      44.920  30.523  34.307  1.00  0.00     0.029 A 
ATOM     50  N   UNL A   1      44.275  29.230  32.617  1.00  0.00    -0.354 N 
ATOM     51  N   UNL A   1      44.538  27.012  30.713  1.00  0.00    -0.248 NA
ATOM     52  C   UNL A   1      45.762  25.230  29.827  1.00  0.00     0.031 C 
ATOM     53  C   UNL A   1      45.921  29.573  34.069  1.00  0.00     0.029 A 
ATOM     54  C   UNL A   1      45.511  28.757  33.027  1.00  0.00     0.049 A 
ATOM     55  H   UNL A   1      43.741  28.851  31.883  1.00  0.00     0.167 HD
ATOM     56  C   UNL A   1      45.727  26.881  31.421  1.00  0.00     0.074 A 
ATOM     57  C   UNL A   1      46.430  25.750  30.847  1.00  0.00     0.031 C 
ATOM     58  C   UNL A   1      46.194  27.628  32.451  1.00  0.00     0.037 A 
BRANCH  45  59
ATOM     59  C   UNL A   1      42.436  32.243  34.124  1.00  0.00     0.058 A 
ATOM     60  C   UNL A   1      41.788  32.118  35.363  1.00  0.00     0.135 A 
ATOM     61  C   UNL A   1      42.880  33.520  33.744  1.00  0.00     0.135 A 
ATOM     62  F   UNL A   1      41.330  30.922  35.768  1.00  0.00    -0.206 F 
ATOM     63  C   UNL A   1      41.559  33.220  36.180  1.00  0.00     0.059 A 
ATOM     64  C   UNL A   1      42.684  34.633  34.556  1.00  0.00     0.059 A 
ATOM     65  F   UNL A   1      43.507  33.696  32.570  1.00  0.00    -0.206 F 
ATOM     66  C   UNL A   1      42.007  34.475  35.766  1.00  0.00     0.060 A 
BRANCH  66  67
ATOM     67  S   UNL A   1      41.700  35.900  36.832  1.00  0.00     0.124 S 
ATOM     68  O   UNL A   1      41.367  35.249  38.096  1.00  0.00    -0.237 OA
ATOM     69  O   UNL A   1      42.980  36.600  36.799  1.00  0.00    -0.237 OA
ATOM     70  O   UNL A   1      40.596  36.588  36.170  1.00  0.00    -0.744 OA
ENDBRANCH  66  67
ENDBRANCH  45  59
BRANCH  46  71
ATOM     71  C   UNL A   1      43.713  24.597  27.832  1.00  0.00     0.058 A 
ATOM     72  C   UNL A   1      44.386  24.800  26.619  1.00  0.00     0.135 A 
ATOM     73  C   UNL A   1      43.264  23.301  28.126  1.00  0.00     0.135 A 
ATOM     74  F   UNL A   1      44.829  26.024  26.294  1.00  0.00    -0.206 F 
ATOM     75  C   UNL A   1      44.599  23.759  25.722  1.00  0.00     0.059 A 
ATOM     76  C   UNL A   1      43.482  22.239  27.253  1.00  0.00     0.059 A 
ATOM     77  F   UNL A   1      42.631  23.054  29.282  1.00  0.00    -0.206 F 
ATOM     78  C   UNL A   1      44.144  22.480  26.049  1.00  0.00     0.060 A 
BRANCH  78  79
ATOM     79  S   UNL A   1      44.479  21.120  24.909  1.00  0.00     0.124 S 
ATOM     80  O   UNL A   1      43.325  20.258  25.133  1.00  0.00    -0.237 OA
ATOM     81  O   UNL A   1      44.527  21.802  23.618  1.00  0.00    -0.237 OA
ATOM     82  O   UNL A   1      45.759  20.599  25.379  1.00  0.00    -0.744 OA
ENDBRANCH  78  79
ENDBRANCH  46  71
BRANCH  58  83
ATOM     83  C   UNL A   1      47.514  27.228  33.043  1.00  0.00     0.058 A 
ATOM     84  C   UNL A   1      48.720  27.786  32.593  1.00  0.00     0.135 A 
ATOM     85  C   UNL A   1      47.570  26.298  34.094  1.00  0.00     0.135 A 
ATOM     86  F   UNL A   1      48.720  28.674  31.587  1.00  0.00    -0.206 F 
ATOM     87  C   UNL A   1      49.942  27.416  33.147  1.00  0.00     0.059 A 
ATOM     88  C   UNL A   1      48.778  25.931  34.677  1.00  0.00     0.059 A 
ATOM     89  F   UNL A   1      46.442  25.743  34.566  1.00  0.00    -0.206 F 
ATOM     90  C   UNL A   1      49.960  26.484  34.187  1.00  0.00     0.060 A 
BRANCH  90  91
ATOM     91  S   UNL A   1      51.547  26.022  34.914  1.00  0.00     0.124 S 
ATOM     92  O   UNL A   1      52.191  27.324  35.062  1.00  0.00    -0.237 OA
ATOM     93  O   UNL A   1      51.148  25.368  36.157  1.00  0.00    -0.237 OA
ATOM     94  O   UNL A   1      52.134  25.139  33.911  1.00  0.00    -0.744 OA
ENDBRANCH  90  91
ENDBRANCH  58  83
ENDBRANCH  32  33
ENDBRANCH  24  27
ENDBRANCH  22  23
ENDBRANCH   1  22
TORSDOF 16
ENDMDL
MODEL 2
REMARK VINA RESULT:     -11.8      4.180     11.214
REMARK SMILES CC1(C)C(CNC(=O)[C@H]2C[C@H]2C(=O)NCCCNC(=O)c2ccc(-c3c4nc(c(-c5c(F)cc(S(=O)(=O)[O-])cc5F)c5ccc([nH]5)c(-c5c(F)cc(S(=O)(=O)[O-])cc5F)c5nc(c(-c6c(F)cc(S(=O)(=O)[O-])cc6F)c6ccc3[nH]6)C=C5)C=C4)cc2)C1(C)C
REMARK SMILES IDX 16 1 15 2 14 3 12 4 13 5 11 7 9 8 10 9 7 10 6 11 8 13 5 14
REMARK SMILES IDX 4 15 1 16 2 17 3 18 87 19 88 20 89 21 17 22 18 23 19 24
REMARK SMILES IDX 20 26 21 27 22 28 86 29 23 30 85 31 24 32 25 33 26 34 79 35
REMARK SMILES IDX 27 36 84 37 78 38 80 39 28 40 83 41 77 42 76 43 29 45 63 46
REMARK SMILES IDX 42 47 62 48 43 49 46 50 61 51 81 52 44 53 45 54 60 56 82 57
REMARK SMILES IDX 47 58 30 59 31 60 40 61 32 62 33 63 39 64 41 65 34 66 35 67
REMARK SMILES IDX 36 68 37 69 38 70 64 71 65 72 74 73 66 74 67 75 73 76 75 77
REMARK SMILES IDX 68 78 69 79 70 80 71 81 72 82 48 83 49 84 58 85 50 86 51 87
REMARK SMILES IDX 57 88 59 89 52 90 53 91 54 92 55 93 56 94
REMARK H PARENT 14 6 6 12 18 25 80 44 46 55
REMARK Flexibility Score: inf
ROOT
ATOM      1  C   UNL A   1      37.577  23.235  25.575  1.00  0.00     0.042 C 
ENDROOT
BRANCH   1   2
ATOM      2  C   UNL A   1      36.096  23.577  25.692  1.00  0.00     0.117 C 
BRANCH   2   3
ATOM      3  N   UNL A   1      35.394  22.699  26.609  1.00  0.00    -0.356 N 
ATOM      4  C   UNL A   1      34.164  22.105  26.626  1.00  0.00     0.223 C 
ATOM      5  O   UNL A   1      33.891  21.439  27.626  1.00  0.00    -0.275 OA
ATOM      6  H   UNL A   1      35.929  22.481  27.406  1.00  0.00     0.163 HD
BRANCH   4   7
ATOM      7  C   UNL A   1      33.167  22.103  25.522  1.00  0.00     0.091 C 
ATOM      8  C   UNL A   1      31.912  22.953  25.439  1.00  0.00     0.091 C 
ATOM      9  C   UNL A   1      33.047  23.152  24.463  1.00  0.00     0.028 C 
BRANCH   8  10
ATOM     10  C   UNL A   1      31.509  23.777  26.597  1.00  0.00     0.223 C 
ATOM     11  N   UNL A   1      31.432  25.137  26.494  1.00  0.00    -0.356 N 
ATOM     12  H   UNL A   1      30.980  25.590  27.242  1.00  0.00     0.163 HD
ATOM     13  O   UNL A   1      31.149  23.220  27.630  1.00  0.00    -0.275 OA
BRANCH  11  14
ATOM     14  C   UNL A   1      31.914  26.006  25.451  1.00  0.00     0.120 C 
BRANCH  14  15
ATOM     15  C   UNL A   1      31.558  27.425  25.727  1.00  0.00     0.021 C 
ATOM     16  C   UNL A   1      31.951  29.589  27.132  1.00  0.00     0.012 C 
ATOM     17  C   UNL A   1      32.505  28.522  26.206  1.00  0.00    -0.025 C 
ATOM     18  C   UNL A   1      33.944  28.193  26.533  1.00  0.00     0.012 C 
ATOM     19  C   UNL A   1      31.996  28.506  24.747  1.00  0.00    -0.025 C 
ATOM     20  C   UNL A   1      30.912  29.462  24.294  1.00  0.00     0.012 C 
ATOM     21  C   UNL A   1      32.957  28.183  23.621  1.00  0.00     0.012 C 
ENDBRANCH  14  15
ENDBRANCH  11  14
ENDBRANCH   8  10
ENDBRANCH   4   7
ENDBRANCH   2   3
ENDBRANCH   1   2
BRANCH   1  22
ATOM     22  C   UNL A   1      38.475  24.009  26.531  1.00  0.00     0.118 C 
BRANCH  22  23
ATOM     23  N   UNL A   1      39.870  23.991  26.118  1.00  0.00    -0.352 N 
ATOM     24  C   UNL A   1      40.918  24.805  26.475  1.00  0.00     0.251 C 
ATOM     25  H   UNL A   1      40.102  23.278  25.480  1.00  0.00     0.163 HD
ATOM     26  O   UNL A   1      41.967  24.732  25.837  1.00  0.00    -0.269 OA
BRANCH  24  27
ATOM     27  C   UNL A   1      40.801  25.771  27.593  1.00  0.00     0.039 A 
ATOM     28  C   UNL A   1      41.734  26.809  27.682  1.00  0.00     0.014 A 
ATOM     29  C   UNL A   1      39.823  25.638  28.583  1.00  0.00     0.014 A 
ATOM     30  C   UNL A   1      41.653  27.738  28.724  1.00  0.00     0.010 A 
ATOM     31  C   UNL A   1      39.694  26.608  29.576  1.00  0.00     0.010 A 
ATOM     32  C   UNL A   1      40.614  27.662  29.664  1.00  0.00    -0.014 A 
BRANCH  32  33
ATOM     33  C   UNL A   1      40.486  28.667  30.753  1.00  0.00     0.031 A 
ATOM     34  C   UNL A   1      41.354  28.572  31.980  1.00  0.00     0.074 A 
ATOM     35  C   UNL A   1      39.551  29.633  30.663  1.00  0.00     0.049 A 
ATOM     36  N   UNL A   1      41.347  29.318  33.056  1.00  0.00    -0.248 NA
ATOM     37  C   UNL A   1      42.340  27.480  32.014  1.00  0.00     0.031 C 
ATOM     38  C   UNL A   1      38.610  29.801  29.553  1.00  0.00     0.029 A 
ATOM     39  N   UNL A   1      39.230  30.652  31.524  1.00  0.00    -0.354 N 
ATOM     40  C   UNL A   1      42.308  28.774  33.902  1.00  0.00     0.074 A 
ATOM     41  C   UNL A   1      42.849  27.610  33.231  1.00  0.00     0.031 C 
ATOM     42  C   UNL A   1      37.836  30.872  29.790  1.00  0.00     0.029 A 
ATOM     43  C   UNL A   1      38.202  31.449  31.080  1.00  0.00     0.049 A 
ATOM     44  H   UNL A   1      39.693  30.799  32.382  1.00  0.00     0.167 HD
ATOM     45  C   UNL A   1      42.719  29.214  35.115  1.00  0.00     0.037 A 
ATOM     46  C   UNL A   1      37.621  32.524  31.646  1.00  0.00     0.037 A 
ATOM     47  C   UNL A   1      42.208  30.394  35.763  1.00  0.00     0.049 A 
ATOM     48  C   UNL A   1      38.122  33.019  32.974  1.00  0.00     0.074 A 
ATOM     49  C   UNL A   1      42.602  30.956  36.966  1.00  0.00     0.029 A 
ATOM     50  N   UNL A   1      41.197  31.198  35.259  1.00  0.00    -0.354 N 
ATOM     51  N   UNL A   1      39.068  32.522  33.734  1.00  0.00    -0.248 NA
ATOM     52  C   UNL A   1      37.484  34.226  33.516  1.00  0.00     0.031 C 
ATOM     53  C   UNL A   1      41.812  32.088  37.201  1.00  0.00     0.029 A 
ATOM     54  C   UNL A   1      40.949  32.248  36.129  1.00  0.00     0.049 A 
ATOM     55  H   UNL A   1      40.725  31.046  34.410  1.00  0.00     0.167 HD
ATOM     56  C   UNL A   1      39.154  33.367  34.835  1.00  0.00     0.074 A 
ATOM     57  C   UNL A   1      38.171  34.413  34.635  1.00  0.00     0.031 C 
ATOM     58  C   UNL A   1      39.972  33.284  35.912  1.00  0.00     0.037 A 
BRANCH  45  59
ATOM     59  C   UNL A   1      43.784  28.418  35.815  1.00  0.00     0.058 A 
ATOM     60  C   UNL A   1      43.461  27.379  36.701  1.00  0.00     0.135 A 
ATOM     61  C   UNL A   1      45.144  28.680  35.582  1.00  0.00     0.135 A 
ATOM     62  F   UNL A   1      42.176  27.097  36.972  1.00  0.00    -0.206 F 
ATOM     63  C   UNL A   1      44.446  26.648  37.358  1.00  0.00     0.059 A 
ATOM     64  C   UNL A   1      46.147  27.946  36.208  1.00  0.00     0.059 A 
ATOM     65  F   UNL A   1      45.509  29.662  34.742  1.00  0.00    -0.206 F 
ATOM     66  C   UNL A   1      45.787  26.943  37.108  1.00  0.00     0.060 A 
BRANCH  66  67
ATOM     67  S   UNL A   1      47.057  25.991  37.969  1.00  0.00     0.124 S 
ATOM     68  O   UNL A   1      47.485  25.067  36.924  1.00  0.00    -0.237 OA
ATOM     69  O   UNL A   1      48.025  27.019  38.340  1.00  0.00    -0.237 OA
ATOM     70  O   UNL A   1      46.332  25.387  39.083  1.00  0.00    -0.744 OA
ENDBRANCH  66  67
ENDBRANCH  45  59
BRANCH  46  71
ATOM     71  C   UNL A   1      36.522  33.228  30.936  1.00  0.00     0.058 A 
ATOM     72  C   UNL A   1      35.196  33.118  31.378  1.00  0.00     0.135 A 
ATOM     73  C   UNL A   1      36.777  34.039  29.821  1.00  0.00     0.135 A 
ATOM     74  F   UNL A   1      34.904  32.349  32.438  1.00  0.00    -0.206 F 
ATOM     75  C   UNL A   1      34.156  33.779  30.734  1.00  0.00     0.059 A 
ATOM     76  C   UNL A   1      35.756  34.727  29.171  1.00  0.00     0.059 A 
ATOM     77  F   UNL A   1      38.032  34.189  29.371  1.00  0.00    -0.206 F 
ATOM     78  C   UNL A   1      34.447  34.584  29.630  1.00  0.00     0.060 A 
BRANCH  78  79
ATOM     79  S   UNL A   1      33.102  35.490  28.836  1.00  0.00     0.124 S 
ATOM     80  O   UNL A   1      33.835  36.481  28.057  1.00  0.00    -0.237 OA
ATOM     81  O   UNL A   1      32.431  34.443  28.071  1.00  0.00    -0.237 OA
ATOM     82  O   UNL A   1      32.339  36.012  29.967  1.00  0.00    -0.744 OA
ENDBRANCH  78  79
ENDBRANCH  46  71
BRANCH  58  83
ATOM     83  C   UNL A   1      39.858  34.370  36.943  1.00  0.00     0.058 A 
ATOM     84  C   UNL A   1      40.532  35.592  36.799  1.00  0.00     0.135 A 
ATOM     85  C   UNL A   1      39.043  34.196  38.073  1.00  0.00     0.135 A 
ATOM     86  F   UNL A   1      41.328  35.805  35.740  1.00  0.00    -0.206 F 
ATOM     87  C   UNL A   1      40.421  36.599  37.754  1.00  0.00     0.059 A 
ATOM     88  C   UNL A   1      38.900  35.196  39.028  1.00  0.00     0.059 A 
ATOM     89  F   UNL A   1      38.371  33.047  38.250  1.00  0.00    -0.206 F 
ATOM     90  C   UNL A   1      39.605  36.389  38.868  1.00  0.00     0.060 A 
BRANCH  90  91
ATOM     91  S   UNL A   1      39.451  37.705  40.095  1.00  0.00     0.124 S 
ATOM     92  O   UNL A   1      40.687  38.451  39.879  1.00  0.00    -0.237 OA
ATOM     93  O   UNL A   1      38.223  38.379  39.684  1.00  0.00    -0.237 OA
ATOM     94  O   UNL A   1      39.366  36.980  41.359  1.00  0.00    -0.744 OA
ENDBRANCH  90  91
ENDBRANCH  58  83
ENDBRANCH  32  33
ENDBRANCH  24  27
ENDBRANCH  22  23
ENDBRANCH   1  22
TORSDOF 16
ENDMDL
MODEL 3
REMARK VINA RESULT:     -11.8      4.373     11.431
REMARK SMILES CC1(C)C(CNC(=O)[C@H]2C[C@H]2C(=O)NCCCNC(=O)c2ccc(-c3c4nc(c(-c5c(F)cc(S(=O)(=O)[O-])cc5F)c5ccc([nH]5)c(-c5c(F)cc(S(=O)(=O)[O-])cc5F)c5nc(c(-c6c(F)cc(S(=O)(=O)[O-])cc6F)c6ccc3[nH]6)C=C5)C=C4)cc2)C1(C)C
REMARK SMILES IDX 16 1 15 2 14 3 12 4 13 5 11 7 9 8 10 9 7 10 6 11 8 13 5 14
REMARK SMILES IDX 4 15 1 16 2 17 3 18 87 19 88 20 89 21 17 22 18 23 19 24
REMARK SMILES IDX 20 26 21 27 22 28 86 29 23 30 85 31 24 32 25 33 26 34 79 35
REMARK SMILES IDX 27 36 84 37 78 38 80 39 28 40 83 41 77 42 76 43 29 45 63 46
REMARK SMILES IDX 42 47 62 48 43 49 46 50 61 51 81 52 44 53 45 54 60 56 82 57
REMARK SMILES IDX 47 58 30 59 31 60 40 61 32 62 33 63 39 64 41 65 34 66 35 67
REMARK SMILES IDX 36 68 37 69 38 70 64 71 65 72 74 73 66 74 67 75 73 76 75 77
REMARK SMILES IDX 68 78 69 79 70 80 71 81 72 82 48 83 49 84 58 85 50 86 51 87
REMARK SMILES IDX 57 88 59 89 52 90 53 91 54 92 55 93 56 94
REMARK H PARENT 14 6 6 12 18 25 80 44 46 55
REMARK Flexibility Score: inf
ROOT
ATOM      1  C   UNL A   1      37.397  23.660  25.421  1.00  0.00     0.042 C 
ENDROOT
BRANCH   1   2
ATOM      2  C   UNL A   1      36.327  22.655  25.834  1.00  0.00     0.117 C 
BRANCH   2   3
ATOM      3  N   UNL A   1      35.161  23.293  26.415  1.00  0.00    -0.356 N 
ATOM      4  C   UNL A   1      33.828  23.325  26.116  1.00  0.00     0.223 C 
ATOM      5  O   UNL A   1      33.122  24.034  26.835  1.00  0.00    -0.275 OA
ATOM      6  H   UNL A   1      35.381  23.828  27.211  1.00  0.00     0.163 HD
BRANCH   4   7
ATOM      7  C   UNL A   1      33.136  22.519  25.075  1.00  0.00     0.091 C 
ATOM      8  C   UNL A   1      33.219  22.723  23.573  1.00  0.00     0.091 C 
ATOM      9  C   UNL A   1      33.780  21.477  24.216  1.00  0.00     0.028 C 
BRANCH   8  10
ATOM     10  C   UNL A   1      33.923  23.904  23.034  1.00  0.00     0.223 C 
ATOM     11  N   UNL A   1      33.340  25.139  23.061  1.00  0.00    -0.356 N 
ATOM     12  H   UNL A   1      33.940  25.892  22.860  1.00  0.00     0.163 HD
ATOM     13  O   UNL A   1      35.081  23.783  22.647  1.00  0.00    -0.275 OA
BRANCH  11  14
ATOM     14  C   UNL A   1      31.974  25.501  23.342  1.00  0.00     0.120 C 
BRANCH  14  15
ATOM     15  C   UNL A   1      31.906  26.745  24.158  1.00  0.00     0.021 C 
ATOM     16  C   UNL A   1      31.026  29.187  24.429  1.00  0.00     0.012 C 
ATOM     17  C   UNL A   1      30.727  27.711  24.243  1.00  0.00    -0.025 C 
ATOM     18  C   UNL A   1      29.504  27.494  23.382  1.00  0.00     0.012 C 
ATOM     19  C   UNL A   1      31.051  26.762  25.419  1.00  0.00    -0.025 C 
ATOM     20  C   UNL A   1      31.732  27.281  26.669  1.00  0.00     0.012 C 
ATOM     21  C   UNL A   1      30.117  25.611  25.734  1.00  0.00     0.012 C 
ENDBRANCH  14  15
ENDBRANCH  11  14
ENDBRANCH   8  10
ENDBRANCH   4   7
ENDBRANCH   2   3
ENDBRANCH   1   2
BRANCH   1  22
ATOM     22  C   UNL A   1      38.330  24.078  26.551  1.00  0.00     0.118 C 
BRANCH  22  23
ATOM     23  N   UNL A   1      39.732  24.003  26.167  1.00  0.00    -0.352 N 
ATOM     24  C   UNL A   1      40.796  24.804  26.507  1.00  0.00     0.251 C 
ATOM     25  H   UNL A   1      39.955  23.256  25.567  1.00  0.00     0.163 HD
ATOM     26  O   UNL A   1      41.853  24.673  25.894  1.00  0.00    -0.269 OA
BRANCH  24  27
ATOM     27  C   UNL A   1      40.684  25.824  27.577  1.00  0.00     0.039 A 
ATOM     28  C   UNL A   1      39.684  25.675  28.543  1.00  0.00     0.014 A 
ATOM     29  C   UNL A   1      41.511  26.951  27.611  1.00  0.00     0.014 A 
ATOM     30  C   UNL A   1      39.550  26.618  29.566  1.00  0.00     0.010 A 
ATOM     31  C   UNL A   1      41.429  27.849  28.674  1.00  0.00     0.010 A 
ATOM     32  C   UNL A   1      40.441  27.700  29.657  1.00  0.00    -0.014 A 
BRANCH  32  33
ATOM     33  C   UNL A   1      40.342  28.689  30.763  1.00  0.00     0.031 A 
ATOM     34  C   UNL A   1      41.222  28.560  31.978  1.00  0.00     0.074 A 
ATOM     35  C   UNL A   1      39.423  29.672  30.698  1.00  0.00     0.049 A 
ATOM     36  N   UNL A   1      41.239  29.288  33.066  1.00  0.00    -0.248 NA
ATOM     37  C   UNL A   1      42.189  27.451  31.984  1.00  0.00     0.031 C 
ATOM     38  C   UNL A   1      38.473  29.873  29.602  1.00  0.00     0.029 A 
ATOM     39  N   UNL A   1      39.129  30.682  31.579  1.00  0.00    -0.354 N 
ATOM     40  C   UNL A   1      42.200  28.715  33.892  1.00  0.00     0.074 A 
ATOM     41  C   UNL A   1      42.713  27.553  33.197  1.00  0.00     0.031 C 
ATOM     42  C   UNL A   1      37.720  30.953  29.864  1.00  0.00     0.029 A 
ATOM     43  C   UNL A   1      38.110  31.504  31.158  1.00  0.00     0.049 A 
ATOM     44  H   UNL A   1      39.603  30.807  32.433  1.00  0.00     0.167 HD
ATOM     45  C   UNL A   1      42.631  29.128  35.107  1.00  0.00     0.037 A 
ATOM     46  C   UNL A   1      37.553  32.579  31.748  1.00  0.00     0.037 A 
ATOM     47  C   UNL A   1      42.147  30.306  35.780  1.00  0.00     0.049 A 
ATOM     48  C   UNL A   1      38.076  33.044  33.078  1.00  0.00     0.074 A 
ATOM     49  C   UNL A   1      42.564  30.841  36.987  1.00  0.00     0.029 A 
ATOM     50  N   UNL A   1      41.145  31.135  35.300  1.00  0.00    -0.354 N 
ATOM     51  N   UNL A   1      39.022  32.519  33.820  1.00  0.00    -0.248 NA
ATOM     52  C   UNL A   1      37.465  34.252  33.646  1.00  0.00     0.031 C 
ATOM     53  C   UNL A   1      41.796  31.983  37.248  1.00  0.00     0.029 A 
ATOM     54  C   UNL A   1      40.924  32.175  36.189  1.00  0.00     0.049 A 
ATOM     55  H   UNL A   1      40.661  31.004  34.454  1.00  0.00     0.167 HD
ATOM     56  C   UNL A   1      39.134  33.345  34.933  1.00  0.00     0.074 A 
ATOM     57  C   UNL A   1      38.167  34.410  34.760  1.00  0.00     0.031 C 
ATOM     58  C   UNL A   1      39.962  33.230  35.999  1.00  0.00     0.037 A 
BRANCH  45  59
ATOM     59  C   UNL A   1      43.690  28.303  35.783  1.00  0.00     0.058 A 
ATOM     60  C   UNL A   1      43.359  27.263  36.665  1.00  0.00     0.135 A 
ATOM     61  C   UNL A   1      45.051  28.539  35.530  1.00  0.00     0.135 A 
ATOM     62  F   UNL A   1      42.073  27.005  36.954  1.00  0.00    -0.206 F 
ATOM     63  C   UNL A   1      44.338  26.505  37.299  1.00  0.00     0.059 A 
ATOM     64  C   UNL A   1      46.049  27.778  36.134  1.00  0.00     0.059 A 
ATOM     65  F   UNL A   1      45.424  29.521  34.695  1.00  0.00    -0.206 F 
ATOM     66  C   UNL A   1      45.682  26.774  37.030  1.00  0.00     0.060 A 
BRANCH  66  67
ATOM     67  S   UNL A   1      46.945  25.787  37.862  1.00  0.00     0.124 S 
ATOM     68  O   UNL A   1      47.868  26.822  38.316  1.00  0.00    -0.237 OA
ATOM     69  O   UNL A   1      46.181  25.116  38.909  1.00  0.00    -0.237 OA
ATOM     70  O   UNL A   1      47.447  24.918  36.803  1.00  0.00    -0.744 OA
ENDBRANCH  66  67
ENDBRANCH  45  59
BRANCH  46  71
ATOM     71  C   UNL A   1      36.458  33.312  31.062  1.00  0.00     0.058 A 
ATOM     72  C   UNL A   1      36.728  34.134  29.958  1.00  0.00     0.135 A 
ATOM     73  C   UNL A   1      35.125  33.190  31.479  1.00  0.00     0.135 A 
ATOM     74  F   UNL A   1      37.989  34.286  29.527  1.00  0.00    -0.206 F 
ATOM     75  C   UNL A   1      35.715  34.820  29.296  1.00  0.00     0.059 A 
ATOM     76  C   UNL A   1      34.092  33.849  30.820  1.00  0.00     0.059 A 
ATOM     77  F   UNL A   1      34.815  32.401  32.519  1.00  0.00    -0.206 F 
ATOM     78  C   UNL A   1      34.398  34.669  29.734  1.00  0.00     0.060 A 
BRANCH  78  79
ATOM     79  S   UNL A   1      33.079  35.511  28.831  1.00  0.00     0.124 S 
ATOM     80  O   UNL A   1      33.839  36.432  27.995  1.00  0.00    -0.237 OA
ATOM     81  O   UNL A   1      32.426  34.406  28.135  1.00  0.00    -0.237 OA
ATOM     82  O   UNL A   1      32.288  36.125  29.893  1.00  0.00    -0.744 OA
ENDBRANCH  78  79
ENDBRANCH  46  71
BRANCH  58  83
ATOM     83  C   UNL A   1      39.878  34.301  37.049  1.00  0.00     0.058 A 
ATOM     84  C   UNL A   1      40.514  35.541  36.885  1.00  0.00     0.135 A 
ATOM     85  C   UNL A   1      39.128  34.095  38.218  1.00  0.00     0.135 A 
ATOM     86  F   UNL A   1      41.248  35.785  35.788  1.00  0.00    -0.206 F 
ATOM     87  C   UNL A   1      40.431  36.533  37.857  1.00  0.00     0.059 A 
ATOM     88  C   UNL A   1      39.013  35.080  39.192  1.00  0.00     0.059 A 
ATOM     89  F   UNL A   1      38.493  32.928  38.416  1.00  0.00    -0.206 F 
ATOM     90  C   UNL A   1      39.680  36.291  39.010  1.00  0.00     0.060 A 
BRANCH  90  91
ATOM     91  S   UNL A   1      39.561  37.589  40.260  1.00  0.00     0.124 S 
ATOM     92  O   UNL A   1      38.896  36.884  41.351  1.00  0.00    -0.237 OA
ATOM     93  O   UNL A   1      40.961  37.936  40.490  1.00  0.00    -0.237 OA
ATOM     94  O   UNL A   1      38.768  38.621  39.601  1.00  0.00    -0.744 OA
ENDBRANCH  90  91
ENDBRANCH  58  83
ENDBRANCH  32  33
ENDBRANCH  24  27
ENDBRANCH  22  23
ENDBRANCH   1  22
TORSDOF 16
ENDMDL
