MODEL 1
REMARK VINA RESULT:     -11.4      0.000      0.000
REMARK SMILES CC[C@@H](C)[C@H](NC(=O)CCc1ccc(F)c(F)c1)C(=O)NCCCNC(=O)c1ccc(-c2c3nc(c(-c4c(F)cc(S(=O)(=O)[O-])cc4F)c4ccc([nH]4)c(-c4c(F)cc(S(=O)(=O)[O-])cc4F)c4nc(c(-c5c(F)cc(S(=O)(=O)[O-])cc5F)c5ccc2[nH]5)C=C4)C=C3)cc1
REMARK SMILES IDX 22 1 21 2 19 3 20 4 5 6 3 7 4 8 2 9 1 10 6 11 7 12 8 14 9 15
REMARK SMILES IDX 10 16 11 17 12 18 18 19 13 20 16 21 14 22 17 23 15 24 23 25
REMARK SMILES IDX 24 26 25 27 26 28 27 30 28 31 29 32 93 33 30 34 92 35 31 36
REMARK SMILES IDX 32 37 33 38 86 39 34 40 91 41 85 42 87 43 35 44 90 45 84 46
REMARK SMILES IDX 83 47 36 49 70 50 49 51 69 52 50 53 53 54 68 55 88 56 51 57
REMARK SMILES IDX 52 58 67 60 89 61 54 62 37 63 38 64 47 65 39 66 40 67 46 68
REMARK SMILES IDX 48 69 41 70 42 71 43 72 44 73 45 74 71 75 72 76 81 77 73 78
REMARK SMILES IDX 74 79 80 80 82 81 75 82 76 83 77 84 78 85 79 86 55 87 56 88
REMARK SMILES IDX 65 89 57 90 58 91 64 92 66 93 59 94 60 95 61 96 62 97 63 98
REMARK H PARENT 21 5 6 13 25 29 87 48 53 59
REMARK Flexibility Score: inf
ROOT
ATOM      1  C   UNL A   1      32.287  26.580  26.130  1.00  0.00     0.117 C 
ENDROOT
BRANCH   1   2
ATOM      2  N   UNL A   1      31.063  26.290  25.399  1.00  0.00    -0.354 N 
ATOM      3  C   UNL A   1      30.741  26.405  24.084  1.00  0.00     0.242 C 
ATOM      4  O   UNL A   1      29.655  25.928  23.741  1.00  0.00    -0.273 OA
ATOM      5  H   UNL A   1      30.332  25.947  25.961  1.00  0.00     0.163 HD
BRANCH   3   6
ATOM      6  C   UNL A   1      31.736  26.942  23.034  1.00  0.00     0.174 C 
BRANCH   6   7
ATOM      7  C   UNL A   1      31.610  28.504  22.908  1.00  0.00     0.018 C 
ATOM      8  C   UNL A   1      32.974  29.162  23.167  1.00  0.00     0.010 C 
BRANCH   7   9
ATOM      9  C   UNL A   1      30.503  29.119  23.796  1.00  0.00     0.002 C 
ATOM     10  C   UNL A   1      29.534  30.070  23.110  1.00  0.00     0.004 C 
ENDBRANCH   7   9
ENDBRANCH   6   7
BRANCH   6  11
ATOM     11  N   UNL A   1      31.761  26.279  21.720  1.00  0.00    -0.344 N 
ATOM     12  C   UNL A   1      32.683  25.359  21.287  1.00  0.00     0.220 C 
ATOM     13  H   UNL A   1      31.045  26.520  21.088  1.00  0.00     0.164 HD
ATOM     14  O   UNL A   1      33.070  25.428  20.120  1.00  0.00    -0.275 OA
BRANCH  12  15
ATOM     15  C   UNL A   1      33.134  24.228  22.194  1.00  0.00     0.105 C 
BRANCH  15  16
ATOM     16  C   UNL A   1      34.254  24.569  23.167  1.00  0.00     0.045 C 
BRANCH  16  17
ATOM     17  C   UNL A   1      34.911  23.348  23.757  1.00  0.00    -0.044 A 
ATOM     18  C   UNL A   1      36.300  23.164  23.685  1.00  0.00     0.007 A 
ATOM     19  C   UNL A   1      34.114  22.346  24.330  1.00  0.00     0.046 A 
ATOM     20  C   UNL A   1      36.881  21.987  24.166  1.00  0.00     0.043 A 
ATOM     21  C   UNL A   1      34.700  21.177  24.800  1.00  0.00     0.159 A 
ATOM     22  C   UNL A   1      36.074  20.997  24.716  1.00  0.00     0.158 A 
ATOM     23  F   UNL A   1      33.922  20.213  25.310  1.00  0.00    -0.204 F 
ATOM     24  F   UNL A   1      36.632  19.858  25.150  1.00  0.00    -0.204 F 
ENDBRANCH  16  17
ENDBRANCH  15  16
ENDBRANCH  12  15
ENDBRANCH   6  11
ENDBRANCH   3   6
ENDBRANCH   1   2
BRANCH   1  25
ATOM     25  C   UNL A   1      32.234  27.878  26.920  1.00  0.00     0.042 C 
BRANCH  25  26
ATOM     26  C   UNL A   1      33.604  28.450  27.246  1.00  0.00     0.118 C 
BRANCH  26  27
ATOM     27  N   UNL A   1      33.545  29.872  27.563  1.00  0.00    -0.352 N 
ATOM     28  C   UNL A   1      34.483  30.656  28.192  1.00  0.00     0.251 C 
ATOM     29  H   UNL A   1      32.719  30.334  27.291  1.00  0.00     0.163 HD
ATOM     30  O   UNL A   1      34.179  31.765  28.618  1.00  0.00    -0.269 OA
BRANCH  28  31
ATOM     31  C   UNL A   1      35.848  30.127  28.368  1.00  0.00     0.039 A 
ATOM     32  C   UNL A   1      36.763  30.199  27.316  1.00  0.00     0.014 A 
ATOM     33  C   UNL A   1      36.222  29.591  29.599  1.00  0.00     0.014 A 
ATOM     34  C   UNL A   1      38.085  29.798  27.529  1.00  0.00     0.010 A 
ATOM     35  C   UNL A   1      37.554  29.302  29.841  1.00  0.00     0.010 A 
ATOM     36  C   UNL A   1      38.498  29.381  28.804  1.00  0.00    -0.014 A 
BRANCH  36  37
ATOM     37  C   UNL A   1      39.887  28.956  29.100  1.00  0.00     0.031 A 
ATOM     38  C   UNL A   1      40.864  29.982  29.606  1.00  0.00     0.074 A 
ATOM     39  C   UNL A   1      40.303  27.713  28.788  1.00  0.00     0.049 A 
ATOM     40  N   UNL A   1      42.165  29.916  29.694  1.00  0.00    -0.248 NA
ATOM     41  C   UNL A   1      40.298  31.282  30.008  1.00  0.00     0.031 C 
ATOM     42  C   UNL A   1      39.463  26.647  28.242  1.00  0.00     0.029 A 
ATOM     43  N   UNL A   1      41.553  27.151  28.855  1.00  0.00    -0.354 N 
ATOM     44  C   UNL A   1      42.577  31.181  30.100  1.00  0.00     0.074 A 
ATOM     45  C   UNL A   1      41.392  32.003  30.194  1.00  0.00     0.031 C 
ATOM     46  C   UNL A   1      40.220  25.559  28.023  1.00  0.00     0.029 A 
ATOM     47  C   UNL A   1      41.605  25.865  28.372  1.00  0.00     0.049 A 
ATOM     48  H   UNL A   1      42.338  27.624  29.214  1.00  0.00     0.167 HD
ATOM     49  C   UNL A   1      43.827  31.612  30.387  1.00  0.00     0.037 A 
ATOM     50  C   UNL A   1      42.654  25.035  28.209  1.00  0.00     0.037 A 
ATOM     51  C   UNL A   1      44.987  30.765  30.356  1.00  0.00     0.049 A 
ATOM     52  C   UNL A   1      44.026  25.504  28.605  1.00  0.00     0.074 A 
ATOM     53  C   UNL A   1      46.287  31.069  30.712  1.00  0.00     0.029 A 
ATOM     54  N   UNL A   1      44.979  29.436  29.957  1.00  0.00    -0.354 N 
ATOM     55  N   UNL A   1      44.396  26.686  29.038  1.00  0.00    -0.248 NA
ATOM     56  C   UNL A   1      45.122  24.531  28.500  1.00  0.00     0.031 C 
ATOM     57  C   UNL A   1      47.072  29.929  30.506  1.00  0.00     0.029 A 
ATOM     58  C   UNL A   1      46.253  28.905  30.054  1.00  0.00     0.049 A 
ATOM     59  H   UNL A   1      44.184  28.943  29.649  1.00  0.00     0.167 HD
ATOM     60  C   UNL A   1      45.762  26.594  29.278  1.00  0.00     0.074 A 
ATOM     61  C   UNL A   1      46.153  25.240  28.945  1.00  0.00     0.031 C 
ATOM     62  C   UNL A   1      46.613  27.544  29.736  1.00  0.00     0.037 A 
BRANCH  49  63
ATOM     63  C   UNL A   1      43.986  33.061  30.756  1.00  0.00     0.058 A 
ATOM     64  C   UNL A   1      44.214  34.051  29.786  1.00  0.00     0.135 A 
ATOM     65  C   UNL A   1      43.945  33.460  32.102  1.00  0.00     0.135 A 
ATOM     66  F   UNL A   1      44.277  33.722  28.486  1.00  0.00    -0.206 F 
ATOM     67  C   UNL A   1      44.460  35.373  30.141  1.00  0.00     0.059 A 
ATOM     68  C   UNL A   1      44.157  34.784  32.477  1.00  0.00     0.059 A 
ATOM     69  F   UNL A   1      43.725  32.557  33.070  1.00  0.00    -0.206 F 
ATOM     70  C   UNL A   1      44.443  35.727  31.490  1.00  0.00     0.060 A 
BRANCH  70  71
ATOM     71  S   UNL A   1      44.818  37.433  31.944  1.00  0.00     0.124 S 
ATOM     72  O   UNL A   1      44.959  38.057  30.631  1.00  0.00    -0.237 OA
ATOM     73  O   UNL A   1      43.636  37.825  32.707  1.00  0.00    -0.237 OA
ATOM     74  O   UNL A   1      46.049  37.314  32.719  1.00  0.00    -0.744 OA
ENDBRANCH  70  71
ENDBRANCH  49  63
BRANCH  50  75
ATOM     75  C   UNL A   1      42.423  23.669  27.670  1.00  0.00     0.058 A 
ATOM     76  C   UNL A   1      42.412  23.439  26.287  1.00  0.00     0.135 A 
ATOM     77  C   UNL A   1      42.290  22.562  28.521  1.00  0.00     0.135 A 
ATOM     78  F   UNL A   1      42.532  24.467  25.435  1.00  0.00    -0.206 F 
ATOM     79  C   UNL A   1      42.284  22.156  25.765  1.00  0.00     0.059 A 
ATOM     80  C   UNL A   1      42.180  21.267  28.023  1.00  0.00     0.059 A 
ATOM     81  F   UNL A   1      42.314  22.731  29.852  1.00  0.00    -0.206 F 
ATOM     82  C   UNL A   1      42.179  21.075  26.641  1.00  0.00     0.060 A 
BRANCH  82  83
ATOM     83  S   UNL A   1      42.118  19.405  25.953  1.00  0.00     0.124 S 
ATOM     84  O   UNL A   1      40.693  19.248  25.687  1.00  0.00    -0.237 OA
ATOM     85  O   UNL A   1      42.978  19.527  24.779  1.00  0.00    -0.237 OA
ATOM     86  O   UNL A   1      42.657  18.579  27.029  1.00  0.00    -0.744 OA
ENDBRANCH  82  83
ENDBRANCH  50  75
BRANCH  62  87
ATOM     87  C   UNL A   1      48.047  27.157  29.947  1.00  0.00     0.058 A 
ATOM     88  C   UNL A   1      49.036  27.456  28.999  1.00  0.00     0.135 A 
ATOM     89  C   UNL A   1      48.450  26.585  31.165  1.00  0.00     0.135 A 
ATOM     90  F   UNL A   1      48.697  27.997  27.819  1.00  0.00    -0.206 F 
ATOM     91  C   UNL A   1      50.380  27.207  29.253  1.00  0.00     0.059 A 
ATOM     92  C   UNL A   1      49.791  26.345  31.448  1.00  0.00     0.059 A 
ATOM     93  F   UNL A   1      47.540  26.288  32.107  1.00  0.00    -0.206 F 
ATOM     94  C   UNL A   1      50.748  26.660  30.484  1.00  0.00     0.060 A 
BRANCH  94  95
ATOM     95  S   UNL A   1      52.503  26.423  30.837  1.00  0.00     0.124 S 
ATOM     96  O   UNL A   1      52.477  25.224  31.668  1.00  0.00    -0.237 OA
ATOM     97  O   UNL A   1      53.072  26.259  29.503  1.00  0.00    -0.237 OA
ATOM     98  O   UNL A   1      52.880  27.655  31.525  1.00  0.00    -0.744 OA
ENDBRANCH  94  95
ENDBRANCH  62  87
ENDBRANCH  36  37
ENDBRANCH  28  31
ENDBRANCH  26  27
ENDBRANCH  25  26
ENDBRANCH   1  25
TORSDOF 19
ENDMDL
MODEL 2
REMARK VINA RESULT:     -11.0      5.362     10.673
REMARK SMILES CC[C@@H](C)[C@H](NC(=O)CCc1ccc(F)c(F)c1)C(=O)NCCCNC(=O)c1ccc(-c2c3nc(c(-c4c(F)cc(S(=O)(=O)[O-])cc4F)c4ccc([nH]4)c(-c4c(F)cc(S(=O)(=O)[O-])cc4F)c4nc(c(-c5c(F)cc(S(=O)(=O)[O-])cc5F)c5ccc2[nH]5)C=C4)C=C3)cc1
REMARK SMILES IDX 22 1 21 2 19 3 20 4 5 6 3 7 4 8 2 9 1 10 6 11 7 12 8 14 9 15
REMARK SMILES IDX 10 16 11 17 12 18 18 19 13 20 16 21 14 22 17 23 15 24 23 25
REMARK SMILES IDX 24 26 25 27 26 28 27 30 28 31 29 32 93 33 30 34 92 35 31 36
REMARK SMILES IDX 32 37 33 38 86 39 34 40 91 41 85 42 87 43 35 44 90 45 84 46
REMARK SMILES IDX 83 47 36 49 70 50 49 51 69 52 50 53 53 54 68 55 88 56 51 57
REMARK SMILES IDX 52 58 67 60 89 61 54 62 37 63 38 64 47 65 39 66 40 67 46 68
REMARK SMILES IDX 48 69 41 70 42 71 43 72 44 73 45 74 71 75 72 76 81 77 73 78
REMARK SMILES IDX 74 79 80 80 82 81 75 82 76 83 77 84 78 85 79 86 55 87 56 88
REMARK SMILES IDX 65 89 57 90 58 91 64 92 66 93 59 94 60 95 61 96 62 97 63 98
REMARK H PARENT 21 5 6 13 25 29 87 48 53 59
REMARK Flexibility Score: inf
ROOT
ATOM      1  C   UNL A   1      36.554  22.310  25.729  1.00  0.00     0.117 C 
ENDROOT
BRANCH   1   2
ATOM      2  N   UNL A   1      35.518  22.571  26.717  1.00  0.00    -0.354 N 
ATOM      3  C   UNL A   1      34.192  22.839  26.593  1.00  0.00     0.242 C 
ATOM      4  O   UNL A   1      33.537  22.864  27.640  1.00  0.00    -0.273 OA
ATOM      5  H   UNL A   1      35.837  22.550  27.648  1.00  0.00     0.163 HD
BRANCH   3   6
ATOM      6  C   UNL A   1      33.494  22.937  25.221  1.00  0.00     0.174 C 
BRANCH   6   7
ATOM      7  C   UNL A   1      33.636  24.390  24.637  1.00  0.00     0.018 C 
ATOM      8  C   UNL A   1      34.387  24.345  23.298  1.00  0.00     0.010 C 
BRANCH   7   9
ATOM      9  C   UNL A   1      34.276  25.402  25.616  1.00  0.00     0.002 C 
ATOM     10  C   UNL A   1      34.361  26.844  25.141  1.00  0.00     0.004 C 
ENDBRANCH   7   9
ENDBRANCH   6   7
BRANCH   6  11
ATOM     11  N   UNL A   1      32.115  22.431  25.121  1.00  0.00    -0.344 N 
ATOM     12  C   UNL A   1      31.050  22.804  25.902  1.00  0.00     0.220 C 
ATOM     13  H   UNL A   1      31.939  21.757  24.425  1.00  0.00     0.164 HD
ATOM     14  O   UNL A   1      30.258  21.932  26.262  1.00  0.00    -0.275 OA
BRANCH  12  15
ATOM     15  C   UNL A   1      30.802  24.266  26.229  1.00  0.00     0.105 C 
BRANCH  15  16
ATOM     16  C   UNL A   1      30.296  25.124  25.078  1.00  0.00     0.045 C 
BRANCH  16  17
ATOM     17  C   UNL A   1      30.680  26.573  25.213  1.00  0.00    -0.044 A 
ATOM     18  C   UNL A   1      30.684  27.432  24.103  1.00  0.00     0.007 A 
ATOM     19  C   UNL A   1      31.105  27.060  26.459  1.00  0.00     0.046 A 
ATOM     20  C   UNL A   1      31.122  28.753  24.234  1.00  0.00     0.043 A 
ATOM     21  C   UNL A   1      31.544  28.373  26.578  1.00  0.00     0.159 A 
ATOM     22  C   UNL A   1      31.555  29.213  25.473  1.00  0.00     0.158 A 
ATOM     23  F   UNL A   1      31.983  28.811  27.765  1.00  0.00    -0.204 F 
ATOM     24  F   UNL A   1      32.001  30.472  25.588  1.00  0.00    -0.204 F 
ENDBRANCH  16  17
ENDBRANCH  15  16
ENDBRANCH  12  15
ENDBRANCH   6  11
ENDBRANCH   3   6
ENDBRANCH   1   2
BRANCH   1  25
ATOM     25  C   UNL A   1      37.346  23.546  25.333  1.00  0.00     0.042 C 
BRANCH  25  26
ATOM     26  C   UNL A   1      38.218  24.095  26.451  1.00  0.00     0.118 C 
BRANCH  26  27
ATOM     27  N   UNL A   1      39.633  23.826  26.226  1.00  0.00    -0.352 N 
ATOM     28  C   UNL A   1      40.724  24.580  26.588  1.00  0.00     0.251 C 
ATOM     29  H   UNL A   1      39.836  22.989  25.748  1.00  0.00     0.163 HD
ATOM     30  O   UNL A   1      41.826  24.352  26.100  1.00  0.00    -0.269 OA
BRANCH  28  31
ATOM     31  C   UNL A   1      40.537  25.683  27.549  1.00  0.00     0.039 A 
ATOM     32  C   UNL A   1      39.631  25.543  28.602  1.00  0.00     0.014 A 
ATOM     33  C   UNL A   1      41.297  26.844  27.417  1.00  0.00     0.014 A 
ATOM     34  C   UNL A   1      39.544  26.548  29.569  1.00  0.00     0.010 A 
ATOM     35  C   UNL A   1      41.292  27.783  28.434  1.00  0.00     0.010 A 
ATOM     36  C   UNL A   1      40.400  27.658  29.511  1.00  0.00    -0.014 A 
BRANCH  36  37
ATOM     37  C   UNL A   1      40.368  28.751  30.513  1.00  0.00     0.031 A 
ATOM     38  C   UNL A   1      41.244  28.639  31.731  1.00  0.00     0.074 A 
ATOM     39  C   UNL A   1      39.473  29.751  30.405  1.00  0.00     0.049 A 
ATOM     40  N   UNL A   1      41.208  29.322  32.844  1.00  0.00    -0.248 NA
ATOM     41  C   UNL A   1      42.255  27.568  31.715  1.00  0.00     0.031 C 
ATOM     42  C   UNL A   1      38.534  29.937  29.298  1.00  0.00     0.029 A 
ATOM     43  N   UNL A   1      39.184  30.782  31.264  1.00  0.00    -0.354 N 
ATOM     44  C   UNL A   1      42.146  28.725  33.679  1.00  0.00     0.074 A 
ATOM     45  C   UNL A   1      42.697  27.598  32.962  1.00  0.00     0.031 C 
ATOM     46  C   UNL A   1      37.774  31.016  29.544  1.00  0.00     0.029 A 
ATOM     47  C   UNL A   1      38.140  31.571  30.844  1.00  0.00     0.049 A 
ATOM     48  H   UNL A   1      39.676  30.940  32.101  1.00  0.00     0.167 HD
ATOM     49  C   UNL A   1      42.527  29.095  34.925  1.00  0.00     0.037 A 
ATOM     50  C   UNL A   1      37.533  32.611  31.449  1.00  0.00     0.037 A 
ATOM     51  C   UNL A   1      42.020  30.259  35.597  1.00  0.00     0.049 A 
ATOM     52  C   UNL A   1      38.020  33.057  32.800  1.00  0.00     0.074 A 
ATOM     53  C   UNL A   1      42.397  30.779  36.821  1.00  0.00     0.029 A 
ATOM     54  N   UNL A   1      41.033  31.092  35.092  1.00  0.00    -0.354 N 
ATOM     55  N   UNL A   1      38.943  32.516  33.559  1.00  0.00    -0.248 NA
ATOM     56  C   UNL A   1      37.392  34.254  33.376  1.00  0.00     0.031 C 
ATOM     57  C   UNL A   1      41.620  31.917  37.067  1.00  0.00     0.029 A 
ATOM     58  C   UNL A   1      40.783  32.123  35.980  1.00  0.00     0.049 A 
ATOM     59  H   UNL A   1      40.575  30.968  34.229  1.00  0.00     0.167 HD
ATOM     60  C   UNL A   1      39.024  33.318  34.691  1.00  0.00     0.074 A 
ATOM     61  C   UNL A   1      38.058  34.383  34.517  1.00  0.00     0.031 C 
ATOM     62  C   UNL A   1      39.829  33.186  35.774  1.00  0.00     0.037 A 
BRANCH  49  63
ATOM     63  C   UNL A   1      43.536  28.225  35.620  1.00  0.00     0.058 A 
ATOM     64  C   UNL A   1      43.148  27.198  36.496  1.00  0.00     0.135 A 
ATOM     65  C   UNL A   1      44.911  28.445  35.437  1.00  0.00     0.135 A 
ATOM     66  F   UNL A   1      41.847  26.954  36.720  1.00  0.00    -0.206 F 
ATOM     67  C   UNL A   1      44.086  26.462  37.215  1.00  0.00     0.059 A 
ATOM     68  C   UNL A   1      45.867  27.699  36.121  1.00  0.00     0.059 A 
ATOM     69  F   UNL A   1      45.337  29.409  34.607  1.00  0.00    -0.206 F 
ATOM     70  C   UNL A   1      45.442  26.730  37.030  1.00  0.00     0.060 A 
BRANCH  70  71
ATOM     71  S   UNL A   1      46.649  25.809  38.007  1.00  0.00     0.124 S 
ATOM     72  O   UNL A   1      47.065  26.818  38.976  1.00  0.00    -0.237 OA
ATOM     73  O   UNL A   1      45.850  24.710  38.541  1.00  0.00    -0.237 OA
ATOM     74  O   UNL A   1      47.658  25.426  37.025  1.00  0.00    -0.744 OA
ENDBRANCH  70  71
ENDBRANCH  49  63
BRANCH  50  75
ATOM     75  C   UNL A   1      36.419  33.308  30.754  1.00  0.00     0.058 A 
ATOM     76  C   UNL A   1      35.102  33.192  31.219  1.00  0.00     0.135 A 
ATOM     77  C   UNL A   1      36.658  34.161  29.665  1.00  0.00     0.135 A 
ATOM     78  F   UNL A   1      34.825  32.386  32.255  1.00  0.00    -0.206 F 
ATOM     79  C   UNL A   1      34.060  33.905  30.636  1.00  0.00     0.059 A 
ATOM     80  C   UNL A   1      35.635  34.898  29.077  1.00  0.00     0.059 A 
ATOM     81  F   UNL A   1      37.906  34.319  29.197  1.00  0.00    -0.206 F 
ATOM     82  C   UNL A   1      34.338  34.763  29.571  1.00  0.00     0.060 A 
BRANCH  82  83
ATOM     83  S   UNL A   1      32.993  35.760  28.889  1.00  0.00     0.124 S 
ATOM     84  O   UNL A   1      33.728  36.831  28.227  1.00  0.00    -0.237 OA
ATOM     85  O   UNL A   1      32.322  34.808  28.009  1.00  0.00    -0.237 OA
ATOM     86  O   UNL A   1      32.233  36.150  30.072  1.00  0.00    -0.744 OA
ENDBRANCH  82  83
ENDBRANCH  50  75
BRANCH  62  87
ATOM     87  C   UNL A   1      39.738  34.232  36.845  1.00  0.00     0.058 A 
ATOM     88  C   UNL A   1      38.931  34.054  37.978  1.00  0.00     0.135 A 
ATOM     89  C   UNL A   1      40.559  35.370  36.790  1.00  0.00     0.135 A 
ATOM     90  F   UNL A   1      38.125  32.986  38.072  1.00  0.00    -0.206 F 
ATOM     91  C   UNL A   1      38.945  34.968  39.026  1.00  0.00     0.059 A 
ATOM     92  C   UNL A   1      40.604  36.287  37.835  1.00  0.00     0.059 A 
ATOM     93  F   UNL A   1      41.356  35.578  35.729  1.00  0.00    -0.206 F 
ATOM     94  C   UNL A   1      39.792  36.076  38.949  1.00  0.00     0.060 A 
BRANCH  94  95
ATOM     95  S   UNL A   1      39.867  37.208  40.354  1.00  0.00     0.124 S 
ATOM     96  O   UNL A   1      38.907  36.604  41.271  1.00  0.00    -0.237 OA
ATOM     97  O   UNL A   1      41.269  37.119  40.753  1.00  0.00    -0.237 OA
ATOM     98  O   UNL A   1      39.466  38.489  39.780  1.00  0.00    -0.744 OA
ENDBRANCH  94  95
ENDBRANCH  62  87
ENDBRANCH  36  37
ENDBRANCH  28  31
ENDBRANCH  26  27
ENDBRANCH  25  26
ENDBRANCH   1  25
TORSDOF 19
ENDMDL
MODEL 3
REMARK VINA RESULT:     -10.7      2.969      4.136
REMARK SMILES CC[C@@H](C)[C@H](NC(=O)CCc1ccc(F)c(F)c1)C(=O)NCCCNC(=O)c1ccc(-c2c3nc(c(-c4c(F)cc(S(=O)(=O)[O-])cc4F)c4ccc([nH]4)c(-c4c(F)cc(S(=O)(=O)[O-])cc4F)c4nc(c(-c5c(F)cc(S(=O)(=O)[O-])cc5F)c5ccc2[nH]5)C=C4)C=C3)cc1
REMARK SMILES IDX 22 1 21 2 19 3 20 4 5 6 3 7 4 8 2 9 1 10 6 11 7 12 8 14 9 15
REMARK SMILES IDX 10 16 11 17 12 18 18 19 13 20 16 21 14 22 17 23 15 24 23 25
REMARK SMILES IDX 24 26 25 27 26 28 27 30 28 31 29 32 93 33 30 34 92 35 31 36
REMARK SMILES IDX 32 37 33 38 86 39 34 40 91 41 85 42 87 43 35 44 90 45 84 46
REMARK SMILES IDX 83 47 36 49 70 50 49 51 69 52 50 53 53 54 68 55 88 56 51 57
REMARK SMILES IDX 52 58 67 60 89 61 54 62 37 63 38 64 47 65 39 66 40 67 46 68
REMARK SMILES IDX 48 69 41 70 42 71 43 72 44 73 45 74 71 75 72 76 81 77 73 78
REMARK SMILES IDX 74 79 80 80 82 81 75 82 76 83 77 84 78 85 79 86 55 87 56 88
REMARK SMILES IDX 65 89 57 90 58 91 64 92 66 93 59 94 60 95 61 96 62 97 63 98
REMARK H PARENT 21 5 6 13 25 29 87 48 53 59
REMARK Flexibility Score: inf
ROOT
ATOM      1  C   UNL A   1      33.303  27.838  24.553  1.00  0.00     0.117 C 
ENDROOT
BRANCH   1   2
ATOM      2  N   UNL A   1      33.850  26.802  23.690  1.00  0.00    -0.354 N 
ATOM      3  C   UNL A   1      33.898  25.451  23.812  1.00  0.00     0.242 C 
ATOM      4  O   UNL A   1      34.299  24.824  22.826  1.00  0.00    -0.273 OA
ATOM      5  H   UNL A   1      34.262  27.145  22.864  1.00  0.00     0.163 HD
BRANCH   3   6
ATOM      6  C   UNL A   1      33.328  24.711  25.040  1.00  0.00     0.174 C 
BRANCH   6   7
ATOM      7  C   UNL A   1      34.353  23.635  25.556  1.00  0.00     0.018 C 
ATOM      8  C   UNL A   1      33.921  23.123  26.938  1.00  0.00     0.010 C 
BRANCH   7   9
ATOM      9  C   UNL A   1      35.822  24.117  25.560  1.00  0.00     0.002 C 
ATOM     10  C   UNL A   1      36.824  23.245  24.820  1.00  0.00     0.004 C 
ENDBRANCH   7   9
ENDBRANCH   6   7
BRANCH   6  11
ATOM     11  N   UNL A   1      31.962  24.172  24.936  1.00  0.00    -0.344 N 
ATOM     12  C   UNL A   1      31.510  23.266  24.008  1.00  0.00     0.220 C 
ATOM     13  H   UNL A   1      31.308  24.493  25.597  1.00  0.00     0.164 HD
ATOM     14  O   UNL A   1      30.385  23.430  23.535  1.00  0.00    -0.275 OA
BRANCH  12  15
ATOM     15  C   UNL A   1      32.336  22.043  23.653  1.00  0.00     0.105 C 
BRANCH  15  16
ATOM     16  C   UNL A   1      32.233  20.873  24.621  1.00  0.00     0.045 C 
BRANCH  16  17
ATOM     17  C   UNL A   1      32.842  19.606  24.078  1.00  0.00    -0.044 A 
ATOM     18  C   UNL A   1      32.236  18.901  23.027  1.00  0.00     0.007 A 
ATOM     19  C   UNL A   1      33.999  19.087  24.677  1.00  0.00     0.046 A 
ATOM     20  C   UNL A   1      32.773  17.685  22.593  1.00  0.00     0.043 A 
ATOM     21  C   UNL A   1      34.522  17.875  24.242  1.00  0.00     0.159 A 
ATOM     22  C   UNL A   1      33.911  17.177  23.209  1.00  0.00     0.158 A 
ATOM     23  F   UNL A   1      35.605  17.373  24.850  1.00  0.00    -0.204 F 
ATOM     24  F   UNL A   1      34.406  15.997  22.809  1.00  0.00    -0.204 F 
ENDBRANCH  16  17
ENDBRANCH  15  16
ENDBRANCH  12  15
ENDBRANCH   6  11
ENDBRANCH   3   6
ENDBRANCH   1   2
BRANCH   1  25
ATOM     25  C   UNL A   1      34.307  28.396  25.550  1.00  0.00     0.042 C 
BRANCH  25  26
ATOM     26  C   UNL A   1      33.689  28.789  26.882  1.00  0.00     0.118 C 
BRANCH  26  27
ATOM     27  N   UNL A   1      33.635  30.235  27.057  1.00  0.00    -0.352 N 
ATOM     28  C   UNL A   1      34.453  31.045  27.808  1.00  0.00     0.251 C 
ATOM     29  H   UNL A   1      32.913  30.696  26.571  1.00  0.00     0.163 HD
ATOM     30  O   UNL A   1      34.122  32.199  28.061  1.00  0.00    -0.269 OA
BRANCH  28  31
ATOM     31  C   UNL A   1      35.719  30.492  28.326  1.00  0.00     0.039 A 
ATOM     32  C   UNL A   1      36.931  30.862  27.740  1.00  0.00     0.014 A 
ATOM     33  C   UNL A   1      35.693  29.631  29.422  1.00  0.00     0.014 A 
ATOM     34  C   UNL A   1      38.129  30.420  28.308  1.00  0.00     0.010 A 
ATOM     35  C   UNL A   1      36.879  29.289  30.049  1.00  0.00     0.010 A 
ATOM     36  C   UNL A   1      38.111  29.661  29.488  1.00  0.00    -0.014 A 
BRANCH  36  37
ATOM     37  C   UNL A   1      39.346  29.174  30.149  1.00  0.00     0.031 A 
ATOM     38  C   UNL A   1      39.881  29.935  31.332  1.00  0.00     0.074 A 
ATOM     39  C   UNL A   1      40.051  28.158  29.616  1.00  0.00     0.049 A 
ATOM     40  N   UNL A   1      41.051  29.859  31.908  1.00  0.00    -0.248 NA
ATOM     41  C   UNL A   1      38.996  30.967  31.900  1.00  0.00     0.031 C 
ATOM     42  C   UNL A   1      39.663  27.377  28.440  1.00  0.00     0.029 A 
ATOM     43  N   UNL A   1      41.266  27.632  29.979  1.00  0.00    -0.354 N 
ATOM     44  C   UNL A   1      41.064  30.870  32.862  1.00  0.00     0.074 A 
ATOM     45  C   UNL A   1      39.806  31.574  32.752  1.00  0.00     0.031 C 
ATOM     46  C   UNL A   1      40.620  26.472  28.179  1.00  0.00     0.029 A 
ATOM     47  C   UNL A   1      41.708  26.637  29.140  1.00  0.00     0.049 A 
ATOM     48  H   UNL A   1      41.772  27.938  30.766  1.00  0.00     0.167 HD
ATOM     49  C   UNL A   1      42.030  31.173  33.760  1.00  0.00     0.037 A 
ATOM     50  C   UNL A   1      42.868  25.951  29.133  1.00  0.00     0.037 A 
ATOM     51  C   UNL A   1      43.245  30.421  33.904  1.00  0.00     0.049 A 
ATOM     52  C   UNL A   1      43.899  26.248  30.186  1.00  0.00     0.074 A 
ATOM     53  C   UNL A   1      44.254  30.581  34.835  1.00  0.00     0.029 A 
ATOM     54  N   UNL A   1      43.610  29.353  33.095  1.00  0.00    -0.354 N 
ATOM     55  N   UNL A   1      43.879  27.173  31.117  1.00  0.00    -0.248 NA
ATOM     56  C   UNL A   1      45.105  25.409  30.197  1.00  0.00     0.031 C 
ATOM     57  C   UNL A   1      45.240  29.623  34.577  1.00  0.00     0.029 A 
ATOM     58  C   UNL A   1      44.830  28.845  33.504  1.00  0.00     0.049 A 
ATOM     59  H   UNL A   1      43.079  29.008  32.341  1.00  0.00     0.167 HD
ATOM     60  C   UNL A   1      45.056  27.013  31.838  1.00  0.00     0.074 A 
ATOM     61  C   UNL A   1      45.765  25.902  31.238  1.00  0.00     0.031 C 
ATOM     62  C   UNL A   1      45.506  27.722  32.903  1.00  0.00     0.037 A 
BRANCH  49  63
ATOM     63  C   UNL A   1      41.794  32.365  34.646  1.00  0.00     0.058 A 
ATOM     64  C   UNL A   1      41.066  32.265  35.842  1.00  0.00     0.135 A 
ATOM     65  C   UNL A   1      42.273  33.632  34.275  1.00  0.00     0.135 A 
ATOM     66  F   UNL A   1      40.572  31.080  36.237  1.00  0.00    -0.206 F 
ATOM     67  C   UNL A   1      40.764  33.388  36.606  1.00  0.00     0.059 A 
ATOM     68  C   UNL A   1      42.010  34.764  35.041  1.00  0.00     0.059 A 
ATOM     69  F   UNL A   1      42.979  33.784  33.144  1.00  0.00    -0.206 F 
ATOM     70  C   UNL A   1      41.230  34.635  36.190  1.00  0.00     0.060 A 
BRANCH  70  71
ATOM     71  S   UNL A   1      40.787  36.093  37.156  1.00  0.00     0.124 S 
ATOM     72  O   UNL A   1      40.327  35.485  38.401  1.00  0.00    -0.237 OA
ATOM     73  O   UNL A   1      42.053  36.817  37.236  1.00  0.00    -0.237 OA
ATOM     74  O   UNL A   1      39.753  36.733  36.350  1.00  0.00    -0.744 OA
ENDBRANCH  70  71
ENDBRANCH  49  63
BRANCH  50  75
ATOM     75  C   UNL A   1      43.086  24.902  28.104  1.00  0.00     0.058 A 
ATOM     76  C   UNL A   1      43.632  25.227  26.854  1.00  0.00     0.135 A 
ATOM     77  C   UNL A   1      42.828  23.549  28.376  1.00  0.00     0.135 A 
ATOM     78  F   UNL A   1      43.891  26.507  26.548  1.00  0.00    -0.206 F 
ATOM     79  C   UNL A   1      43.924  24.247  25.911  1.00  0.00     0.059 A 
ATOM     80  C   UNL A   1      43.129  22.549  27.456  1.00  0.00     0.059 A 
ATOM     81  F   UNL A   1      42.323  23.187  29.565  1.00  0.00    -0.206 F 
ATOM     82  C   UNL A   1      43.678  22.910  26.225  1.00  0.00     0.060 A 
BRANCH  82  83
ATOM     83  S   UNL A   1      44.157  21.639  25.032  1.00  0.00     0.124 S 
ATOM     84  O   UNL A   1      44.059  22.366  23.772  1.00  0.00    -0.237 OA
ATOM     85  O   UNL A   1      45.508  21.301  25.471  1.00  0.00    -0.237 OA
ATOM     86  O   UNL A   1      43.160  20.593  25.239  1.00  0.00    -0.744 OA
ENDBRANCH  82  83
ENDBRANCH  50  75
BRANCH  62  87
ATOM     87  C   UNL A   1      46.807  27.303  33.523  1.00  0.00     0.058 A 
ATOM     88  C   UNL A   1      46.862  26.308  34.510  1.00  0.00     0.135 A 
ATOM     89  C   UNL A   1      48.018  27.821  33.037  1.00  0.00     0.135 A 
ATOM     90  F   UNL A   1      45.730  25.788  35.009  1.00  0.00    -0.206 F 
ATOM     91  C   UNL A   1      48.078  25.836  34.992  1.00  0.00     0.059 A 
ATOM     92  C   UNL A   1      49.245  27.349  33.490  1.00  0.00     0.059 A 
ATOM     93  F   UNL A   1      48.015  28.768  32.085  1.00  0.00    -0.206 F 
ATOM     94  C   UNL A   1      49.264  26.356  34.469  1.00  0.00     0.060 A 
BRANCH  94  95
ATOM     95  S   UNL A   1      50.836  25.672  35.038  1.00  0.00     0.124 S 
ATOM     96  O   UNL A   1      50.787  24.324  34.483  1.00  0.00    -0.237 OA
ATOM     97  O   UNL A   1      51.808  26.575  34.429  1.00  0.00    -0.237 OA
ATOM     98  O   UNL A   1      50.736  25.757  36.492  1.00  0.00    -0.744 OA
ENDBRANCH  94  95
ENDBRANCH  62  87
ENDBRANCH  36  37
ENDBRANCH  28  31
ENDBRANCH  26  27
ENDBRANCH  25  26
ENDBRANCH   1  25
TORSDOF 19
ENDMDL
