MODEL 1
REMARK VINA RESULT:     -12.1      0.000      0.000
REMARK SMILES Cc1ccccc1C[C@H](CCSc1ccccc1)C(=O)NCCCNC(=O)c1ccc(-c2c3nc(c(-c4c(F)cc(S(=O)(=O)[O-])cc4F)c4ccc([nH]4)c(-c4c(F)cc(S(=O)(=O)[O-])cc4F)c4nc(c(-c5c(F)cc(S(=O)(=O)[O-])cc5F)c5ccc2[nH]5)C=C4)C=C3)cc1
REMARK SMILES IDX 22 1 21 2 19 3 20 4 9 6 8 7 7 8 1 9 2 10 3 11 4 12 6 13 5 14
REMARK SMILES IDX 10 15 11 16 12 17 13 18 14 19 18 20 15 21 17 22 16 23 23 24
REMARK SMILES IDX 24 25 25 26 26 27 27 29 28 30 29 31 93 32 30 33 92 34 31 35
REMARK SMILES IDX 32 36 33 37 86 38 34 39 91 40 85 41 87 42 35 43 90 44 84 45
REMARK SMILES IDX 83 46 36 48 70 49 49 50 69 51 50 52 53 53 68 54 88 55 51 56
REMARK SMILES IDX 52 57 67 59 89 60 54 61 37 62 38 63 47 64 39 65 40 66 46 67
REMARK SMILES IDX 48 68 41 69 42 70 43 71 44 72 45 73 71 74 72 75 81 76 73 77
REMARK SMILES IDX 74 78 80 79 82 80 75 81 76 82 77 83 78 84 79 85 55 86 56 87
REMARK SMILES IDX 65 88 57 89 58 90 64 91 66 92 59 93 60 94 61 95 62 96 63 97
REMARK H PARENT 21 5 25 28 87 47 53 58
REMARK Flexibility Score: inf
ROOT
ATOM      1  C   UNL A   1      35.245  23.389  25.998  1.00  0.00     0.117 C 
ENDROOT
BRANCH   1   2
ATOM      2  N   UNL A   1      34.280  23.001  27.021  1.00  0.00    -0.356 N 
ATOM      3  C   UNL A   1      32.919  23.024  27.022  1.00  0.00     0.223 C 
ATOM      4  O   UNL A   1      32.339  22.555  28.006  1.00  0.00    -0.275 OA
ATOM      5  H   UNL A   1      34.683  22.666  27.854  1.00  0.00     0.163 HD
BRANCH   3   6
ATOM      6  C   UNL A   1      32.114  23.679  25.903  1.00  0.00     0.083 C 
BRANCH   6   7
ATOM      7  C   UNL A   1      31.000  24.659  26.342  1.00  0.00     0.049 C 
BRANCH   7   8
ATOM      8  C   UNL A   1      31.154  26.122  25.950  1.00  0.00    -0.044 A 
ATOM      9  C   UNL A   1      29.591  25.929  23.914  1.00  0.00     0.044 C 
ATOM     10  C   UNL A   1      30.519  26.688  24.822  1.00  0.00    -0.048 A 
ATOM     11  C   UNL A   1      30.650  28.070  24.573  1.00  0.00     0.004 A 
ATOM     12  C   UNL A   1      31.389  28.894  25.417  1.00  0.00     0.000 A 
ATOM     13  C   UNL A   1      31.865  26.989  26.804  1.00  0.00     0.004 A 
ATOM     14  C   UNL A   1      31.991  28.352  26.539  1.00  0.00     0.000 A 
ENDBRANCH   7   8
ENDBRANCH   6   7
BRANCH   6  15
ATOM     15  C   UNL A   1      31.658  22.540  24.957  1.00  0.00     0.025 C 
BRANCH  15  16
ATOM     16  C   UNL A   1      31.628  22.824  23.453  1.00  0.00     0.076 C 
BRANCH  16  17
ATOM     17  S   UNL A   1      33.271  23.142  22.720  1.00  0.00    -0.126 SA
BRANCH  17  18
ATOM     18  C   UNL A   1      33.287  24.920  22.676  1.00  0.00     0.007 A 
ATOM     19  C   UNL A   1      34.015  25.630  23.633  1.00  0.00     0.015 A 
ATOM     20  C   UNL A   1      32.631  25.618  21.658  1.00  0.00     0.015 A 
ATOM     21  C   UNL A   1      34.041  27.024  23.611  1.00  0.00     0.001 A 
ATOM     22  C   UNL A   1      32.682  27.014  21.616  1.00  0.00     0.001 A 
ATOM     23  C   UNL A   1      33.379  27.716  22.599  1.00  0.00     0.000 A 
ENDBRANCH  17  18
ENDBRANCH  16  17
ENDBRANCH  15  16
ENDBRANCH   6  15
ENDBRANCH   3   6
ENDBRANCH   1   2
BRANCH   1  24
ATOM     24  C   UNL A   1      35.953  22.207  25.356  1.00  0.00     0.042 C 
BRANCH  24  25
ATOM     25  C   UNL A   1      37.448  22.400  25.266  1.00  0.00     0.118 C 
BRANCH  25  26
ATOM     26  N   UNL A   1      38.194  22.207  26.500  1.00  0.00    -0.352 N 
ATOM     27  C   UNL A   1      39.531  22.610  26.504  1.00  0.00     0.251 C 
ATOM     28  H   UNL A   1      37.775  21.808  27.296  1.00  0.00     0.163 HD
ATOM     29  O   UNL A   1      40.468  21.942  26.109  1.00  0.00    -0.269 OA
BRANCH  27  30
ATOM     30  C   UNL A   1      39.664  24.062  26.761  1.00  0.00     0.039 A 
ATOM     31  C   UNL A   1      40.464  24.908  25.997  1.00  0.00     0.014 A 
ATOM     32  C   UNL A   1      39.106  24.492  27.964  1.00  0.00     0.014 A 
ATOM     33  C   UNL A   1      40.781  26.174  26.508  1.00  0.00     0.010 A 
ATOM     34  C   UNL A   1      39.555  25.653  28.533  1.00  0.00     0.010 A 
ATOM     35  C   UNL A   1      40.376  26.513  27.800  1.00  0.00    -0.014 A 
BRANCH  35  36
ATOM     36  C   UNL A   1      40.689  27.740  28.517  1.00  0.00     0.031 A 
ATOM     37  C   UNL A   1      39.646  28.793  28.639  1.00  0.00     0.074 A 
ATOM     38  C   UNL A   1      41.797  27.797  29.287  1.00  0.00     0.049 A 
ATOM     39  N   UNL A   1      39.873  29.992  29.049  1.00  0.00    -0.248 NA
ATOM     40  C   UNL A   1      38.241  28.571  28.295  1.00  0.00     0.031 C 
ATOM     41  C   UNL A   1      42.045  28.700  30.407  1.00  0.00     0.029 A 
ATOM     42  N   UNL A   1      43.016  27.149  29.090  1.00  0.00    -0.354 N 
ATOM     43  C   UNL A   1      38.660  30.597  29.287  1.00  0.00     0.074 A 
ATOM     44  C   UNL A   1      37.671  29.681  28.772  1.00  0.00     0.031 C 
ATOM     45  C   UNL A   1      43.364  28.757  30.639  1.00  0.00     0.029 A 
ATOM     46  C   UNL A   1      44.017  28.018  29.575  1.00  0.00     0.049 A 
ATOM     47  H   UNL A   1      43.152  26.260  28.691  1.00  0.00     0.167 HD
ATOM     48  C   UNL A   1      38.616  31.757  30.000  1.00  0.00     0.037 A 
ATOM     49  C   UNL A   1      44.953  28.545  28.728  1.00  0.00     0.037 A 
ATOM     50  C   UNL A   1      39.958  32.190  30.374  1.00  0.00     0.049 A 
ATOM     51  C   UNL A   1      44.903  30.053  28.616  1.00  0.00     0.074 A 
ATOM     52  C   UNL A   1      40.709  32.035  31.528  1.00  0.00     0.029 A 
ATOM     53  N   UNL A   1      40.839  32.599  29.382  1.00  0.00    -0.354 N 
ATOM     54  N   UNL A   1      43.902  30.787  29.019  1.00  0.00    -0.248 NA
ATOM     55  C   UNL A   1      45.976  30.861  28.042  1.00  0.00     0.031 C 
ATOM     56  C   UNL A   1      42.061  32.315  31.214  1.00  0.00     0.029 A 
ATOM     57  C   UNL A   1      42.128  32.654  29.873  1.00  0.00     0.049 A 
ATOM     58  H   UNL A   1      40.581  32.820  28.458  1.00  0.00     0.167 HD
ATOM     59  C   UNL A   1      44.147  32.111  28.747  1.00  0.00     0.074 A 
ATOM     60  C   UNL A   1      45.476  32.104  28.165  1.00  0.00     0.031 C 
ATOM     61  C   UNL A   1      43.225  33.085  29.018  1.00  0.00     0.037 A 
BRANCH  48  62
ATOM     62  C   UNL A   1      37.348  32.355  30.565  1.00  0.00     0.058 A 
ATOM     63  C   UNL A   1      36.792  33.528  30.010  1.00  0.00     0.135 A 
ATOM     64  C   UNL A   1      36.645  31.829  31.666  1.00  0.00     0.135 A 
ATOM     65  F   UNL A   1      37.314  34.106  28.921  1.00  0.00    -0.206 F 
ATOM     66  C   UNL A   1      35.684  34.176  30.557  1.00  0.00     0.059 A 
ATOM     67  C   UNL A   1      35.566  32.489  32.266  1.00  0.00     0.059 A 
ATOM     68  F   UNL A   1      36.958  30.631  32.182  1.00  0.00    -0.206 F 
ATOM     69  C   UNL A   1      35.094  33.668  31.705  1.00  0.00     0.060 A 
BRANCH  69  70
ATOM     70  S   UNL A   1      33.718  34.570  32.440  1.00  0.00     0.124 S 
ATOM     71  O   UNL A   1      34.401  35.614  33.198  1.00  0.00    -0.237 OA
ATOM     72  O   UNL A   1      32.984  35.019  31.262  1.00  0.00    -0.237 OA
ATOM     73  O   UNL A   1      33.044  33.560  33.251  1.00  0.00    -0.744 OA
ENDBRANCH  69  70
ENDBRANCH  48  62
BRANCH  49  74
ATOM     74  C   UNL A   1      45.344  27.582  27.656  1.00  0.00     0.058 A 
ATOM     75  C   UNL A   1      44.786  27.802  26.381  1.00  0.00     0.135 A 
ATOM     76  C   UNL A   1      46.572  26.906  27.716  1.00  0.00     0.135 A 
ATOM     77  F   UNL A   1      43.592  28.408  26.269  1.00  0.00    -0.206 F 
ATOM     78  C   UNL A   1      45.516  27.582  25.217  1.00  0.00     0.059 A 
ATOM     79  C   UNL A   1      47.312  26.657  26.557  1.00  0.00     0.059 A 
ATOM     80  F   UNL A   1      47.146  26.650  28.901  1.00  0.00    -0.206 F 
ATOM     81  C   UNL A   1      46.817  27.099  25.329  1.00  0.00     0.060 A 
BRANCH  81  82
ATOM     82  S   UNL A   1      47.910  27.243  23.890  1.00  0.00     0.124 S 
ATOM     83  O   UNL A   1      49.103  27.853  24.466  1.00  0.00    -0.237 OA
ATOM     84  O   UNL A   1      48.051  25.847  23.474  1.00  0.00    -0.237 OA
ATOM     85  O   UNL A   1      47.151  28.089  22.975  1.00  0.00    -0.744 OA
ENDBRANCH  81  82
ENDBRANCH  49  74
BRANCH  61  86
ATOM     86  C   UNL A   1      43.259  34.545  28.595  1.00  0.00     0.058 A 
ATOM     87  C   UNL A   1      43.256  34.994  27.265  1.00  0.00     0.135 A 
ATOM     88  C   UNL A   1      43.144  35.572  29.572  1.00  0.00     0.135 A 
ATOM     89  F   UNL A   1      43.253  34.138  26.236  1.00  0.00    -0.206 F 
ATOM     90  C   UNL A   1      43.199  36.350  26.928  1.00  0.00     0.059 A 
ATOM     91  C   UNL A   1      43.021  36.923  29.256  1.00  0.00     0.059 A 
ATOM     92  F   UNL A   1      43.127  35.300  30.886  1.00  0.00    -0.206 F 
ATOM     93  C   UNL A   1      43.075  37.309  27.929  1.00  0.00     0.060 A 
BRANCH  93  94
ATOM     94  S   UNL A   1      42.915  39.051  27.499  1.00  0.00     0.124 S 
ATOM     95  O   UNL A   1      41.536  39.108  27.026  1.00  0.00    -0.237 OA
ATOM     96  O   UNL A   1      43.171  39.724  28.770  1.00  0.00    -0.237 OA
ATOM     97  O   UNL A   1      43.944  39.240  26.483  1.00  0.00    -0.744 OA
ENDBRANCH  93  94
ENDBRANCH  61  86
ENDBRANCH  35  36
ENDBRANCH  27  30
ENDBRANCH  25  26
ENDBRANCH  24  25
ENDBRANCH   1  24
TORSDOF 19
ENDMDL
MODEL 2
REMARK VINA RESULT:     -12.0      1.606      2.120
REMARK SMILES Cc1ccccc1C[C@H](CCSc1ccccc1)C(=O)NCCCNC(=O)c1ccc(-c2c3nc(c(-c4c(F)cc(S(=O)(=O)[O-])cc4F)c4ccc([nH]4)c(-c4c(F)cc(S(=O)(=O)[O-])cc4F)c4nc(c(-c5c(F)cc(S(=O)(=O)[O-])cc5F)c5ccc2[nH]5)C=C4)C=C3)cc1
REMARK SMILES IDX 22 1 21 2 19 3 20 4 9 6 8 7 7 8 1 9 2 10 3 11 4 12 6 13 5 14
REMARK SMILES IDX 10 15 11 16 12 17 13 18 14 19 18 20 15 21 17 22 16 23 23 24
REMARK SMILES IDX 24 25 25 26 26 27 27 29 28 30 29 31 93 32 30 33 92 34 31 35
REMARK SMILES IDX 32 36 33 37 86 38 34 39 91 40 85 41 87 42 35 43 90 44 84 45
REMARK SMILES IDX 83 46 36 48 70 49 49 50 69 51 50 52 53 53 68 54 88 55 51 56
REMARK SMILES IDX 52 57 67 59 89 60 54 61 37 62 38 63 47 64 39 65 40 66 46 67
REMARK SMILES IDX 48 68 41 69 42 70 43 71 44 72 45 73 71 74 72 75 81 76 73 77
REMARK SMILES IDX 74 78 80 79 82 80 75 81 76 82 77 83 78 84 79 85 55 86 56 87
REMARK SMILES IDX 65 88 57 89 58 90 64 91 66 92 59 93 60 94 61 95 62 96 63 97
REMARK H PARENT 21 5 25 28 87 47 53 58
REMARK Flexibility Score: inf
ROOT
ATOM      1  C   UNL A   1      35.500  21.443  26.011  1.00  0.00     0.117 C 
ENDROOT
BRANCH   1   2
ATOM      2  N   UNL A   1      34.234  20.755  25.784  1.00  0.00    -0.356 N 
ATOM      3  C   UNL A   1      33.039  21.211  25.318  1.00  0.00     0.223 C 
ATOM      4  O   UNL A   1      32.140  20.384  25.144  1.00  0.00    -0.275 OA
ATOM      5  H   UNL A   1      34.246  19.797  26.007  1.00  0.00     0.163 HD
BRANCH   3   6
ATOM      6  C   UNL A   1      32.765  22.695  25.093  1.00  0.00     0.083 C 
BRANCH   6   7
ATOM      7  C   UNL A   1      32.623  23.567  26.364  1.00  0.00     0.049 C 
BRANCH   7   8
ATOM      8  C   UNL A   1      32.541  25.076  26.178  1.00  0.00    -0.044 A 
ATOM      9  C   UNL A   1      29.974  25.140  26.366  1.00  0.00     0.044 C 
ATOM     10  C   UNL A   1      31.318  25.784  26.160  1.00  0.00    -0.048 A 
ATOM     11  C   UNL A   1      31.332  27.190  26.062  1.00  0.00     0.004 A 
ATOM     12  C   UNL A   1      32.527  27.901  25.986  1.00  0.00     0.000 A 
ATOM     13  C   UNL A   1      33.732  25.827  26.134  1.00  0.00     0.004 A 
ATOM     14  C   UNL A   1      33.729  27.217  26.030  1.00  0.00     0.000 A 
ENDBRANCH   7   8
ENDBRANCH   6   7
BRANCH   6  15
ATOM     15  C   UNL A   1      31.583  22.784  24.094  1.00  0.00     0.025 C 
BRANCH  15  16
ATOM     16  C   UNL A   1      31.878  23.275  22.675  1.00  0.00     0.076 C 
BRANCH  16  17
ATOM     17  S   UNL A   1      33.395  24.283  22.533  1.00  0.00    -0.126 SA
BRANCH  17  18
ATOM     18  C   UNL A   1      32.714  25.926  22.537  1.00  0.00     0.007 A 
ATOM     19  C   UNL A   1      33.569  27.030  22.500  1.00  0.00     0.015 A 
ATOM     20  C   UNL A   1      31.331  26.129  22.512  1.00  0.00     0.015 A 
ATOM     21  C   UNL A   1      33.051  28.325  22.500  1.00  0.00     0.001 A 
ATOM     22  C   UNL A   1      30.811  27.425  22.480  1.00  0.00     0.001 A 
ATOM     23  C   UNL A   1      31.672  28.523  22.484  1.00  0.00     0.000 A 
ENDBRANCH  17  18
ENDBRANCH  16  17
ENDBRANCH  15  16
ENDBRANCH   6  15
ENDBRANCH   3   6
ENDBRANCH   1   2
BRANCH   1  24
ATOM     24  C   UNL A   1      36.229  21.808  24.727  1.00  0.00     0.042 C 
BRANCH  24  25
ATOM     25  C   UNL A   1      37.530  22.530  24.979  1.00  0.00     0.118 C 
BRANCH  25  26
ATOM     26  N   UNL A   1      38.171  22.269  26.260  1.00  0.00    -0.352 N 
ATOM     27  C   UNL A   1      39.505  22.658  26.395  1.00  0.00     0.251 C 
ATOM     28  H   UNL A   1      37.684  21.835  26.998  1.00  0.00     0.163 HD
ATOM     29  O   UNL A   1      40.467  22.001  26.045  1.00  0.00    -0.269 OA
BRANCH  27  30
ATOM     30  C   UNL A   1      39.624  24.094  26.734  1.00  0.00     0.039 A 
ATOM     31  C   UNL A   1      40.366  25.003  25.983  1.00  0.00     0.014 A 
ATOM     32  C   UNL A   1      39.123  24.438  27.990  1.00  0.00     0.014 A 
ATOM     33  C   UNL A   1      40.687  26.242  26.554  1.00  0.00     0.010 A 
ATOM     34  C   UNL A   1      39.581  25.571  28.605  1.00  0.00     0.010 A 
ATOM     35  C   UNL A   1      40.345  26.492  27.885  1.00  0.00    -0.014 A 
BRANCH  35  36
ATOM     36  C   UNL A   1      40.673  27.680  28.659  1.00  0.00     0.031 A 
ATOM     37  C   UNL A   1      39.686  28.789  28.736  1.00  0.00     0.074 A 
ATOM     38  C   UNL A   1      41.722  27.651  29.509  1.00  0.00     0.049 A 
ATOM     39  N   UNL A   1      39.950  29.962  29.198  1.00  0.00    -0.248 NA
ATOM     40  C   UNL A   1      38.300  28.660  28.285  1.00  0.00     0.031 C 
ATOM     41  C   UNL A   1      41.937  28.509  30.671  1.00  0.00     0.029 A 
ATOM     42  N   UNL A   1      42.914  26.938  29.383  1.00  0.00    -0.354 N 
ATOM     43  C   UNL A   1      38.759  30.631  29.365  1.00  0.00     0.074 A 
ATOM     44  C   UNL A   1      37.761  29.789  28.751  1.00  0.00     0.031 C 
ATOM     45  C   UNL A   1      43.237  28.482  31.000  1.00  0.00     0.029 A 
ATOM     46  C   UNL A   1      43.924  27.733  29.965  1.00  0.00     0.049 A 
ATOM     47  H   UNL A   1      43.028  26.053  28.968  1.00  0.00     0.167 HD
ATOM     48  C   UNL A   1      38.729  31.772  30.108  1.00  0.00     0.037 A 
ATOM     49  C   UNL A   1      44.949  28.225  29.205  1.00  0.00     0.037 A 
ATOM     50  C   UNL A   1      40.062  32.115  30.591  1.00  0.00     0.049 A 
ATOM     51  C   UNL A   1      44.993  29.736  29.135  1.00  0.00     0.074 A 
ATOM     52  C   UNL A   1      40.714  31.887  31.791  1.00  0.00     0.029 A 
ATOM     53  N   UNL A   1      41.036  32.498  29.678  1.00  0.00    -0.354 N 
ATOM     54  N   UNL A   1      44.009  30.517  29.486  1.00  0.00    -0.248 NA
ATOM     55  C   UNL A   1      46.151  30.493  28.665  1.00  0.00     0.031 C 
ATOM     56  C   UNL A   1      42.100  32.094  31.585  1.00  0.00     0.029 A 
ATOM     57  C   UNL A   1      42.286  32.463  30.264  1.00  0.00     0.049 A 
ATOM     58  H   UNL A   1      40.860  32.757  28.745  1.00  0.00     0.167 HD
ATOM     59  C   UNL A   1      44.349  31.831  29.272  1.00  0.00     0.074 A 
ATOM     60  C   UNL A   1      45.715  31.760  28.789  1.00  0.00     0.031 C 
ATOM     61  C   UNL A   1      43.467  32.851  29.505  1.00  0.00     0.037 A 
BRANCH  48  62
ATOM     62  C   UNL A   1      37.458  32.430  30.596  1.00  0.00     0.058 A 
ATOM     63  C   UNL A   1      36.691  33.247  29.738  1.00  0.00     0.135 A 
ATOM     64  C   UNL A   1      36.955  32.309  31.906  1.00  0.00     0.135 A 
ATOM     65  F   UNL A   1      37.009  33.405  28.447  1.00  0.00    -0.206 F 
ATOM     66  C   UNL A   1      35.569  33.958  30.167  1.00  0.00     0.059 A 
ATOM     67  C   UNL A   1      35.866  33.052  32.375  1.00  0.00     0.059 A 
ATOM     68  F   UNL A   1      37.483  31.433  32.774  1.00  0.00    -0.206 F 
ATOM     69  C   UNL A   1      35.180  33.880  31.496  1.00  0.00     0.060 A 
BRANCH  69  70
ATOM     70  S   UNL A   1      33.780  34.873  32.046  1.00  0.00     0.124 S 
ATOM     71  O   UNL A   1      33.071  35.128  30.795  1.00  0.00    -0.237 OA
ATOM     72  O   UNL A   1      33.115  33.971  32.979  1.00  0.00    -0.237 OA
ATOM     73  O   UNL A   1      34.410  36.045  32.647  1.00  0.00    -0.744 OA
ENDBRANCH  69  70
ENDBRANCH  48  62
BRANCH  49  74
ATOM     74  C   UNL A   1      45.363  27.269  28.136  1.00  0.00     0.058 A 
ATOM     75  C   UNL A   1      46.028  26.101  28.562  1.00  0.00     0.135 A 
ATOM     76  C   UNL A   1      44.663  27.207  26.922  1.00  0.00     0.135 A 
ATOM     77  F   UNL A   1      46.746  26.117  29.697  1.00  0.00    -0.206 F 
ATOM     78  C   UNL A   1      45.813  24.873  27.945  1.00  0.00     0.059 A 
ATOM     79  C   UNL A   1      44.453  25.987  26.275  1.00  0.00     0.059 A 
ATOM     80  F   UNL A   1      44.026  28.291  26.453  1.00  0.00    -0.206 F 
ATOM     81  C   UNL A   1      44.943  24.817  26.859  1.00  0.00     0.060 A 
BRANCH  81  82
ATOM     82  S   UNL A   1      44.311  23.196  26.352  1.00  0.00     0.124 S 
ATOM     83  O   UNL A   1      43.371  22.880  27.422  1.00  0.00    -0.237 OA
ATOM     84  O   UNL A   1      43.710  23.497  25.051  1.00  0.00    -0.237 OA
ATOM     85  O   UNL A   1      45.510  22.367  26.304  1.00  0.00    -0.744 OA
ENDBRANCH  81  82
ENDBRANCH  49  74
BRANCH  61  86
ATOM     86  C   UNL A   1      43.614  34.317  29.129  1.00  0.00     0.058 A 
ATOM     87  C   UNL A   1      43.633  34.808  27.815  1.00  0.00     0.135 A 
ATOM     88  C   UNL A   1      43.596  35.316  30.141  1.00  0.00     0.135 A 
ATOM     89  F   UNL A   1      43.547  33.991  26.758  1.00  0.00    -0.206 F 
ATOM     90  C   UNL A   1      43.683  36.176  27.524  1.00  0.00     0.059 A 
ATOM     91  C   UNL A   1      43.582  36.683  29.872  1.00  0.00     0.059 A 
ATOM     92  F   UNL A   1      43.573  35.001  31.445  1.00  0.00    -0.206 F 
ATOM     93  C   UNL A   1      43.651  37.107  28.557  1.00  0.00     0.060 A 
BRANCH  93  94
ATOM     94  S   UNL A   1      43.629  38.870  28.187  1.00  0.00     0.124 S 
ATOM     95  O   UNL A   1      44.875  39.313  28.803  1.00  0.00    -0.237 OA
ATOM     96  O   UNL A   1      43.607  38.894  26.727  1.00  0.00    -0.237 OA
ATOM     97  O   UNL A   1      42.404  39.331  28.830  1.00  0.00    -0.744 OA
ENDBRANCH  93  94
ENDBRANCH  61  86
ENDBRANCH  35  36
ENDBRANCH  27  30
ENDBRANCH  25  26
ENDBRANCH  24  25
ENDBRANCH   1  24
TORSDOF 19
ENDMDL
MODEL 3
REMARK VINA RESULT:     -12.0      1.387      2.109
REMARK SMILES Cc1ccccc1C[C@H](CCSc1ccccc1)C(=O)NCCCNC(=O)c1ccc(-c2c3nc(c(-c4c(F)cc(S(=O)(=O)[O-])cc4F)c4ccc([nH]4)c(-c4c(F)cc(S(=O)(=O)[O-])cc4F)c4nc(c(-c5c(F)cc(S(=O)(=O)[O-])cc5F)c5ccc2[nH]5)C=C4)C=C3)cc1
REMARK SMILES IDX 22 1 21 2 19 3 20 4 9 6 8 7 7 8 1 9 2 10 3 11 4 12 6 13 5 14
REMARK SMILES IDX 10 15 11 16 12 17 13 18 14 19 18 20 15 21 17 22 16 23 23 24
REMARK SMILES IDX 24 25 25 26 26 27 27 29 28 30 29 31 93 32 30 33 92 34 31 35
REMARK SMILES IDX 32 36 33 37 86 38 34 39 91 40 85 41 87 42 35 43 90 44 84 45
REMARK SMILES IDX 83 46 36 48 70 49 49 50 69 51 50 52 53 53 68 54 88 55 51 56
REMARK SMILES IDX 52 57 67 59 89 60 54 61 37 62 38 63 47 64 39 65 40 66 46 67
REMARK SMILES IDX 48 68 41 69 42 70 43 71 44 72 45 73 71 74 72 75 81 76 73 77
REMARK SMILES IDX 74 78 80 79 82 80 75 81 76 82 77 83 78 84 79 85 55 86 56 87
REMARK SMILES IDX 65 88 57 89 58 90 64 91 66 92 59 93 60 94 61 95 62 96 63 97
REMARK H PARENT 21 5 25 28 87 47 53 58
REMARK Flexibility Score: inf
ROOT
ATOM      1  C   UNL A   1      35.124  22.894  24.835  1.00  0.00     0.117 C 
ENDROOT
BRANCH   1   2
ATOM      2  N   UNL A   1      34.552  22.828  23.495  1.00  0.00    -0.356 N 
ATOM      3  C   UNL A   1      33.763  23.705  22.814  1.00  0.00     0.223 C 
ATOM      4  O   UNL A   1      33.483  23.433  21.644  1.00  0.00    -0.275 OA
ATOM      5  H   UNL A   1      34.773  22.008  22.998  1.00  0.00     0.163 HD
BRANCH   3   6
ATOM      6  C   UNL A   1      33.161  24.942  23.476  1.00  0.00     0.083 C 
BRANCH   6   7
ATOM      7  C   UNL A   1      33.011  24.893  25.015  1.00  0.00     0.049 C 
BRANCH   7   8
ATOM      8  C   UNL A   1      32.747  26.205  25.740  1.00  0.00    -0.044 A 
ATOM      9  C   UNL A   1      30.235  25.738  26.048  1.00  0.00     0.044 C 
ATOM     10  C   UNL A   1      31.465  26.591  26.191  1.00  0.00    -0.048 A 
ATOM     11  C   UNL A   1      31.319  27.787  26.923  1.00  0.00     0.004 A 
ATOM     12  C   UNL A   1      32.412  28.597  27.218  1.00  0.00     0.000 A 
ATOM     13  C   UNL A   1      33.838  27.029  26.084  1.00  0.00     0.004 A 
ATOM     14  C   UNL A   1      33.675  28.212  26.803  1.00  0.00     0.000 A 
ENDBRANCH   7   8
ENDBRANCH   6   7
BRANCH   6  15
ATOM     15  C   UNL A   1      31.866  25.278  22.694  1.00  0.00     0.025 C 
BRANCH  15  16
ATOM     16  C   UNL A   1      31.872  26.515  21.792  1.00  0.00     0.076 C 
BRANCH  16  17
ATOM     17  S   UNL A   1      32.006  28.098  22.696  1.00  0.00    -0.126 SA
BRANCH  17  18
ATOM     18  C   UNL A   1      30.319  28.660  22.649  1.00  0.00     0.007 A 
ATOM     19  C   UNL A   1      29.997  29.829  21.955  1.00  0.00     0.015 A 
ATOM     20  C   UNL A   1      29.298  27.913  23.244  1.00  0.00     0.015 A 
ATOM     21  C   UNL A   1      28.679  30.281  21.906  1.00  0.00     0.001 A 
ATOM     22  C   UNL A   1      27.972  28.348  23.168  1.00  0.00     0.001 A 
ATOM     23  C   UNL A   1      27.665  29.538  22.507  1.00  0.00     0.000 A 
ENDBRANCH  17  18
ENDBRANCH  16  17
ENDBRANCH  15  16
ENDBRANCH   6  15
ENDBRANCH   3   6
ENDBRANCH   1   2
BRANCH   1  24
ATOM     24  C   UNL A   1      36.467  23.605  24.885  1.00  0.00     0.042 C 
BRANCH  24  25
ATOM     25  C   UNL A   1      37.631  22.649  24.982  1.00  0.00     0.118 C 
BRANCH  25  26
ATOM     26  N   UNL A   1      38.174  22.433  26.315  1.00  0.00    -0.352 N 
ATOM     27  C   UNL A   1      39.497  22.824  26.534  1.00  0.00     0.251 C 
ATOM     28  H   UNL A   1      37.633  22.028  27.030  1.00  0.00     0.163 HD
ATOM     29  O   UNL A   1      40.479  22.152  26.280  1.00  0.00    -0.269 OA
BRANCH  27  30
ATOM     30  C   UNL A   1      39.598  24.271  26.828  1.00  0.00     0.039 A 
ATOM     31  C   UNL A   1      40.302  25.171  26.031  1.00  0.00     0.014 A 
ATOM     32  C   UNL A   1      39.126  24.642  28.087  1.00  0.00     0.014 A 
ATOM     33  C   UNL A   1      40.615  26.431  26.558  1.00  0.00     0.010 A 
ATOM     34  C   UNL A   1      39.580  25.800  28.657  1.00  0.00     0.010 A 
ATOM     35  C   UNL A   1      40.306  26.713  27.890  1.00  0.00    -0.014 A 
BRANCH  35  36
ATOM     36  C   UNL A   1      40.633  27.929  28.621  1.00  0.00     0.031 A 
ATOM     37  C   UNL A   1      39.618  29.011  28.716  1.00  0.00     0.074 A 
ATOM     38  C   UNL A   1      41.719  27.951  29.423  1.00  0.00     0.049 A 
ATOM     39  N   UNL A   1      39.867  30.202  29.138  1.00  0.00    -0.248 NA
ATOM     40  C   UNL A   1      38.217  28.831  28.331  1.00  0.00     0.031 C 
ATOM     41  C   UNL A   1      41.960  28.843  30.554  1.00  0.00     0.029 A 
ATOM     42  N   UNL A   1      42.925  27.269  29.259  1.00  0.00    -0.354 N 
ATOM     43  C   UNL A   1      38.665  30.841  29.343  1.00  0.00     0.074 A 
ATOM     44  C   UNL A   1      37.666  29.956  28.795  1.00  0.00     0.031 C 
ATOM     45  C   UNL A   1      43.273  28.861  30.824  1.00  0.00     0.029 A 
ATOM     46  C   UNL A   1      43.935  28.107  29.776  1.00  0.00     0.049 A 
ATOM     47  H   UNL A   1      43.046  26.378  28.860  1.00  0.00     0.167 HD
ATOM     48  C   UNL A   1      38.634  31.999  30.060  1.00  0.00     0.037 A 
ATOM     49  C   UNL A   1      44.910  28.610  28.960  1.00  0.00     0.037 A 
ATOM     50  C   UNL A   1      39.977  32.392  30.474  1.00  0.00     0.049 A 
ATOM     51  C   UNL A   1      44.907  30.119  28.852  1.00  0.00     0.074 A 
ATOM     52  C   UNL A   1      40.688  32.211  31.649  1.00  0.00     0.029 A 
ATOM     53  N   UNL A   1      40.898  32.779  29.509  1.00  0.00    -0.354 N 
ATOM     54  N   UNL A   1      43.917  30.880  29.229  1.00  0.00    -0.248 NA
ATOM     55  C   UNL A   1      46.019  30.897  28.313  1.00  0.00     0.031 C 
ATOM     56  C   UNL A   1      42.057  32.453  31.375  1.00  0.00     0.029 A 
ATOM     57  C   UNL A   1      42.173  32.794  30.039  1.00  0.00     0.049 A 
ATOM     58  H   UNL A   1      40.673  33.010  28.579  1.00  0.00     0.167 HD
ATOM     59  C   UNL A   1      44.208  32.197  28.969  1.00  0.00     0.074 A 
ATOM     60  C   UNL A   1      45.552  32.154  28.427  1.00  0.00     0.031 C 
ATOM     61  C   UNL A   1      43.307  33.197  29.218  1.00  0.00     0.037 A 
BRANCH  48  62
ATOM     62  C   UNL A   1      37.368  32.632  30.589  1.00  0.00     0.058 A 
ATOM     63  C   UNL A   1      36.489  33.322  29.727  1.00  0.00     0.135 A 
ATOM     64  C   UNL A   1      36.975  32.609  31.942  1.00  0.00     0.135 A 
ATOM     65  F   UNL A   1      36.697  33.374  28.405  1.00  0.00    -0.206 F 
ATOM     66  C   UNL A   1      35.363  34.010  30.182  1.00  0.00     0.059 A 
ATOM     67  C   UNL A   1      35.883  33.335  32.430  1.00  0.00     0.059 A 
ATOM     68  F   UNL A   1      37.620  31.848  32.839  1.00  0.00    -0.206 F 
ATOM     69  C   UNL A   1      35.083  34.039  31.540  1.00  0.00     0.060 A 
BRANCH  69  70
ATOM     70  S   UNL A   1      33.672  35.004  32.110  1.00  0.00     0.124 S 
ATOM     71  O   UNL A   1      32.906  35.191  30.882  1.00  0.00    -0.237 OA
ATOM     72  O   UNL A   1      33.075  34.114  33.100  1.00  0.00    -0.237 OA
ATOM     73  O   UNL A   1      34.284  36.217  32.646  1.00  0.00    -0.744 OA
ENDBRANCH  69  70
ENDBRANCH  48  62
BRANCH  49  74
ATOM     74  C   UNL A   1      45.305  27.639  27.895  1.00  0.00     0.058 A 
ATOM     75  C   UNL A   1      44.717  27.824  26.628  1.00  0.00     0.135 A 
ATOM     76  C   UNL A   1      46.550  26.995  27.942  1.00  0.00     0.135 A 
ATOM     77  F   UNL A   1      43.507  28.400  26.530  1.00  0.00    -0.206 F 
ATOM     78  C   UNL A   1      45.430  27.604  25.454  1.00  0.00     0.059 A 
ATOM     79  C   UNL A   1      47.274  26.745  26.773  1.00  0.00     0.059 A 
ATOM     80  F   UNL A   1      47.152  26.772  29.120  1.00  0.00    -0.206 F 
ATOM     81  C   UNL A   1      46.745  27.155  25.548  1.00  0.00     0.060 A 
BRANCH  81  82
ATOM     82  S   UNL A   1      47.806  27.303  24.086  1.00  0.00     0.124 S 
ATOM     83  O   UNL A   1      48.999  27.941  24.631  1.00  0.00    -0.237 OA
ATOM     84  O   UNL A   1      47.966  25.904  23.684  1.00  0.00    -0.237 OA
ATOM     85  O   UNL A   1      47.014  28.123  23.177  1.00  0.00    -0.744 OA
ENDBRANCH  81  82
ENDBRANCH  49  74
BRANCH  61  86
ATOM     86  C   UNL A   1      43.394  34.657  28.802  1.00  0.00     0.058 A 
ATOM     87  C   UNL A   1      43.269  35.122  27.484  1.00  0.00     0.135 A 
ATOM     88  C   UNL A   1      43.466  35.676  29.791  1.00  0.00     0.135 A 
ATOM     89  F   UNL A   1      43.086  34.283  26.457  1.00  0.00    -0.206 F 
ATOM     90  C   UNL A   1      43.270  36.484  27.164  1.00  0.00     0.059 A 
ATOM     91  C   UNL A   1      43.405  37.036  29.500  1.00  0.00     0.059 A 
ATOM     92  F   UNL A   1      43.582  35.387  31.097  1.00  0.00    -0.206 F 
ATOM     93  C   UNL A   1      43.332  37.435  28.177  1.00  0.00     0.060 A 
BRANCH  93  94
ATOM     94  S   UNL A   1      43.247  39.190  27.779  1.00  0.00     0.124 S 
ATOM     95  O   UNL A   1      44.648  39.496  27.509  1.00  0.00    -0.237 OA
ATOM     96  O   UNL A   1      42.363  39.216  26.616  1.00  0.00    -0.237 OA
ATOM     97  O   UNL A   1      42.689  39.781  28.990  1.00  0.00    -0.744 OA
ENDBRANCH  93  94
ENDBRANCH  61  86
ENDBRANCH  35  36
ENDBRANCH  27  30
ENDBRANCH  25  26
ENDBRANCH  24  25
ENDBRANCH   1  24
TORSDOF 19
ENDMDL
