MODEL 1
REMARK VINA RESULT:     -12.2      0.000      0.000
REMARK SMILES O=C(NCCCNC(=O)c1cc(S(=O)(=O)N2CCCCC2)c(Cl)cc1Cl)c1ccc(-c2c3nc(c(-c4c(F)cc(S(=O)(=O)[O-])cc4F)c4ccc([nH]4)c(-c4c(F)cc(S(=O)(=O)[O-])cc4F)c4nc(c(-c5c(F)cc(S(=O)(=O)[O-])cc5F)c5ccc2[nH]5)C=C4)C=C3)cc1
REMARK SMILES IDX 4 1 3 2 1 3 2 4 27 6 28 7 92 8 29 9 91 10 30 11 31 12 32 13
REMARK SMILES IDX 85 14 33 15 90 16 84 17 86 18 34 19 89 20 83 21 82 22 35 24
REMARK SMILES IDX 69 25 48 26 68 27 49 28 52 29 67 30 87 31 50 32 51 33 66 35
REMARK SMILES IDX 88 36 53 37 36 38 37 39 46 40 38 41 39 42 45 43 47 44 40 45
REMARK SMILES IDX 41 46 42 47 43 48 44 49 70 50 71 51 80 52 72 53 73 54 79 55
REMARK SMILES IDX 81 56 74 57 75 58 76 59 77 60 78 61 54 62 55 63 64 64 56 65
REMARK SMILES IDX 57 66 63 67 65 68 58 69 59 70 60 71 61 72 62 73 5 74 6 75
REMARK SMILES IDX 7 76 8 77 9 79 10 80 11 81 25 82 12 83 24 84 26 85 22 86
REMARK SMILES IDX 23 87 13 88 14 89 15 90 16 91 17 92 21 93 18 94 20 95 19 96
REMARK H PARENT 3 5 86 23 52 34 7 78
REMARK Flexibility Score: inf
ROOT
ATOM      1  C   UNL A   1      39.403  23.466  26.899  1.00  0.00     0.118 C 
ENDROOT
BRANCH   1   2
ATOM      2  N   UNL A   1      40.583  23.853  26.142  1.00  0.00    -0.352 N 
ATOM      3  O   UNL A   1      42.215  25.164  25.336  1.00  0.00    -0.269 OA
ATOM      4  C   UNL A   1      41.371  24.975  26.210  1.00  0.00     0.251 C 
ATOM      5  H   UNL A   1      40.866  23.197  25.463  1.00  0.00     0.163 HD
BRANCH   4   6
ATOM      6  C   UNL A   1      41.205  25.962  27.299  1.00  0.00     0.039 A 
ATOM      7  C   UNL A   1      41.967  27.131  27.348  1.00  0.00     0.014 A 
ATOM      8  C   UNL A   1      40.217  25.736  28.263  1.00  0.00     0.014 A 
ATOM      9  C   UNL A   1      41.840  28.002  28.428  1.00  0.00     0.010 A 
ATOM     10  C   UNL A   1      40.037  26.648  29.305  1.00  0.00     0.010 A 
ATOM     11  C   UNL A   1      40.869  27.773  29.414  1.00  0.00    -0.014 A 
BRANCH  11  12
ATOM     12  C   UNL A   1      40.704  28.733  30.534  1.00  0.00     0.031 A 
ATOM     13  C   UNL A   1      41.565  28.634  31.761  1.00  0.00     0.074 A 
ATOM     14  C   UNL A   1      39.761  29.691  30.444  1.00  0.00     0.049 A 
ATOM     15  N   UNL A   1      41.524  29.348  32.858  1.00  0.00    -0.248 NA
ATOM     16  C   UNL A   1      42.603  27.593  31.762  1.00  0.00     0.031 C 
ATOM     17  C   UNL A   1      38.860  29.882  29.306  1.00  0.00     0.029 A 
ATOM     18  N   UNL A   1      39.403  30.681  31.322  1.00  0.00    -0.354 N 
ATOM     19  C   UNL A   1      42.507  28.827  33.689  1.00  0.00     0.074 A 
ATOM     20  C   UNL A   1      43.120  27.725  32.976  1.00  0.00     0.031 C 
ATOM     21  C   UNL A   1      38.065  30.935  29.547  1.00  0.00     0.029 A 
ATOM     22  C   UNL A   1      38.365  31.462  30.875  1.00  0.00     0.049 A 
ATOM     23  H   UNL A   1      39.847  30.820  32.190  1.00  0.00     0.167 HD
ATOM     24  C   UNL A   1      42.867  29.233  34.931  1.00  0.00     0.037 A 
ATOM     25  C   UNL A   1      37.708  32.475  31.473  1.00  0.00     0.037 A 
ATOM     26  C   UNL A   1      42.265  30.341  35.627  1.00  0.00     0.049 A 
ATOM     27  C   UNL A   1      38.122  32.905  32.850  1.00  0.00     0.074 A 
ATOM     28  C   UNL A   1      42.581  30.848  36.875  1.00  0.00     0.029 A 
ATOM     29  N   UNL A   1      41.222  31.112  35.135  1.00  0.00    -0.354 N 
ATOM     30  N   UNL A   1      39.068  32.415  33.613  1.00  0.00    -0.248 NA
ATOM     31  C   UNL A   1      37.381  34.025  33.447  1.00  0.00     0.031 C 
ATOM     32  C   UNL A   1      41.708  31.907  37.151  1.00  0.00     0.029 A 
ATOM     33  C   UNL A   1      40.872  32.082  36.059  1.00  0.00     0.049 A 
ATOM     34  H   UNL A   1      40.792  30.986  34.258  1.00  0.00     0.167 HD
ATOM     35  C   UNL A   1      39.049  33.174  34.776  1.00  0.00     0.074 A 
ATOM     36  C   UNL A   1      38.000  34.162  34.613  1.00  0.00     0.031 C 
ATOM     37  C   UNL A   1      39.831  33.063  35.878  1.00  0.00     0.037 A 
BRANCH  24  38
ATOM     38  C   UNL A   1      43.952  28.455  35.622  1.00  0.00     0.058 A 
ATOM     39  C   UNL A   1      43.661  27.364  36.456  1.00  0.00     0.135 A 
ATOM     40  C   UNL A   1      45.301  28.804  35.445  1.00  0.00     0.135 A 
ATOM     41  F   UNL A   1      42.388  26.999  36.672  1.00  0.00    -0.206 F 
ATOM     42  C   UNL A   1      44.667  26.671  37.122  1.00  0.00     0.059 A 
ATOM     43  C   UNL A   1      46.325  28.110  36.084  1.00  0.00     0.059 A 
ATOM     44  F   UNL A   1      45.634  29.837  34.655  1.00  0.00    -0.206 F 
ATOM     45  C   UNL A   1      45.995  27.058  36.937  1.00  0.00     0.060 A 
BRANCH  45  46
ATOM     46  S   UNL A   1      47.290  26.174  37.834  1.00  0.00     0.124 S 
ATOM     47  O   UNL A   1      48.063  25.603  36.736  1.00  0.00    -0.237 OA
ATOM     48  O   UNL A   1      47.946  27.244  38.579  1.00  0.00    -0.237 OA
ATOM     49  O   UNL A   1      46.547  25.216  38.646  1.00  0.00    -0.744 OA
ENDBRANCH  45  46
ENDBRANCH  24  38
BRANCH  25  50
ATOM     50  C   UNL A   1      36.593  33.138  30.752  1.00  0.00     0.058 A 
ATOM     51  C   UNL A   1      35.261  32.905  31.116  1.00  0.00     0.135 A 
ATOM     52  C   UNL A   1      36.845  34.077  29.739  1.00  0.00     0.135 A 
ATOM     53  F   UNL A   1      34.974  32.012  32.075  1.00  0.00    -0.206 F 
ATOM     54  C   UNL A   1      34.212  33.587  30.508  1.00  0.00     0.059 A 
ATOM     55  C   UNL A   1      35.815  34.787  29.131  1.00  0.00     0.059 A 
ATOM     56  F   UNL A   1      38.107  34.346  29.370  1.00  0.00    -0.206 F 
ATOM     57  C   UNL A   1      34.501  34.534  29.523  1.00  0.00     0.060 A 
BRANCH  57  58
ATOM     58  S   UNL A   1      33.143  35.488  28.809  1.00  0.00     0.124 S 
ATOM     59  O   UNL A   1      32.446  34.470  28.033  1.00  0.00    -0.237 OA
ATOM     60  O   UNL A   1      32.448  35.972  29.998  1.00  0.00    -0.237 OA
ATOM     61  O   UNL A   1      33.830  36.517  28.034  1.00  0.00    -0.744 OA
ENDBRANCH  57  58
ENDBRANCH  25  50
BRANCH  37  62
ATOM     62  C   UNL A   1      39.606  34.051  36.986  1.00  0.00     0.058 A 
ATOM     63  C   UNL A   1      38.806  33.740  38.095  1.00  0.00     0.135 A 
ATOM     64  C   UNL A   1      40.254  35.296  36.967  1.00  0.00     0.135 A 
ATOM     65  F   UNL A   1      38.160  32.564  38.153  1.00  0.00    -0.206 F 
ATOM     66  C   UNL A   1      38.650  34.634  39.147  1.00  0.00     0.059 A 
ATOM     67  C   UNL A   1      40.126  36.199  38.017  1.00  0.00     0.059 A 
ATOM     68  F   UNL A   1      41.034  35.636  35.929  1.00  0.00    -0.206 F 
ATOM     69  C   UNL A   1      39.316  35.860  39.102  1.00  0.00     0.060 A 
BRANCH  69  70
ATOM     70  S   UNL A   1      39.153  36.994  40.498  1.00  0.00     0.124 S 
ATOM     71  O   UNL A   1      38.304  38.036  39.930  1.00  0.00    -0.237 OA
ATOM     72  O   UNL A   1      38.529  36.153  41.516  1.00  0.00    -0.237 OA
ATOM     73  O   UNL A   1      40.530  37.387  40.777  1.00  0.00    -0.744 OA
ENDBRANCH  69  70
ENDBRANCH  37  62
ENDBRANCH  11  12
ENDBRANCH   4   6
ENDBRANCH   1   2
BRANCH   1  74
ATOM     74  C   UNL A   1      38.234  23.060  26.009  1.00  0.00     0.042 C 
BRANCH  74  75
ATOM     75  C   UNL A   1      36.979  23.902  26.196  1.00  0.00     0.118 C 
BRANCH  75  76
ATOM     76  N   UNL A   1      35.804  23.103  26.527  1.00  0.00    -0.352 N 
ATOM     77  C   UNL A   1      34.480  23.294  26.231  1.00  0.00     0.252 C 
ATOM     78  H   UNL A   1      35.995  22.292  27.050  1.00  0.00     0.163 HD
ATOM     79  O   UNL A   1      33.633  22.512  26.651  1.00  0.00    -0.269 OA
BRANCH  77  80
ATOM     80  C   UNL A   1      34.072  24.411  25.360  1.00  0.00     0.059 A 
ATOM     81  C   UNL A   1      33.480  25.534  25.948  1.00  0.00     0.038 A 
ATOM     82  C   UNL A   1      34.301  24.399  23.990  1.00  0.00     0.055 A 
ATOM     83  C   UNL A   1      33.020  26.625  25.178  1.00  0.00     0.102 A 
ATOM     84  C   UNL A   1      33.909  25.504  23.228  1.00  0.00     0.043 A 
ATOM     85  Cl  UNL A   1      35.011  23.065  23.160  1.00  0.00    -0.083 Cl
ATOM     86  C   UNL A   1      33.263  26.616  23.808  1.00  0.00     0.062 A 
ATOM     87  Cl  UNL A   1      32.888  27.849  22.675  1.00  0.00    -0.083 Cl
BRANCH  83  88
ATOM     88  S   UNL A   1      32.109  27.790  26.172  1.00  0.00     0.244 S 
ATOM     89  O   UNL A   1      31.260  28.483  25.224  1.00  0.00    -0.207 OA
ATOM     90  O   UNL A   1      31.521  26.987  27.227  1.00  0.00    -0.207 OA
BRANCH  88  91
ATOM     91  N   UNL A   1      33.086  28.944  26.914  1.00  0.00    -0.198 NA
ATOM     92  C   UNL A   1      34.528  28.646  27.002  1.00  0.00     0.102 C 
ATOM     93  C   UNL A   1      32.577  30.332  26.975  1.00  0.00     0.102 C 
ATOM     94  C   UNL A   1      35.307  29.650  27.832  1.00  0.00     0.017 C 
ATOM     95  C   UNL A   1      33.461  31.280  27.773  1.00  0.00     0.017 C 
ATOM     96  C   UNL A   1      34.938  31.079  27.485  1.00  0.00     0.003 C 
ENDBRANCH  88  91
ENDBRANCH  83  88
ENDBRANCH  77  80
ENDBRANCH  75  76
ENDBRANCH  74  75
ENDBRANCH   1  74
TORSDOF 15
ENDMDL
MODEL 2
REMARK VINA RESULT:     -12.0      6.689     12.146
REMARK SMILES O=C(NCCCNC(=O)c1cc(S(=O)(=O)N2CCCCC2)c(Cl)cc1Cl)c1ccc(-c2c3nc(c(-c4c(F)cc(S(=O)(=O)[O-])cc4F)c4ccc([nH]4)c(-c4c(F)cc(S(=O)(=O)[O-])cc4F)c4nc(c(-c5c(F)cc(S(=O)(=O)[O-])cc5F)c5ccc2[nH]5)C=C4)C=C3)cc1
REMARK SMILES IDX 4 1 3 2 1 3 2 4 27 6 28 7 92 8 29 9 91 10 30 11 31 12 32 13
REMARK SMILES IDX 85 14 33 15 90 16 84 17 86 18 34 19 89 20 83 21 82 22 35 24
REMARK SMILES IDX 69 25 48 26 68 27 49 28 52 29 67 30 87 31 50 32 51 33 66 35
REMARK SMILES IDX 88 36 53 37 36 38 37 39 46 40 38 41 39 42 45 43 47 44 40 45
REMARK SMILES IDX 41 46 42 47 43 48 44 49 70 50 71 51 80 52 72 53 73 54 79 55
REMARK SMILES IDX 81 56 74 57 75 58 76 59 77 60 78 61 54 62 55 63 64 64 56 65
REMARK SMILES IDX 57 66 63 67 65 68 58 69 59 70 60 71 61 72 62 73 5 74 6 75
REMARK SMILES IDX 7 76 8 77 9 79 10 80 11 81 25 82 12 83 24 84 26 85 22 86
REMARK SMILES IDX 23 87 13 88 14 89 15 90 16 91 17 92 21 93 18 94 20 95 19 96
REMARK H PARENT 3 5 86 23 52 34 7 78
REMARK Flexibility Score: inf
ROOT
ATOM      1  C   UNL A   1      35.078  29.336  27.460  1.00  0.00     0.118 C 
ENDROOT
BRANCH   1   2
ATOM      2  N   UNL A   1      35.104  30.104  28.696  1.00  0.00    -0.352 N 
ATOM      3  O   UNL A   1      35.841  30.861  30.673  1.00  0.00    -0.269 OA
ATOM      4  C   UNL A   1      36.111  30.322  29.602  1.00  0.00     0.251 C 
ATOM      5  H   UNL A   1      34.251  30.543  28.920  1.00  0.00     0.163 HD
BRANCH   4   6
ATOM      6  C   UNL A   1      37.501  29.901  29.318  1.00  0.00     0.039 A 
ATOM      7  C   UNL A   1      38.321  29.370  30.315  1.00  0.00     0.014 A 
ATOM      8  C   UNL A   1      37.971  29.988  28.003  1.00  0.00     0.014 A 
ATOM      9  C   UNL A   1      39.648  29.056  30.032  1.00  0.00     0.010 A 
ATOM     10  C   UNL A   1      39.279  29.600  27.704  1.00  0.00     0.010 A 
ATOM     11  C   UNL A   1      40.139  29.161  28.723  1.00  0.00    -0.014 A 
BRANCH  11  12
ATOM     12  C   UNL A   1      41.539  28.774  28.418  1.00  0.00     0.031 A 
ATOM     13  C   UNL A   1      42.641  29.796  28.448  1.00  0.00     0.074 A 
ATOM     14  C   UNL A   1      41.813  27.494  28.100  1.00  0.00     0.049 A 
ATOM     15  N   UNL A   1      43.908  29.652  28.156  1.00  0.00    -0.248 NA
ATOM     16  C   UNL A   1      42.269  31.161  28.852  1.00  0.00     0.031 C 
ATOM     17  C   UNL A   1      40.827  26.414  28.030  1.00  0.00     0.029 A 
ATOM     18  N   UNL A   1      42.998  26.884  27.776  1.00  0.00    -0.354 N 
ATOM     19  C   UNL A   1      44.481  30.908  28.313  1.00  0.00     0.074 A 
ATOM     20  C   UNL A   1      43.418  31.807  28.711  1.00  0.00     0.031 C 
ATOM     21  C   UNL A   1      41.449  25.272  27.702  1.00  0.00     0.029 A 
ATOM     22  C   UNL A   1      42.866  25.548  27.489  1.00  0.00     0.049 A 
ATOM     23  H   UNL A   1      43.860  27.359  27.751  1.00  0.00     0.167 HD
ATOM     24  C   UNL A   1      45.774  31.275  28.142  1.00  0.00     0.037 A 
ATOM     25  C   UNL A   1      43.777  24.645  27.079  1.00  0.00     0.037 A 
ATOM     26  C   UNL A   1      46.829  30.371  27.763  1.00  0.00     0.049 A 
ATOM     27  C   UNL A   1      45.203  25.074  26.894  1.00  0.00     0.074 A 
ATOM     28  C   UNL A   1      48.176  30.641  27.594  1.00  0.00     0.029 A 
ATOM     29  N   UNL A   1      46.656  29.022  27.491  1.00  0.00    -0.354 N 
ATOM     30  N   UNL A   1      45.731  26.261  27.066  1.00  0.00    -0.248 NA
ATOM     31  C   UNL A   1      46.157  24.044  26.459  1.00  0.00     0.031 C 
ATOM     32  C   UNL A   1      48.812  29.462  27.191  1.00  0.00     0.029 A 
ATOM     33  C   UNL A   1      47.868  28.448  27.143  1.00  0.00     0.049 A 
ATOM     34  H   UNL A   1      45.797  28.543  27.537  1.00  0.00     0.167 HD
ATOM     35  C   UNL A   1      47.083  26.121  26.776  1.00  0.00     0.074 A 
ATOM     36  C   UNL A   1      47.292  24.731  26.423  1.00  0.00     0.031 C 
ATOM     37  C   UNL A   1      48.060  27.060  26.802  1.00  0.00     0.037 A 
BRANCH  24  38
ATOM     38  C   UNL A   1      46.110  32.726  28.345  1.00  0.00     0.058 A 
ATOM     39  C   UNL A   1      46.549  33.216  29.585  1.00  0.00     0.135 A 
ATOM     40  C   UNL A   1      45.994  33.638  27.283  1.00  0.00     0.135 A 
ATOM     41  F   UNL A   1      46.662  32.390  30.637  1.00  0.00    -0.206 F 
ATOM     42  C   UNL A   1      46.823  34.566  29.776  1.00  0.00     0.059 A 
ATOM     43  C   UNL A   1      46.283  34.990  27.447  1.00  0.00     0.059 A 
ATOM     44  F   UNL A   1      45.581  33.221  26.076  1.00  0.00    -0.206 F 
ATOM     45  C   UNL A   1      46.678  35.447  28.704  1.00  0.00     0.060 A 
BRANCH  45  46
ATOM     46  S   UNL A   1      47.001  37.204  28.972  1.00  0.00     0.124 S 
ATOM     47  O   UNL A   1      48.268  37.375  28.267  1.00  0.00    -0.237 OA
ATOM     48  O   UNL A   1      45.842  37.838  28.350  1.00  0.00    -0.237 OA
ATOM     49  O   UNL A   1      47.068  37.318  30.425  1.00  0.00    -0.744 OA
ENDBRANCH  45  46
ENDBRANCH  24  38
BRANCH  25  50
ATOM     50  C   UNL A   1      43.345  23.248  26.822  1.00  0.00     0.058 A 
ATOM     51  C   UNL A   1      43.323  22.730  25.521  1.00  0.00     0.135 A 
ATOM     52  C   UNL A   1      43.025  22.384  27.881  1.00  0.00     0.135 A 
ATOM     53  F   UNL A   1      43.619  23.521  24.479  1.00  0.00    -0.206 F 
ATOM     54  C   UNL A   1      43.007  21.397  25.275  1.00  0.00     0.059 A 
ATOM     55  C   UNL A   1      42.725  21.044  27.664  1.00  0.00     0.059 A 
ATOM     56  F   UNL A   1      43.050  22.833  29.145  1.00  0.00    -0.206 F 
ATOM     57  C   UNL A   1      42.718  20.560  26.356  1.00  0.00     0.060 A 
BRANCH  57  58
ATOM     58  S   UNL A   1      42.406  18.809  26.038  1.00  0.00     0.124 S 
ATOM     59  O   UNL A   1      40.994  18.823  25.680  1.00  0.00    -0.237 OA
ATOM     60  O   UNL A   1      43.338  18.521  24.952  1.00  0.00    -0.237 OA
ATOM     61  O   UNL A   1      42.731  18.176  27.314  1.00  0.00    -0.744 OA
ENDBRANCH  57  58
ENDBRANCH  25  50
BRANCH  37  62
ATOM     62  C   UNL A   1      49.454  26.614  26.467  1.00  0.00     0.058 A 
ATOM     63  C   UNL A   1      50.267  25.976  27.414  1.00  0.00     0.135 A 
ATOM     64  C   UNL A   1      49.952  26.767  25.164  1.00  0.00     0.135 A 
ATOM     65  F   UNL A   1      49.837  25.815  28.676  1.00  0.00    -0.206 F 
ATOM     66  C   UNL A   1      51.534  25.510  27.083  1.00  0.00     0.059 A 
ATOM     67  C   UNL A   1      51.210  26.292  24.805  1.00  0.00     0.059 A 
ATOM     68  F   UNL A   1      49.208  27.366  24.221  1.00  0.00    -0.206 F 
ATOM     69  C   UNL A   1      51.997  25.670  25.775  1.00  0.00     0.060 A 
BRANCH  69  70
ATOM     70  S   UNL A   1      53.620  25.012  25.337  1.00  0.00     0.124 S 
ATOM     71  O   UNL A   1      54.462  25.595  26.378  1.00  0.00    -0.237 OA
ATOM     72  O   UNL A   1      53.411  23.570  25.426  1.00  0.00    -0.237 OA
ATOM     73  O   UNL A   1      53.841  25.525  23.989  1.00  0.00    -0.744 OA
ENDBRANCH  69  70
ENDBRANCH  37  62
ENDBRANCH  11  12
ENDBRANCH   4   6
ENDBRANCH   1   2
BRANCH   1  74
ATOM     74  C   UNL A   1      33.764  28.592  27.251  1.00  0.00     0.042 C 
BRANCH  74  75
ATOM     75  C   UNL A   1      32.803  29.274  26.286  1.00  0.00     0.118 C 
BRANCH  75  76
ATOM     76  N   UNL A   1      33.420  29.601  25.006  1.00  0.00    -0.352 N 
ATOM     77  C   UNL A   1      33.449  28.911  23.823  1.00  0.00     0.252 C 
ATOM     78  H   UNL A   1      33.895  30.463  24.990  1.00  0.00     0.163 HD
ATOM     79  O   UNL A   1      34.073  29.352  22.864  1.00  0.00    -0.269 OA
BRANCH  77  80
ATOM     80  C   UNL A   1      32.683  27.659  23.681  1.00  0.00     0.059 A 
ATOM     81  C   UNL A   1      33.377  26.445  23.708  1.00  0.00     0.038 A 
ATOM     82  C   UNL A   1      31.298  27.650  23.570  1.00  0.00     0.055 A 
ATOM     83  C   UNL A   1      32.722  25.206  23.531  1.00  0.00     0.102 A 
ATOM     84  C   UNL A   1      30.635  26.425  23.462  1.00  0.00     0.043 A 
ATOM     85  Cl  UNL A   1      30.344  29.086  23.514  1.00  0.00    -0.083 Cl
ATOM     86  C   UNL A   1      31.334  25.201  23.435  1.00  0.00     0.062 A 
ATOM     87  Cl  UNL A   1      30.304  23.834  23.306  1.00  0.00    -0.083 Cl
BRANCH  83  88
ATOM     88  S   UNL A   1      33.886  23.866  23.380  1.00  0.00     0.244 S 
ATOM     89  O   UNL A   1      33.835  23.502  21.979  1.00  0.00    -0.207 OA
ATOM     90  O   UNL A   1      35.114  24.383  23.955  1.00  0.00    -0.207 OA
BRANCH  88  91
ATOM     91  N   UNL A   1      33.457  22.503  24.272  1.00  0.00    -0.198 NA
ATOM     92  C   UNL A   1      32.830  21.390  23.536  1.00  0.00     0.102 C 
ATOM     93  C   UNL A   1      34.148  22.285  25.563  1.00  0.00     0.102 C 
ATOM     94  C   UNL A   1      32.319  20.277  24.434  1.00  0.00     0.017 C 
ATOM     95  C   UNL A   1      33.610  21.106  26.361  1.00  0.00     0.017 C 
ATOM     96  C   UNL A   1      33.335  19.893  25.491  1.00  0.00     0.003 C 
ENDBRANCH  88  91
ENDBRANCH  83  88
ENDBRANCH  77  80
ENDBRANCH  75  76
ENDBRANCH  74  75
ENDBRANCH   1  74
TORSDOF 15
ENDMDL
MODEL 3
REMARK VINA RESULT:     -12.0      1.543      2.190
REMARK SMILES O=C(NCCCNC(=O)c1cc(S(=O)(=O)N2CCCCC2)c(Cl)cc1Cl)c1ccc(-c2c3nc(c(-c4c(F)cc(S(=O)(=O)[O-])cc4F)c4ccc([nH]4)c(-c4c(F)cc(S(=O)(=O)[O-])cc4F)c4nc(c(-c5c(F)cc(S(=O)(=O)[O-])cc5F)c5ccc2[nH]5)C=C4)C=C3)cc1
REMARK SMILES IDX 4 1 3 2 1 3 2 4 27 6 28 7 92 8 29 9 91 10 30 11 31 12 32 13
REMARK SMILES IDX 85 14 33 15 90 16 84 17 86 18 34 19 89 20 83 21 82 22 35 24
REMARK SMILES IDX 69 25 48 26 68 27 49 28 52 29 67 30 87 31 50 32 51 33 66 35
REMARK SMILES IDX 88 36 53 37 36 38 37 39 46 40 38 41 39 42 45 43 47 44 40 45
REMARK SMILES IDX 41 46 42 47 43 48 44 49 70 50 71 51 80 52 72 53 73 54 79 55
REMARK SMILES IDX 81 56 74 57 75 58 76 59 77 60 78 61 54 62 55 63 64 64 56 65
REMARK SMILES IDX 57 66 63 67 65 68 58 69 59 70 60 71 61 72 62 73 5 74 6 75
REMARK SMILES IDX 7 76 8 77 9 79 10 80 11 81 25 82 12 83 24 84 26 85 22 86
REMARK SMILES IDX 23 87 13 88 14 89 15 90 16 91 17 92 21 93 18 94 20 95 19 96
REMARK H PARENT 3 5 86 23 52 34 7 78
REMARK Flexibility Score: inf
ROOT
ATOM      1  C   UNL A   1      38.446  24.071  26.459  1.00  0.00     0.118 C 
ENDROOT
BRANCH   1   2
ATOM      2  N   UNL A   1      39.858  23.923  26.145  1.00  0.00    -0.352 N 
ATOM      3  O   UNL A   1      42.033  24.449  25.989  1.00  0.00    -0.269 OA
ATOM      4  C   UNL A   1      40.951  24.657  26.534  1.00  0.00     0.251 C 
ATOM      5  H   UNL A   1      40.066  23.167  25.549  1.00  0.00     0.163 HD
BRANCH   4   6
ATOM      6  C   UNL A   1      40.840  25.701  27.577  1.00  0.00     0.039 A 
ATOM      7  C   UNL A   1      41.705  26.797  27.608  1.00  0.00     0.014 A 
ATOM      8  C   UNL A   1      39.804  25.606  28.512  1.00  0.00     0.014 A 
ATOM      9  C   UNL A   1      41.623  27.721  28.647  1.00  0.00     0.010 A 
ATOM     10  C   UNL A   1      39.675  26.575  29.510  1.00  0.00     0.010 A 
ATOM     11  C   UNL A   1      40.603  27.624  29.605  1.00  0.00    -0.014 A 
BRANCH  11  12
ATOM     12  C   UNL A   1      40.489  28.641  30.679  1.00  0.00     0.031 A 
ATOM     13  C   UNL A   1      41.374  28.578  31.892  1.00  0.00     0.074 A 
ATOM     14  C   UNL A   1      39.571  29.620  30.563  1.00  0.00     0.049 A 
ATOM     15  N   UNL A   1      41.378  29.344  32.952  1.00  0.00    -0.248 NA
ATOM     16  C   UNL A   1      42.384  27.508  31.922  1.00  0.00     0.031 C 
ATOM     17  C   UNL A   1      38.650  29.781  29.436  1.00  0.00     0.029 A 
ATOM     18  N   UNL A   1      39.261  30.662  31.398  1.00  0.00    -0.354 N 
ATOM     19  C   UNL A   1      42.365  28.837  33.787  1.00  0.00     0.074 A 
ATOM     20  C   UNL A   1      42.931  27.684  33.116  1.00  0.00     0.031 C 
ATOM     21  C   UNL A   1      37.890  30.867  29.642  1.00  0.00     0.029 A 
ATOM     22  C   UNL A   1      38.235  31.449  30.936  1.00  0.00     0.049 A 
ATOM     23  H   UNL A   1      39.728  30.830  32.248  1.00  0.00     0.167 HD
ATOM     24  C   UNL A   1      42.764  29.293  34.999  1.00  0.00     0.037 A 
ATOM     25  C   UNL A   1      37.620  32.508  31.496  1.00  0.00     0.037 A 
ATOM     26  C   UNL A   1      42.209  30.449  35.652  1.00  0.00     0.049 A 
ATOM     27  C   UNL A   1      38.076  32.993  32.841  1.00  0.00     0.074 A 
ATOM     28  C   UNL A   1      42.567  31.008  36.868  1.00  0.00     0.029 A 
ATOM     29  N   UNL A   1      41.176  31.225  35.146  1.00  0.00    -0.354 N 
ATOM     30  N   UNL A   1      39.025  32.514  33.607  1.00  0.00    -0.248 NA
ATOM     31  C   UNL A   1      37.380  34.161  33.398  1.00  0.00     0.031 C 
ATOM     32  C   UNL A   1      41.730  32.103  37.109  1.00  0.00     0.029 A 
ATOM     33  C   UNL A   1      40.875  32.249  36.028  1.00  0.00     0.049 A 
ATOM     34  H   UNL A   1      40.723  31.069  34.286  1.00  0.00     0.167 HD
ATOM     35  C   UNL A   1      39.053  33.329  34.731  1.00  0.00     0.074 A 
ATOM     36  C   UNL A   1      38.029  34.337  34.542  1.00  0.00     0.031 C 
ATOM     37  C   UNL A   1      39.857  33.249  35.820  1.00  0.00     0.037 A 
BRANCH  24  38
ATOM     38  C   UNL A   1      43.842  28.518  35.705  1.00  0.00     0.058 A 
ATOM     39  C   UNL A   1      43.541  27.477  36.597  1.00  0.00     0.135 A 
ATOM     40  C   UNL A   1      45.196  28.820  35.483  1.00  0.00     0.135 A 
ATOM     41  F   UNL A   1      42.263  27.158  36.856  1.00  0.00    -0.206 F 
ATOM     42  C   UNL A   1      44.541  26.788  37.274  1.00  0.00     0.059 A 
ATOM     43  C   UNL A   1      46.214  28.130  36.134  1.00  0.00     0.059 A 
ATOM     44  F   UNL A   1      45.539  29.805  34.638  1.00  0.00    -0.206 F 
ATOM     45  C   UNL A   1      45.875  27.128  37.044  1.00  0.00     0.060 A 
BRANCH  45  46
ATOM     46  S   UNL A   1      47.165  26.253  37.956  1.00  0.00     0.124 S 
ATOM     47  O   UNL A   1      46.463  25.906  39.187  1.00  0.00    -0.237 OA
ATOM     48  O   UNL A   1      47.476  25.135  37.070  1.00  0.00    -0.237 OA
ATOM     49  O   UNL A   1      48.221  27.251  38.092  1.00  0.00    -0.744 OA
ENDBRANCH  45  46
ENDBRANCH  24  38
BRANCH  25  50
ATOM     50  C   UNL A   1      36.508  33.167  30.767  1.00  0.00     0.058 A 
ATOM     51  C   UNL A   1      35.180  33.009  31.184  1.00  0.00     0.135 A 
ATOM     52  C   UNL A   1      36.761  34.031  29.690  1.00  0.00     0.135 A 
ATOM     53  F   UNL A   1      34.891  32.189  32.206  1.00  0.00    -0.206 F 
ATOM     54  C   UNL A   1      34.138  33.691  30.565  1.00  0.00     0.059 A 
ATOM     55  C   UNL A   1      35.739  34.740  29.068  1.00  0.00     0.059 A 
ATOM     56  F   UNL A   1      38.019  34.227  29.267  1.00  0.00    -0.206 F 
ATOM     57  C   UNL A   1      34.430  34.563  29.513  1.00  0.00     0.060 A 
BRANCH  57  58
ATOM     58  S   UNL A   1      33.085  35.521  28.780  1.00  0.00     0.124 S 
ATOM     59  O   UNL A   1      33.820  36.522  28.016  1.00  0.00    -0.237 OA
ATOM     60  O   UNL A   1      32.378  34.512  27.997  1.00  0.00    -0.237 OA
ATOM     61  O   UNL A   1      32.359  36.020  29.944  1.00  0.00    -0.744 OA
ENDBRANCH  57  58
ENDBRANCH  25  50
BRANCH  37  62
ATOM     62  C   UNL A   1      39.684  34.296  36.883  1.00  0.00     0.058 A 
ATOM     63  C   UNL A   1      38.931  34.050  38.040  1.00  0.00     0.135 A 
ATOM     64  C   UNL A   1      40.337  35.533  36.770  1.00  0.00     0.135 A 
ATOM     65  F   UNL A   1      38.282  32.883  38.188  1.00  0.00    -0.206 F 
ATOM     66  C   UNL A   1      38.824  34.999  39.049  1.00  0.00     0.059 A 
ATOM     67  C   UNL A   1      40.258  36.492  37.776  1.00  0.00     0.059 A 
ATOM     68  F   UNL A   1      41.074  35.812  35.684  1.00  0.00    -0.206 F 
ATOM     69  C   UNL A   1      39.494  36.217  38.910  1.00  0.00     0.060 A 
BRANCH  69  70
ATOM     70  S   UNL A   1      39.396  37.424  40.250  1.00  0.00     0.124 S 
ATOM     71  O   UNL A   1      40.797  37.801  40.406  1.00  0.00    -0.237 OA
ATOM     72  O   UNL A   1      38.523  38.450  39.687  1.00  0.00    -0.237 OA
ATOM     73  O   UNL A   1      38.823  36.659  41.353  1.00  0.00    -0.744 OA
ENDBRANCH  69  70
ENDBRANCH  37  62
ENDBRANCH  11  12
ENDBRANCH   4   6
ENDBRANCH   1   2
BRANCH   1  74
ATOM     74  C   UNL A   1      37.554  23.154  25.631  1.00  0.00     0.042 C 
BRANCH  74  75
ATOM     75  C   UNL A   1      36.128  23.657  25.450  1.00  0.00     0.118 C 
BRANCH  75  76
ATOM     76  N   UNL A   1      35.688  23.629  24.060  1.00  0.00    -0.352 N 
ATOM     77  C   UNL A   1      34.455  23.384  23.515  1.00  0.00     0.252 C 
ATOM     78  H   UNL A   1      36.396  23.820  23.403  1.00  0.00     0.163 HD
ATOM     79  O   UNL A   1      34.309  23.364  22.298  1.00  0.00    -0.269 OA
BRANCH  77  80
ATOM     80  C   UNL A   1      33.286  23.194  24.393  1.00  0.00     0.059 A 
ATOM     81  C   UNL A   1      32.482  24.302  24.683  1.00  0.00     0.038 A 
ATOM     82  C   UNL A   1      32.936  21.947  24.896  1.00  0.00     0.055 A 
ATOM     83  C   UNL A   1      31.372  24.213  25.551  1.00  0.00     0.102 A 
ATOM     84  C   UNL A   1      31.800  21.837  25.703  1.00  0.00     0.043 A 
ATOM     85  Cl  UNL A   1      33.860  20.519  24.613  1.00  0.00    -0.083 Cl
ATOM     86  C   UNL A   1      31.017  22.959  26.042  1.00  0.00     0.062 A 
ATOM     87  Cl  UNL A   1      29.670  22.573  27.034  1.00  0.00    -0.083 Cl
BRANCH  83  88
ATOM     88  S   UNL A   1      30.690  25.819  25.910  1.00  0.00     0.244 S 
ATOM     89  O   UNL A   1      29.263  25.589  26.008  1.00  0.00    -0.207 OA
ATOM     90  O   UNL A   1      31.435  26.282  27.065  1.00  0.00    -0.207 OA
BRANCH  88  91
ATOM     91  N   UNL A   1      30.938  26.941  24.679  1.00  0.00    -0.198 NA
ATOM     92  C   UNL A   1      29.915  27.011  23.618  1.00  0.00     0.102 C 
ATOM     93  C   UNL A   1      31.835  28.083  24.965  1.00  0.00     0.102 C 
ATOM     94  C   UNL A   1      30.296  27.919  22.463  1.00  0.00     0.017 C 
ATOM     95  C   UNL A   1      32.104  28.974  23.761  1.00  0.00     0.017 C 
ATOM     96  C   UNL A   1      30.853  29.244  22.945  1.00  0.00     0.003 C 
ENDBRANCH  88  91
ENDBRANCH  83  88
ENDBRANCH  77  80
ENDBRANCH  75  76
ENDBRANCH  74  75
ENDBRANCH   1  74
TORSDOF 15
ENDMDL
