MODEL 1
REMARK VINA RESULT:     -13.4      0.000      0.000
REMARK SMILES O=C(COc1ccccc1/C=N/NC(=O)c1cc(-c2ccc(F)cc2)nc2ccccc12)NCCCNC(=O)c1ccc(-c2c3nc(c(-c4c(F)cc(S(=O)(=O)[O-])cc4F)c4ccc([nH]4)c(-c4c(F)cc(S(=O)(=O)[O-])cc4F)c4nc(c(-c5c(F)cc(S(=O)(=O)[O-])cc5F)c5ccc2[nH]5)C=C4)C=C3)cc1
REMARK SMILES IDX 1 1 2 2 33 3 3 5 4 6 5 7 6 8 10 9 7 10 9 11 8 12 11 13 12 14
REMARK SMILES IDX 13 15 14 16 15 18 16 19 17 20 32 21 18 22 27 23 31 24 26 25
REMARK SMILES IDX 28 26 30 27 29 28 19 29 20 30 25 31 21 32 24 33 22 34 23 35
REMARK SMILES IDX 34 36 35 37 36 38 37 39 38 40 39 42 40 43 41 44 105 45 42 46
REMARK SMILES IDX 104 47 43 48 44 49 45 50 98 51 46 52 103 53 97 54 99 55
REMARK SMILES IDX 47 56 102 57 96 58 95 59 48 61 82 62 61 63 81 64 62 65 65 66
REMARK SMILES IDX 80 67 100 68 63 69 64 70 79 72 101 73 66 74 49 75 50 76
REMARK SMILES IDX 59 77 51 78 52 79 58 80 60 81 53 82 54 83 55 84 56 85 57 86
REMARK SMILES IDX 83 87 84 88 93 89 85 90 86 91 92 92 94 93 87 94 88 95 89 96
REMARK SMILES IDX 90 97 91 98 67 99 68 100 77 101 69 102 70 103 76 104 78 105
REMARK SMILES IDX 71 106 72 107 73 108 74 109 75 110
REMARK H PARENT 33 4 13 17 37 41 99 60 65 71
REMARK Flexibility Score: inf
ROOT
ATOM      1  O   UNL A   1      37.421  22.894  24.663  1.00  0.00    -0.271 OA
ATOM      2  C   UNL A   1      37.642  21.879  25.285  1.00  0.00     0.257 C 
ATOM      3  N   UNL A   1      38.516  21.742  26.357  1.00  0.00    -0.353 N 
ATOM      4  H   UNL A   1      38.181  21.338  27.190  1.00  0.00     0.163 HD
ENDROOT
BRANCH   2   5
ATOM      5  C   UNL A   1      36.909  20.602  24.945  1.00  0.00     0.329 C 
BRANCH   5   6
ATOM      6  O   UNL A   1      35.543  20.980  24.840  1.00  0.00    -0.483 OA
BRANCH   6   7
ATOM      7  C   UNL A   1      34.661  19.945  24.944  1.00  0.00     0.128 A 
ATOM      8  C   UNL A   1      35.255  18.734  24.536  1.00  0.00     0.047 A 
ATOM      9  C   UNL A   1      33.267  20.061  25.068  1.00  0.00     0.037 A 
ATOM     10  C   UNL A   1      34.479  17.646  24.159  1.00  0.00     0.004 A 
ATOM     11  C   UNL A   1      32.503  18.953  24.637  1.00  0.00     0.013 A 
ATOM     12  C   UNL A   1      33.098  17.769  24.177  1.00  0.00     0.001 A 
BRANCH   9  13
ATOM     13  C   UNL A   1      32.396  21.227  25.452  1.00  0.00     0.145 C 
ATOM     14  N   UNL A   1      32.442  22.024  26.498  1.00  0.00    -0.180 NA
BRANCH  14  15
ATOM     15  N   UNL A   1      31.268  22.784  26.613  1.00  0.00    -0.243 N 
ATOM     16  C   UNL A   1      30.941  24.145  26.506  1.00  0.00     0.272 C 
ATOM     17  H   UNL A   1      30.482  22.229  26.818  1.00  0.00     0.194 HD
ATOM     18  O   UNL A   1      29.788  24.405  26.876  1.00  0.00    -0.267 OA
BRANCH  16  19
ATOM     19  C   UNL A   1      31.728  25.239  25.833  1.00  0.00     0.053 A 
ATOM     20  C   UNL A   1      32.048  26.439  26.456  1.00  0.00     0.043 A 
ATOM     21  C   UNL A   1      32.113  25.148  24.444  1.00  0.00     0.013 A 
ATOM     22  C   UNL A   1      33.101  27.176  25.924  1.00  0.00     0.072 A 
ATOM     23  C   UNL A   1      33.208  25.935  24.056  1.00  0.00     0.072 A 
ATOM     24  C   UNL A   1      31.444  24.494  23.376  1.00  0.00     0.011 A 
ATOM     25  N   UNL A   1      33.830  26.713  24.896  1.00  0.00    -0.248 NA
ATOM     26  C   UNL A   1      33.595  26.119  22.745  1.00  0.00     0.029 A 
ATOM     27  C   UNL A   1      31.775  24.758  22.032  1.00  0.00     0.001 A 
ATOM     28  C   UNL A   1      32.845  25.586  21.716  1.00  0.00     0.002 A 
BRANCH  22  29
ATOM     29  C   UNL A   1      33.427  28.609  26.022  1.00  0.00     0.000 A 
ATOM     30  C   UNL A   1      34.719  28.903  26.519  1.00  0.00     0.013 A 
ATOM     31  C   UNL A   1      32.388  29.526  26.291  1.00  0.00     0.013 A 
ATOM     32  C   UNL A   1      34.919  29.967  27.402  1.00  0.00     0.040 A 
ATOM     33  C   UNL A   1      32.599  30.604  27.158  1.00  0.00     0.040 A 
ATOM     34  C   UNL A   1      33.850  30.786  27.738  1.00  0.00     0.123 A 
ATOM     35  F   UNL A   1      34.013  31.725  28.679  1.00  0.00    -0.207 F 
ENDBRANCH  22  29
ENDBRANCH  16  19
ENDBRANCH  14  15
ENDBRANCH   9  13
ENDBRANCH   6   7
ENDBRANCH   5   6
ENDBRANCH   2   5
BRANCH   3  36
ATOM     36  C   UNL A   1      39.898  22.167  26.301  1.00  0.00     0.117 C 
BRANCH  36  37
ATOM     37  C   UNL A   1      40.642  22.228  27.600  1.00  0.00     0.042 C 
BRANCH  37  38
ATOM     38  C   UNL A   1      41.524  23.435  27.715  1.00  0.00     0.118 C 
BRANCH  38  39
ATOM     39  N   UNL A   1      41.804  24.061  26.430  1.00  0.00    -0.352 N 
ATOM     40  C   UNL A   1      41.666  25.385  26.081  1.00  0.00     0.251 C 
ATOM     41  H   UNL A   1      42.133  23.462  25.721  1.00  0.00     0.163 HD
ATOM     42  O   UNL A   1      41.796  25.728  24.911  1.00  0.00    -0.269 OA
BRANCH  40  43
ATOM     43  C   UNL A   1      41.320  26.372  27.129  1.00  0.00     0.039 A 
ATOM     44  C   UNL A   1      40.321  26.064  28.051  1.00  0.00     0.014 A 
ATOM     45  C   UNL A   1      42.030  27.570  27.240  1.00  0.00     0.014 A 
ATOM     46  C   UNL A   1      40.086  26.928  29.122  1.00  0.00     0.010 A 
ATOM     47  C   UNL A   1      41.897  28.350  28.379  1.00  0.00     0.010 A 
ATOM     48  C   UNL A   1      40.903  28.054  29.320  1.00  0.00    -0.014 A 
BRANCH  48  49
ATOM     49  C   UNL A   1      40.716  28.957  30.484  1.00  0.00     0.031 A 
ATOM     50  C   UNL A   1      41.580  28.788  31.707  1.00  0.00     0.074 A 
ATOM     51  C   UNL A   1      39.740  29.886  30.461  1.00  0.00     0.049 A 
ATOM     52  N   UNL A   1      41.547  29.444  32.837  1.00  0.00    -0.248 NA
ATOM     53  C   UNL A   1      42.596  27.720  31.668  1.00  0.00     0.031 C 
ATOM     54  C   UNL A   1      38.797  30.098  29.359  1.00  0.00     0.029 A 
ATOM     55  N   UNL A   1      39.375  30.824  31.392  1.00  0.00    -0.354 N 
ATOM     56  C   UNL A   1      42.520  28.861  33.641  1.00  0.00     0.074 A 
ATOM     57  C   UNL A   1      43.078  27.753  32.900  1.00  0.00     0.031 C 
ATOM     58  C   UNL A   1      37.990  31.126  29.662  1.00  0.00     0.029 A 
ATOM     59  C   UNL A   1      38.323  31.616  30.996  1.00  0.00     0.049 A 
ATOM     60  H   UNL A   1      39.823  30.921  32.263  1.00  0.00     0.167 HD
ATOM     61  C   UNL A   1      42.935  29.234  34.874  1.00  0.00     0.037 A 
ATOM     62  C   UNL A   1      37.693  32.619  31.639  1.00  0.00     0.037 A 
ATOM     63  C   UNL A   1      42.390  30.354  35.595  1.00  0.00     0.049 A 
ATOM     64  C   UNL A   1      38.169  33.015  33.011  1.00  0.00     0.074 A 
ATOM     65  C   UNL A   1      42.777  30.857  36.823  1.00  0.00     0.029 A 
ATOM     66  N   UNL A   1      41.336  31.142  35.153  1.00  0.00    -0.354 N 
ATOM     67  N   UNL A   1      39.144  32.502  33.725  1.00  0.00    -0.248 NA
ATOM     68  C   UNL A   1      37.469  34.128  33.662  1.00  0.00     0.031 C 
ATOM     69  C   UNL A   1      41.921  31.913  37.152  1.00  0.00     0.029 A 
ATOM     70  C   UNL A   1      41.043  32.111  36.098  1.00  0.00     0.049 A 
ATOM     71  H   UNL A   1      40.866  31.029  34.295  1.00  0.00     0.167 HD
ATOM     72  C   UNL A   1      39.191  33.249  34.898  1.00  0.00     0.074 A 
ATOM     73  C   UNL A   1      38.157  34.258  34.788  1.00  0.00     0.031 C 
ATOM     74  C   UNL A   1      40.013  33.113  35.968  1.00  0.00     0.037 A 
BRANCH  61  75
ATOM     75  C   UNL A   1      44.033  28.429  35.519  1.00  0.00     0.058 A 
ATOM     76  C   UNL A   1      45.390  28.711  35.289  1.00  0.00     0.135 A 
ATOM     77  C   UNL A   1      43.726  27.384  36.405  1.00  0.00     0.135 A 
ATOM     78  F   UNL A   1      45.745  29.687  34.437  1.00  0.00    -0.206 F 
ATOM     79  C   UNL A   1      46.401  27.968  35.890  1.00  0.00     0.059 A 
ATOM     80  C   UNL A   1      44.721  26.650  37.043  1.00  0.00     0.059 A 
ATOM     81  F   UNL A   1      42.446  27.068  36.660  1.00  0.00    -0.206 F 
ATOM     82  C   UNL A   1      46.056  26.940  36.768  1.00  0.00     0.060 A 
BRANCH  82  83
ATOM     83  S   UNL A   1      47.381  25.996  37.549  1.00  0.00     0.124 S 
ATOM     84  O   UNL A   1      47.009  24.628  37.203  1.00  0.00    -0.237 OA
ATOM     85  O   UNL A   1      48.569  26.518  36.881  1.00  0.00    -0.237 OA
ATOM     86  O   UNL A   1      47.259  26.341  38.963  1.00  0.00    -0.744 OA
ENDBRANCH  82  83
ENDBRANCH  61  75
BRANCH  62  87
ATOM     87  C   UNL A   1      36.562  33.330  30.983  1.00  0.00     0.058 A 
ATOM     88  C   UNL A   1      35.251  33.212  31.470  1.00  0.00     0.135 A 
ATOM     89  C   UNL A   1      36.768  34.151  29.863  1.00  0.00     0.135 A 
ATOM     90  F   UNL A   1      34.998  32.435  32.535  1.00  0.00    -0.206 F 
ATOM     91  C   UNL A   1      34.184  33.863  30.860  1.00  0.00     0.059 A 
ATOM     92  C   UNL A   1      35.722  34.838  29.254  1.00  0.00     0.059 A 
ATOM     93  F   UNL A   1      38.004  34.313  29.365  1.00  0.00    -0.206 F 
ATOM     94  C   UNL A   1      34.431  34.678  29.753  1.00  0.00     0.060 A 
BRANCH  94  95
ATOM     95  S   UNL A   1      33.044  35.551  28.994  1.00  0.00     0.124 S 
ATOM     96  O   UNL A   1      33.728  36.624  28.280  1.00  0.00    -0.237 OA
ATOM     97  O   UNL A   1      32.446  34.511  28.162  1.00  0.00    -0.237 OA
ATOM     98  O   UNL A   1      32.241  35.967  30.140  1.00  0.00    -0.744 OA
ENDBRANCH  94  95
ENDBRANCH  62  87
BRANCH  74  99
ATOM     99  C   UNL A   1      39.860  34.103  37.091  1.00  0.00     0.058 A 
ATOM    100  C   UNL A   1      40.403  35.395  37.021  1.00  0.00     0.135 A 
ATOM    101  C   UNL A   1      39.112  33.768  38.232  1.00  0.00     0.135 A 
ATOM    102  F   UNL A   1      41.131  35.766  35.956  1.00  0.00    -0.206 F 
ATOM    103  C   UNL A   1      40.232  36.311  38.053  1.00  0.00     0.059 A 
ATOM    104  C   UNL A   1      38.900  34.679  39.261  1.00  0.00     0.059 A 
ATOM    105  F   UNL A   1      38.561  32.548  38.346  1.00  0.00    -0.206 F 
ATOM    106  C   UNL A   1      39.475  35.945  39.167  1.00  0.00     0.060 A 
BRANCH 106 107
ATOM    107  S   UNL A   1      39.234  37.156  40.483  1.00  0.00     0.124 S 
ATOM    108  O   UNL A   1      38.519  38.217  39.781  1.00  0.00    -0.237 OA
ATOM    109  O   UNL A   1      38.453  36.403  41.460  1.00  0.00    -0.237 OA
ATOM    110  O   UNL A   1      40.595  37.485  40.898  1.00  0.00    -0.744 OA
ENDBRANCH 106 107
ENDBRANCH  74  99
ENDBRANCH  48  49
ENDBRANCH  40  43
ENDBRANCH  38  39
ENDBRANCH  37  38
ENDBRANCH  36  37
ENDBRANCH   3  36
TORSDOF 19
ENDMDL
MODEL 2
REMARK VINA RESULT:     -12.1      4.332     10.716
REMARK SMILES O=C(COc1ccccc1/C=N/NC(=O)c1cc(-c2ccc(F)cc2)nc2ccccc12)NCCCNC(=O)c1ccc(-c2c3nc(c(-c4c(F)cc(S(=O)(=O)[O-])cc4F)c4ccc([nH]4)c(-c4c(F)cc(S(=O)(=O)[O-])cc4F)c4nc(c(-c5c(F)cc(S(=O)(=O)[O-])cc5F)c5ccc2[nH]5)C=C4)C=C3)cc1
REMARK SMILES IDX 1 1 2 2 33 3 3 5 4 6 5 7 6 8 10 9 7 10 9 11 8 12 11 13 12 14
REMARK SMILES IDX 13 15 14 16 15 18 16 19 17 20 32 21 18 22 27 23 31 24 26 25
REMARK SMILES IDX 28 26 30 27 29 28 19 29 20 30 25 31 21 32 24 33 22 34 23 35
REMARK SMILES IDX 34 36 35 37 36 38 37 39 38 40 39 42 40 43 41 44 105 45 42 46
REMARK SMILES IDX 104 47 43 48 44 49 45 50 98 51 46 52 103 53 97 54 99 55
REMARK SMILES IDX 47 56 102 57 96 58 95 59 48 61 82 62 61 63 81 64 62 65 65 66
REMARK SMILES IDX 80 67 100 68 63 69 64 70 79 72 101 73 66 74 49 75 50 76
REMARK SMILES IDX 59 77 51 78 52 79 58 80 60 81 53 82 54 83 55 84 56 85 57 86
REMARK SMILES IDX 83 87 84 88 93 89 85 90 86 91 92 92 94 93 87 94 88 95 89 96
REMARK SMILES IDX 90 97 91 98 67 99 68 100 77 101 69 102 70 103 76 104 78 105
REMARK SMILES IDX 71 106 72 107 73 108 74 109 75 110
REMARK H PARENT 33 4 13 17 37 41 99 60 65 71
REMARK Flexibility Score: inf
ROOT
ATOM      1  O   UNL A   1      40.444  19.831  27.329  1.00  0.00    -0.271 OA
ATOM      2  C   UNL A   1      41.624  20.040  27.155  1.00  0.00     0.257 C 
ATOM      3  N   UNL A   1      42.510  20.583  28.077  1.00  0.00    -0.353 N 
ATOM      4  H   UNL A   1      43.348  20.101  28.267  1.00  0.00     0.163 HD
ENDROOT
BRANCH   2   5
ATOM      5  C   UNL A   1      42.278  19.668  25.845  1.00  0.00     0.329 C 
BRANCH   5   6
ATOM      6  O   UNL A   1      42.816  20.884  25.345  1.00  0.00    -0.483 OA
BRANCH   6   7
ATOM      7  C   UNL A   1      44.068  20.772  24.814  1.00  0.00     0.128 A 
ATOM      8  C   UNL A   1      44.445  19.420  24.692  1.00  0.00     0.047 A 
ATOM      9  C   UNL A   1      45.022  21.800  24.733  1.00  0.00     0.037 A 
ATOM     10  C   UNL A   1      45.779  19.056  24.578  1.00  0.00     0.004 A 
ATOM     11  C   UNL A   1      46.374  21.396  24.660  1.00  0.00     0.013 A 
ATOM     12  C   UNL A   1      46.749  20.047  24.598  1.00  0.00     0.001 A 
BRANCH   9  13
ATOM     13  C   UNL A   1      44.889  23.294  24.855  1.00  0.00     0.145 C 
ATOM     14  N   UNL A   1      43.821  24.051  24.989  1.00  0.00    -0.180 NA
BRANCH  14  15
ATOM     15  N   UNL A   1      44.123  25.404  24.766  1.00  0.00    -0.243 N 
ATOM     16  C   UNL A   1      44.699  26.439  25.519  1.00  0.00     0.272 C 
ATOM     17  H   UNL A   1      43.868  25.699  23.862  1.00  0.00     0.194 HD
ATOM     18  O   UNL A   1      44.601  27.551  24.982  1.00  0.00    -0.267 OA
BRANCH  16  19
ATOM     19  C   UNL A   1      45.562  26.323  26.748  1.00  0.00     0.053 A 
ATOM     20  C   UNL A   1      45.139  26.715  28.012  1.00  0.00     0.043 A 
ATOM     21  C   UNL A   1      46.937  25.889  26.669  1.00  0.00     0.013 A 
ATOM     22  C   UNL A   1      45.820  26.192  29.107  1.00  0.00     0.072 A 
ATOM     23  C   UNL A   1      47.485  25.362  27.848  1.00  0.00     0.072 A 
ATOM     24  C   UNL A   1      47.865  26.063  25.609  1.00  0.00     0.011 A 
ATOM     25  N   UNL A   1      46.799  25.285  28.952  1.00  0.00    -0.248 NA
ATOM     26  C   UNL A   1      48.824  25.076  28.011  1.00  0.00     0.029 A 
ATOM     27  C   UNL A   1      49.246  25.865  25.804  1.00  0.00     0.001 A 
ATOM     28  C   UNL A   1      49.728  25.384  27.015  1.00  0.00     0.002 A 
BRANCH  22  29
ATOM     29  C   UNL A   1      45.952  26.679  30.490  1.00  0.00     0.000 A 
ATOM     30  C   UNL A   1      46.241  28.058  30.622  1.00  0.00     0.013 A 
ATOM     31  C   UNL A   1      46.451  25.800  31.475  1.00  0.00     0.013 A 
ATOM     32  C   UNL A   1      47.142  28.511  31.588  1.00  0.00     0.040 A 
ATOM     33  C   UNL A   1      47.336  26.262  32.456  1.00  0.00     0.040 A 
ATOM     34  C   UNL A   1      47.705  27.603  32.474  1.00  0.00     0.123 A 
ATOM     35  F   UNL A   1      48.663  28.015  33.315  1.00  0.00    -0.207 F 
ENDBRANCH  22  29
ENDBRANCH  16  19
ENDBRANCH  14  15
ENDBRANCH   9  13
ENDBRANCH   6   7
ENDBRANCH   5   6
ENDBRANCH   2   5
BRANCH   3  36
ATOM     36  C   UNL A   1      42.256  21.828  28.769  1.00  0.00     0.117 C 
BRANCH  36  37
ATOM     37  C   UNL A   1      42.238  23.075  27.939  1.00  0.00     0.042 C 
BRANCH  37  38
ATOM     38  C   UNL A   1      40.896  23.356  27.331  1.00  0.00     0.118 C 
BRANCH  38  39
ATOM     39  N   UNL A   1      40.970  24.225  26.165  1.00  0.00    -0.352 N 
ATOM     40  C   UNL A   1      40.958  25.600  26.128  1.00  0.00     0.251 C 
ATOM     41  H   UNL A   1      41.037  23.773  25.294  1.00  0.00     0.163 HD
ATOM     42  O   UNL A   1      40.872  26.185  25.053  1.00  0.00    -0.269 OA
BRANCH  40  43
ATOM     43  C   UNL A   1      41.009  26.355  27.401  1.00  0.00     0.039 A 
ATOM     44  C   UNL A   1      41.902  27.418  27.526  1.00  0.00     0.014 A 
ATOM     45  C   UNL A   1      40.125  26.055  28.441  1.00  0.00     0.014 A 
ATOM     46  C   UNL A   1      41.857  28.219  28.669  1.00  0.00     0.010 A 
ATOM     47  C   UNL A   1      39.985  26.935  29.504  1.00  0.00     0.010 A 
ATOM     48  C   UNL A   1      40.868  28.012  29.646  1.00  0.00    -0.014 A 
BRANCH  48  49
ATOM     49  C   UNL A   1      40.759  28.886  30.840  1.00  0.00     0.031 A 
ATOM     50  C   UNL A   1      39.710  29.967  30.882  1.00  0.00     0.074 A 
ATOM     51  C   UNL A   1      41.632  28.743  31.857  1.00  0.00     0.049 A 
ATOM     52  N   UNL A   1      39.479  30.858  31.811  1.00  0.00    -0.248 NA
ATOM     53  C   UNL A   1      38.822  30.085  29.711  1.00  0.00     0.031 C 
ATOM     54  C   UNL A   1      42.732  27.776  31.900  1.00  0.00     0.029 A 
ATOM     55  N   UNL A   1      41.735  29.413  33.050  1.00  0.00    -0.354 N 
ATOM     56  C   UNL A   1      38.437  31.643  31.331  1.00  0.00     0.074 A 
ATOM     57  C   UNL A   1      38.127  31.174  30.000  1.00  0.00     0.031 C 
ATOM     58  C   UNL A   1      43.372  27.889  33.074  1.00  0.00     0.029 A 
ATOM     59  C   UNL A   1      42.762  28.965  33.848  1.00  0.00     0.049 A 
ATOM     60  H   UNL A   1      41.132  30.145  33.310  1.00  0.00     0.167 HD
ATOM     61  C   UNL A   1      37.775  32.646  31.955  1.00  0.00     0.037 A 
ATOM     62  C   UNL A   1      43.169  29.382  35.063  1.00  0.00     0.037 A 
ATOM     63  C   UNL A   1      38.076  33.090  33.291  1.00  0.00     0.049 A 
ATOM     64  C   UNL A   1      42.421  30.501  35.736  1.00  0.00     0.074 A 
ATOM     65  C   UNL A   1      37.429  34.055  34.040  1.00  0.00     0.029 A 
ATOM     66  N   UNL A   1      39.113  32.601  34.073  1.00  0.00    -0.354 N 
ATOM     67  N   UNL A   1      41.387  31.181  35.300  1.00  0.00    -0.248 NA
ATOM     68  C   UNL A   1      42.886  30.904  37.069  1.00  0.00     0.031 C 
ATOM     69  C   UNL A   1      38.110  34.192  35.254  1.00  0.00     0.029 A 
ATOM     70  C   UNL A   1      39.140  33.265  35.288  1.00  0.00     0.049 A 
ATOM     71  H   UNL A   1      39.736  31.888  33.804  1.00  0.00     0.167 HD
ATOM     72  C   UNL A   1      41.061  32.074  36.316  1.00  0.00     0.074 A 
ATOM     73  C   UNL A   1      41.998  31.834  37.394  1.00  0.00     0.031 C 
ATOM     74  C   UNL A   1      40.078  33.007  36.354  1.00  0.00     0.037 A 
BRANCH  61  75
ATOM     75  C   UNL A   1      36.660  33.325  31.204  1.00  0.00     0.058 A 
ATOM     76  C   UNL A   1      36.914  34.202  30.136  1.00  0.00     0.135 A 
ATOM     77  C   UNL A   1      35.319  33.070  31.534  1.00  0.00     0.135 A 
ATOM     78  F   UNL A   1      38.177  34.499  29.788  1.00  0.00    -0.206 F 
ATOM     79  C   UNL A   1      35.881  34.824  29.443  1.00  0.00     0.059 A 
ATOM     80  C   UNL A   1      34.270  33.655  30.831  1.00  0.00     0.059 A 
ATOM     81  F   UNL A   1      35.017  32.243  32.547  1.00  0.00    -0.206 F 
ATOM     82  C   UNL A   1      34.561  34.542  29.796  1.00  0.00     0.060 A 
BRANCH  82  83
ATOM     83  S   UNL A   1      33.234  35.347  28.875  1.00  0.00     0.124 S 
ATOM     84  O   UNL A   1      32.696  34.232  28.102  1.00  0.00    -0.237 OA
ATOM     85  O   UNL A   1      32.376  35.850  29.943  1.00  0.00    -0.237 OA
ATOM     86  O   UNL A   1      33.929  36.370  28.099  1.00  0.00    -0.744 OA
ENDBRANCH  82  83
ENDBRANCH  61  75
BRANCH  62  87
ATOM     87  C   UNL A   1      44.328  28.723  35.726  1.00  0.00     0.058 A 
ATOM     88  C   UNL A   1      45.646  29.099  35.426  1.00  0.00     0.135 A 
ATOM     89  C   UNL A   1      44.142  27.711  36.681  1.00  0.00     0.135 A 
ATOM     90  F   UNL A   1      45.879  30.058  34.516  1.00  0.00    -0.206 F 
ATOM     91  C   UNL A   1      46.737  28.485  36.031  1.00  0.00     0.059 A 
ATOM     92  C   UNL A   1      45.216  27.103  37.323  1.00  0.00     0.059 A 
ATOM     93  F   UNL A   1      42.902  27.323  37.019  1.00  0.00    -0.206 F 
ATOM     94  C   UNL A   1      46.511  27.488  36.983  1.00  0.00     0.060 A 
BRANCH  94  95
ATOM     95  S   UNL A   1      47.933  26.725  37.792  1.00  0.00     0.124 S 
ATOM     96  O   UNL A   1      47.303  26.052  38.922  1.00  0.00    -0.237 OA
ATOM     97  O   UNL A   1      48.455  25.857  36.741  1.00  0.00    -0.237 OA
ATOM     98  O   UNL A   1      48.780  27.866  38.130  1.00  0.00    -0.744 OA
ENDBRANCH  94  95
ENDBRANCH  62  87
BRANCH  74  99
ATOM     99  C   UNL A   1      39.933  33.813  37.616  1.00  0.00     0.058 A 
ATOM    100  C   UNL A   1      39.056  33.433  38.644  1.00  0.00     0.135 A 
ATOM    101  C   UNL A   1      40.728  34.954  37.822  1.00  0.00     0.135 A 
ATOM    102  F   UNL A   1      38.270  32.355  38.497  1.00  0.00    -0.206 F 
ATOM    103  C   UNL A   1      38.951  34.170  39.818  1.00  0.00     0.059 A 
ATOM    104  C   UNL A   1      40.664  35.686  39.003  1.00  0.00     0.059 A 
ATOM    105  F   UNL A   1      41.592  35.356  36.876  1.00  0.00    -0.206 F 
ATOM    106  C   UNL A   1      39.763  35.293  39.990  1.00  0.00     0.060 A 
BRANCH 106 107
ATOM    107  S   UNL A   1      39.639  36.220  41.533  1.00  0.00     0.124 S 
ATOM    108  O   UNL A   1      38.870  37.388  41.116  1.00  0.00    -0.237 OA
ATOM    109  O   UNL A   1      38.942  35.280  42.406  1.00  0.00    -0.237 OA
ATOM    110  O   UNL A   1      41.032  36.480  41.888  1.00  0.00    -0.744 OA
ENDBRANCH 106 107
ENDBRANCH  74  99
ENDBRANCH  48  49
ENDBRANCH  40  43
ENDBRANCH  38  39
ENDBRANCH  37  38
ENDBRANCH  36  37
ENDBRANCH   3  36
TORSDOF 19
ENDMDL
MODEL 3
REMARK VINA RESULT:     -11.9      4.237     11.006
REMARK SMILES O=C(COc1ccccc1/C=N/NC(=O)c1cc(-c2ccc(F)cc2)nc2ccccc12)NCCCNC(=O)c1ccc(-c2c3nc(c(-c4c(F)cc(S(=O)(=O)[O-])cc4F)c4ccc([nH]4)c(-c4c(F)cc(S(=O)(=O)[O-])cc4F)c4nc(c(-c5c(F)cc(S(=O)(=O)[O-])cc5F)c5ccc2[nH]5)C=C4)C=C3)cc1
REMARK SMILES IDX 1 1 2 2 33 3 3 5 4 6 5 7 6 8 10 9 7 10 9 11 8 12 11 13 12 14
REMARK SMILES IDX 13 15 14 16 15 18 16 19 17 20 32 21 18 22 27 23 31 24 26 25
REMARK SMILES IDX 28 26 30 27 29 28 19 29 20 30 25 31 21 32 24 33 22 34 23 35
REMARK SMILES IDX 34 36 35 37 36 38 37 39 38 40 39 42 40 43 41 44 105 45 42 46
REMARK SMILES IDX 104 47 43 48 44 49 45 50 98 51 46 52 103 53 97 54 99 55
REMARK SMILES IDX 47 56 102 57 96 58 95 59 48 61 82 62 61 63 81 64 62 65 65 66
REMARK SMILES IDX 80 67 100 68 63 69 64 70 79 72 101 73 66 74 49 75 50 76
REMARK SMILES IDX 59 77 51 78 52 79 58 80 60 81 53 82 54 83 55 84 56 85 57 86
REMARK SMILES IDX 83 87 84 88 93 89 85 90 86 91 92 92 94 93 87 94 88 95 89 96
REMARK SMILES IDX 90 97 91 98 67 99 68 100 77 101 69 102 70 103 76 104 78 105
REMARK SMILES IDX 71 106 72 107 73 108 74 109 75 110
REMARK H PARENT 33 4 13 17 37 41 99 60 65 71
REMARK Flexibility Score: inf
ROOT
ATOM      1  O   UNL A   1      39.805  20.140  26.147  1.00  0.00    -0.271 OA
ATOM      2  C   UNL A   1      40.906  20.035  26.640  1.00  0.00     0.257 C 
ATOM      3  N   UNL A   1      41.284  20.452  27.911  1.00  0.00    -0.353 N 
ATOM      4  H   UNL A   1      41.731  19.807  28.506  1.00  0.00     0.163 HD
ENDROOT
BRANCH   2   5
ATOM      5  C   UNL A   1      42.023  19.363  25.876  1.00  0.00     0.329 C 
BRANCH   5   6
ATOM      6  O   UNL A   1      42.775  20.428  25.312  1.00  0.00    -0.483 OA
BRANCH   6   7
ATOM      7  C   UNL A   1      44.078  20.122  25.048  1.00  0.00     0.128 A 
ATOM      8  C   UNL A   1      44.291  18.730  25.110  1.00  0.00     0.047 A 
ATOM      9  C   UNL A   1      45.156  21.021  25.076  1.00  0.00     0.037 A 
ATOM     10  C   UNL A   1      45.565  18.208  25.289  1.00  0.00     0.004 A 
ATOM     11  C   UNL A   1      46.434  20.463  25.303  1.00  0.00     0.013 A 
ATOM     12  C   UNL A   1      46.635  19.080  25.422  1.00  0.00     0.001 A 
BRANCH   9  13
ATOM     13  C   UNL A   1      45.198  22.525  25.052  1.00  0.00     0.145 C 
ATOM     14  N   UNL A   1      44.232  23.412  25.165  1.00  0.00    -0.180 NA
BRANCH  14  15
ATOM     15  N   UNL A   1      44.668  24.693  24.790  1.00  0.00    -0.243 N 
ATOM     16  C   UNL A   1      45.389  25.727  25.407  1.00  0.00     0.272 C 
ATOM     17  H   UNL A   1      44.404  24.922  23.869  1.00  0.00     0.194 HD
ATOM     18  O   UNL A   1      45.386  26.783  24.760  1.00  0.00    -0.267 OA
BRANCH  16  19
ATOM     19  C   UNL A   1      46.291  25.640  26.609  1.00  0.00     0.053 A 
ATOM     20  C   UNL A   1      47.670  25.492  26.516  1.00  0.00     0.043 A 
ATOM     21  C   UNL A   1      45.760  25.599  27.951  1.00  0.00     0.013 A 
ATOM     22  C   UNL A   1      48.429  25.840  27.629  1.00  0.00     0.072 A 
ATOM     23  C   UNL A   1      46.636  25.999  28.972  1.00  0.00     0.072 A 
ATOM     24  C   UNL A   1      44.526  25.064  28.405  1.00  0.00     0.011 A 
ATOM     25  N   UNL A   1      47.860  26.369  28.725  1.00  0.00    -0.248 NA
ATOM     26  C   UNL A   1      46.369  25.847  30.317  1.00  0.00     0.029 A 
ATOM     27  C   UNL A   1      44.292  24.817  29.772  1.00  0.00     0.001 A 
ATOM     28  C   UNL A   1      45.223  25.196  30.730  1.00  0.00     0.002 A 
BRANCH  22  29
ATOM     29  C   UNL A   1      49.781  25.431  28.046  1.00  0.00     0.000 A 
ATOM     30  C   UNL A   1      50.062  25.587  29.424  1.00  0.00     0.013 A 
ATOM     31  C   UNL A   1      50.846  25.572  27.132  1.00  0.00     0.013 A 
ATOM     32  C   UNL A   1      51.309  26.048  29.851  1.00  0.00     0.040 A 
ATOM     33  C   UNL A   1      52.101  26.013  27.566  1.00  0.00     0.040 A 
ATOM     34  C   UNL A   1      52.305  26.288  28.915  1.00  0.00     0.123 A 
ATOM     35  F   UNL A   1      53.456  26.848  29.309  1.00  0.00    -0.207 F 
ENDBRANCH  22  29
ENDBRANCH  16  19
ENDBRANCH  14  15
ENDBRANCH   9  13
ENDBRANCH   6   7
ENDBRANCH   5   6
ENDBRANCH   2   5
BRANCH   3  36
ATOM     36  C   UNL A   1      41.049  21.794  28.397  1.00  0.00     0.117 C 
BRANCH  36  37
ATOM     37  C   UNL A   1      41.654  22.917  27.611  1.00  0.00     0.042 C 
BRANCH  37  38
ATOM     38  C   UNL A   1      40.635  23.730  26.869  1.00  0.00     0.118 C 
BRANCH  38  39
ATOM     39  N   UNL A   1      41.217  24.545  25.812  1.00  0.00    -0.352 N 
ATOM     40  C   UNL A   1      41.598  25.865  25.868  1.00  0.00     0.251 C 
ATOM     41  H   UNL A   1      41.355  24.095  24.947  1.00  0.00     0.163 HD
ATOM     42  O   UNL A   1      41.930  26.453  24.844  1.00  0.00    -0.269 OA
BRANCH  40  43
ATOM     43  C   UNL A   1      41.561  26.570  27.170  1.00  0.00     0.039 A 
ATOM     44  C   UNL A   1      42.435  27.633  27.394  1.00  0.00     0.014 A 
ATOM     45  C   UNL A   1      40.617  26.222  28.140  1.00  0.00     0.014 A 
ATOM     46  C   UNL A   1      42.310  28.388  28.561  1.00  0.00     0.010 A 
ATOM     47  C   UNL A   1      40.401  27.059  29.225  1.00  0.00     0.010 A 
ATOM     48  C   UNL A   1      41.263  28.136  29.464  1.00  0.00    -0.014 A 
BRANCH  48  49
ATOM     49  C   UNL A   1      41.070  28.962  30.683  1.00  0.00     0.031 A 
ATOM     50  C   UNL A   1      39.962  29.982  30.726  1.00  0.00     0.074 A 
ATOM     51  C   UNL A   1      41.919  28.831  31.722  1.00  0.00     0.049 A 
ATOM     52  N   UNL A   1      39.655  30.827  31.676  1.00  0.00    -0.248 NA
ATOM     53  C   UNL A   1      39.105  30.092  29.532  1.00  0.00     0.031 C 
ATOM     54  C   UNL A   1      43.068  27.924  31.768  1.00  0.00     0.029 A 
ATOM     55  N   UNL A   1      41.949  29.464  32.938  1.00  0.00    -0.354 N 
ATOM     56  C   UNL A   1      38.586  31.571  31.189  1.00  0.00     0.074 A 
ATOM     57  C   UNL A   1      38.343  31.131  29.834  1.00  0.00     0.031 C 
ATOM     58  C   UNL A   1      43.666  28.031  32.965  1.00  0.00     0.029 A 
ATOM     59  C   UNL A   1      42.974  29.046  33.753  1.00  0.00     0.049 A 
ATOM     60  H   UNL A   1      41.298  30.154  33.202  1.00  0.00     0.167 HD
ATOM     61  C   UNL A   1      37.852  32.515  31.823  1.00  0.00     0.037 A 
ATOM     62  C   UNL A   1      43.322  29.442  34.994  1.00  0.00     0.037 A 
ATOM     63  C   UNL A   1      38.087  32.928  33.182  1.00  0.00     0.049 A 
ATOM     64  C   UNL A   1      42.493  30.495  35.679  1.00  0.00     0.074 A 
ATOM     65  C   UNL A   1      37.367  33.831  33.941  1.00  0.00     0.029 A 
ATOM     66  N   UNL A   1      39.126  32.470  33.980  1.00  0.00    -0.354 N 
ATOM     67  N   UNL A   1      41.437  31.133  35.232  1.00  0.00    -0.248 NA
ATOM     68  C   UNL A   1      42.895  30.877  37.038  1.00  0.00     0.031 C 
ATOM     69  C   UNL A   1      38.002  33.962  35.180  1.00  0.00     0.029 A 
ATOM     70  C   UNL A   1      39.080  33.092  35.217  1.00  0.00     0.049 A 
ATOM     71  H   UNL A   1      39.796  31.801  33.708  1.00  0.00     0.167 HD
ATOM     72  C   UNL A   1      41.032  31.972  36.266  1.00  0.00     0.074 A 
ATOM     73  C   UNL A   1      41.948  31.746  37.365  1.00  0.00     0.031 C 
ATOM     74  C   UNL A   1      39.998  32.848  36.303  1.00  0.00     0.037 A 
BRANCH  61  75
ATOM     75  C   UNL A   1      36.725  33.158  31.060  1.00  0.00     0.058 A 
ATOM     76  C   UNL A   1      35.384  32.797  31.275  1.00  0.00     0.135 A 
ATOM     77  C   UNL A   1      36.984  34.173  30.125  1.00  0.00     0.135 A 
ATOM     78  F   UNL A   1      35.076  31.820  32.143  1.00  0.00    -0.206 F 
ATOM     79  C   UNL A   1      34.346  33.398  30.570  1.00  0.00     0.059 A 
ATOM     80  C   UNL A   1      35.959  34.811  29.433  1.00  0.00     0.059 A 
ATOM     81  F   UNL A   1      38.246  34.557  29.876  1.00  0.00    -0.206 F 
ATOM     82  C   UNL A   1      34.643  34.406  29.653  1.00  0.00     0.060 A 
BRANCH  82  83
ATOM     83  S   UNL A   1      33.281  35.182  28.759  1.00  0.00     0.124 S 
ATOM     84  O   UNL A   1      33.988  36.174  27.954  1.00  0.00    -0.237 OA
ATOM     85  O   UNL A   1      32.712  34.058  28.022  1.00  0.00    -0.237 OA
ATOM     86  O   UNL A   1      32.439  35.723  29.821  1.00  0.00    -0.744 OA
ENDBRANCH  82  83
ENDBRANCH  61  75
BRANCH  62  87
ATOM     87  C   UNL A   1      44.494  28.824  35.672  1.00  0.00     0.058 A 
ATOM     88  C   UNL A   1      44.341  27.706  36.508  1.00  0.00     0.135 A 
ATOM     89  C   UNL A   1      45.791  29.329  35.492  1.00  0.00     0.135 A 
ATOM     90  F   UNL A   1      43.121  27.188  36.718  1.00  0.00    -0.206 F 
ATOM     91  C   UNL A   1      45.426  27.125  37.156  1.00  0.00     0.059 A 
ATOM     92  C   UNL A   1      46.896  28.746  36.105  1.00  0.00     0.059 A 
ATOM     93  F   UNL A   1      45.997  30.386  34.691  1.00  0.00    -0.206 F 
ATOM     94  C   UNL A   1      46.702  27.651  36.945  1.00  0.00     0.060 A 
BRANCH  94  95
ATOM     95  S   UNL A   1      48.109  26.864  37.758  1.00  0.00     0.124 S 
ATOM     96  O   UNL A   1      48.513  25.880  36.760  1.00  0.00    -0.237 OA
ATOM     97  O   UNL A   1      49.019  27.989  37.951  1.00  0.00    -0.237 OA
ATOM     98  O   UNL A   1      47.528  26.320  38.982  1.00  0.00    -0.744 OA
ENDBRANCH  94  95
ENDBRANCH  62  87
BRANCH  74  99
ATOM     99  C   UNL A   1      39.772  33.602  37.586  1.00  0.00     0.058 A 
ATOM    100  C   UNL A   1      40.429  34.811  37.862  1.00  0.00     0.135 A 
ATOM    101  C   UNL A   1      38.840  33.134  38.527  1.00  0.00     0.135 A 
ATOM    102  F   UNL A   1      41.334  35.301  37.000  1.00  0.00    -0.206 F 
ATOM    103  C   UNL A   1      40.193  35.513  39.038  1.00  0.00     0.059 A 
ATOM    104  C   UNL A   1      38.562  33.838  39.693  1.00  0.00     0.059 A 
ATOM    105  F   UNL A   1      38.173  31.989  38.308  1.00  0.00    -0.206 F 
ATOM    106  C   UNL A   1      39.253  35.021  39.946  1.00  0.00     0.060 A 
BRANCH 106 107
ATOM    107  S   UNL A   1      38.931  35.962  41.452  1.00  0.00     0.124 S 
ATOM    108  O   UNL A   1      38.877  37.328  40.941  1.00  0.00    -0.237 OA
ATOM    109  O   UNL A   1      37.661  35.403  41.903  1.00  0.00    -0.237 OA
ATOM    110  O   UNL A   1      40.080  35.655  42.298  1.00  0.00    -0.744 OA
ENDBRANCH 106 107
ENDBRANCH  74  99
ENDBRANCH  48  49
ENDBRANCH  40  43
ENDBRANCH  38  39
ENDBRANCH  37  38
ENDBRANCH  36  37
ENDBRANCH   3  36
TORSDOF 19
ENDMDL
