MODEL 1
REMARK VINA RESULT:     -13.8      0.000      0.000
REMARK SMILES CCCSc1nc2n(n1)[C@@H](c1ccc(C(=O)NCCCNC(=O)c3ccc(-c4c5nc(c(-c6c(F)cc(S(=O)(=O)[O-])cc6F)c6ccc([nH]6)c(-c6c(F)cc(S(=O)(=O)[O-])cc6F)c6nc(c(-c7c(F)cc(S(=O)(=O)[O-])cc7F)c7ccc4[nH]7)C=C6)C=C5)cc3)cc1)C(C(=O)Nc1cccc(C)c1)=C(C)N2
REMARK SMILES IDX 18 1 17 2 15 3 16 4 14 6 11 7 12 8 91 9 13 10 90 11 10 12
REMARK SMILES IDX 5 13 6 14 9 15 7 16 8 17 105 18 103 19 92 21 104 22 4 23
REMARK SMILES IDX 3 24 2 25 1 26 93 27 94 28 95 29 96 31 97 32 102 33 98 34
REMARK SMILES IDX 100 35 99 36 101 37 19 38 20 39 21 40 22 41 23 43 24 44
REMARK SMILES IDX 25 45 89 46 26 47 88 48 27 49 28 50 29 51 82 52 30 53 87 54
REMARK SMILES IDX 81 55 83 56 31 57 86 58 80 59 79 60 32 62 66 63 45 64 65 65
REMARK SMILES IDX 46 66 49 67 64 68 84 69 47 70 48 71 63 73 85 74 50 75 33 76
REMARK SMILES IDX 34 77 43 78 35 79 36 80 42 81 44 82 37 83 38 84 39 85 40 86
REMARK SMILES IDX 41 87 67 88 68 89 77 90 69 91 70 92 76 93 78 94 71 95 72 96
REMARK SMILES IDX 73 97 74 98 75 99 51 100 52 101 61 102 53 103 54 104 60 105
REMARK SMILES IDX 62 106 55 107 56 108 57 109 58 110 59 111
REMARK H PARENT 17 5 105 20 95 30 21 42 83 61 49 72
REMARK Flexibility Score: inf
ROOT
ATOM      1  C   UNL A   1      38.510  20.521  25.384  1.00  0.00     0.118 C 
ENDROOT
BRANCH   1   2
ATOM      2  N   UNL A   1      38.786  21.931  25.602  1.00  0.00    -0.352 N 
ATOM      3  C   UNL A   1      37.943  22.999  25.786  1.00  0.00     0.251 C 
ATOM      4  O   UNL A   1      38.434  24.079  26.108  1.00  0.00    -0.269 OA
ATOM      5  H   UNL A   1      39.743  22.160  25.621  1.00  0.00     0.163 HD
BRANCH   3   6
ATOM      6  C   UNL A   1      36.464  22.878  25.686  1.00  0.00     0.039 A 
ATOM      7  C   UNL A   1      33.657  22.441  25.666  1.00  0.00    -0.019 A 
ATOM      8  C   UNL A   1      34.357  22.706  26.863  1.00  0.00     0.007 A 
ATOM      9  C   UNL A   1      34.383  22.526  24.475  1.00  0.00     0.007 A 
ATOM     10  C   UNL A   1      35.736  22.925  26.873  1.00  0.00     0.014 A 
ATOM     11  C   UNL A   1      35.762  22.742  24.491  1.00  0.00     0.014 A 
BRANCH   7  12
ATOM     12  C   UNL A   1      32.197  21.922  25.627  1.00  0.00     0.179 C 
ATOM     13  C   UNL A   1      32.492  19.188  23.496  1.00  0.00     0.210 A 
ATOM     14  N   UNL A   1      32.137  20.138  22.573  1.00  0.00    -0.185 NA
ATOM     15  N   UNL A   1      32.466  19.589  24.774  1.00  0.00    -0.141 NA
ATOM     16  C   UNL A   1      31.817  21.160  23.312  1.00  0.00     0.227 A 
ATOM     17  N   UNL A   1      32.075  20.869  24.620  1.00  0.00    -0.218 N 
ATOM     18  N   UNL A   1      31.413  22.399  22.992  1.00  0.00    -0.328 N 
ATOM     19  C   UNL A   1      31.095  23.376  23.937  1.00  0.00     0.026 C 
ATOM     20  H   UNL A   1      31.337  22.633  22.038  1.00  0.00     0.169 HD
ATOM     21  C   UNL A   1      31.249  23.109  25.266  1.00  0.00     0.065 C 
ATOM     22  C   UNL A   1      30.686  24.683  23.312  1.00  0.00     0.065 C 
BRANCH  13  23
ATOM     23  S   UNL A   1      32.913  17.559  23.057  1.00  0.00    -0.084 SA
BRANCH  23  24
ATOM     24  C   UNL A   1      34.367  17.256  24.109  1.00  0.00     0.078 C 
BRANCH  24  25
ATOM     25  C   UNL A   1      34.093  16.361  25.323  1.00  0.00     0.008 C 
ATOM     26  C   UNL A   1      32.887  15.441  25.198  1.00  0.00     0.005 C 
ENDBRANCH  24  25
ENDBRANCH  23  24
ENDBRANCH  13  23
BRANCH  21  27
ATOM     27  C   UNL A   1      30.803  23.885  26.484  1.00  0.00     0.255 C 
ATOM     28  O   UNL A   1      29.915  23.432  27.210  1.00  0.00    -0.269 OA
ATOM     29  N   UNL A   1      31.329  25.083  26.864  1.00  0.00    -0.322 N 
ATOM     30  H   UNL A   1      31.258  25.271  27.827  1.00  0.00     0.170 HD
BRANCH  29  31
ATOM     31  C   UNL A   1      31.949  26.089  26.123  1.00  0.00     0.041 A 
ATOM     32  C   UNL A   1      33.280  25.888  25.746  1.00  0.00     0.026 A 
ATOM     33  C   UNL A   1      31.261  27.225  25.699  1.00  0.00     0.029 A 
ATOM     34  C   UNL A   1      33.868  26.747  24.820  1.00  0.00     0.002 A 
ATOM     35  C   UNL A   1      31.846  28.090  24.769  1.00  0.00    -0.049 A 
ATOM     36  C   UNL A   1      33.147  27.831  24.319  1.00  0.00     0.003 A 
ATOM     37  C   UNL A   1      31.050  29.220  24.191  1.00  0.00     0.044 C 
ENDBRANCH  29  31
ENDBRANCH  21  27
ENDBRANCH   7  12
ENDBRANCH   3   6
ENDBRANCH   1   2
BRANCH   1  38
ATOM     38  C   UNL A   1      39.707  19.631  25.743  1.00  0.00     0.042 C 
BRANCH  38  39
ATOM     39  C   UNL A   1      40.857  20.407  26.348  1.00  0.00     0.118 C 
BRANCH  39  40
ATOM     40  N   UNL A   1      42.157  19.827  26.014  1.00  0.00    -0.352 N 
ATOM     41  C   UNL A   1      43.308  20.502  25.645  1.00  0.00     0.251 C 
ATOM     42  H   UNL A   1      42.221  18.846  26.057  1.00  0.00     0.163 HD
ATOM     43  O   UNL A   1      44.201  19.934  25.038  1.00  0.00    -0.269 OA
BRANCH  41  44
ATOM     44  C   UNL A   1      43.413  21.925  26.010  1.00  0.00     0.039 A 
ATOM     45  C   UNL A   1      42.959  22.937  25.162  1.00  0.00     0.014 A 
ATOM     46  C   UNL A   1      43.903  22.216  27.279  1.00  0.00     0.014 A 
ATOM     47  C   UNL A   1      42.922  24.242  25.647  1.00  0.00     0.010 A 
ATOM     48  C   UNL A   1      43.685  23.457  27.812  1.00  0.00     0.010 A 
ATOM     49  C   UNL A   1      43.263  24.491  26.987  1.00  0.00    -0.014 A 
BRANCH  49  50
ATOM     50  C   UNL A   1      43.078  25.807  27.586  1.00  0.00     0.031 A 
ATOM     51  C   UNL A   1      44.125  26.802  27.217  1.00  0.00     0.074 A 
ATOM     52  C   UNL A   1      41.942  26.167  28.225  1.00  0.00     0.049 A 
ATOM     53  N   UNL A   1      45.058  27.282  27.969  1.00  0.00    -0.248 NA
ATOM     54  C   UNL A   1      44.256  27.183  25.799  1.00  0.00     0.031 C 
ATOM     55  C   UNL A   1      40.691  25.411  28.380  1.00  0.00     0.029 A 
ATOM     56  N   UNL A   1      41.628  27.358  28.798  1.00  0.00    -0.354 N 
ATOM     57  C   UNL A   1      45.734  28.218  27.189  1.00  0.00     0.074 A 
ATOM     58  C   UNL A   1      45.346  27.953  25.829  1.00  0.00     0.031 C 
ATOM     59  C   UNL A   1      39.700  26.239  28.778  1.00  0.00     0.029 A 
ATOM     60  C   UNL A   1      40.278  27.531  29.092  1.00  0.00     0.049 A 
ATOM     61  H   UNL A   1      42.304  28.047  28.990  1.00  0.00     0.167 HD
ATOM     62  C   UNL A   1      46.351  29.295  27.756  1.00  0.00     0.037 A 
ATOM     63  C   UNL A   1      39.688  28.664  29.553  1.00  0.00     0.037 A 
ATOM     64  C   UNL A   1      46.502  29.108  29.180  1.00  0.00     0.049 A 
ATOM     65  C   UNL A   1      40.774  29.498  30.133  1.00  0.00     0.074 A 
ATOM     66  C   UNL A   1      47.119  28.160  29.975  1.00  0.00     0.029 A 
ATOM     67  N   UNL A   1      45.617  29.762  30.005  1.00  0.00    -0.354 N 
ATOM     68  N   UNL A   1      41.455  29.163  31.196  1.00  0.00    -0.248 NA
ATOM     69  C   UNL A   1      41.424  30.457  29.253  1.00  0.00     0.031 C 
ATOM     70  C   UNL A   1      46.221  27.955  31.064  1.00  0.00     0.029 A 
ATOM     71  C   UNL A   1      45.157  28.847  30.918  1.00  0.00     0.049 A 
ATOM     72  H   UNL A   1      45.360  30.710  29.950  1.00  0.00     0.167 HD
ATOM     73  C   UNL A   1      42.764  29.522  30.909  1.00  0.00     0.074 A 
ATOM     74  C   UNL A   1      42.670  30.380  29.728  1.00  0.00     0.031 C 
ATOM     75  C   UNL A   1      43.820  28.863  31.471  1.00  0.00     0.037 A 
BRANCH  62  76
ATOM     76  C   UNL A   1      46.471  30.662  27.113  1.00  0.00     0.058 A 
ATOM     77  C   UNL A   1      47.729  31.304  27.096  1.00  0.00     0.135 A 
ATOM     78  C   UNL A   1      45.372  31.480  26.772  1.00  0.00     0.135 A 
ATOM     79  F   UNL A   1      48.847  30.626  27.400  1.00  0.00    -0.206 F 
ATOM     80  C   UNL A   1      47.871  32.670  26.847  1.00  0.00     0.059 A 
ATOM     81  C   UNL A   1      45.497  32.831  26.468  1.00  0.00     0.059 A 
ATOM     82  F   UNL A   1      44.109  31.043  26.811  1.00  0.00    -0.206 F 
ATOM     83  C   UNL A   1      46.743  33.429  26.550  1.00  0.00     0.060 A 
BRANCH  83  84
ATOM     84  S   UNL A   1      46.908  35.207  26.328  1.00  0.00     0.124 S 
ATOM     85  O   UNL A   1      47.737  35.275  25.129  1.00  0.00    -0.237 OA
ATOM     86  O   UNL A   1      45.518  35.621  26.169  1.00  0.00    -0.237 OA
ATOM     87  O   UNL A   1      47.548  35.641  27.565  1.00  0.00    -0.744 OA
ENDBRANCH  83  84
ENDBRANCH  62  76
BRANCH  63  88
ATOM     88  C   UNL A   1      38.345  29.219  29.235  1.00  0.00     0.058 A 
ATOM     89  C   UNL A   1      37.446  29.563  30.261  1.00  0.00     0.135 A 
ATOM     90  C   UNL A   1      38.037  29.714  27.952  1.00  0.00     0.135 A 
ATOM     91  F   UNL A   1      37.664  29.142  31.517  1.00  0.00    -0.206 F 
ATOM     92  C   UNL A   1      36.351  30.407  30.046  1.00  0.00     0.059 A 
ATOM     93  C   UNL A   1      36.946  30.551  27.710  1.00  0.00     0.059 A 
ATOM     94  F   UNL A   1      38.847  29.475  26.909  1.00  0.00    -0.206 F 
ATOM     95  C   UNL A   1      36.125  30.921  28.771  1.00  0.00     0.060 A 
BRANCH  95  96
ATOM     96  S   UNL A   1      34.839  32.173  28.534  1.00  0.00     0.124 S 
ATOM     97  O   UNL A   1      33.787  31.406  27.875  1.00  0.00    -0.237 OA
ATOM     98  O   UNL A   1      34.559  32.590  29.904  1.00  0.00    -0.237 OA
ATOM     99  O   UNL A   1      35.493  33.178  27.701  1.00  0.00    -0.744 OA
ENDBRANCH  95  96
ENDBRANCH  63  88
BRANCH  75 100
ATOM    100  C   UNL A   1      43.550  27.922  32.621  1.00  0.00     0.058 A 
ATOM    101  C   UNL A   1      43.548  26.518  32.528  1.00  0.00     0.135 A 
ATOM    102  C   UNL A   1      43.441  28.473  33.905  1.00  0.00     0.135 A 
ATOM    103  F   UNL A   1      43.749  25.903  31.356  1.00  0.00    -0.206 F 
ATOM    104  C   UNL A   1      43.401  25.704  33.656  1.00  0.00     0.059 A 
ATOM    105  C   UNL A   1      43.327  27.682  35.045  1.00  0.00     0.059 A 
ATOM    106  F   UNL A   1      43.499  29.805  34.072  1.00  0.00    -0.206 F 
ATOM    107  C   UNL A   1      43.292  26.296  34.912  1.00  0.00     0.060 A 
BRANCH 107 108
ATOM    108  S   UNL A   1      43.168  25.248  36.377  1.00  0.00     0.124 S 
ATOM    109  O   UNL A   1      43.084  26.229  37.452  1.00  0.00    -0.237 OA
ATOM    110  O   UNL A   1      41.950  24.484  36.121  1.00  0.00    -0.237 OA
ATOM    111  O   UNL A   1      44.401  24.464  36.343  1.00  0.00    -0.744 OA
ENDBRANCH 107 108
ENDBRANCH  75 100
ENDBRANCH  49  50
ENDBRANCH  41  44
ENDBRANCH  39  40
ENDBRANCH  38  39
ENDBRANCH   1  38
TORSDOF 19
ENDMDL
MODEL 2
REMARK VINA RESULT:     -12.9      2.688      4.669
REMARK SMILES CCCSc1nc2n(n1)[C@@H](c1ccc(C(=O)NCCCNC(=O)c3ccc(-c4c5nc(c(-c6c(F)cc(S(=O)(=O)[O-])cc6F)c6ccc([nH]6)c(-c6c(F)cc(S(=O)(=O)[O-])cc6F)c6nc(c(-c7c(F)cc(S(=O)(=O)[O-])cc7F)c7ccc4[nH]7)C=C6)C=C5)cc3)cc1)C(C(=O)Nc1cccc(C)c1)=C(C)N2
REMARK SMILES IDX 18 1 17 2 15 3 16 4 14 6 11 7 12 8 91 9 13 10 90 11 10 12
REMARK SMILES IDX 5 13 6 14 9 15 7 16 8 17 105 18 103 19 92 21 104 22 4 23
REMARK SMILES IDX 3 24 2 25 1 26 93 27 94 28 95 29 96 31 97 32 102 33 98 34
REMARK SMILES IDX 100 35 99 36 101 37 19 38 20 39 21 40 22 41 23 43 24 44
REMARK SMILES IDX 25 45 89 46 26 47 88 48 27 49 28 50 29 51 82 52 30 53 87 54
REMARK SMILES IDX 81 55 83 56 31 57 86 58 80 59 79 60 32 62 66 63 45 64 65 65
REMARK SMILES IDX 46 66 49 67 64 68 84 69 47 70 48 71 63 73 85 74 50 75 33 76
REMARK SMILES IDX 34 77 43 78 35 79 36 80 42 81 44 82 37 83 38 84 39 85 40 86
REMARK SMILES IDX 41 87 67 88 68 89 77 90 69 91 70 92 76 93 78 94 71 95 72 96
REMARK SMILES IDX 73 97 74 98 75 99 51 100 52 101 61 102 53 103 54 104 60 105
REMARK SMILES IDX 62 106 55 107 56 108 57 109 58 110 59 111
REMARK H PARENT 17 5 105 20 95 30 21 42 83 61 49 72
REMARK Flexibility Score: inf
ROOT
ATOM      1  C   UNL A   1      37.717  22.223  25.659  1.00  0.00     0.118 C 
ENDROOT
BRANCH   1   2
ATOM      2  N   UNL A   1      36.503  21.561  26.104  1.00  0.00    -0.352 N 
ATOM      3  C   UNL A   1      35.193  21.973  26.095  1.00  0.00     0.251 C 
ATOM      4  O   UNL A   1      34.324  21.155  26.389  1.00  0.00    -0.269 OA
ATOM      5  H   UNL A   1      36.644  20.660  26.475  1.00  0.00     0.163 HD
BRANCH   3   6
ATOM      6  C   UNL A   1      34.787  23.340  25.672  1.00  0.00     0.039 A 
ATOM      7  C   UNL A   1      33.757  25.871  24.897  1.00  0.00    -0.019 A 
ATOM      8  C   UNL A   1      33.455  25.302  26.152  1.00  0.00     0.007 A 
ATOM      9  C   UNL A   1      34.684  25.195  24.101  1.00  0.00     0.007 A 
ATOM     10  C   UNL A   1      33.964  24.060  26.536  1.00  0.00     0.014 A 
ATOM     11  C   UNL A   1      35.188  23.952  24.487  1.00  0.00     0.014 A 
BRANCH   7  12
ATOM     12  C   UNL A   1      33.009  27.098  24.313  1.00  0.00     0.179 C 
ATOM     13  C   UNL A   1      33.558  29.483  26.787  1.00  0.00     0.210 A 
ATOM     14  N   UNL A   1      32.349  29.002  27.220  1.00  0.00    -0.185 NA
ATOM     15  N   UNL A   1      33.980  29.001  25.610  1.00  0.00    -0.141 NA
ATOM     16  C   UNL A   1      31.971  28.231  26.242  1.00  0.00     0.227 A 
ATOM     17  N   UNL A   1      32.965  28.168  25.309  1.00  0.00    -0.218 N 
ATOM     18  N   UNL A   1      30.884  27.460  26.085  1.00  0.00    -0.328 N 
ATOM     19  C   UNL A   1      30.637  26.700  24.942  1.00  0.00     0.026 C 
ATOM     20  H   UNL A   1      30.225  27.429  26.817  1.00  0.00     0.169 HD
ATOM     21  C   UNL A   1      31.557  26.669  23.935  1.00  0.00     0.065 C 
ATOM     22  C   UNL A   1      29.356  25.914  25.029  1.00  0.00     0.065 C 
BRANCH  13  23
ATOM     23  S   UNL A   1      34.475  30.666  27.672  1.00  0.00    -0.084 SA
BRANCH  23  24
ATOM     24  C   UNL A   1      36.002  29.749  28.043  1.00  0.00     0.078 C 
BRANCH  24  25
ATOM     25  C   UNL A   1      37.175  30.070  27.110  1.00  0.00     0.008 C 
ATOM     26  C   UNL A   1      38.501  29.421  27.478  1.00  0.00     0.005 C 
ENDBRANCH  24  25
ENDBRANCH  23  24
ENDBRANCH  13  23
BRANCH  21  27
ATOM     27  C   UNL A   1      31.465  26.111  22.533  1.00  0.00     0.255 C 
ATOM     28  O   UNL A   1      31.139  26.845  21.599  1.00  0.00    -0.269 OA
ATOM     29  N   UNL A   1      31.732  24.815  22.206  1.00  0.00    -0.322 N 
ATOM     30  H   UNL A   1      32.024  24.683  21.276  1.00  0.00     0.170 HD
BRANCH  29  31
ATOM     31  C   UNL A   1      31.662  23.645  22.962  1.00  0.00     0.041 A 
ATOM     32  C   UNL A   1      32.384  22.537  22.508  1.00  0.00     0.026 A 
ATOM     33  C   UNL A   1      30.966  23.585  24.169  1.00  0.00     0.029 A 
ATOM     34  C   UNL A   1      32.533  21.428  23.338  1.00  0.00     0.002 A 
ATOM     35  C   UNL A   1      31.112  22.475  25.006  1.00  0.00    -0.049 A 
ATOM     36  C   UNL A   1      31.916  21.405  24.589  1.00  0.00     0.003 A 
ATOM     37  C   UNL A   1      30.495  22.478  26.371  1.00  0.00     0.044 C 
ENDBRANCH  29  31
ENDBRANCH  21  27
ENDBRANCH   7  12
ENDBRANCH   3   6
ENDBRANCH   1   2
BRANCH   1  38
ATOM     38  C   UNL A   1      38.946  21.308  25.748  1.00  0.00     0.042 C 
BRANCH  38  39
ATOM     39  C   UNL A   1      40.038  21.874  26.630  1.00  0.00     0.118 C 
BRANCH  39  40
ATOM     40  N   UNL A   1      41.319  21.976  25.933  1.00  0.00    -0.352 N 
ATOM     41  C   UNL A   1      42.115  23.101  25.799  1.00  0.00     0.251 C 
ATOM     42  H   UNL A   1      41.654  21.152  25.512  1.00  0.00     0.163 HD
ATOM     43  O   UNL A   1      42.946  23.179  24.910  1.00  0.00    -0.269 OA
BRANCH  41  44
ATOM     44  C   UNL A   1      41.921  24.195  26.766  1.00  0.00     0.039 A 
ATOM     45  C   UNL A   1      42.636  24.253  27.963  1.00  0.00     0.014 A 
ATOM     46  C   UNL A   1      41.058  25.221  26.393  1.00  0.00     0.014 A 
ATOM     47  C   UNL A   1      42.536  25.405  28.740  1.00  0.00     0.010 A 
ATOM     48  C   UNL A   1      41.114  26.417  27.055  1.00  0.00     0.010 A 
ATOM     49  C   UNL A   1      41.792  26.497  28.264  1.00  0.00    -0.014 A 
BRANCH  49  50
ATOM     50  C   UNL A   1      41.797  27.780  28.957  1.00  0.00     0.031 A 
ATOM     51  C   UNL A   1      42.802  28.753  28.439  1.00  0.00     0.074 A 
ATOM     52  C   UNL A   1      40.829  28.145  29.826  1.00  0.00     0.049 A 
ATOM     53  N   UNL A   1      43.889  29.146  29.015  1.00  0.00    -0.248 NA
ATOM     54  C   UNL A   1      42.672  29.215  27.046  1.00  0.00     0.031 C 
ATOM     55  C   UNL A   1      39.595  27.433  30.187  1.00  0.00     0.029 A 
ATOM     56  N   UNL A   1      40.697  29.310  30.513  1.00  0.00    -0.354 N 
ATOM     57  C   UNL A   1      44.447  30.101  28.167  1.00  0.00     0.074 A 
ATOM     58  C   UNL A   1      43.786  29.937  26.899  1.00  0.00     0.031 C 
ATOM     59  C   UNL A   1      38.747  28.274  30.818  1.00  0.00     0.029 A 
ATOM     60  C   UNL A   1      39.442  29.519  31.079  1.00  0.00     0.049 A 
ATOM     61  H   UNL A   1      41.433  29.958  30.603  1.00  0.00     0.167 HD
ATOM     62  C   UNL A   1      45.219  31.113  28.656  1.00  0.00     0.037 A 
ATOM     63  C   UNL A   1      39.014  30.645  31.707  1.00  0.00     0.037 A 
ATOM     64  C   UNL A   1      45.636  30.832  30.010  1.00  0.00     0.049 A 
ATOM     65  C   UNL A   1      40.235  31.397  32.103  1.00  0.00     0.074 A 
ATOM     66  C   UNL A   1      46.346  29.812  30.615  1.00  0.00     0.029 A 
ATOM     67  N   UNL A   1      44.966  31.469  31.028  1.00  0.00    -0.354 N 
ATOM     68  N   UNL A   1      41.092  30.968  32.989  1.00  0.00    -0.248 NA
ATOM     69  C   UNL A   1      40.749  32.381  31.163  1.00  0.00     0.031 C 
ATOM     70  C   UNL A   1      45.670  29.577  31.849  1.00  0.00     0.029 A 
ATOM     71  C   UNL A   1      44.646  30.518  31.964  1.00  0.00     0.049 A 
ATOM     72  H   UNL A   1      44.753  32.429  31.076  1.00  0.00     0.167 HD
ATOM     73  C   UNL A   1      42.337  31.290  32.467  1.00  0.00     0.074 A 
ATOM     74  C   UNL A   1      42.058  32.224  31.376  1.00  0.00     0.031 C 
ATOM     75  C   UNL A   1      43.447  30.554  32.773  1.00  0.00     0.037 A 
BRANCH  62  76
ATOM     76  C   UNL A   1      45.282  32.512  28.076  1.00  0.00     0.058 A 
ATOM     77  C   UNL A   1      46.528  33.024  27.655  1.00  0.00     0.135 A 
ATOM     78  C   UNL A   1      44.242  33.462  28.175  1.00  0.00     0.135 A 
ATOM     79  F   UNL A   1      47.591  32.215  27.521  1.00  0.00    -0.206 F 
ATOM     80  C   UNL A   1      46.745  34.385  27.436  1.00  0.00     0.059 A 
ATOM     81  C   UNL A   1      44.422  34.815  27.909  1.00  0.00     0.059 A 
ATOM     82  F   UNL A   1      43.022  33.151  28.627  1.00  0.00    -0.206 F 
ATOM     83  C   UNL A   1      45.686  35.276  27.582  1.00  0.00     0.060 A 
BRANCH  83  84
ATOM     84  S   UNL A   1      45.984  37.041  27.400  1.00  0.00     0.124 S 
ATOM     85  O   UNL A   1      46.491  37.389  28.722  1.00  0.00    -0.237 OA
ATOM     86  O   UNL A   1      46.957  37.072  26.312  1.00  0.00    -0.237 OA
ATOM     87  O   UNL A   1      44.665  37.571  27.068  1.00  0.00    -0.744 OA
ENDBRANCH  83  84
ENDBRANCH  62  76
BRANCH  63  88
ATOM     88  C   UNL A   1      37.666  31.274  31.692  1.00  0.00     0.058 A 
ATOM     89  C   UNL A   1      36.904  31.372  32.871  1.00  0.00     0.135 A 
ATOM     90  C   UNL A   1      37.232  32.063  30.608  1.00  0.00     0.135 A 
ATOM     91  F   UNL A   1      37.247  30.662  33.957  1.00  0.00    -0.206 F 
ATOM     92  C   UNL A   1      35.824  32.253  32.994  1.00  0.00     0.059 A 
ATOM     93  C   UNL A   1      36.154  32.945  30.704  1.00  0.00     0.059 A 
ATOM     94  F   UNL A   1      37.908  32.071  29.449  1.00  0.00    -0.206 F 
ATOM     95  C   UNL A   1      35.474  33.059  31.912  1.00  0.00     0.060 A 
BRANCH  95  96
ATOM     96  S   UNL A   1      34.218  34.344  32.133  1.00  0.00     0.124 S 
ATOM     97  O   UNL A   1      33.698  34.496  30.778  1.00  0.00    -0.237 OA
ATOM     98  O   UNL A   1      33.313  33.728  33.097  1.00  0.00    -0.237 OA
ATOM     99  O   UNL A   1      34.982  35.481  32.639  1.00  0.00    -0.744 OA
ENDBRANCH  95  96
ENDBRANCH  63  88
BRANCH  75 100
ATOM    100  C   UNL A   1      43.358  29.556  33.901  1.00  0.00     0.058 A 
ATOM    101  C   UNL A   1      42.956  28.214  33.760  1.00  0.00     0.135 A 
ATOM    102  C   UNL A   1      43.854  29.941  35.156  1.00  0.00     0.135 A 
ATOM    103  F   UNL A   1      42.567  27.732  32.573  1.00  0.00    -0.206 F 
ATOM    104  C   UNL A   1      43.005  27.313  34.827  1.00  0.00     0.059 A 
ATOM    105  C   UNL A   1      43.941  29.052  36.224  1.00  0.00     0.059 A 
ATOM    106  F   UNL A   1      44.312  31.190  35.342  1.00  0.00    -0.206 F 
ATOM    107  C   UNL A   1      43.501  27.741  36.057  1.00  0.00     0.060 A 
BRANCH 107 108
ATOM    108  S   UNL A   1      43.626  26.563  37.420  1.00  0.00     0.124 S 
ATOM    109  O   UNL A   1      42.225  26.301  37.730  1.00  0.00    -0.237 OA
ATOM    110  O   UNL A   1      44.360  25.454  36.817  1.00  0.00    -0.237 OA
ATOM    111  O   UNL A   1      44.364  27.301  38.444  1.00  0.00    -0.744 OA
ENDBRANCH 107 108
ENDBRANCH  75 100
ENDBRANCH  49  50
ENDBRANCH  41  44
ENDBRANCH  39  40
ENDBRANCH  38  39
ENDBRANCH   1  38
TORSDOF 19
ENDMDL
MODEL 3
REMARK VINA RESULT:     -12.2      2.763      8.849
REMARK SMILES CCCSc1nc2n(n1)[C@@H](c1ccc(C(=O)NCCCNC(=O)c3ccc(-c4c5nc(c(-c6c(F)cc(S(=O)(=O)[O-])cc6F)c6ccc([nH]6)c(-c6c(F)cc(S(=O)(=O)[O-])cc6F)c6nc(c(-c7c(F)cc(S(=O)(=O)[O-])cc7F)c7ccc4[nH]7)C=C6)C=C5)cc3)cc1)C(C(=O)Nc1cccc(C)c1)=C(C)N2
REMARK SMILES IDX 18 1 17 2 15 3 16 4 14 6 11 7 12 8 91 9 13 10 90 11 10 12
REMARK SMILES IDX 5 13 6 14 9 15 7 16 8 17 105 18 103 19 92 21 104 22 4 23
REMARK SMILES IDX 3 24 2 25 1 26 93 27 94 28 95 29 96 31 97 32 102 33 98 34
REMARK SMILES IDX 100 35 99 36 101 37 19 38 20 39 21 40 22 41 23 43 24 44
REMARK SMILES IDX 25 45 89 46 26 47 88 48 27 49 28 50 29 51 82 52 30 53 87 54
REMARK SMILES IDX 81 55 83 56 31 57 86 58 80 59 79 60 32 62 66 63 45 64 65 65
REMARK SMILES IDX 46 66 49 67 64 68 84 69 47 70 48 71 63 73 85 74 50 75 33 76
REMARK SMILES IDX 34 77 43 78 35 79 36 80 42 81 44 82 37 83 38 84 39 85 40 86
REMARK SMILES IDX 41 87 67 88 68 89 77 90 69 91 70 92 76 93 78 94 71 95 72 96
REMARK SMILES IDX 73 97 74 98 75 99 51 100 52 101 61 102 53 103 54 104 60 105
REMARK SMILES IDX 62 106 55 107 56 108 57 109 58 110 59 111
REMARK H PARENT 17 5 105 20 95 30 21 42 83 61 49 72
REMARK Flexibility Score: inf
ROOT
ATOM      1  C   UNL A   1      32.442  30.337  27.026  1.00  0.00     0.118 C 
ENDROOT
BRANCH   1   2
ATOM      2  N   UNL A   1      32.265  30.287  25.584  1.00  0.00    -0.352 N 
ATOM      3  C   UNL A   1      32.377  29.246  24.695  1.00  0.00     0.251 C 
ATOM      4  O   UNL A   1      32.022  29.433  23.534  1.00  0.00    -0.269 OA
ATOM      5  H   UNL A   1      32.023  31.148  25.174  1.00  0.00     0.163 HD
BRANCH   3   6
ATOM      6  C   UNL A   1      32.836  27.891  25.102  1.00  0.00     0.039 A 
ATOM      7  C   UNL A   1      33.641  25.220  25.635  1.00  0.00    -0.019 A 
ATOM      8  C   UNL A   1      34.184  25.956  24.561  1.00  0.00     0.007 A 
ATOM      9  C   UNL A   1      32.782  25.901  26.501  1.00  0.00     0.007 A 
ATOM     10  C   UNL A   1      33.792  27.271  24.301  1.00  0.00     0.014 A 
ATOM     11  C   UNL A   1      32.391  27.213  26.235  1.00  0.00     0.014 A 
BRANCH   7  12
ATOM     12  C   UNL A   1      33.828  23.690  25.802  1.00  0.00     0.179 C 
ATOM     13  C   UNL A   1      37.295  23.402  25.707  1.00  0.00     0.210 A 
ATOM     14  N   UNL A   1      37.028  23.185  24.379  1.00  0.00    -0.185 NA
ATOM     15  N   UNL A   1      36.220  23.501  26.501  1.00  0.00    -0.141 NA
ATOM     16  C   UNL A   1      35.731  23.084  24.353  1.00  0.00     0.227 A 
ATOM     17  N   UNL A   1      35.234  23.339  25.599  1.00  0.00    -0.218 N 
ATOM     18  N   UNL A   1      34.872  22.895  23.339  1.00  0.00    -0.328 N 
ATOM     19  C   UNL A   1      33.490  22.797  23.506  1.00  0.00     0.026 C 
ATOM     20  H   UNL A   1      35.237  22.823  22.427  1.00  0.00     0.169 HD
ATOM     21  C   UNL A   1      32.944  22.955  24.746  1.00  0.00     0.065 C 
ATOM     22  C   UNL A   1      32.757  22.603  22.205  1.00  0.00     0.065 C 
BRANCH  13  23
ATOM     23  S   UNL A   1      38.911  23.506  26.339  1.00  0.00    -0.084 SA
BRANCH  23  24
ATOM     24  C   UNL A   1      39.304  21.756  26.642  1.00  0.00     0.078 C 
BRANCH  24  25
ATOM     25  C   UNL A   1      40.679  21.318  26.125  1.00  0.00     0.008 C 
ATOM     26  C   UNL A   1      41.188  19.989  26.664  1.00  0.00     0.005 C 
ENDBRANCH  24  25
ENDBRANCH  23  24
ENDBRANCH  13  23
BRANCH  21  27
ATOM     27  C   UNL A   1      31.538  22.706  25.242  1.00  0.00     0.255 C 
ATOM     28  O   UNL A   1      31.247  21.618  25.744  1.00  0.00    -0.269 OA
ATOM     29  N   UNL A   1      30.532  23.623  25.185  1.00  0.00    -0.322 N 
ATOM     30  H   UNL A   1      29.833  23.502  25.867  1.00  0.00     0.170 HD
BRANCH  29  31
ATOM     31  C   UNL A   1      30.321  24.702  24.327  1.00  0.00     0.041 A 
ATOM     32  C   UNL A   1      29.435  25.698  24.745  1.00  0.00     0.026 A 
ATOM     33  C   UNL A   1      31.018  24.839  23.127  1.00  0.00     0.029 A 
ATOM     34  C   UNL A   1      29.366  26.897  24.039  1.00  0.00     0.002 A 
ATOM     35  C   UNL A   1      30.953  26.039  22.413  1.00  0.00    -0.049 A 
ATOM     36  C   UNL A   1      30.136  27.074  22.889  1.00  0.00     0.003 A 
ATOM     37  C   UNL A   1      31.824  26.247  21.212  1.00  0.00     0.044 C 
ENDBRANCH  29  31
ENDBRANCH  21  27
ENDBRANCH   7  12
ENDBRANCH   3   6
ENDBRANCH   1   2
BRANCH   1  38
ATOM     38  C   UNL A   1      33.921  30.322  27.432  1.00  0.00     0.042 C 
BRANCH  38  39
ATOM     39  C   UNL A   1      34.493  31.710  27.624  1.00  0.00     0.118 C 
BRANCH  39  40
ATOM     40  N   UNL A   1      34.364  32.179  29.003  1.00  0.00    -0.352 N 
ATOM     41  C   UNL A   1      35.150  31.826  30.086  1.00  0.00     0.251 C 
ATOM     42  H   UNL A   1      33.637  32.818  29.181  1.00  0.00     0.163 HD
ATOM     43  O   UNL A   1      34.744  31.968  31.228  1.00  0.00    -0.269 OA
BRANCH  41  44
ATOM     44  C   UNL A   1      36.488  31.275  29.810  1.00  0.00     0.039 A 
ATOM     45  C   UNL A   1      37.593  32.100  29.601  1.00  0.00     0.014 A 
ATOM     46  C   UNL A   1      36.622  29.890  29.858  1.00  0.00     0.014 A 
ATOM     47  C   UNL A   1      38.855  31.513  29.528  1.00  0.00     0.010 A 
ATOM     48  C   UNL A   1      37.869  29.342  29.979  1.00  0.00     0.010 A 
ATOM     49  C   UNL A   1      38.987  30.132  29.746  1.00  0.00    -0.014 A 
BRANCH  49  50
ATOM     50  C   UNL A   1      40.299  29.501  29.849  1.00  0.00     0.031 A 
ATOM     51  C   UNL A   1      40.725  29.196  31.244  1.00  0.00     0.074 A 
ATOM     52  C   UNL A   1      40.965  29.021  28.775  1.00  0.00     0.049 A 
ATOM     53  N   UNL A   1      41.647  29.782  31.934  1.00  0.00    -0.248 NA
ATOM     54  C   UNL A   1      39.920  28.242  32.027  1.00  0.00     0.031 C 
ATOM     55  C   UNL A   1      40.526  28.945  27.375  1.00  0.00     0.029 A 
ATOM     56  N   UNL A   1      42.168  28.391  28.732  1.00  0.00    -0.354 N 
ATOM     57  C   UNL A   1      41.711  29.098  33.146  1.00  0.00     0.074 A 
ATOM     58  C   UNL A   1      40.499  28.325  33.227  1.00  0.00     0.031 C 
ATOM     59  C   UNL A   1      41.329  28.103  26.687  1.00  0.00     0.029 A 
ATOM     60  C   UNL A   1      42.443  27.732  27.537  1.00  0.00     0.049 A 
ATOM     61  H   UNL A   1      42.796  28.399  29.489  1.00  0.00     0.167 HD
ATOM     62  C   UNL A   1      42.874  29.026  33.855  1.00  0.00     0.037 A 
ATOM     63  C   UNL A   1      43.512  26.934  27.279  1.00  0.00     0.037 A 
ATOM     64  C   UNL A   1      43.823  30.006  33.381  1.00  0.00     0.049 A 
ATOM     65  C   UNL A   1      44.546  27.274  28.293  1.00  0.00     0.074 A 
ATOM     66  C   UNL A   1      43.820  31.382  33.259  1.00  0.00     0.029 A 
ATOM     67  N   UNL A   1      44.835  29.565  32.560  1.00  0.00    -0.354 N 
ATOM     68  N   UNL A   1      45.149  28.430  28.351  1.00  0.00    -0.248 NA
ATOM     69  C   UNL A   1      44.548  26.506  29.529  1.00  0.00     0.031 C 
ATOM     70  C   UNL A   1      44.461  31.642  32.012  1.00  0.00     0.029 A 
ATOM     71  C   UNL A   1      44.894  30.422  31.489  1.00  0.00     0.049 A 
ATOM     72  H   UNL A   1      45.410  28.781  32.711  1.00  0.00     0.167 HD
ATOM     73  C   UNL A   1      45.229  28.723  29.705  1.00  0.00     0.074 A 
ATOM     74  C   UNL A   1      44.908  27.468  30.383  1.00  0.00     0.031 C 
ATOM     75  C   UNL A   1      45.261  30.014  30.150  1.00  0.00     0.037 A 
BRANCH  62  76
ATOM     76  C   UNL A   1      43.301  27.844  34.701  1.00  0.00     0.058 A 
ATOM     77  C   UNL A   1      43.674  28.061  36.045  1.00  0.00     0.135 A 
ATOM     78  C   UNL A   1      43.629  26.572  34.183  1.00  0.00     0.135 A 
ATOM     79  F   UNL A   1      43.412  29.233  36.647  1.00  0.00    -0.206 F 
ATOM     80  C   UNL A   1      44.393  27.122  36.786  1.00  0.00     0.059 A 
ATOM     81  C   UNL A   1      44.297  25.601  34.921  1.00  0.00     0.059 A 
ATOM     82  F   UNL A   1      43.408  26.234  32.907  1.00  0.00    -0.206 F 
ATOM     83  C   UNL A   1      44.714  25.899  36.207  1.00  0.00     0.060 A 
BRANCH  83  84
ATOM     84  S   UNL A   1      45.728  24.727  37.121  1.00  0.00     0.124 S 
ATOM     85  O   UNL A   1      45.723  25.317  38.455  1.00  0.00    -0.237 OA
ATOM     86  O   UNL A   1      44.971  23.488  36.966  1.00  0.00    -0.237 OA
ATOM     87  O   UNL A   1      47.005  24.766  36.416  1.00  0.00    -0.744 OA
ENDBRANCH  83  84
ENDBRANCH  62  76
BRANCH  63  88
ATOM     88  C   UNL A   1      43.582  25.694  26.460  1.00  0.00     0.058 A 
ATOM     89  C   UNL A   1      44.472  25.598  25.374  1.00  0.00     0.135 A 
ATOM     90  C   UNL A   1      43.016  24.483  26.906  1.00  0.00     0.135 A 
ATOM     91  F   UNL A   1      45.063  26.699  24.887  1.00  0.00    -0.206 F 
ATOM     92  C   UNL A   1      44.839  24.369  24.814  1.00  0.00     0.059 A 
ATOM     93  C   UNL A   1      43.361  23.246  26.358  1.00  0.00     0.059 A 
ATOM     94  F   UNL A   1      42.183  24.458  27.957  1.00  0.00    -0.206 F 
ATOM     95  C   UNL A   1      44.299  23.193  25.332  1.00  0.00     0.060 A 
BRANCH  95  96
ATOM     96  S   UNL A   1      44.927  21.598  24.752  1.00  0.00     0.124 S 
ATOM     97  O   UNL A   1      46.361  21.733  24.988  1.00  0.00    -0.237 OA
ATOM     98  O   UNL A   1      44.226  20.657  25.618  1.00  0.00    -0.237 OA
ATOM     99  O   UNL A   1      44.527  21.566  23.348  1.00  0.00    -0.744 OA
ENDBRANCH  95  96
ENDBRANCH  63  88
BRANCH  75 100
ATOM    100  C   UNL A   1      45.488  31.116  29.144  1.00  0.00     0.058 A 
ATOM    101  C   UNL A   1      44.472  31.770  28.422  1.00  0.00     0.135 A 
ATOM    102  C   UNL A   1      46.786  31.635  29.023  1.00  0.00     0.135 A 
ATOM    103  F   UNL A   1      43.190  31.409  28.556  1.00  0.00    -0.206 F 
ATOM    104  C   UNL A   1      44.742  32.860  27.589  1.00  0.00     0.059 A 
ATOM    105  C   UNL A   1      47.073  32.738  28.224  1.00  0.00     0.059 A 
ATOM    106  F   UNL A   1      47.792  31.097  29.732  1.00  0.00    -0.206 F 
ATOM    107  C   UNL A   1      46.048  33.338  27.497  1.00  0.00     0.060 A 
BRANCH 107 108
ATOM    108  S   UNL A   1      46.391  34.785  26.472  1.00  0.00     0.124 S 
ATOM    109  O   UNL A   1      47.163  34.210  25.376  1.00  0.00    -0.237 OA
ATOM    110  O   UNL A   1      45.052  35.254  26.125  1.00  0.00    -0.237 OA
ATOM    111  O   UNL A   1      47.138  35.668  27.365  1.00  0.00    -0.744 OA
ENDBRANCH 107 108
ENDBRANCH  75 100
ENDBRANCH  49  50
ENDBRANCH  41  44
ENDBRANCH  39  40
ENDBRANCH  38  39
ENDBRANCH   1  38
TORSDOF 19
ENDMDL
