MODEL 1
REMARK VINA RESULT:     -13.2      0.000      0.000
REMARK SMILES O=C(NCCCNC(=O)c1cccc2c1N[C@H](c1ccccc1Br)[C@H]1CC=C[C@H]21)c1ccc(-c2c3nc(c(-c4c(F)cc(S(=O)(=O)[O-])cc4F)c4ccc([nH]4)c(-c4c(F)cc(S(=O)(=O)[O-])cc4F)c4nc(c(-c5c(F)cc(S(=O)(=O)[O-])cc5F)c5ccc2[nH]5)C=C4)C=C3)cc1
REMARK SMILES IDX 4 1 3 2 1 3 2 4 30 6 31 7 95 8 32 9 94 10 33 11 34 12 35 13
REMARK SMILES IDX 88 14 36 15 93 16 87 17 89 18 37 19 92 20 86 21 85 22 38 24
REMARK SMILES IDX 72 25 51 26 71 27 52 28 55 29 70 30 90 31 53 32 54 33 69 35
REMARK SMILES IDX 91 36 56 37 39 38 40 39 49 40 41 41 42 42 48 43 50 44 43 45
REMARK SMILES IDX 44 46 45 47 46 48 47 49 73 50 74 51 83 52 75 53 76 54 82 55
REMARK SMILES IDX 84 56 77 57 78 58 79 59 80 60 81 61 57 62 58 63 67 64 59 65
REMARK SMILES IDX 60 66 66 67 68 68 61 69 62 70 63 71 64 72 65 73 5 74 6 75
REMARK SMILES IDX 7 76 8 77 9 79 10 80 11 81 15 82 12 83 14 84 16 85 13 86
REMARK SMILES IDX 29 87 17 88 25 90 28 91 26 92 27 93 18 94 19 95 23 96 20 97
REMARK SMILES IDX 22 98 24 99 21 100
REMARK H PARENT 3 5 89 23 55 34 7 78 16 89
REMARK Flexibility Score: inf
ROOT
ATOM      1  C   UNL A   1      35.232  29.455  27.436  1.00  0.00     0.118 C 
ENDROOT
BRANCH   1   2
ATOM      2  N   UNL A   1      35.227  30.034  28.773  1.00  0.00    -0.352 N 
ATOM      3  O   UNL A   1      35.968  30.538  30.835  1.00  0.00    -0.269 OA
ATOM      4  C   UNL A   1      36.232  30.144  29.702  1.00  0.00     0.251 C 
ATOM      5  H   UNL A   1      34.361  30.408  29.057  1.00  0.00     0.163 HD
BRANCH   4   6
ATOM      6  C   UNL A   1      37.622  29.772  29.355  1.00  0.00     0.039 A 
ATOM      7  C   UNL A   1      38.044  29.894  28.029  1.00  0.00     0.014 A 
ATOM      8  C   UNL A   1      38.503  29.278  30.319  1.00  0.00     0.014 A 
ATOM      9  C   UNL A   1      39.356  29.559  27.684  1.00  0.00     0.010 A 
ATOM     10  C   UNL A   1      39.837  29.063  30.001  1.00  0.00     0.010 A 
ATOM     11  C   UNL A   1      40.270  29.161  28.672  1.00  0.00    -0.014 A 
BRANCH  11  12
ATOM     12  C   UNL A   1      41.652  28.740  28.333  1.00  0.00     0.031 A 
ATOM     13  C   UNL A   1      42.758  29.767  28.344  1.00  0.00     0.074 A 
ATOM     14  C   UNL A   1      41.913  27.465  27.984  1.00  0.00     0.049 A 
ATOM     15  N   UNL A   1      44.009  29.640  27.987  1.00  0.00    -0.248 NA
ATOM     16  C   UNL A   1      42.398  31.127  28.780  1.00  0.00     0.031 C 
ATOM     17  C   UNL A   1      40.925  26.386  27.911  1.00  0.00     0.029 A 
ATOM     18  N   UNL A   1      43.091  26.860  27.624  1.00  0.00    -0.354 N 
ATOM     19  C   UNL A   1      44.574  30.900  28.140  1.00  0.00     0.074 A 
ATOM     20  C   UNL A   1      43.518  31.795  28.550  1.00  0.00     0.031 C 
ATOM     21  C   UNL A   1      41.546  25.245  27.568  1.00  0.00     0.029 A 
ATOM     22  C   UNL A   1      42.964  25.518  27.354  1.00  0.00     0.049 A 
ATOM     23  H   UNL A   1      43.947  27.342  27.565  1.00  0.00     0.167 HD
ATOM     24  C   UNL A   1      45.867  31.274  27.990  1.00  0.00     0.037 A 
ATOM     25  C   UNL A   1      43.886  24.613  26.974  1.00  0.00     0.037 A 
ATOM     26  C   UNL A   1      46.923  30.369  27.632  1.00  0.00     0.049 A 
ATOM     27  C   UNL A   1      45.315  25.055  26.798  1.00  0.00     0.074 A 
ATOM     28  C   UNL A   1      48.274  30.637  27.500  1.00  0.00     0.029 A 
ATOM     29  N   UNL A   1      46.752  29.020  27.364  1.00  0.00    -0.354 N 
ATOM     30  N   UNL A   1      45.837  26.246  26.973  1.00  0.00    -0.248 NA
ATOM     31  C   UNL A   1      46.281  24.032  26.372  1.00  0.00     0.031 C 
ATOM     32  C   UNL A   1      48.915  29.456  27.113  1.00  0.00     0.029 A 
ATOM     33  C   UNL A   1      47.970  28.443  27.051  1.00  0.00     0.049 A 
ATOM     34  H   UNL A   1      45.891  28.543  27.392  1.00  0.00     0.167 HD
ATOM     35  C   UNL A   1      47.194  26.111  26.700  1.00  0.00     0.074 A 
ATOM     36  C   UNL A   1      47.415  24.720  26.362  1.00  0.00     0.031 C 
ATOM     37  C   UNL A   1      48.169  27.053  26.724  1.00  0.00     0.037 A 
BRANCH  24  38
ATOM     38  C   UNL A   1      46.211  32.717  28.240  1.00  0.00     0.058 A 
ATOM     39  C   UNL A   1      46.152  33.675  27.215  1.00  0.00     0.135 A 
ATOM     40  C   UNL A   1      46.562  33.157  29.527  1.00  0.00     0.135 A 
ATOM     41  F   UNL A   1      45.842  33.305  25.961  1.00  0.00    -0.206 F 
ATOM     42  C   UNL A   1      46.448  35.012  27.451  1.00  0.00     0.059 A 
ATOM     43  C   UNL A   1      46.835  34.496  29.792  1.00  0.00     0.059 A 
ATOM     44  F   UNL A   1      46.639  32.282  30.543  1.00  0.00    -0.206 F 
ATOM     45  C   UNL A   1      46.784  35.414  28.745  1.00  0.00     0.060 A 
BRANCH  45  46
ATOM     46  S   UNL A   1      47.143  37.159  29.033  1.00  0.00     0.124 S 
ATOM     47  O   UNL A   1      48.603  37.161  29.035  1.00  0.00    -0.237 OA
ATOM     48  O   UNL A   1      46.510  37.799  27.884  1.00  0.00    -0.237 OA
ATOM     49  O   UNL A   1      46.515  37.428  30.322  1.00  0.00    -0.744 OA
ENDBRANCH  45  46
ENDBRANCH  24  38
BRANCH  25  50
ATOM     50  C   UNL A   1      43.494  23.193  26.767  1.00  0.00     0.058 A 
ATOM     51  C   UNL A   1      43.438  22.644  25.478  1.00  0.00     0.135 A 
ATOM     52  C   UNL A   1      43.190  22.350  27.848  1.00  0.00     0.135 A 
ATOM     53  F   UNL A   1      43.711  23.412  24.411  1.00  0.00    -0.206 F 
ATOM     54  C   UNL A   1      43.090  21.315  25.264  1.00  0.00     0.059 A 
ATOM     55  C   UNL A   1      42.862  21.011  27.662  1.00  0.00     0.059 A 
ATOM     56  F   UNL A   1      43.242  22.822  29.103  1.00  0.00    -0.206 F 
ATOM     57  C   UNL A   1      42.809  20.504  26.364  1.00  0.00     0.060 A 
BRANCH  57  58
ATOM     58  S   UNL A   1      42.412  18.765  26.075  1.00  0.00     0.124 S 
ATOM     59  O   UNL A   1      43.360  18.418  25.023  1.00  0.00    -0.237 OA
ATOM     60  O   UNL A   1      42.665  18.174  27.385  1.00  0.00    -0.237 OA
ATOM     61  O   UNL A   1      41.009  18.804  25.672  1.00  0.00    -0.744 OA
ENDBRANCH  57  58
ENDBRANCH  25  50
BRANCH  37  62
ATOM     62  C   UNL A   1      49.569  26.617  26.396  1.00  0.00     0.058 A 
ATOM     63  C   UNL A   1      50.368  25.948  27.335  1.00  0.00     0.135 A 
ATOM     64  C   UNL A   1      50.084  26.793  25.100  1.00  0.00     0.135 A 
ATOM     65  F   UNL A   1      49.922  25.760  28.588  1.00  0.00    -0.206 F 
ATOM     66  C   UNL A   1      51.634  25.480  27.008  1.00  0.00     0.059 A 
ATOM     67  C   UNL A   1      51.339  26.308  24.742  1.00  0.00     0.059 A 
ATOM     68  F   UNL A   1      49.355  27.416  24.160  1.00  0.00    -0.206 F 
ATOM     69  C   UNL A   1      52.109  25.658  25.705  1.00  0.00     0.060 A 
BRANCH  69  70
ATOM     70  S   UNL A   1      53.734  24.997  25.284  1.00  0.00     0.124 S 
ATOM     71  O   UNL A   1      53.477  23.561  25.282  1.00  0.00    -0.237 OA
ATOM     72  O   UNL A   1      53.985  25.599  23.978  1.00  0.00    -0.237 OA
ATOM     73  O   UNL A   1      54.589  25.481  26.365  1.00  0.00    -0.744 OA
ENDBRANCH  69  70
ENDBRANCH  37  62
ENDBRANCH  11  12
ENDBRANCH   4   6
ENDBRANCH   1   2
BRANCH   1  74
ATOM     74  C   UNL A   1      33.860  28.992  26.975  1.00  0.00     0.042 C 
BRANCH  74  75
ATOM     75  C   UNL A   1      33.293  29.804  25.830  1.00  0.00     0.118 C 
BRANCH  75  76
ATOM     76  N   UNL A   1      33.738  29.355  24.521  1.00  0.00    -0.352 N 
ATOM     77  C   UNL A   1      33.231  28.349  23.739  1.00  0.00     0.253 C 
ATOM     78  H   UNL A   1      34.510  29.838  24.145  1.00  0.00     0.163 HD
ATOM     79  O   UNL A   1      33.785  28.062  22.680  1.00  0.00    -0.269 OA
BRANCH  77  80
ATOM     80  C   UNL A   1      32.043  27.582  24.173  1.00  0.00     0.063 A 
ATOM     81  C   UNL A   1      30.802  28.123  23.805  1.00  0.00     0.016 A 
ATOM     82  C   UNL A   1      32.122  26.397  24.934  1.00  0.00     0.051 A 
ATOM     83  C   UNL A   1      29.623  27.475  24.157  1.00  0.00     0.001 A 
ATOM     84  C   UNL A   1      30.912  25.747  25.273  1.00  0.00    -0.017 A 
ATOM     85  N   UNL A   1      33.341  25.828  25.304  1.00  0.00    -0.377 N 
ATOM     86  C   UNL A   1      29.677  26.292  24.892  1.00  0.00     0.006 A 
ATOM     87  C   UNL A   1      31.040  24.526  26.140  1.00  0.00     0.049 C 
ATOM     88  C   UNL A   1      33.519  24.436  25.759  1.00  0.00     0.115 C 
ATOM     89  H   UNL A   1      34.142  26.398  25.257  1.00  0.00     0.161 HD
ATOM     90  C   UNL A   1      32.204  23.684  25.594  1.00  0.00     0.031 C 
ATOM     91  C   UNL A   1      29.972  23.474  26.182  1.00  0.00    -0.023 C 
ATOM     92  C   UNL A   1      32.029  22.354  26.322  1.00  0.00     0.034 C 
ATOM     93  C   UNL A   1      30.529  22.260  26.324  1.00  0.00    -0.030 C 
BRANCH  88  94
ATOM     94  C   UNL A   1      34.819  23.884  25.148  1.00  0.00    -0.011 A 
ATOM     95  C   UNL A   1      35.947  23.935  26.015  1.00  0.00     0.007 A 
ATOM     96  C   UNL A   1      35.059  23.375  23.854  1.00  0.00     0.023 A 
ATOM     97  C   UNL A   1      37.219  23.500  25.630  1.00  0.00     0.000 A 
ATOM     98  C   UNL A   1      36.333  22.890  23.495  1.00  0.00     0.016 A 
ATOM     99  Br  UNL A   1      33.837  23.338  22.399  1.00  0.00    -0.050 Br
ATOM    100  C   UNL A   1      37.408  22.957  24.372  1.00  0.00     0.001 A 
ENDBRANCH  88  94
ENDBRANCH  77  80
ENDBRANCH  75  76
ENDBRANCH  74  75
ENDBRANCH   1  74
TORSDOF 14
ENDMDL
MODEL 2
REMARK VINA RESULT:     -13.2      6.448     11.712
REMARK SMILES O=C(NCCCNC(=O)c1cccc2c1N[C@H](c1ccccc1Br)[C@H]1CC=C[C@H]21)c1ccc(-c2c3nc(c(-c4c(F)cc(S(=O)(=O)[O-])cc4F)c4ccc([nH]4)c(-c4c(F)cc(S(=O)(=O)[O-])cc4F)c4nc(c(-c5c(F)cc(S(=O)(=O)[O-])cc5F)c5ccc2[nH]5)C=C4)C=C3)cc1
REMARK SMILES IDX 4 1 3 2 1 3 2 4 30 6 31 7 95 8 32 9 94 10 33 11 34 12 35 13
REMARK SMILES IDX 88 14 36 15 93 16 87 17 89 18 37 19 92 20 86 21 85 22 38 24
REMARK SMILES IDX 72 25 51 26 71 27 52 28 55 29 70 30 90 31 53 32 54 33 69 35
REMARK SMILES IDX 91 36 56 37 39 38 40 39 49 40 41 41 42 42 48 43 50 44 43 45
REMARK SMILES IDX 44 46 45 47 46 48 47 49 73 50 74 51 83 52 75 53 76 54 82 55
REMARK SMILES IDX 84 56 77 57 78 58 79 59 80 60 81 61 57 62 58 63 67 64 59 65
REMARK SMILES IDX 60 66 66 67 68 68 61 69 62 70 63 71 64 72 65 73 5 74 6 75
REMARK SMILES IDX 7 76 8 77 9 79 10 80 11 81 15 82 12 83 14 84 16 85 13 86
REMARK SMILES IDX 29 87 17 88 25 90 28 91 26 92 27 93 18 94 19 95 23 96 20 97
REMARK SMILES IDX 22 98 24 99 21 100
REMARK H PARENT 3 5 89 23 55 34 7 78 16 89
REMARK Flexibility Score: inf
ROOT
ATOM      1  C   UNL A   1      39.928  23.059  27.030  1.00  0.00     0.118 C 
ENDROOT
BRANCH   1   2
ATOM      2  N   UNL A   1      41.034  23.511  26.195  1.00  0.00    -0.352 N 
ATOM      3  O   UNL A   1      42.548  24.921  25.315  1.00  0.00    -0.269 OA
ATOM      4  C   UNL A   1      41.747  24.684  26.216  1.00  0.00     0.251 C 
ATOM      5  H   UNL A   1      41.316  22.870  25.502  1.00  0.00     0.163 HD
BRANCH   4   6
ATOM      6  C   UNL A   1      41.541  25.671  27.300  1.00  0.00     0.039 A 
ATOM      7  C   UNL A   1      42.358  26.803  27.349  1.00  0.00     0.014 A 
ATOM      8  C   UNL A   1      40.569  25.476  28.283  1.00  0.00     0.014 A 
ATOM      9  C   UNL A   1      42.172  27.752  28.358  1.00  0.00     0.010 A 
ATOM     10  C   UNL A   1      40.303  26.475  29.210  1.00  0.00     0.010 A 
ATOM     11  C   UNL A   1      41.128  27.605  29.284  1.00  0.00    -0.014 A 
BRANCH  11  12
ATOM     12  C   UNL A   1      40.939  28.561  30.405  1.00  0.00     0.031 A 
ATOM     13  C   UNL A   1      41.840  28.468  31.611  1.00  0.00     0.074 A 
ATOM     14  C   UNL A   1      39.951  29.477  30.363  1.00  0.00     0.049 A 
ATOM     15  N   UNL A   1      41.789  29.131  32.736  1.00  0.00    -0.248 NA
ATOM     16  C   UNL A   1      42.923  27.469  31.557  1.00  0.00     0.031 C 
ATOM     17  C   UNL A   1      38.999  29.649  29.264  1.00  0.00     0.029 A 
ATOM     18  N   UNL A   1      39.586  30.437  31.273  1.00  0.00    -0.354 N 
ATOM     19  C   UNL A   1      42.813  28.619  33.523  1.00  0.00     0.074 A 
ATOM     20  C   UNL A   1      43.425  27.542  32.780  1.00  0.00     0.031 C 
ATOM     21  C   UNL A   1      38.184  30.679  29.547  1.00  0.00     0.029 A 
ATOM     22  C   UNL A   1      38.525  31.211  30.863  1.00  0.00     0.049 A 
ATOM     23  H   UNL A   1      40.040  30.561  32.137  1.00  0.00     0.167 HD
ATOM     24  C   UNL A   1      43.235  29.033  34.741  1.00  0.00     0.037 A 
ATOM     25  C   UNL A   1      37.898  32.230  31.482  1.00  0.00     0.037 A 
ATOM     26  C   UNL A   1      42.657  30.139  35.453  1.00  0.00     0.049 A 
ATOM     27  C   UNL A   1      38.375  32.663  32.843  1.00  0.00     0.074 A 
ATOM     28  C   UNL A   1      43.040  30.669  36.672  1.00  0.00     0.029 A 
ATOM     29  N   UNL A   1      41.583  30.893  35.006  1.00  0.00    -0.354 N 
ATOM     30  N   UNL A   1      39.363  32.185  33.561  1.00  0.00    -0.248 NA
ATOM     31  C   UNL A   1      37.651  33.773  33.480  1.00  0.00     0.031 C 
ATOM     32  C   UNL A   1      42.172  31.720  36.980  1.00  0.00     0.029 A 
ATOM     33  C   UNL A   1      41.278  31.875  35.931  1.00  0.00     0.049 A 
ATOM     34  H   UNL A   1      41.108  30.750  34.156  1.00  0.00     0.167 HD
ATOM     35  C   UNL A   1      39.394  32.949  34.723  1.00  0.00     0.074 A 
ATOM     36  C   UNL A   1      38.335  33.930  34.606  1.00  0.00     0.031 C 
ATOM     37  C   UNL A   1      40.223  32.846  35.791  1.00  0.00     0.037 A 
BRANCH  24  38
ATOM     38  C   UNL A   1      44.394  28.304  35.364  1.00  0.00     0.058 A 
ATOM     39  C   UNL A   1      45.720  28.709  35.143  1.00  0.00     0.135 A 
ATOM     40  C   UNL A   1      44.177  27.217  36.226  1.00  0.00     0.135 A 
ATOM     41  F   UNL A   1      45.987  29.730  34.311  1.00  0.00    -0.206 F 
ATOM     42  C   UNL A   1      46.791  28.050  35.737  1.00  0.00     0.059 A 
ATOM     43  C   UNL A   1      45.232  26.561  36.854  1.00  0.00     0.059 A 
ATOM     44  F   UNL A   1      42.929  26.785  36.468  1.00  0.00    -0.206 F 
ATOM     45  C   UNL A   1      46.536  26.980  36.595  1.00  0.00     0.060 A 
BRANCH  45  46
ATOM     46  S   UNL A   1      47.939  26.153  37.374  1.00  0.00     0.124 S 
ATOM     47  O   UNL A   1      47.776  26.552  38.769  1.00  0.00    -0.237 OA
ATOM     48  O   UNL A   1      47.671  24.748  37.082  1.00  0.00    -0.237 OA
ATOM     49  O   UNL A   1      49.094  26.724  36.690  1.00  0.00    -0.744 OA
ENDBRANCH  45  46
ENDBRANCH  24  38
BRANCH  25  50
ATOM     50  C   UNL A   1      36.775  32.933  30.805  1.00  0.00     0.058 A 
ATOM     51  C   UNL A   1      35.445  32.677  31.170  1.00  0.00     0.135 A 
ATOM     52  C   UNL A   1      37.004  33.888  29.802  1.00  0.00     0.135 A 
ATOM     53  F   UNL A   1      35.174  31.766  32.117  1.00  0.00    -0.206 F 
ATOM     54  C   UNL A   1      34.382  33.334  30.561  1.00  0.00     0.059 A 
ATOM     55  C   UNL A   1      35.959  34.577  29.195  1.00  0.00     0.059 A 
ATOM     56  F   UNL A   1      38.259  34.180  29.426  1.00  0.00    -0.206 F 
ATOM     57  C   UNL A   1      34.649  34.288  29.578  1.00  0.00     0.060 A 
BRANCH  57  58
ATOM     58  S   UNL A   1      33.261  35.175  28.836  1.00  0.00     0.124 S 
ATOM     59  O   UNL A   1      33.944  36.245  28.120  1.00  0.00    -0.237 OA
ATOM     60  O   UNL A   1      32.648  34.141  28.008  1.00  0.00    -0.237 OA
ATOM     61  O   UNL A   1      32.473  35.592  29.992  1.00  0.00    -0.744 OA
ENDBRANCH  57  58
ENDBRANCH  25  50
BRANCH  37  62
ATOM     62  C   UNL A   1      40.037  33.827  36.915  1.00  0.00     0.058 A 
ATOM     63  C   UNL A   1      40.734  35.044  36.949  1.00  0.00     0.135 A 
ATOM     64  C   UNL A   1      39.086  33.584  37.922  1.00  0.00     0.135 A 
ATOM     65  F   UNL A   1      41.656  35.320  36.013  1.00  0.00    -0.206 F 
ATOM     66  C   UNL A   1      40.507  35.982  37.949  1.00  0.00     0.059 A 
ATOM     67  C   UNL A   1      38.823  34.521  38.917  1.00  0.00     0.059 A 
ATOM     68  F   UNL A   1      38.383  32.440  37.928  1.00  0.00    -0.206 F 
ATOM     69  C   UNL A   1      39.543  35.714  38.925  1.00  0.00     0.060 A 
BRANCH  69  70
ATOM     70  S   UNL A   1      39.224  36.966  40.185  1.00  0.00     0.124 S 
ATOM     71  O   UNL A   1      38.572  38.012  39.404  1.00  0.00    -0.237 OA
ATOM     72  O   UNL A   1      38.369  36.250  41.126  1.00  0.00    -0.237 OA
ATOM     73  O   UNL A   1      40.558  37.295  40.683  1.00  0.00    -0.744 OA
ENDBRANCH  69  70
ENDBRANCH  37  62
ENDBRANCH  11  12
ENDBRANCH   4   6
ENDBRANCH   1   2
BRANCH   1  74
ATOM     74  C   UNL A   1      38.819  22.380  26.244  1.00  0.00     0.042 C 
BRANCH  74  75
ATOM     75  C   UNL A   1      37.673  23.300  25.883  1.00  0.00     0.118 C 
BRANCH  75  76
ATOM     76  N   UNL A   1      37.463  23.436  24.451  1.00  0.00    -0.352 N 
ATOM     77  C   UNL A   1      36.420  22.978  23.687  1.00  0.00     0.253 C 
ATOM     78  H   UNL A   1      38.167  23.921  23.962  1.00  0.00     0.163 HD
ATOM     79  O   UNL A   1      36.447  23.128  22.468  1.00  0.00    -0.269 OA
BRANCH  77  80
ATOM     80  C   UNL A   1      35.278  22.276  24.314  1.00  0.00     0.063 A 
ATOM     81  C   UNL A   1      35.514  20.943  24.685  1.00  0.00     0.016 A 
ATOM     82  C   UNL A   1      34.016  22.873  24.510  1.00  0.00     0.051 A 
ATOM     83  C   UNL A   1      34.508  20.197  25.289  1.00  0.00     0.001 A 
ATOM     84  C   UNL A   1      33.009  22.100  25.136  1.00  0.00    -0.017 A 
ATOM     85  N   UNL A   1      33.756  24.199  24.163  1.00  0.00    -0.377 N 
ATOM     86  C   UNL A   1      33.258  20.772  25.511  1.00  0.00     0.006 A 
ATOM     87  C   UNL A   1      31.662  22.753  25.264  1.00  0.00     0.049 C 
ATOM     88  C   UNL A   1      32.618  24.993  24.661  1.00  0.00     0.115 C 
ATOM     89  H   UNL A   1      34.379  24.637  23.540  1.00  0.00     0.161 HD
ATOM     90  C   UNL A   1      31.884  24.199  25.735  1.00  0.00     0.031 C 
ATOM     91  C   UNL A   1      30.666  22.308  26.293  1.00  0.00    -0.023 C 
ATOM     92  C   UNL A   1      30.480  24.642  26.139  1.00  0.00     0.034 C 
ATOM     93  C   UNL A   1      29.977  23.365  26.753  1.00  0.00    -0.030 C 
BRANCH  88  94
ATOM     94  C   UNL A   1      33.107  26.425  24.944  1.00  0.00    -0.011 A 
ATOM     95  C   UNL A   1      33.144  26.776  26.323  1.00  0.00     0.007 A 
ATOM     96  C   UNL A   1      33.484  27.441  24.039  1.00  0.00     0.023 A 
ATOM     97  C   UNL A   1      33.540  28.039  26.773  1.00  0.00     0.000 A 
ATOM     98  C   UNL A   1      33.932  28.693  24.506  1.00  0.00     0.016 A 
ATOM     99  Br  UNL A   1      33.373  27.378  22.143  1.00  0.00    -0.050 Br
ATOM    100  C   UNL A   1      33.954  28.994  25.863  1.00  0.00     0.001 A 
ENDBRANCH  88  94
ENDBRANCH  77  80
ENDBRANCH  75  76
ENDBRANCH  74  75
ENDBRANCH   1  74
TORSDOF 14
ENDMDL
MODEL 3
REMARK VINA RESULT:     -13.1      1.300      2.026
REMARK SMILES O=C(NCCCNC(=O)c1cccc2c1N[C@H](c1ccccc1Br)[C@H]1CC=C[C@H]21)c1ccc(-c2c3nc(c(-c4c(F)cc(S(=O)(=O)[O-])cc4F)c4ccc([nH]4)c(-c4c(F)cc(S(=O)(=O)[O-])cc4F)c4nc(c(-c5c(F)cc(S(=O)(=O)[O-])cc5F)c5ccc2[nH]5)C=C4)C=C3)cc1
REMARK SMILES IDX 4 1 3 2 1 3 2 4 30 6 31 7 95 8 32 9 94 10 33 11 34 12 35 13
REMARK SMILES IDX 88 14 36 15 93 16 87 17 89 18 37 19 92 20 86 21 85 22 38 24
REMARK SMILES IDX 72 25 51 26 71 27 52 28 55 29 70 30 90 31 53 32 54 33 69 35
REMARK SMILES IDX 91 36 56 37 39 38 40 39 49 40 41 41 42 42 48 43 50 44 43 45
REMARK SMILES IDX 44 46 45 47 46 48 47 49 73 50 74 51 83 52 75 53 76 54 82 55
REMARK SMILES IDX 84 56 77 57 78 58 79 59 80 60 81 61 57 62 58 63 67 64 59 65
REMARK SMILES IDX 60 66 66 67 68 68 61 69 62 70 63 71 64 72 65 73 5 74 6 75
REMARK SMILES IDX 7 76 8 77 9 79 10 80 11 81 15 82 12 83 14 84 16 85 13 86
REMARK SMILES IDX 29 87 17 88 25 90 28 91 26 92 27 93 18 94 19 95 23 96 20 97
REMARK SMILES IDX 22 98 24 99 21 100
REMARK H PARENT 3 5 89 23 55 34 7 78 16 89
REMARK Flexibility Score: inf
ROOT
ATOM      1  C   UNL A   1      35.704  31.222  28.161  1.00  0.00     0.118 C 
ENDROOT
BRANCH   1   2
ATOM      2  N   UNL A   1      35.568  30.846  29.563  1.00  0.00    -0.352 N 
ATOM      3  O   UNL A   1      36.034  29.809  31.502  1.00  0.00    -0.269 OA
ATOM      4  C   UNL A   1      36.417  30.146  30.385  1.00  0.00     0.251 C 
ATOM      5  H   UNL A   1      34.732  31.142  29.989  1.00  0.00     0.163 HD
BRANCH   4   6
ATOM      6  C   UNL A   1      37.776  29.778  29.928  1.00  0.00     0.039 A 
ATOM      7  C   UNL A   1      38.056  29.792  28.559  1.00  0.00     0.014 A 
ATOM      8  C   UNL A   1      38.766  29.394  30.834  1.00  0.00     0.014 A 
ATOM      9  C   UNL A   1      39.337  29.459  28.109  1.00  0.00     0.010 A 
ATOM     10  C   UNL A   1      40.068  29.183  30.397  1.00  0.00     0.010 A 
ATOM     11  C   UNL A   1      40.359  29.173  29.027  1.00  0.00    -0.014 A 
BRANCH  11  12
ATOM     12  C   UNL A   1      41.713  28.757  28.583  1.00  0.00     0.031 A 
ATOM     13  C   UNL A   1      42.818  29.783  28.532  1.00  0.00     0.074 A 
ATOM     14  C   UNL A   1      41.945  27.488  28.194  1.00  0.00     0.049 A 
ATOM     15  N   UNL A   1      44.040  29.661  28.085  1.00  0.00    -0.248 NA
ATOM     16  C   UNL A   1      42.493  31.136  29.016  1.00  0.00     0.031 C 
ATOM     17  C   UNL A   1      40.953  26.411  28.174  1.00  0.00     0.029 A 
ATOM     18  N   UNL A   1      43.094  26.889  27.741  1.00  0.00    -0.354 N 
ATOM     19  C   UNL A   1      44.617  30.919  28.217  1.00  0.00     0.074 A 
ATOM     20  C   UNL A   1      43.594  31.807  28.717  1.00  0.00     0.031 C 
ATOM     21  C   UNL A   1      41.546  25.276  27.769  1.00  0.00     0.029 A 
ATOM     22  C   UNL A   1      42.945  25.551  27.458  1.00  0.00     0.049 A 
ATOM     23  H   UNL A   1      43.945  27.371  27.629  1.00  0.00     0.167 HD
ATOM     24  C   UNL A   1      45.896  31.294  27.982  1.00  0.00     0.037 A 
ATOM     25  C   UNL A   1      43.837  24.652  26.998  1.00  0.00     0.037 A 
ATOM     26  C   UNL A   1      46.923  30.395  27.535  1.00  0.00     0.049 A 
ATOM     27  C   UNL A   1      45.250  25.096  26.728  1.00  0.00     0.074 A 
ATOM     28  C   UNL A   1      48.262  30.664  27.310  1.00  0.00     0.029 A 
ATOM     29  N   UNL A   1      46.731  29.050  27.256  1.00  0.00    -0.354 N 
ATOM     30  N   UNL A   1      45.785  26.283  26.885  1.00  0.00    -0.248 NA
ATOM     31  C   UNL A   1      46.181  24.080  26.217  1.00  0.00     0.031 C 
ATOM     32  C   UNL A   1      48.870  29.489  26.859  1.00  0.00     0.029 A 
ATOM     33  C   UNL A   1      47.922  28.478  26.847  1.00  0.00     0.049 A 
ATOM     34  H   UNL A   1      45.873  28.573  27.338  1.00  0.00     0.167 HD
ATOM     35  C   UNL A   1      47.119  26.152  26.513  1.00  0.00     0.074 A 
ATOM     36  C   UNL A   1      47.313  24.767  26.138  1.00  0.00     0.031 C 
ATOM     37  C   UNL A   1      48.094  27.094  26.483  1.00  0.00     0.037 A 
BRANCH  24  38
ATOM     38  C   UNL A   1      46.260  32.732  28.231  1.00  0.00     0.058 A 
ATOM     39  C   UNL A   1      46.147  33.704  27.224  1.00  0.00     0.135 A 
ATOM     40  C   UNL A   1      46.686  33.154  29.501  1.00  0.00     0.135 A 
ATOM     41  F   UNL A   1      45.766  33.352  25.985  1.00  0.00    -0.206 F 
ATOM     42  C   UNL A   1      46.462  35.037  27.460  1.00  0.00     0.059 A 
ATOM     43  C   UNL A   1      46.978  34.488  29.768  1.00  0.00     0.059 A 
ATOM     44  F   UNL A   1      46.816  32.265  30.500  1.00  0.00    -0.206 F 
ATOM     45  C   UNL A   1      46.872  35.420  28.738  1.00  0.00     0.060 A 
BRANCH  45  46
ATOM     46  S   UNL A   1      47.254  37.160  29.029  1.00  0.00     0.124 S 
ATOM     47  O   UNL A   1      48.541  37.067  29.711  1.00  0.00    -0.237 OA
ATOM     48  O   UNL A   1      47.294  37.699  27.672  1.00  0.00    -0.237 OA
ATOM     49  O   UNL A   1      46.141  37.621  29.852  1.00  0.00    -0.744 OA
ENDBRANCH  45  46
ENDBRANCH  24  38
BRANCH  25  50
ATOM     50  C   UNL A   1      43.428  23.236  26.796  1.00  0.00     0.058 A 
ATOM     51  C   UNL A   1      43.291  22.706  25.505  1.00  0.00     0.135 A 
ATOM     52  C   UNL A   1      43.189  22.379  27.882  1.00  0.00     0.135 A 
ATOM     53  F   UNL A   1      43.500  23.488  24.434  1.00  0.00    -0.206 F 
ATOM     54  C   UNL A   1      42.926  21.381  25.294  1.00  0.00     0.059 A 
ATOM     55  C   UNL A   1      42.846  21.043  27.697  1.00  0.00     0.059 A 
ATOM     56  F   UNL A   1      43.319  22.833  29.138  1.00  0.00    -0.206 F 
ATOM     57  C   UNL A   1      42.711  20.555  26.398  1.00  0.00     0.060 A 
BRANCH  57  58
ATOM     58  S   UNL A   1      42.292  18.821  26.110  1.00  0.00     0.124 S 
ATOM     59  O   UNL A   1      42.534  18.237  27.423  1.00  0.00    -0.237 OA
ATOM     60  O   UNL A   1      40.895  18.911  25.697  1.00  0.00    -0.237 OA
ATOM     61  O   UNL A   1      43.223  18.421  25.059  1.00  0.00    -0.744 OA
ENDBRANCH  57  58
ENDBRANCH  25  50
BRANCH  37  62
ATOM     62  C   UNL A   1      49.467  26.663  26.049  1.00  0.00     0.058 A 
ATOM     63  C   UNL A   1      49.909  26.845  24.730  1.00  0.00     0.135 A 
ATOM     64  C   UNL A   1      50.379  26.143  26.983  1.00  0.00     0.135 A 
ATOM     65  F   UNL A   1      49.073  27.333  23.799  1.00  0.00    -0.206 F 
ATOM     66  C   UNL A   1      51.203  26.514  24.347  1.00  0.00     0.059 A 
ATOM     67  C   UNL A   1      51.688  25.832  26.628  1.00  0.00     0.059 A 
ATOM     68  F   UNL A   1      50.010  25.962  28.261  1.00  0.00    -0.206 F 
ATOM     69  C   UNL A   1      52.089  26.015  25.306  1.00  0.00     0.060 A 
BRANCH  69  70
ATOM     70  S   UNL A   1      53.781  25.641  24.802  1.00  0.00     0.124 S 
ATOM     71  O   UNL A   1      53.794  24.184  24.872  1.00  0.00    -0.237 OA
ATOM     72  O   UNL A   1      53.838  26.213  23.460  1.00  0.00    -0.237 OA
ATOM     73  O   UNL A   1      54.594  26.325  25.804  1.00  0.00    -0.744 OA
ENDBRANCH  69  70
ENDBRANCH  37  62
ENDBRANCH  11  12
ENDBRANCH   4   6
ENDBRANCH   1   2
BRANCH   1  74
ATOM     74  C   UNL A   1      34.532  30.780  27.303  1.00  0.00     0.042 C 
BRANCH  74  75
ATOM     75  C   UNL A   1      34.426  29.280  27.135  1.00  0.00     0.118 C 
BRANCH  75  76
ATOM     76  N   UNL A   1      33.325  28.687  27.876  1.00  0.00    -0.352 N 
ATOM     77  C   UNL A   1      32.102  28.273  27.414  1.00  0.00     0.253 C 
ATOM     78  H   UNL A   1      33.476  28.568  28.842  1.00  0.00     0.163 HD
ATOM     79  O   UNL A   1      31.261  27.855  28.206  1.00  0.00    -0.269 OA
BRANCH  77  80
ATOM     80  C   UNL A   1      31.773  28.355  25.973  1.00  0.00     0.063 A 
ATOM     81  C   UNL A   1      31.347  29.612  25.518  1.00  0.00     0.016 A 
ATOM     82  C   UNL A   1      31.845  27.251  25.099  1.00  0.00     0.051 A 
ATOM     83  C   UNL A   1      31.021  29.798  24.179  1.00  0.00     0.001 A 
ATOM     84  C   UNL A   1      31.520  27.464  23.738  1.00  0.00    -0.017 A 
ATOM     85  N   UNL A   1      32.277  25.994  25.519  1.00  0.00    -0.377 N 
ATOM     86  C   UNL A   1      31.104  28.727  23.292  1.00  0.00     0.006 A 
ATOM     87  C   UNL A   1      31.546  26.247  22.857  1.00  0.00     0.049 C 
ATOM     88  C   UNL A   1      32.730  24.914  24.622  1.00  0.00     0.115 C 
ATOM     89  H   UNL A   1      32.280  25.813  26.487  1.00  0.00     0.161 HD
ATOM     90  C   UNL A   1      32.814  25.448  23.198  1.00  0.00     0.031 C 
ATOM     91  C   UNL A   1      31.714  26.355  21.370  1.00  0.00    -0.023 C 
ATOM     92  C   UNL A   1      32.903  24.448  22.048  1.00  0.00     0.034 C 
ATOM     93  C   UNL A   1      32.442  25.322  20.915  1.00  0.00    -0.030 C 
BRANCH  88  94
ATOM     94  C   UNL A   1      33.939  24.215  25.269  1.00  0.00    -0.011 A 
ATOM     95  C   UNL A   1      35.178  24.443  24.607  1.00  0.00     0.007 A 
ATOM     96  C   UNL A   1      33.988  23.359  26.391  1.00  0.00     0.023 A 
ATOM     97  C   UNL A   1      36.382  23.876  25.034  1.00  0.00     0.000 A 
ATOM     98  C   UNL A   1      35.216  22.835  26.844  1.00  0.00     0.016 A 
ATOM     99  Br  UNL A   1      32.511  22.698  27.386  1.00  0.00    -0.050 Br
ATOM    100  C   UNL A   1      36.404  23.084  26.168  1.00  0.00     0.001 A 
ENDBRANCH  88  94
ENDBRANCH  77  80
ENDBRANCH  75  76
ENDBRANCH  74  75
ENDBRANCH   1  74
TORSDOF 14
ENDMDL
