MODEL 1
REMARK VINA RESULT:     -10.0      0.000      0.000
REMARK SMILES C[C@@H](C(=O)NCCCNC(=O)c1ccc(-c2c3nc(c(-c4c(F)cc(S(=O)(=O)[O-])cc4F)c4ccc([nH]4)c(-c4c(F)cc(S(=O)(=O)[O-])cc4F)c4nc(c(-c5c(F)cc(S(=O)(=O)[O-])cc5F)c5ccc2[nH]5)C=C4)C=C3)cc1)c1ccc2c3cc(Cl)ccc3n(C(=O)c3ccc(Cl)cc3)c2c1
REMARK SMILES IDX 7 1 6 2 5 3 3 4 4 5 2 7 1 8 78 9 79 10 100 11 80 12 99 13
REMARK SMILES IDX 81 14 89 15 82 16 88 17 83 18 87 19 84 20 86 21 85 22 90 23
REMARK SMILES IDX 91 24 92 25 93 26 98 27 94 28 97 29 95 30 96 31 8 32 9 33
REMARK SMILES IDX 10 34 11 36 12 37 13 38 77 39 14 40 76 41 15 42 16 43 17 44
REMARK SMILES IDX 70 45 18 46 75 47 69 48 71 49 19 50 74 51 68 52 67 53 20 55
REMARK SMILES IDX 54 56 33 57 53 58 34 59 37 60 52 61 72 62 35 63 36 64 51 66
REMARK SMILES IDX 73 67 38 68 21 69 22 70 31 71 23 72 24 73 30 74 32 75 25 76
REMARK SMILES IDX 26 77 27 78 28 79 29 80 55 81 56 82 65 83 57 84 58 85 64 86
REMARK SMILES IDX 66 87 59 88 60 89 61 90 62 91 63 92 39 93 40 94 49 95 41 96
REMARK SMILES IDX 42 97 48 98 50 99 43 100 44 101 45 102 46 103 47 104
REMARK H PARENT 5 6 9 35 71 54 37 65
REMARK Flexibility Score: inf
ROOT
ATOM      1  C   UNL A   1      35.750  33.173  28.399  1.00  0.00     0.042 C 
ENDROOT
BRANCH   1   2
ATOM      2  C   UNL A   1      36.932  33.743  29.179  1.00  0.00     0.117 C 
BRANCH   2   3
ATOM      3  N   UNL A   1      36.491  34.342  30.422  1.00  0.00    -0.356 N 
ATOM      4  C   UNL A   1      36.576  33.863  31.696  1.00  0.00     0.227 C 
ATOM      5  O   UNL A   1      35.953  34.478  32.564  1.00  0.00    -0.274 OA
ATOM      6  H   UNL A   1      36.068  35.227  30.333  1.00  0.00     0.163 HD
BRANCH   4   7
ATOM      7  C   UNL A   1      37.458  32.640  31.991  1.00  0.00     0.105 C 
ATOM      8  C   UNL A   1      36.659  31.426  32.475  1.00  0.00     0.023 C 
BRANCH   7   9
ATOM      9  C   UNL A   1      38.580  32.982  32.965  1.00  0.00    -0.034 A 
ATOM     10  C   UNL A   1      39.095  34.275  33.069  1.00  0.00     0.005 A 
ATOM     11  C   UNL A   1      39.133  31.955  33.748  1.00  0.00     0.032 A 
ATOM     12  C   UNL A   1      40.062  34.584  34.023  1.00  0.00     0.011 A 
ATOM     13  C   UNL A   1      40.181  32.250  34.644  1.00  0.00     0.057 A 
ATOM     14  C   UNL A   1      40.591  33.562  34.836  1.00  0.00     0.008 A 
ATOM     15  N   UNL A   1      40.961  31.413  35.463  1.00  0.00    -0.276 N 
ATOM     16  C   UNL A   1      41.549  33.560  35.877  1.00  0.00     0.009 A 
ATOM     17  C   UNL A   1      41.861  32.225  36.173  1.00  0.00     0.057 A 
ATOM     18  C   UNL A   1      42.224  34.615  36.526  1.00  0.00     0.031 A 
ATOM     19  C   UNL A   1      42.976  31.939  36.988  1.00  0.00     0.029 A 
ATOM     20  C   UNL A   1      43.268  34.321  37.392  1.00  0.00     0.041 A 
ATOM     21  C   UNL A   1      43.663  33.006  37.593  1.00  0.00     0.023 A 
ATOM     22  Cl  UNL A   1      44.100  35.608  38.176  1.00  0.00    -0.084 Cl
BRANCH  15  23
ATOM     23  C   UNL A   1      40.838  29.994  35.448  1.00  0.00     0.262 C 
ATOM     24  O   UNL A   1      40.028  29.517  36.246  1.00  0.00    -0.268 OA
BRANCH  23  25
ATOM     25  C   UNL A   1      41.576  28.971  34.649  1.00  0.00     0.040 A 
ATOM     26  C   UNL A   1      41.709  27.691  35.234  1.00  0.00     0.015 A 
ATOM     27  C   UNL A   1      42.269  29.234  33.465  1.00  0.00     0.015 A 
ATOM     28  C   UNL A   1      42.505  26.702  34.657  1.00  0.00     0.021 A 
ATOM     29  C   UNL A   1      43.045  28.226  32.866  1.00  0.00     0.021 A 
ATOM     30  C   UNL A   1      43.167  26.972  33.468  1.00  0.00     0.041 A 
ATOM     31  Cl  UNL A   1      44.168  25.766  32.760  1.00  0.00    -0.084 Cl
ENDBRANCH  23  25
ENDBRANCH  15  23
ENDBRANCH   7   9
ENDBRANCH   4   7
ENDBRANCH   2   3
ENDBRANCH   1   2
BRANCH   1  32
ATOM     32  C   UNL A   1      34.713  32.486  29.281  1.00  0.00     0.118 C 
BRANCH  32  33
ATOM     33  N   UNL A   1      34.016  31.417  28.581  1.00  0.00    -0.352 N 
ATOM     34  C   UNL A   1      34.517  30.281  27.996  1.00  0.00     0.251 C 
ATOM     35  H   UNL A   1      33.040  31.526  28.518  1.00  0.00     0.163 HD
ATOM     36  O   UNL A   1      33.800  29.615  27.258  1.00  0.00    -0.269 OA
BRANCH  34  37
ATOM     37  C   UNL A   1      35.917  29.874  28.245  1.00  0.00     0.039 A 
ATOM     38  C   UNL A   1      36.856  30.023  27.221  1.00  0.00     0.014 A 
ATOM     39  C   UNL A   1      36.299  29.328  29.473  1.00  0.00     0.014 A 
ATOM     40  C   UNL A   1      38.189  29.674  27.449  1.00  0.00     0.010 A 
ATOM     41  C   UNL A   1      37.642  29.060  29.726  1.00  0.00     0.010 A 
ATOM     42  C   UNL A   1      38.599  29.221  28.714  1.00  0.00    -0.014 A 
BRANCH  42  43
ATOM     43  C   UNL A   1      40.021  28.898  28.994  1.00  0.00     0.031 A 
ATOM     44  C   UNL A   1      40.933  29.947  29.570  1.00  0.00     0.074 A 
ATOM     45  C   UNL A   1      40.505  27.683  28.670  1.00  0.00     0.049 A 
ATOM     46  N   UNL A   1      42.217  29.881  29.814  1.00  0.00    -0.248 NA
ATOM     47  C   UNL A   1      40.329  31.251  29.889  1.00  0.00     0.031 C 
ATOM     48  C   UNL A   1      39.729  26.597  28.066  1.00  0.00     0.029 A 
ATOM     49  N   UNL A   1      41.768  27.158  28.792  1.00  0.00    -0.354 N 
ATOM     50  C   UNL A   1      42.575  31.133  30.300  1.00  0.00     0.074 A 
ATOM     51  C   UNL A   1      41.386  31.956  30.260  1.00  0.00     0.031 C 
ATOM     52  C   UNL A   1      40.527  25.531  27.889  1.00  0.00     0.029 A 
ATOM     53  C   UNL A   1      41.878  25.870  28.325  1.00  0.00     0.049 A 
ATOM     54  H   UNL A   1      42.523  27.658  29.177  1.00  0.00     0.167 HD
ATOM     55  C   UNL A   1      43.779  31.554  30.757  1.00  0.00     0.037 A 
ATOM     56  C   UNL A   1      42.949  25.056  28.246  1.00  0.00     0.037 A 
ATOM     57  C   UNL A   1      44.953  30.721  30.807  1.00  0.00     0.049 A 
ATOM     58  C   UNL A   1      44.280  25.546  28.747  1.00  0.00     0.074 A 
ATOM     59  C   UNL A   1      46.207  31.032  31.303  1.00  0.00     0.029 A 
ATOM     60  N   UNL A   1      45.021  29.417  30.339  1.00  0.00    -0.354 N 
ATOM     61  N   UNL A   1      44.587  26.714  29.262  1.00  0.00    -0.248 NA
ATOM     62  C   UNL A   1      45.409  24.610  28.664  1.00  0.00     0.031 C 
ATOM     63  C   UNL A   1      47.048  29.936  31.085  1.00  0.00     0.029 A 
ATOM     64  C   UNL A   1      46.303  28.917  30.511  1.00  0.00     0.049 A 
ATOM     65  H   UNL A   1      44.270  28.919  29.943  1.00  0.00     0.167 HD
ATOM     66  C   UNL A   1      45.937  26.641  29.590  1.00  0.00     0.074 A 
ATOM     67  C   UNL A   1      46.382  25.312  29.227  1.00  0.00     0.031 C 
ATOM     68  C   UNL A   1      46.733  27.588  30.147  1.00  0.00     0.037 A 
BRANCH  55  69
ATOM     69  C   UNL A   1      43.886  32.978  31.234  1.00  0.00     0.058 A 
ATOM     70  C   UNL A   1      43.689  33.324  32.582  1.00  0.00     0.135 A 
ATOM     71  C   UNL A   1      44.214  34.009  30.339  1.00  0.00     0.135 A 
ATOM     72  F   UNL A   1      43.360  32.383  33.482  1.00  0.00    -0.206 F 
ATOM     73  C   UNL A   1      43.774  34.643  33.016  1.00  0.00     0.059 A 
ATOM     74  C   UNL A   1      44.338  35.330  30.756  1.00  0.00     0.059 A 
ATOM     75  F   UNL A   1      44.416  33.737  29.040  1.00  0.00    -0.206 F 
ATOM     76  C   UNL A   1      44.098  35.640  32.095  1.00  0.00     0.060 A 
BRANCH  76  77
ATOM     77  S   UNL A   1      44.199  37.346  32.674  1.00  0.00     0.124 S 
ATOM     78  O   UNL A   1      43.227  37.342  33.763  1.00  0.00    -0.237 OA
ATOM     79  O   UNL A   1      45.598  37.457  33.074  1.00  0.00    -0.237 OA
ATOM     80  O   UNL A   1      43.821  38.128  31.500  1.00  0.00    -0.744 OA
ENDBRANCH  76  77
ENDBRANCH  55  69
BRANCH  56  81
ATOM     81  C   UNL A   1      42.797  23.687  27.685  1.00  0.00     0.058 A 
ATOM     82  C   UNL A   1      42.549  22.587  28.520  1.00  0.00     0.135 A 
ATOM     83  C   UNL A   1      42.868  23.452  26.302  1.00  0.00     0.135 A 
ATOM     84  F   UNL A   1      42.478  22.757  29.850  1.00  0.00    -0.206 F 
ATOM     85  C   UNL A   1      42.389  21.304  28.009  1.00  0.00     0.059 A 
ATOM     86  C   UNL A   1      42.683  22.183  25.765  1.00  0.00     0.059 A 
ATOM     87  F   UNL A   1      43.087  24.472  25.458  1.00  0.00    -0.206 F 
ATOM     88  C   UNL A   1      42.451  21.112  26.627  1.00  0.00     0.060 A 
BRANCH  88  89
ATOM     89  S   UNL A   1      42.179  19.452  25.971  1.00  0.00     0.124 S 
ATOM     90  O   UNL A   1      40.738  19.455  25.751  1.00  0.00    -0.237 OA
ATOM     91  O   UNL A   1      43.009  19.458  24.771  1.00  0.00    -0.237 OA
ATOM     92  O   UNL A   1      42.652  18.585  27.046  1.00  0.00    -0.744 OA
ENDBRANCH  88  89
ENDBRANCH  56  81
BRANCH  68  93
ATOM     93  C   UNL A   1      48.162  27.215  30.434  1.00  0.00     0.058 A 
ATOM     94  C   UNL A   1      49.190  27.443  29.506  1.00  0.00     0.135 A 
ATOM     95  C   UNL A   1      48.514  26.671  31.680  1.00  0.00     0.135 A 
ATOM     96  F   UNL A   1      48.907  27.955  28.297  1.00  0.00    -0.206 F 
ATOM     97  C   UNL A   1      50.513  27.125  29.794  1.00  0.00     0.059 A 
ATOM     98  C   UNL A   1      49.835  26.374  32.002  1.00  0.00     0.059 A 
ATOM     99  F   UNL A   1      47.573  26.441  32.610  1.00  0.00    -0.206 F 
ATOM    100  C   UNL A   1      50.827  26.594  31.047  1.00  0.00     0.060 A 
BRANCH 100 101
ATOM    101  S   UNL A   1      52.552  26.219  31.420  1.00  0.00     0.124 S 
ATOM    102  O   UNL A   1      53.168  26.326  30.102  1.00  0.00    -0.237 OA
ATOM    103  O   UNL A   1      52.901  27.269  32.371  1.00  0.00    -0.237 OA
ATOM    104  O   UNL A   1      52.495  24.870  31.978  1.00  0.00    -0.744 OA
ENDBRANCH 100 101
ENDBRANCH  68  93
ENDBRANCH  42  43
ENDBRANCH  34  37
ENDBRANCH  32  33
ENDBRANCH   1  32
TORSDOF 16
ENDMDL
MODEL 2
REMARK VINA RESULT:      -9.4      4.291     11.364
REMARK SMILES C[C@@H](C(=O)NCCCNC(=O)c1ccc(-c2c3nc(c(-c4c(F)cc(S(=O)(=O)[O-])cc4F)c4ccc([nH]4)c(-c4c(F)cc(S(=O)(=O)[O-])cc4F)c4nc(c(-c5c(F)cc(S(=O)(=O)[O-])cc5F)c5ccc2[nH]5)C=C4)C=C3)cc1)c1ccc2c3cc(Cl)ccc3n(C(=O)c3ccc(Cl)cc3)c2c1
REMARK SMILES IDX 7 1 6 2 5 3 3 4 4 5 2 7 1 8 78 9 79 10 100 11 80 12 99 13
REMARK SMILES IDX 81 14 89 15 82 16 88 17 83 18 87 19 84 20 86 21 85 22 90 23
REMARK SMILES IDX 91 24 92 25 93 26 98 27 94 28 97 29 95 30 96 31 8 32 9 33
REMARK SMILES IDX 10 34 11 36 12 37 13 38 77 39 14 40 76 41 15 42 16 43 17 44
REMARK SMILES IDX 70 45 18 46 75 47 69 48 71 49 19 50 74 51 68 52 67 53 20 55
REMARK SMILES IDX 54 56 33 57 53 58 34 59 37 60 52 61 72 62 35 63 36 64 51 66
REMARK SMILES IDX 73 67 38 68 21 69 22 70 31 71 23 72 24 73 30 74 32 75 25 76
REMARK SMILES IDX 26 77 27 78 28 79 29 80 55 81 56 82 65 83 57 84 58 85 64 86
REMARK SMILES IDX 66 87 59 88 60 89 61 90 62 91 63 92 39 93 40 94 49 95 41 96
REMARK SMILES IDX 42 97 48 98 50 99 43 100 44 101 45 102 46 103 47 104
REMARK H PARENT 5 6 9 35 71 54 37 65
REMARK Flexibility Score: inf
ROOT
ATOM      1  C   UNL A   1      41.567  21.974  27.940  1.00  0.00     0.042 C 
ENDROOT
BRANCH   1   2
ATOM      2  C   UNL A   1      42.402  21.565  26.729  1.00  0.00     0.117 C 
BRANCH   2   3
ATOM      3  N   UNL A   1      43.816  21.726  26.997  1.00  0.00    -0.356 N 
ATOM      4  C   UNL A   1      44.744  22.486  26.346  1.00  0.00     0.227 C 
ATOM      5  O   UNL A   1      45.925  22.303  26.649  1.00  0.00    -0.274 OA
ATOM      6  H   UNL A   1      44.159  21.210  27.762  1.00  0.00     0.163 HD
BRANCH   4   7
ATOM      7  C   UNL A   1      44.283  23.540  25.328  1.00  0.00     0.105 C 
ATOM      8  C   UNL A   1      44.882  23.328  23.933  1.00  0.00     0.023 C 
BRANCH   7   9
ATOM      9  C   UNL A   1      44.548  24.955  25.830  1.00  0.00    -0.034 A 
ATOM     10  C   UNL A   1      44.405  26.069  25.001  1.00  0.00     0.005 A 
ATOM     11  C   UNL A   1      44.986  25.132  27.153  1.00  0.00     0.032 A 
ATOM     12  C   UNL A   1      44.572  27.357  25.503  1.00  0.00     0.011 A 
ATOM     13  C   UNL A   1      45.250  26.432  27.631  1.00  0.00     0.057 A 
ATOM     14  C   UNL A   1      44.975  27.539  26.840  1.00  0.00     0.008 A 
ATOM     15  N   UNL A   1      45.775  26.878  28.858  1.00  0.00    -0.276 N 
ATOM     16  C   UNL A   1      45.210  28.692  27.626  1.00  0.00     0.009 A 
ATOM     17  C   UNL A   1      45.818  28.282  28.822  1.00  0.00     0.057 A 
ATOM     18  C   UNL A   1      45.014  30.062  27.354  1.00  0.00     0.031 A 
ATOM     19  C   UNL A   1      46.396  29.248  29.671  1.00  0.00     0.029 A 
ATOM     20  C   UNL A   1      45.515  31.007  28.239  1.00  0.00     0.041 A 
ATOM     21  C   UNL A   1      46.227  30.609  29.362  1.00  0.00     0.023 A 
ATOM     22  Cl  UNL A   1      45.286  32.680  27.904  1.00  0.00    -0.084 Cl
BRANCH  15  23
ATOM     23  C   UNL A   1      46.229  25.983  29.869  1.00  0.00     0.262 C 
ATOM     24  O   UNL A   1      47.386  25.572  29.742  1.00  0.00    -0.268 OA
BRANCH  23  25
ATOM     25  C   UNL A   1      45.509  25.413  31.046  1.00  0.00     0.040 A 
ATOM     26  C   UNL A   1      45.987  25.793  32.320  1.00  0.00     0.015 A 
ATOM     27  C   UNL A   1      44.527  24.423  30.975  1.00  0.00     0.015 A 
ATOM     28  C   UNL A   1      45.499  25.210  33.489  1.00  0.00     0.021 A 
ATOM     29  C   UNL A   1      44.011  23.859  32.154  1.00  0.00     0.021 A 
ATOM     30  C   UNL A   1      44.505  24.246  33.402  1.00  0.00     0.041 A 
ATOM     31  Cl  UNL A   1      43.911  23.504  34.836  1.00  0.00    -0.084 Cl
ENDBRANCH  23  25
ENDBRANCH  15  23
ENDBRANCH   7   9
ENDBRANCH   4   7
ENDBRANCH   2   3
ENDBRANCH   1   2
BRANCH   1  32
ATOM     32  C   UNL A   1      40.469  22.980  27.611  1.00  0.00     0.118 C 
BRANCH  32  33
ATOM     33  N   UNL A   1      40.773  23.755  26.418  1.00  0.00    -0.352 N 
ATOM     34  C   UNL A   1      40.791  25.116  26.239  1.00  0.00     0.251 C 
ATOM     35  H   UNL A   1      41.001  23.224  25.621  1.00  0.00     0.163 HD
ATOM     36  O   UNL A   1      40.849  25.575  25.104  1.00  0.00    -0.269 OA
BRANCH  34  37
ATOM     37  C   UNL A   1      40.725  26.019  27.408  1.00  0.00     0.039 A 
ATOM     38  C   UNL A   1      41.714  26.993  27.565  1.00  0.00     0.014 A 
ATOM     39  C   UNL A   1      39.705  25.895  28.356  1.00  0.00     0.014 A 
ATOM     40  C   UNL A   1      41.650  27.876  28.645  1.00  0.00     0.010 A 
ATOM     41  C   UNL A   1      39.596  26.828  29.383  1.00  0.00     0.010 A 
ATOM     42  C   UNL A   1      40.572  27.822  29.544  1.00  0.00    -0.014 A 
BRANCH  42  43
ATOM     43  C   UNL A   1      40.454  28.787  30.667  1.00  0.00     0.031 A 
ATOM     44  C   UNL A   1      41.303  28.620  31.899  1.00  0.00     0.074 A 
ATOM     45  C   UNL A   1      39.539  29.774  30.604  1.00  0.00     0.049 A 
ATOM     46  N   UNL A   1      41.293  29.311  33.009  1.00  0.00    -0.248 NA
ATOM     47  C   UNL A   1      42.273  27.512  31.891  1.00  0.00     0.031 C 
ATOM     48  C   UNL A   1      38.628  30.011  29.482  1.00  0.00     0.029 A 
ATOM     49  N   UNL A   1      39.213  30.755  31.507  1.00  0.00    -0.354 N 
ATOM     50  C   UNL A   1      42.239  28.716  33.835  1.00  0.00     0.074 A 
ATOM     51  C   UNL A   1      42.762  27.573  33.120  1.00  0.00     0.031 C 
ATOM     52  C   UNL A   1      37.862  31.080  29.755  1.00  0.00     0.029 A 
ATOM     53  C   UNL A   1      38.195  31.577  31.087  1.00  0.00     0.049 A 
ATOM     54  H   UNL A   1      39.666  30.859  32.375  1.00  0.00     0.167 HD
ATOM     55  C   UNL A   1      42.651  29.100  35.068  1.00  0.00     0.037 A 
ATOM     56  C   UNL A   1      37.590  32.609  31.707  1.00  0.00     0.037 A 
ATOM     57  C   UNL A   1      42.134  30.250  35.763  1.00  0.00     0.049 A 
ATOM     58  C   UNL A   1      38.053  33.011  33.080  1.00  0.00     0.074 A 
ATOM     59  C   UNL A   1      42.521  30.757  36.991  1.00  0.00     0.029 A 
ATOM     60  N   UNL A   1      41.114  31.067  35.298  1.00  0.00    -0.354 N 
ATOM     61  N   UNL A   1      38.994  32.476  33.823  1.00  0.00    -0.248 NA
ATOM     62  C   UNL A   1      37.379  34.159  33.701  1.00  0.00     0.031 C 
ATOM     63  C   UNL A   1      41.700  31.847  37.293  1.00  0.00     0.029 A 
ATOM     64  C   UNL A   1      40.841  32.061  36.225  1.00  0.00     0.049 A 
ATOM     65  H   UNL A   1      40.652  30.959  34.436  1.00  0.00     0.167 HD
ATOM     66  C   UNL A   1      39.044  33.239  34.983  1.00  0.00     0.074 A 
ATOM     67  C   UNL A   1      38.047  34.280  34.840  1.00  0.00     0.031 C 
ATOM     68  C   UNL A   1      39.847  33.095  36.068  1.00  0.00     0.037 A 
BRANCH  55  69
ATOM     69  C   UNL A   1      43.707  28.265  35.742  1.00  0.00     0.058 A 
ATOM     70  C   UNL A   1      45.078  28.522  35.566  1.00  0.00     0.135 A 
ATOM     71  C   UNL A   1      43.347  27.209  36.594  1.00  0.00     0.135 A 
ATOM     72  F   UNL A   1      45.482  29.511  34.751  1.00  0.00    -0.206 F 
ATOM     73  C   UNL A   1      46.051  27.739  36.179  1.00  0.00     0.059 A 
ATOM     74  C   UNL A   1      44.303  26.434  37.244  1.00  0.00     0.059 A 
ATOM     75  F   UNL A   1      42.053  26.919  36.802  1.00  0.00    -0.206 F 
ATOM     76  C   UNL A   1      45.653  26.696  37.016  1.00  0.00     0.060 A 
BRANCH  76  77
ATOM     77  S   UNL A   1      46.929  25.687  37.798  1.00  0.00     0.124 S 
ATOM     78  O   UNL A   1      48.140  26.224  37.187  1.00  0.00    -0.237 OA
ATOM     79  O   UNL A   1      46.744  25.994  39.213  1.00  0.00    -0.237 OA
ATOM     80  O   UNL A   1      46.577  24.326  37.403  1.00  0.00    -0.744 OA
ENDBRANCH  76  77
ENDBRANCH  55  69
BRANCH  56  81
ATOM     81  C   UNL A   1      36.492  33.342  31.022  1.00  0.00     0.058 A 
ATOM     82  C   UNL A   1      36.761  34.210  29.952  1.00  0.00     0.135 A 
ATOM     83  C   UNL A   1      35.151  33.171  31.402  1.00  0.00     0.135 A 
ATOM     84  F   UNL A   1      38.026  34.414  29.556  1.00  0.00    -0.206 F 
ATOM     85  C   UNL A   1      35.743  34.891  29.292  1.00  0.00     0.059 A 
ATOM     86  C   UNL A   1      34.114  33.818  30.738  1.00  0.00     0.059 A 
ATOM     87  F   UNL A   1      34.838  32.339  32.407  1.00  0.00    -0.206 F 
ATOM     88  C   UNL A   1      34.420  34.683  29.689  1.00  0.00     0.060 A 
BRANCH  88  89
ATOM     89  S   UNL A   1      33.104  35.523  28.783  1.00  0.00     0.124 S 
ATOM     90  O   UNL A   1      33.855  36.523  28.031  1.00  0.00    -0.237 OA
ATOM     91  O   UNL A   1      32.528  34.435  28.001  1.00  0.00    -0.237 OA
ATOM     92  O   UNL A   1      32.246  36.045  29.844  1.00  0.00    -0.744 OA
ENDBRANCH  88  89
ENDBRANCH  56  81
BRANCH  68  93
ATOM     93  C   UNL A   1      39.710  34.105  37.174  1.00  0.00     0.058 A 
ATOM     94  C   UNL A   1      38.992  33.829  38.348  1.00  0.00     0.135 A 
ATOM     95  C   UNL A   1      40.356  35.349  37.080  1.00  0.00     0.135 A 
ATOM     96  F   UNL A   1      38.351  32.658  38.487  1.00  0.00    -0.206 F 
ATOM     97  C   UNL A   1      38.900  34.758  39.379  1.00  0.00     0.059 A 
ATOM     98  C   UNL A   1      40.303  36.281  38.111  1.00  0.00     0.059 A 
ATOM     99  F   UNL A   1      41.065  35.662  35.983  1.00  0.00    -0.206 F 
ATOM    100  C   UNL A   1      39.562  35.981  39.253  1.00  0.00     0.060 A 
BRANCH 100 101
ATOM    101  S   UNL A   1      39.463  37.162  40.614  1.00  0.00     0.124 S 
ATOM    102  O   UNL A   1      38.584  36.464  41.546  1.00  0.00    -0.237 OA
ATOM    103  O   UNL A   1      40.858  37.281  41.026  1.00  0.00    -0.237 OA
ATOM    104  O   UNL A   1      38.897  38.355  39.990  1.00  0.00    -0.744 OA
ENDBRANCH 100 101
ENDBRANCH  68  93
ENDBRANCH  42  43
ENDBRANCH  34  37
ENDBRANCH  32  33
ENDBRANCH   1  32
TORSDOF 16
ENDMDL
MODEL 3
REMARK VINA RESULT:      -9.4      3.384     10.536
REMARK SMILES C[C@@H](C(=O)NCCCNC(=O)c1ccc(-c2c3nc(c(-c4c(F)cc(S(=O)(=O)[O-])cc4F)c4ccc([nH]4)c(-c4c(F)cc(S(=O)(=O)[O-])cc4F)c4nc(c(-c5c(F)cc(S(=O)(=O)[O-])cc5F)c5ccc2[nH]5)C=C4)C=C3)cc1)c1ccc2c3cc(Cl)ccc3n(C(=O)c3ccc(Cl)cc3)c2c1
REMARK SMILES IDX 7 1 6 2 5 3 3 4 4 5 2 7 1 8 78 9 79 10 100 11 80 12 99 13
REMARK SMILES IDX 81 14 89 15 82 16 88 17 83 18 87 19 84 20 86 21 85 22 90 23
REMARK SMILES IDX 91 24 92 25 93 26 98 27 94 28 97 29 95 30 96 31 8 32 9 33
REMARK SMILES IDX 10 34 11 36 12 37 13 38 77 39 14 40 76 41 15 42 16 43 17 44
REMARK SMILES IDX 70 45 18 46 75 47 69 48 71 49 19 50 74 51 68 52 67 53 20 55
REMARK SMILES IDX 54 56 33 57 53 58 34 59 37 60 52 61 72 62 35 63 36 64 51 66
REMARK SMILES IDX 73 67 38 68 21 69 22 70 31 71 23 72 24 73 30 74 32 75 25 76
REMARK SMILES IDX 26 77 27 78 28 79 29 80 55 81 56 82 65 83 57 84 58 85 64 86
REMARK SMILES IDX 66 87 59 88 60 89 61 90 62 91 63 92 39 93 40 94 49 95 41 96
REMARK SMILES IDX 42 97 48 98 50 99 43 100 44 101 45 102 46 103 47 104
REMARK H PARENT 5 6 9 35 71 54 37 65
REMARK Flexibility Score: inf
ROOT
ATOM      1  C   UNL A   1      42.320  21.721  25.654  1.00  0.00     0.042 C 
ENDROOT
BRANCH   1   2
ATOM      2  C   UNL A   1      43.145  22.993  25.468  1.00  0.00     0.117 C 
BRANCH   2   3
ATOM      3  N   UNL A   1      44.156  23.109  26.498  1.00  0.00    -0.356 N 
ATOM      4  C   UNL A   1      45.303  23.848  26.511  1.00  0.00     0.227 C 
ATOM      5  O   UNL A   1      46.096  23.627  27.429  1.00  0.00    -0.274 OA
ATOM      6  H   UNL A   1      43.991  22.576  27.309  1.00  0.00     0.163 HD
BRANCH   4   7
ATOM      7  C   UNL A   1      45.525  24.925  25.438  1.00  0.00     0.105 C 
ATOM      8  C   UNL A   1      46.905  24.839  24.779  1.00  0.00     0.023 C 
BRANCH   7   9
ATOM      9  C   UNL A   1      45.266  26.323  25.989  1.00  0.00    -0.034 A 
ATOM     10  C   UNL A   1      43.983  26.868  26.040  1.00  0.00     0.005 A 
ATOM     11  C   UNL A   1      46.360  27.093  26.419  1.00  0.00     0.032 A 
ATOM     12  C   UNL A   1      43.759  28.113  26.623  1.00  0.00     0.011 A 
ATOM     13  C   UNL A   1      46.142  28.394  26.918  1.00  0.00     0.057 A 
ATOM     14  C   UNL A   1      44.850  28.872  27.089  1.00  0.00     0.008 A 
ATOM     15  N   UNL A   1      47.046  29.394  27.322  1.00  0.00    -0.276 N 
ATOM     16  C   UNL A   1      44.944  30.133  27.724  1.00  0.00     0.009 A 
ATOM     17  C   UNL A   1      46.296  30.502  27.753  1.00  0.00     0.057 A 
ATOM     18  C   UNL A   1      43.950  31.013  28.201  1.00  0.00     0.031 A 
ATOM     19  C   UNL A   1      46.646  31.825  28.093  1.00  0.00     0.029 A 
ATOM     20  C   UNL A   1      44.315  32.288  28.613  1.00  0.00     0.041 A 
ATOM     21  C   UNL A   1      45.637  32.701  28.527  1.00  0.00     0.023 A 
ATOM     22  Cl  UNL A   1      43.103  33.367  29.186  1.00  0.00    -0.084 Cl
BRANCH  15  23
ATOM     23  C   UNL A   1      48.458  29.244  27.204  1.00  0.00     0.262 C 
ATOM     24  O   UNL A   1      48.972  29.767  26.212  1.00  0.00    -0.268 OA
BRANCH  23  25
ATOM     25  C   UNL A   1      49.425  28.507  28.070  1.00  0.00     0.040 A 
ATOM     26  C   UNL A   1      50.129  29.276  29.024  1.00  0.00     0.015 A 
ATOM     27  C   UNL A   1      49.794  27.172  27.892  1.00  0.00     0.015 A 
ATOM     28  C   UNL A   1      51.165  28.732  29.782  1.00  0.00     0.021 A 
ATOM     29  C   UNL A   1      50.817  26.615  28.679  1.00  0.00     0.021 A 
ATOM     30  C   UNL A   1      51.503  27.397  29.611  1.00  0.00     0.041 A 
ATOM     31  Cl  UNL A   1      52.794  26.722  30.524  1.00  0.00    -0.084 Cl
ENDBRANCH  23  25
ENDBRANCH  15  23
ENDBRANCH   7   9
ENDBRANCH   4   7
ENDBRANCH   2   3
ENDBRANCH   1   2
BRANCH   1  32
ATOM     32  C   UNL A   1      41.157  21.887  26.625  1.00  0.00     0.118 C 
BRANCH  32  33
ATOM     33  N   UNL A   1      39.891  22.090  25.937  1.00  0.00    -0.352 N 
ATOM     34  C   UNL A   1      38.981  23.109  26.062  1.00  0.00     0.251 C 
ATOM     35  H   UNL A   1      39.653  21.393  25.284  1.00  0.00     0.163 HD
ATOM     36  O   UNL A   1      37.867  22.989  25.563  1.00  0.00    -0.269 OA
BRANCH  34  37
ATOM     37  C   UNL A   1      39.338  24.337  26.805  1.00  0.00     0.039 A 
ATOM     38  C   UNL A   1      38.892  24.482  28.121  1.00  0.00     0.014 A 
ATOM     39  C   UNL A   1      40.090  25.349  26.204  1.00  0.00     0.014 A 
ATOM     40  C   UNL A   1      39.247  25.619  28.850  1.00  0.00     0.010 A 
ATOM     41  C   UNL A   1      40.513  26.440  26.957  1.00  0.00     0.010 A 
ATOM     42  C   UNL A   1      40.088  26.592  28.284  1.00  0.00    -0.014 A 
BRANCH  42  43
ATOM     43  C   UNL A   1      40.524  27.781  29.060  1.00  0.00     0.031 A 
ATOM     44  C   UNL A   1      41.853  27.776  29.765  1.00  0.00     0.074 A 
ATOM     45  C   UNL A   1      39.696  28.837  29.183  1.00  0.00     0.049 A 
ATOM     46  N   UNL A   1      42.377  28.684  30.549  1.00  0.00    -0.248 NA
ATOM     47  C   UNL A   1      42.695  26.582  29.586  1.00  0.00     0.031 C 
ATOM     48  C   UNL A   1      38.363  28.941  28.583  1.00  0.00     0.029 A 
ATOM     49  N   UNL A   1      39.845  30.021  29.863  1.00  0.00    -0.354 N 
ATOM     50  C   UNL A   1      43.596  28.166  30.967  1.00  0.00     0.074 A 
ATOM     51  C   UNL A   1      43.709  26.841  30.397  1.00  0.00     0.031 C 
ATOM     52  C   UNL A   1      37.827  30.130  28.905  1.00  0.00     0.029 A 
ATOM     53  C   UNL A   1      38.756  30.853  29.768  1.00  0.00     0.049 A 
ATOM     54  H   UNL A   1      40.656  30.250  30.372  1.00  0.00     0.167 HD
ATOM     55  C   UNL A   1      44.546  28.750  31.738  1.00  0.00     0.037 A 
ATOM     56  C   UNL A   1      38.525  32.060  30.322  1.00  0.00     0.037 A 
ATOM     57  C   UNL A   1      44.430  30.076  32.287  1.00  0.00     0.049 A 
ATOM     58  C   UNL A   1      39.587  32.684  31.184  1.00  0.00     0.074 A 
ATOM     59  C   UNL A   1      45.357  30.781  33.033  1.00  0.00     0.029 A 
ATOM     60  N   UNL A   1      43.318  30.895  32.155  1.00  0.00    -0.354 N 
ATOM     61  N   UNL A   1      40.764  32.207  31.519  1.00  0.00    -0.248 NA
ATOM     62  C   UNL A   1      39.297  34.013  31.741  1.00  0.00     0.031 C 
ATOM     63  C   UNL A   1      44.786  32.003  33.400  1.00  0.00     0.029 A 
ATOM     64  C   UNL A   1      43.526  32.089  32.828  1.00  0.00     0.049 A 
ATOM     65  H   UNL A   1      42.502  30.663  31.656  1.00  0.00     0.167 HD
ATOM     66  C   UNL A   1      41.364  33.188  32.300  1.00  0.00     0.074 A 
ATOM     67  C   UNL A   1      40.426  34.289  32.378  1.00  0.00     0.031 C 
ATOM     68  C   UNL A   1      42.583  33.180  32.895  1.00  0.00     0.037 A 
BRANCH  55  69
ATOM     69  C   UNL A   1      45.790  27.954  32.035  1.00  0.00     0.058 A 
ATOM     70  C   UNL A   1      46.951  28.074  31.253  1.00  0.00     0.135 A 
ATOM     71  C   UNL A   1      45.831  27.076  33.130  1.00  0.00     0.135 A 
ATOM     72  F   UNL A   1      46.965  28.887  30.184  1.00  0.00    -0.206 F 
ATOM     73  C   UNL A   1      48.092  27.326  31.522  1.00  0.00     0.059 A 
ATOM     74  C   UNL A   1      46.973  26.343  33.439  1.00  0.00     0.059 A 
ATOM     75  F   UNL A   1      44.752  26.922  33.915  1.00  0.00    -0.206 F 
ATOM     76  C   UNL A   1      48.093  26.461  32.617  1.00  0.00     0.060 A 
BRANCH  76  77
ATOM     77  S   UNL A   1      49.580  25.494  32.948  1.00  0.00     0.124 S 
ATOM     78  O   UNL A   1      49.887  24.969  31.622  1.00  0.00    -0.237 OA
ATOM     79  O   UNL A   1      50.501  26.505  33.459  1.00  0.00    -0.237 OA
ATOM     80  O   UNL A   1      49.134  24.506  33.927  1.00  0.00    -0.744 OA
ENDBRANCH  76  77
ENDBRANCH  55  69
BRANCH  56  81
ATOM     81  C   UNL A   1      37.240  32.760  30.058  1.00  0.00     0.058 A 
ATOM     82  C   UNL A   1      36.102  32.500  30.837  1.00  0.00     0.135 A 
ATOM     83  C   UNL A   1      37.128  33.723  29.043  1.00  0.00     0.135 A 
ATOM     84  F   UNL A   1      36.155  31.583  31.816  1.00  0.00    -0.206 F 
ATOM     85  C   UNL A   1      34.898  33.159  30.612  1.00  0.00     0.059 A 
ATOM     86  C   UNL A   1      35.943  34.416  28.817  1.00  0.00     0.059 A 
ATOM     87  F   UNL A   1      38.191  34.022  28.280  1.00  0.00    -0.206 F 
ATOM     88  C   UNL A   1      34.829  34.121  29.602  1.00  0.00     0.060 A 
BRANCH  88  89
ATOM     89  S   UNL A   1      33.279  35.014  29.361  1.00  0.00     0.124 S 
ATOM     90  O   UNL A   1      32.692  34.950  30.695  1.00  0.00    -0.237 OA
ATOM     91  O   UNL A   1      33.746  36.327  28.930  1.00  0.00    -0.237 OA
ATOM     92  O   UNL A   1      32.597  34.231  28.335  1.00  0.00    -0.744 OA
ENDBRANCH  88  89
ENDBRANCH  56  81
BRANCH  68  93
ATOM     93  C   UNL A   1      42.996  34.412  33.654  1.00  0.00     0.058 A 
ATOM     94  C   UNL A   1      42.748  34.554  35.029  1.00  0.00     0.135 A 
ATOM     95  C   UNL A   1      43.699  35.440  33.006  1.00  0.00     0.135 A 
ATOM     96  F   UNL A   1      42.074  33.604  35.696  1.00  0.00    -0.206 F 
ATOM     97  C   UNL A   1      43.163  35.683  35.729  1.00  0.00     0.059 A 
ATOM     98  C   UNL A   1      44.151  36.563  33.692  1.00  0.00     0.059 A 
ATOM     99  F   UNL A   1      43.972  35.351  31.694  1.00  0.00    -0.206 F 
ATOM    100  C   UNL A   1      43.867  36.681  35.052  1.00  0.00     0.060 A 
BRANCH 100 101
ATOM    101  S   UNL A   1      44.430  38.122  35.981  1.00  0.00     0.124 S 
ATOM    102  O   UNL A   1      45.869  37.886  36.047  1.00  0.00    -0.237 OA
ATOM    103  O   UNL A   1      44.007  39.227  35.127  1.00  0.00    -0.237 OA
ATOM    104  O   UNL A   1      43.717  38.010  37.250  1.00  0.00    -0.744 OA
ENDBRANCH 100 101
ENDBRANCH  68  93
ENDBRANCH  42  43
ENDBRANCH  34  37
ENDBRANCH  32  33
ENDBRANCH   1  32
TORSDOF 16
ENDMDL
