MODEL 1
REMARK VINA RESULT:     -13.5      0.000      0.000
REMARK SMILES CC(C)OC(=O)c1c(NC(=O)[C@H]2[C@@H](C(=O)NCCCNC(=O)c3ccc(-c4c5nc(c(-c6c(F)cc(S(=O)(=O)[O-])cc6F)c6ccc([nH]6)c(-c6c(F)cc(S(=O)(=O)[O-])cc6F)c6nc(c(-c7c(F)cc(S(=O)(=O)[O-])cc7F)c7ccc4[nH]7)C=C6)C=C5)cc3)[C@@H]3C=C[C@H]2CC3)sc2c1CCC2
REMARK SMILES IDX 17 1 16 2 14 3 15 4 13 6 12 7 92 8 89 9 91 10 93 11 90 12
REMARK SMILES IDX 94 13 10 14 9 15 11 17 8 18 7 19 97 20 95 21 96 22 98 23
REMARK SMILES IDX 100 24 99 25 5 26 6 27 4 28 2 29 1 30 3 31 18 32 19 33 20 34
REMARK SMILES IDX 21 35 22 37 23 38 24 39 88 40 25 41 87 42 26 43 27 44 28 45
REMARK SMILES IDX 81 46 29 47 86 48 80 49 82 50 30 51 85 52 79 53 78 54 31 56
REMARK SMILES IDX 65 57 44 58 64 59 45 60 48 61 63 62 83 63 46 64 47 65 62 67
REMARK SMILES IDX 84 68 49 69 32 70 33 71 42 72 34 73 35 74 41 75 43 76 36 77
REMARK SMILES IDX 37 78 38 79 39 80 40 81 66 82 67 83 76 84 68 85 69 86 75 87
REMARK SMILES IDX 77 88 70 89 71 90 72 91 73 92 74 93 50 94 51 95 60 96 52 97
REMARK SMILES IDX 53 98 59 99 61 100 54 101 55 102 56 103 57 104 58 105
REMARK H PARENT 16 5 9 16 20 36 82 55 48 66
REMARK Flexibility Score: inf
ROOT
ATOM      1  C   UNL A   1      35.479  22.310  24.509  1.00  0.00     0.117 C 
ENDROOT
BRANCH   1   2
ATOM      2  N   UNL A   1      34.870  22.980  23.377  1.00  0.00    -0.356 N 
ATOM      3  C   UNL A   1      33.624  23.428  23.105  1.00  0.00     0.224 C 
ATOM      4  O   UNL A   1      33.415  23.728  21.924  1.00  0.00    -0.275 OA
ATOM      5  H   UNL A   1      35.506  23.146  22.644  1.00  0.00     0.163 HD
BRANCH   3   6
ATOM      6  C   UNL A   1      32.464  23.443  24.095  1.00  0.00     0.098 C 
ATOM      7  C   UNL A   1      32.546  24.612  25.137  1.00  0.00     0.099 C 
ATOM      8  C   UNL A   1      32.338  24.065  26.584  1.00  0.00     0.025 C 
ATOM      9  C   UNL A   1      32.016  22.173  24.852  1.00  0.00     0.025 C 
ATOM     10  C   UNL A   1      30.953  23.455  26.604  1.00  0.00    -0.027 C 
ATOM     11  C   UNL A   1      33.329  22.916  26.874  1.00  0.00     0.009 C 
ATOM     12  C   UNL A   1      30.776  22.497  25.683  1.00  0.00    -0.027 C 
ATOM     13  C   UNL A   1      33.125  21.783  25.856  1.00  0.00     0.009 C 
BRANCH   7  14
ATOM     14  C   UNL A   1      33.729  25.573  25.179  1.00  0.00     0.229 C 
ATOM     15  N   UNL A   1      33.616  26.865  24.718  1.00  0.00    -0.317 N 
ATOM     16  H   UNL A   1      34.471  27.355  24.700  1.00  0.00     0.170 HD
ATOM     17  O   UNL A   1      34.793  25.235  25.708  1.00  0.00    -0.274 OA
BRANCH  15  18
ATOM     18  C   UNL A   1      32.532  27.617  24.274  1.00  0.00     0.110 A 
ATOM     19  C   UNL A   1      31.722  28.475  25.030  1.00  0.00     0.098 A 
ATOM     20  C   UNL A   1      30.859  29.211  24.156  1.00  0.00    -0.017 A 
ATOM     21  S   UNL A   1      31.912  27.466  22.679  1.00  0.00    -0.122 S 
ATOM     22  C   UNL A   1      31.012  28.834  22.854  1.00  0.00     0.011 A 
ATOM     23  C   UNL A   1      29.884  30.329  24.242  1.00  0.00     0.038 C 
ATOM     24  C   UNL A   1      30.283  29.651  21.868  1.00  0.00     0.047 C 
ATOM     25  C   UNL A   1      29.251  30.331  22.804  1.00  0.00     0.010 C 
BRANCH  19  26
ATOM     26  C   UNL A   1      31.826  28.595  26.474  1.00  0.00     0.341 C 
ATOM     27  O   UNL A   1      31.523  27.677  27.239  1.00  0.00    -0.246 OA
BRANCH  26  28
ATOM     28  O   UNL A   1      32.170  29.852  26.859  1.00  0.00    -0.459 OA
BRANCH  28  29
ATOM     29  C   UNL A   1      33.562  30.225  26.952  1.00  0.00     0.170 C 
ATOM     30  C   UNL A   1      33.820  31.483  27.782  1.00  0.00     0.052 C 
ATOM     31  C   UNL A   1      34.412  29.038  27.382  1.00  0.00     0.052 C 
ENDBRANCH  28  29
ENDBRANCH  26  28
ENDBRANCH  19  26
ENDBRANCH  15  18
ENDBRANCH   7  14
ENDBRANCH   3   6
ENDBRANCH   1   2
BRANCH   1  32
ATOM     32  C   UNL A   1      36.994  22.183  24.364  1.00  0.00     0.042 C 
BRANCH  32  33
ATOM     33  C   UNL A   1      37.692  22.917  25.493  1.00  0.00     0.118 C 
BRANCH  33  34
ATOM     34  N   UNL A   1      38.600  22.022  26.223  1.00  0.00    -0.352 N 
ATOM     35  C   UNL A   1      39.777  22.319  26.872  1.00  0.00     0.251 C 
ATOM     36  H   UNL A   1      38.327  21.076  26.252  1.00  0.00     0.163 HD
ATOM     37  O   UNL A   1      40.564  21.431  27.179  1.00  0.00    -0.269 OA
BRANCH  35  38
ATOM     38  C   UNL A   1      40.066  23.725  27.176  1.00  0.00     0.039 A 
ATOM     39  C   UNL A   1      39.065  24.695  27.111  1.00  0.00     0.014 A 
ATOM     40  C   UNL A   1      41.350  24.038  27.615  1.00  0.00     0.014 A 
ATOM     41  C   UNL A   1      39.349  25.969  27.586  1.00  0.00     0.010 A 
ATOM     42  C   UNL A   1      41.569  25.231  28.251  1.00  0.00     0.010 A 
ATOM     43  C   UNL A   1      40.596  26.219  28.187  1.00  0.00    -0.014 A 
BRANCH  43  44
ATOM     44  C   UNL A   1      40.845  27.469  28.891  1.00  0.00     0.031 A 
ATOM     45  C   UNL A   1      41.954  28.265  28.302  1.00  0.00     0.074 A 
ATOM     46  C   UNL A   1      40.022  27.955  29.845  1.00  0.00     0.049 A 
ATOM     47  N   UNL A   1      43.146  28.401  28.778  1.00  0.00    -0.248 NA
ATOM     48  C   UNL A   1      41.804  28.790  26.933  1.00  0.00     0.031 C 
ATOM     49  C   UNL A   1      38.730  27.425  30.293  1.00  0.00     0.029 A 
ATOM     50  N   UNL A   1      40.124  29.109  30.555  1.00  0.00    -0.354 N 
ATOM     51  C   UNL A   1      43.799  29.271  27.912  1.00  0.00     0.074 A 
ATOM     52  C   UNL A   1      43.030  29.267  26.697  1.00  0.00     0.031 C 
ATOM     53  C   UNL A   1      38.071  28.370  30.998  1.00  0.00     0.029 A 
ATOM     54  C   UNL A   1      38.950  29.506  31.196  1.00  0.00     0.049 A 
ATOM     55  H   UNL A   1      40.960  29.625  30.613  1.00  0.00     0.167 HD
ATOM     56  C   UNL A   1      44.744  30.134  28.382  1.00  0.00     0.037 A 
ATOM     57  C   UNL A   1      38.722  30.702  31.802  1.00  0.00     0.037 A 
ATOM     58  C   UNL A   1      45.158  29.757  29.717  1.00  0.00     0.049 A 
ATOM     59  C   UNL A   1      40.060  31.291  32.099  1.00  0.00     0.074 A 
ATOM     60  C   UNL A   1      45.661  28.599  30.280  1.00  0.00     0.029 A 
ATOM     61  N   UNL A   1      44.668  30.501  30.766  1.00  0.00    -0.354 N 
ATOM     62  N   UNL A   1      40.894  30.779  32.965  1.00  0.00    -0.248 NA
ATOM     63  C   UNL A   1      40.669  32.123  31.071  1.00  0.00     0.031 C 
ATOM     64  C   UNL A   1      44.989  28.483  31.533  1.00  0.00     0.029 A 
ATOM     65  C   UNL A   1      44.205  29.623  31.712  1.00  0.00     0.049 A 
ATOM     66  H   UNL A   1      44.653  31.483  30.826  1.00  0.00     0.167 HD
ATOM     67  C   UNL A   1      42.133  30.837  32.341  1.00  0.00     0.074 A 
ATOM     68  C   UNL A   1      41.942  31.740  31.206  1.00  0.00     0.031 C 
ATOM     69  C   UNL A   1      43.111  29.920  32.611  1.00  0.00     0.037 A 
BRANCH  56  70
ATOM     70  C   UNL A   1      44.996  31.523  27.834  1.00  0.00     0.058 A 
ATOM     71  C   UNL A   1      46.287  31.841  27.360  1.00  0.00     0.135 A 
ATOM     72  C   UNL A   1      44.130  32.624  28.015  1.00  0.00     0.135 A 
ATOM     73  F   UNL A   1      47.195  30.875  27.147  1.00  0.00    -0.206 F 
ATOM     74  C   UNL A   1      46.711  33.155  27.168  1.00  0.00     0.059 A 
ATOM     75  C   UNL A   1      44.516  33.937  27.777  1.00  0.00     0.059 A 
ATOM     76  F   UNL A   1      42.898  32.500  28.519  1.00  0.00    -0.206 F 
ATOM     77  C   UNL A   1      45.820  34.198  27.394  1.00  0.00     0.060 A 
BRANCH  77  78
ATOM     78  S   UNL A   1      46.387  35.898  27.225  1.00  0.00     0.124 S 
ATOM     79  O   UNL A   1      47.717  35.820  27.815  1.00  0.00    -0.237 OA
ATOM     80  O   UNL A   1      46.336  36.087  25.779  1.00  0.00    -0.237 OA
ATOM     81  O   UNL A   1      45.399  36.656  27.987  1.00  0.00    -0.744 OA
ENDBRANCH  77  78
ENDBRANCH  56  70
BRANCH  57  82
ATOM     82  C   UNL A   1      37.462  31.500  31.822  1.00  0.00     0.058 A 
ATOM     83  C   UNL A   1      36.822  31.833  33.031  1.00  0.00     0.135 A 
ATOM     84  C   UNL A   1      37.011  32.195  30.681  1.00  0.00     0.135 A 
ATOM     85  F   UNL A   1      37.193  31.237  34.176  1.00  0.00    -0.206 F 
ATOM     86  C   UNL A   1      35.840  32.829  33.113  1.00  0.00     0.059 A 
ATOM     87  C   UNL A   1      36.026  33.183  30.734  1.00  0.00     0.059 A 
ATOM     88  F   UNL A   1      37.579  32.002  29.481  1.00  0.00    -0.206 F 
ATOM     89  C   UNL A   1      35.464  33.517  31.959  1.00  0.00     0.060 A 
BRANCH  89  90
ATOM     90  S   UNL A   1      34.344  34.934  32.083  1.00  0.00     0.124 S 
ATOM     91  O   UNL A   1      35.146  35.892  32.836  1.00  0.00    -0.237 OA
ATOM     92  O   UNL A   1      34.106  35.265  30.683  1.00  0.00    -0.237 OA
ATOM     93  O   UNL A   1      33.188  34.393  32.795  1.00  0.00    -0.744 OA
ENDBRANCH  89  90
ENDBRANCH  57  82
BRANCH  69  94
ATOM     94  C   UNL A   1      42.960  29.022  33.813  1.00  0.00     0.058 A 
ATOM     95  C   UNL A   1      43.292  29.368  35.135  1.00  0.00     0.135 A 
ATOM     96  C   UNL A   1      42.314  27.789  33.623  1.00  0.00     0.135 A 
ATOM     97  F   UNL A   1      43.798  30.573  35.430  1.00  0.00    -0.206 F 
ATOM     98  C   UNL A   1      43.055  28.500  36.206  1.00  0.00     0.059 A 
ATOM     99  C   UNL A   1      42.032  26.927  34.677  1.00  0.00     0.059 A 
ATOM    100  F   UNL A   1      41.908  27.424  32.396  1.00  0.00    -0.206 F 
ATOM    101  C   UNL A   1      42.430  27.276  35.964  1.00  0.00     0.060 A 
BRANCH 101 102
ATOM    102  S   UNL A   1      42.110  26.154  37.341  1.00  0.00     0.124 S 
ATOM    103  O   UNL A   1      40.730  26.480  37.687  1.00  0.00    -0.237 OA
ATOM    104  O   UNL A   1      42.319  24.840  36.737  1.00  0.00    -0.237 OA
ATOM    105  O   UNL A   1      43.109  26.538  38.336  1.00  0.00    -0.744 OA
ENDBRANCH 101 102
ENDBRANCH  69  94
ENDBRANCH  43  44
ENDBRANCH  35  38
ENDBRANCH  33  34
ENDBRANCH  32  33
ENDBRANCH   1  32
TORSDOF 18
ENDMDL
MODEL 2
REMARK VINA RESULT:     -12.0      4.291      8.714
REMARK SMILES CC(C)OC(=O)c1c(NC(=O)[C@H]2[C@@H](C(=O)NCCCNC(=O)c3ccc(-c4c5nc(c(-c6c(F)cc(S(=O)(=O)[O-])cc6F)c6ccc([nH]6)c(-c6c(F)cc(S(=O)(=O)[O-])cc6F)c6nc(c(-c7c(F)cc(S(=O)(=O)[O-])cc7F)c7ccc4[nH]7)C=C6)C=C5)cc3)[C@@H]3C=C[C@H]2CC3)sc2c1CCC2
REMARK SMILES IDX 17 1 16 2 14 3 15 4 13 6 12 7 92 8 89 9 91 10 93 11 90 12
REMARK SMILES IDX 94 13 10 14 9 15 11 17 8 18 7 19 97 20 95 21 96 22 98 23
REMARK SMILES IDX 100 24 99 25 5 26 6 27 4 28 2 29 1 30 3 31 18 32 19 33 20 34
REMARK SMILES IDX 21 35 22 37 23 38 24 39 88 40 25 41 87 42 26 43 27 44 28 45
REMARK SMILES IDX 81 46 29 47 86 48 80 49 82 50 30 51 85 52 79 53 78 54 31 56
REMARK SMILES IDX 65 57 44 58 64 59 45 60 48 61 63 62 83 63 46 64 47 65 62 67
REMARK SMILES IDX 84 68 49 69 32 70 33 71 42 72 34 73 35 74 41 75 43 76 36 77
REMARK SMILES IDX 37 78 38 79 39 80 40 81 66 82 67 83 76 84 68 85 69 86 75 87
REMARK SMILES IDX 77 88 70 89 71 90 72 91 73 92 74 93 50 94 51 95 60 96 52 97
REMARK SMILES IDX 53 98 59 99 61 100 54 101 55 102 56 103 57 104 58 105
REMARK H PARENT 16 5 9 16 20 36 82 55 48 66
REMARK Flexibility Score: inf
ROOT
ATOM      1  C   UNL A   1      44.047  22.482  27.305  1.00  0.00     0.117 C 
ENDROOT
BRANCH   1   2
ATOM      2  N   UNL A   1      45.262  22.360  26.524  1.00  0.00    -0.356 N 
ATOM      3  C   UNL A   1      45.889  23.152  25.625  1.00  0.00     0.224 C 
ATOM      4  O   UNL A   1      46.784  22.605  24.969  1.00  0.00    -0.275 OA
ATOM      5  H   UNL A   1      45.737  21.512  26.684  1.00  0.00     0.163 HD
BRANCH   3   6
ATOM      6  C   UNL A   1      45.476  24.578  25.276  1.00  0.00     0.098 C 
ATOM      7  C   UNL A   1      46.634  25.622  25.443  1.00  0.00     0.099 C 
ATOM      8  C   UNL A   1      46.142  26.851  26.272  1.00  0.00     0.025 C 
ATOM      9  C   UNL A   1      44.186  25.218  25.837  1.00  0.00     0.025 C 
ATOM     10  C   UNL A   1      45.009  27.462  25.479  1.00  0.00    -0.027 C 
ATOM     11  C   UNL A   1      45.539  26.387  27.617  1.00  0.00     0.009 C 
ATOM     12  C   UNL A   1      44.009  26.606  25.224  1.00  0.00    -0.027 C 
ATOM     13  C   UNL A   1      44.363  25.431  27.357  1.00  0.00     0.009 C 
BRANCH   7  14
ATOM     14  C   UNL A   1      48.005  25.228  25.982  1.00  0.00     0.229 C 
ATOM     15  N   UNL A   1      49.161  25.593  25.331  1.00  0.00    -0.317 N 
ATOM     16  H   UNL A   1      49.975  25.193  25.715  1.00  0.00     0.170 HD
ATOM     17  O   UNL A   1      48.107  24.641  27.065  1.00  0.00    -0.274 OA
BRANCH  15  18
ATOM     18  C   UNL A   1      49.407  26.419  24.237  1.00  0.00     0.110 A 
ATOM     19  C   UNL A   1      50.335  27.465  24.150  1.00  0.00     0.098 A 
ATOM     20  C   UNL A   1      50.418  27.918  22.793  1.00  0.00    -0.017 A 
ATOM     21  S   UNL A   1      48.440  26.362  22.819  1.00  0.00    -0.122 S 
ATOM     22  C   UNL A   1      49.536  27.264  21.984  1.00  0.00     0.011 A 
ATOM     23  C   UNL A   1      51.242  28.853  21.984  1.00  0.00     0.038 C 
ATOM     24  C   UNL A   1      49.666  27.550  20.545  1.00  0.00     0.047 C 
ATOM     25  C   UNL A   1      50.477  28.869  20.612  1.00  0.00     0.010 C 
BRANCH  19  26
ATOM     26  C   UNL A   1      51.107  27.937  25.286  1.00  0.00     0.341 C 
ATOM     27  O   UNL A   1      51.817  27.188  25.960  1.00  0.00    -0.246 OA
BRANCH  26  28
ATOM     28  O   UNL A   1      50.851  29.239  25.574  1.00  0.00    -0.459 OA
BRANCH  28  29
ATOM     29  C   UNL A   1      50.372  29.610  26.886  1.00  0.00     0.170 C 
ATOM     30  C   UNL A   1      50.393  31.114  27.159  1.00  0.00     0.052 C 
ATOM     31  C   UNL A   1      49.022  28.968  27.169  1.00  0.00     0.052 C 
ENDBRANCH  28  29
ENDBRANCH  26  28
ENDBRANCH  19  26
ENDBRANCH  15  18
ENDBRANCH   7  14
ENDBRANCH   3   6
ENDBRANCH   1   2
BRANCH   1  32
ATOM     32  C   UNL A   1      42.932  21.574  26.791  1.00  0.00     0.042 C 
BRANCH  32  33
ATOM     33  C   UNL A   1      42.282  22.185  25.564  1.00  0.00     0.118 C 
BRANCH  33  34
ATOM     34  N   UNL A   1      40.818  22.090  25.639  1.00  0.00    -0.352 N 
ATOM     35  C   UNL A   1      39.932  22.875  26.342  1.00  0.00     0.251 C 
ATOM     36  H   UNL A   1      40.414  21.362  25.113  1.00  0.00     0.163 HD
ATOM     37  O   UNL A   1      38.782  22.498  26.539  1.00  0.00    -0.269 OA
BRANCH  35  38
ATOM     38  C   UNL A   1      40.403  24.167  26.853  1.00  0.00     0.039 A 
ATOM     39  C   UNL A   1      40.121  25.354  26.176  1.00  0.00     0.014 A 
ATOM     40  C   UNL A   1      41.064  24.172  28.079  1.00  0.00     0.014 A 
ATOM     41  C   UNL A   1      40.429  26.557  26.798  1.00  0.00     0.010 A 
ATOM     42  C   UNL A   1      41.194  25.350  28.765  1.00  0.00     0.010 A 
ATOM     43  C   UNL A   1      40.935  26.546  28.109  1.00  0.00    -0.014 A 
BRANCH  43  44
ATOM     44  C   UNL A   1      41.060  27.781  28.870  1.00  0.00     0.031 A 
ATOM     45  C   UNL A   1      42.130  28.680  28.362  1.00  0.00     0.074 A 
ATOM     46  C   UNL A   1      40.162  28.167  29.802  1.00  0.00     0.049 A 
ATOM     47  N   UNL A   1      43.287  28.884  28.898  1.00  0.00    -0.248 NA
ATOM     48  C   UNL A   1      42.001  29.247  27.009  1.00  0.00     0.031 C 
ATOM     49  C   UNL A   1      38.895  27.527  30.170  1.00  0.00     0.029 A 
ATOM     50  N   UNL A   1      40.146  29.297  30.558  1.00  0.00    -0.354 N 
ATOM     51  C   UNL A   1      43.910  29.833  28.096  1.00  0.00     0.074 A 
ATOM     52  C   UNL A   1      43.197  29.821  26.847  1.00  0.00     0.031 C 
ATOM     53  C   UNL A   1      38.136  28.392  30.878  1.00  0.00     0.029 A 
ATOM     54  C   UNL A   1      38.919  29.581  31.157  1.00  0.00     0.049 A 
ATOM     55  H   UNL A   1      40.938  29.870  30.674  1.00  0.00     0.167 HD
ATOM     56  C   UNL A   1      44.767  30.744  28.641  1.00  0.00     0.037 A 
ATOM     57  C   UNL A   1      38.576  30.731  31.796  1.00  0.00     0.037 A 
ATOM     58  C   UNL A   1      45.148  30.345  29.979  1.00  0.00     0.049 A 
ATOM     59  C   UNL A   1      39.851  31.404  32.177  1.00  0.00     0.074 A 
ATOM     60  C   UNL A   1      45.712  29.204  30.522  1.00  0.00     0.029 A 
ATOM     61  N   UNL A   1      44.559  31.007  31.031  1.00  0.00    -0.354 N 
ATOM     62  N   UNL A   1      40.683  30.921  33.061  1.00  0.00    -0.248 NA
ATOM     63  C   UNL A   1      40.440  32.319  31.209  1.00  0.00     0.031 C 
ATOM     64  C   UNL A   1      44.996  28.989  31.737  1.00  0.00     0.029 A 
ATOM     65  C   UNL A   1      44.123  30.061  31.922  1.00  0.00     0.049 A 
ATOM     66  H   UNL A   1      44.468  31.983  31.126  1.00  0.00     0.167 HD
ATOM     67  C   UNL A   1      41.940  31.094  32.498  1.00  0.00     0.074 A 
ATOM     68  C   UNL A   1      41.732  32.026  31.389  1.00  0.00     0.031 C 
ATOM     69  C   UNL A   1      42.971  30.240  32.779  1.00  0.00     0.037 A 
BRANCH  56  70
ATOM     70  C   UNL A   1      44.937  32.167  28.157  1.00  0.00     0.058 A 
ATOM     71  C   UNL A   1      46.208  32.583  27.706  1.00  0.00     0.135 A 
ATOM     72  C   UNL A   1      44.006  33.206  28.380  1.00  0.00     0.135 A 
ATOM     73  F   UNL A   1      47.174  31.684  27.458  1.00  0.00    -0.206 F 
ATOM     74  C   UNL A   1      46.554  33.928  27.576  1.00  0.00     0.059 A 
ATOM     75  C   UNL A   1      44.313  34.549  28.203  1.00  0.00     0.059 A 
ATOM     76  F   UNL A   1      42.781  32.986  28.868  1.00  0.00    -0.206 F 
ATOM     77  C   UNL A   1      45.601  34.904  27.842  1.00  0.00     0.060 A 
BRANCH  77  78
ATOM     78  S   UNL A   1      46.066  36.640  27.752  1.00  0.00     0.124 S 
ATOM     79  O   UNL A   1      46.756  36.691  26.470  1.00  0.00    -0.237 OA
ATOM     80  O   UNL A   1      44.766  37.301  27.809  1.00  0.00    -0.237 OA
ATOM     81  O   UNL A   1      46.907  36.822  28.932  1.00  0.00    -0.744 OA
ENDBRANCH  77  78
ENDBRANCH  56  70
BRANCH  57  82
ATOM     82  C   UNL A   1      37.260  31.434  31.787  1.00  0.00     0.058 A 
ATOM     83  C   UNL A   1      36.601  31.777  32.984  1.00  0.00     0.135 A 
ATOM     84  C   UNL A   1      36.753  32.036  30.617  1.00  0.00     0.135 A 
ATOM     85  F   UNL A   1      37.020  31.267  34.153  1.00  0.00    -0.206 F 
ATOM     86  C   UNL A   1      35.547  32.700  33.024  1.00  0.00     0.059 A 
ATOM     87  C   UNL A   1      35.698  32.950  30.630  1.00  0.00     0.059 A 
ATOM     88  F   UNL A   1      37.329  31.828  29.424  1.00  0.00    -0.206 F 
ATOM     89  C   UNL A   1      35.117  33.301  31.841  1.00  0.00     0.060 A 
BRANCH  89  90
ATOM     90  S   UNL A   1      33.895  34.635  31.905  1.00  0.00     0.124 S 
ATOM     91  O   UNL A   1      34.715  35.782  32.280  1.00  0.00    -0.237 OA
ATOM     92  O   UNL A   1      33.373  34.644  30.543  1.00  0.00    -0.237 OA
ATOM     93  O   UNL A   1      32.951  34.184  32.924  1.00  0.00    -0.744 OA
ENDBRANCH  89  90
ENDBRANCH  57  82
BRANCH  69  94
ATOM     94  C   UNL A   1      42.835  29.287  33.939  1.00  0.00     0.058 A 
ATOM     95  C   UNL A   1      43.045  29.613  35.291  1.00  0.00     0.135 A 
ATOM     96  C   UNL A   1      42.332  28.004  33.667  1.00  0.00     0.135 A 
ATOM     97  F   UNL A   1      43.407  30.850  35.657  1.00  0.00    -0.206 F 
ATOM     98  C   UNL A   1      42.830  28.685  36.315  1.00  0.00     0.059 A 
ATOM     99  C   UNL A   1      42.072  27.078  34.671  1.00  0.00     0.059 A 
ATOM    100  F   UNL A   1      42.043  27.647  32.404  1.00  0.00    -0.206 F 
ATOM    101  C   UNL A   1      42.349  27.416  35.992  1.00  0.00     0.060 A 
BRANCH 101 102
ATOM    102  S   UNL A   1      42.057  26.215  37.308  1.00  0.00     0.124 S 
ATOM    103  O   UNL A   1      42.232  24.946  36.609  1.00  0.00    -0.237 OA
ATOM    104  O   UNL A   1      43.093  26.550  38.282  1.00  0.00    -0.237 OA
ATOM    105  O   UNL A   1      40.691  26.504  37.740  1.00  0.00    -0.744 OA
ENDBRANCH 101 102
ENDBRANCH  69  94
ENDBRANCH  43  44
ENDBRANCH  35  38
ENDBRANCH  33  34
ENDBRANCH  32  33
ENDBRANCH   1  32
TORSDOF 18
ENDMDL
MODEL 3
REMARK VINA RESULT:     -11.9      2.815      7.207
REMARK SMILES CC(C)OC(=O)c1c(NC(=O)[C@H]2[C@@H](C(=O)NCCCNC(=O)c3ccc(-c4c5nc(c(-c6c(F)cc(S(=O)(=O)[O-])cc6F)c6ccc([nH]6)c(-c6c(F)cc(S(=O)(=O)[O-])cc6F)c6nc(c(-c7c(F)cc(S(=O)(=O)[O-])cc7F)c7ccc4[nH]7)C=C6)C=C5)cc3)[C@@H]3C=C[C@H]2CC3)sc2c1CCC2
REMARK SMILES IDX 17 1 16 2 14 3 15 4 13 6 12 7 92 8 89 9 91 10 93 11 90 12
REMARK SMILES IDX 94 13 10 14 9 15 11 17 8 18 7 19 97 20 95 21 96 22 98 23
REMARK SMILES IDX 100 24 99 25 5 26 6 27 4 28 2 29 1 30 3 31 18 32 19 33 20 34
REMARK SMILES IDX 21 35 22 37 23 38 24 39 88 40 25 41 87 42 26 43 27 44 28 45
REMARK SMILES IDX 81 46 29 47 86 48 80 49 82 50 30 51 85 52 79 53 78 54 31 56
REMARK SMILES IDX 65 57 44 58 64 59 45 60 48 61 63 62 83 63 46 64 47 65 62 67
REMARK SMILES IDX 84 68 49 69 32 70 33 71 42 72 34 73 35 74 41 75 43 76 36 77
REMARK SMILES IDX 37 78 38 79 39 80 40 81 66 82 67 83 76 84 68 85 69 86 75 87
REMARK SMILES IDX 77 88 70 89 71 90 72 91 73 92 74 93 50 94 51 95 60 96 52 97
REMARK SMILES IDX 53 98 59 99 61 100 54 101 55 102 56 103 57 104 58 105
REMARK H PARENT 16 5 9 16 20 36 82 55 48 66
REMARK Flexibility Score: inf
ROOT
ATOM      1  C   UNL A   1      36.390  20.753  24.607  1.00  0.00     0.117 C 
ENDROOT
BRANCH   1   2
ATOM      2  N   UNL A   1      36.218  22.041  23.965  1.00  0.00    -0.356 N 
ATOM      3  C   UNL A   1      35.147  22.809  23.665  1.00  0.00     0.224 C 
ATOM      4  O   UNL A   1      35.366  23.742  22.883  1.00  0.00    -0.275 OA
ATOM      5  H   UNL A   1      37.070  22.447  23.687  1.00  0.00     0.163 HD
BRANCH   3   6
ATOM      6  C   UNL A   1      33.712  22.518  24.093  1.00  0.00     0.098 C 
ATOM      7  C   UNL A   1      33.088  23.640  24.993  1.00  0.00     0.099 C 
ATOM      8  C   UNL A   1      32.434  23.015  26.265  1.00  0.00     0.025 C 
ATOM      9  C   UNL A   1      33.296  21.155  24.690  1.00  0.00     0.025 C 
ATOM     10  C   UNL A   1      31.344  22.094  25.763  1.00  0.00    -0.027 C 
ATOM     11  C   UNL A   1      33.452  22.126  27.014  1.00  0.00     0.009 C 
ATOM     12  C   UNL A   1      31.786  21.149  24.919  1.00  0.00    -0.027 C 
ATOM     13  C   UNL A   1      33.950  21.008  26.083  1.00  0.00     0.009 C 
BRANCH   7  14
ATOM     14  C   UNL A   1      33.895  24.853  25.445  1.00  0.00     0.229 C 
ATOM     15  N   UNL A   1      33.411  26.132  25.287  1.00  0.00    -0.317 N 
ATOM     16  H   UNL A   1      34.062  26.833  25.518  1.00  0.00     0.170 HD
ATOM     17  O   UNL A   1      34.967  24.706  26.042  1.00  0.00    -0.274 OA
BRANCH  15  18
ATOM     18  C   UNL A   1      32.181  26.630  24.865  1.00  0.00     0.110 A 
ATOM     19  C   UNL A   1      31.946  27.734  24.035  1.00  0.00     0.098 A 
ATOM     20  C   UNL A   1      30.560  27.778  23.678  1.00  0.00    -0.017 A 
ATOM     21  S   UNL A   1      30.695  26.015  25.469  1.00  0.00    -0.122 S 
ATOM     22  C   UNL A   1      29.846  26.790  24.290  1.00  0.00     0.011 A 
ATOM     23  C   UNL A   1      29.671  28.552  22.772  1.00  0.00     0.038 C 
ATOM     24  C   UNL A   1      28.445  26.660  23.855  1.00  0.00     0.047 C 
ATOM     25  C   UNL A   1      28.244  28.049  23.197  1.00  0.00     0.010 C 
BRANCH  19  26
ATOM     26  C   UNL A   1      33.001  28.628  23.590  1.00  0.00     0.341 C 
ATOM     27  O   UNL A   1      33.695  28.392  22.599  1.00  0.00    -0.246 OA
BRANCH  26  28
ATOM     28  O   UNL A   1      33.197  29.659  24.454  1.00  0.00    -0.459 OA
BRANCH  28  29
ATOM     29  C   UNL A   1      32.735  29.557  25.819  1.00  0.00     0.170 C 
ATOM     30  C   UNL A   1      33.855  29.468  26.855  1.00  0.00     0.052 C 
ATOM     31  C   UNL A   1      31.717  30.646  26.127  1.00  0.00     0.052 C 
ENDBRANCH  28  29
ENDBRANCH  26  28
ENDBRANCH  19  26
ENDBRANCH  15  18
ENDBRANCH   7  14
ENDBRANCH   3   6
ENDBRANCH   1   2
BRANCH   1  32
ATOM     32  C   UNL A   1      37.359  20.815  25.786  1.00  0.00     0.042 C 
BRANCH  32  33
ATOM     33  C   UNL A   1      38.773  21.049  25.289  1.00  0.00     0.118 C 
BRANCH  33  34
ATOM     34  N   UNL A   1      39.608  19.857  25.494  1.00  0.00    -0.352 N 
ATOM     35  C   UNL A   1      40.911  19.774  25.932  1.00  0.00     0.251 C 
ATOM     36  H   UNL A   1      39.175  18.997  25.288  1.00  0.00     0.163 HD
ATOM     37  O   UNL A   1      41.560  18.746  25.773  1.00  0.00    -0.269 OA
BRANCH  35  38
ATOM     38  C   UNL A   1      41.500  20.949  26.585  1.00  0.00     0.039 A 
ATOM     39  C   UNL A   1      42.101  21.961  25.835  1.00  0.00     0.014 A 
ATOM     40  C   UNL A   1      41.359  21.057  27.966  1.00  0.00     0.014 A 
ATOM     41  C   UNL A   1      42.475  23.130  26.486  1.00  0.00     0.010 A 
ATOM     42  C   UNL A   1      41.553  22.272  28.566  1.00  0.00     0.010 A 
ATOM     43  C   UNL A   1      42.165  23.290  27.848  1.00  0.00    -0.014 A 
BRANCH  43  44
ATOM     44  C   UNL A   1      42.339  24.578  28.504  1.00  0.00     0.031 A 
ATOM     45  C   UNL A   1      41.174  25.487  28.334  1.00  0.00     0.074 A 
ATOM     46  C   UNL A   1      43.355  24.843  29.354  1.00  0.00     0.049 A 
ATOM     47  N   UNL A   1      41.103  26.516  27.557  1.00  0.00    -0.248 NA
ATOM     48  C   UNL A   1      39.877  25.099  28.915  1.00  0.00     0.031 C 
ATOM     49  C   UNL A   1      44.389  23.931  29.852  1.00  0.00     0.029 A 
ATOM     50  N   UNL A   1      43.617  25.983  30.045  1.00  0.00    -0.354 N 
ATOM     51  C   UNL A   1      39.847  27.069  27.780  1.00  0.00     0.074 A 
ATOM     52  C   UNL A   1      39.069  26.036  28.409  1.00  0.00     0.031 C 
ATOM     53  C   UNL A   1      44.995  24.474  30.930  1.00  0.00     0.029 A 
ATOM     54  C   UNL A   1      44.515  25.832  31.102  1.00  0.00     0.049 A 
ATOM     55  H   UNL A   1      43.205  26.848  29.819  1.00  0.00     0.167 HD
ATOM     56  C   UNL A   1      39.659  28.416  27.692  1.00  0.00     0.037 A 
ATOM     57  C   UNL A   1      44.799  26.752  32.062  1.00  0.00     0.037 A 
ATOM     58  C   UNL A   1      40.785  29.044  27.033  1.00  0.00     0.049 A 
ATOM     59  C   UNL A   1      44.387  28.078  31.517  1.00  0.00     0.074 A 
ATOM     60  C   UNL A   1      41.417  28.859  25.817  1.00  0.00     0.029 A 
ATOM     61  N   UNL A   1      41.686  29.720  27.823  1.00  0.00    -0.354 N 
ATOM     62  N   UNL A   1      44.978  28.653  30.503  1.00  0.00    -0.248 NA
ATOM     63  C   UNL A   1      43.015  28.504  31.757  1.00  0.00     0.031 C 
ATOM     64  C   UNL A   1      42.809  28.964  26.111  1.00  0.00     0.029 A 
ATOM     65  C   UNL A   1      42.943  29.314  27.455  1.00  0.00     0.049 A 
ATOM     66  H   UNL A   1      41.467  30.375  28.524  1.00  0.00     0.167 HD
ATOM     67  C   UNL A   1      43.942  29.146  29.721  1.00  0.00     0.074 A 
ATOM     68  C   UNL A   1      42.759  29.086  30.581  1.00  0.00     0.031 C 
ATOM     69  C   UNL A   1      44.066  29.266  28.365  1.00  0.00     0.037 A 
BRANCH  56  70
ATOM     70  C   UNL A   1      38.690  29.212  28.539  1.00  0.00     0.058 A 
ATOM     71  C   UNL A   1      37.782  30.081  27.897  1.00  0.00     0.135 A 
ATOM     72  C   UNL A   1      38.799  29.378  29.938  1.00  0.00     0.135 A 
ATOM     73  F   UNL A   1      37.593  30.014  26.569  1.00  0.00    -0.206 F 
ATOM     74  C   UNL A   1      37.107  31.094  28.577  1.00  0.00     0.059 A 
ATOM     75  C   UNL A   1      38.093  30.346  30.642  1.00  0.00     0.059 A 
ATOM     76  F   UNL A   1      39.661  28.679  30.684  1.00  0.00    -0.206 F 
ATOM     77  C   UNL A   1      37.282  31.226  29.949  1.00  0.00     0.060 A 
BRANCH  77  78
ATOM     78  S   UNL A   1      36.475  32.581  30.816  1.00  0.00     0.124 S 
ATOM     79  O   UNL A   1      37.393  32.805  31.926  1.00  0.00    -0.237 OA
ATOM     80  O   UNL A   1      36.445  33.617  29.789  1.00  0.00    -0.237 OA
ATOM     81  O   UNL A   1      35.174  32.022  31.172  1.00  0.00    -0.744 OA
ENDBRANCH  77  78
ENDBRANCH  56  70
BRANCH  57  82
ATOM     82  C   UNL A   1      45.069  26.520  33.510  1.00  0.00     0.058 A 
ATOM     83  C   UNL A   1      46.105  27.196  34.182  1.00  0.00     0.135 A 
ATOM     84  C   UNL A   1      44.145  25.846  34.335  1.00  0.00     0.135 A 
ATOM     85  F   UNL A   1      47.026  27.881  33.485  1.00  0.00    -0.206 F 
ATOM     86  C   UNL A   1      46.186  27.249  35.581  1.00  0.00     0.059 A 
ATOM     87  C   UNL A   1      44.211  25.873  35.729  1.00  0.00     0.059 A 
ATOM     88  F   UNL A   1      43.085  25.209  33.814  1.00  0.00    -0.206 F 
ATOM     89  C   UNL A   1      45.218  26.602  36.348  1.00  0.00     0.060 A 
BRANCH  89  90
ATOM     90  S   UNL A   1      45.199  26.825  38.144  1.00  0.00     0.124 S 
ATOM     91  O   UNL A   1      46.604  26.642  38.490  1.00  0.00    -0.237 OA
ATOM     92  O   UNL A   1      44.681  28.182  38.283  1.00  0.00    -0.237 OA
ATOM     93  O   UNL A   1      44.300  25.771  38.609  1.00  0.00    -0.744 OA
ENDBRANCH  89  90
ENDBRANCH  57  82
BRANCH  69  94
ATOM     94  C   UNL A   1      45.436  29.155  27.744  1.00  0.00     0.058 A 
ATOM     95  C   UNL A   1      46.364  30.205  27.623  1.00  0.00     0.135 A 
ATOM     96  C   UNL A   1      45.877  27.873  27.375  1.00  0.00     0.135 A 
ATOM     97  F   UNL A   1      46.077  31.437  28.063  1.00  0.00    -0.206 F 
ATOM     98  C   UNL A   1      47.644  30.001  27.096  1.00  0.00     0.059 A 
ATOM     99  C   UNL A   1      47.158  27.639  26.887  1.00  0.00     0.059 A 
ATOM    100  F   UNL A   1      45.067  26.812  27.528  1.00  0.00    -0.206 F 
ATOM    101  C   UNL A   1      48.028  28.713  26.724  1.00  0.00     0.060 A 
BRANCH 101 102
ATOM    102  S   UNL A   1      49.681  28.437  26.053  1.00  0.00     0.124 S 
ATOM    103  O   UNL A   1      50.316  29.734  26.264  1.00  0.00    -0.237 OA
ATOM    104  O   UNL A   1      50.183  27.343  26.881  1.00  0.00    -0.237 OA
ATOM    105  O   UNL A   1      49.431  28.086  24.657  1.00  0.00    -0.744 OA
ENDBRANCH 101 102
ENDBRANCH  69  94
ENDBRANCH  43  44
ENDBRANCH  35  38
ENDBRANCH  33  34
ENDBRANCH  32  33
ENDBRANCH   1  32
TORSDOF 18
ENDMDL
