MODEL 1
REMARK VINA RESULT:     -13.0      0.000      0.000
REMARK SMILES CCC(=O)N1c2ccc(S(=O)(=O)N3CCC(C)CC3)cc2C[C@H]1C(=O)NCCCNC(=O)c1ccc(-c2c3nc(c(-c4c(F)cc(S(=O)(=O)[O-])cc4F)c4ccc([nH]4)c(-c4c(F)cc(S(=O)(=O)[O-])cc4F)c4nc(c(-c5c(F)cc(S(=O)(=O)[O-])cc5F)c5ccc2[nH]5)C=C4)C=C3)cc1
REMARK SMILES IDX 28 1 27 2 26 3 24 4 25 5 23 7 5 8 6 9 7 10 21 11 22 12 8 13
REMARK SMILES IDX 20 14 9 15 3 16 4 17 2 18 1 19 10 20 11 21 12 22 13 23 14 24
REMARK SMILES IDX 19 25 15 26 18 27 16 28 17 29 29 30 30 31 31 32 32 34 33 35
REMARK SMILES IDX 34 36 98 37 35 38 97 39 36 40 37 41 38 42 91 43 39 44 96 45
REMARK SMILES IDX 90 46 92 47 40 48 95 49 89 50 88 51 41 53 75 54 54 55 74 56
REMARK SMILES IDX 55 57 58 58 73 59 93 60 56 61 57 62 72 64 94 65 59 66 42 67
REMARK SMILES IDX 43 68 52 69 44 70 45 71 51 72 53 73 46 74 47 75 48 76 49 77
REMARK SMILES IDX 50 78 76 79 77 80 86 81 78 82 79 83 85 84 87 85 80 86 81 87
REMARK SMILES IDX 82 88 83 89 84 90 60 91 61 92 70 93 62 94 63 95 69 96 71 97
REMARK SMILES IDX 64 98 65 99 66 100 67 101 68 102
REMARK H PARENT 26 6 30 33 92 52 58 63
REMARK Flexibility Score: inf
ROOT
ATOM      1  C   UNL A   1      37.370  23.687  25.413  1.00  0.00     0.042 C 
ENDROOT
BRANCH   1   2
ATOM      2  C   UNL A   1      36.154  22.934  25.944  1.00  0.00     0.117 C 
BRANCH   2   3
ATOM      3  N   UNL A   1      36.238  21.494  25.802  1.00  0.00    -0.354 N 
ATOM      4  C   UNL A   1      35.552  20.624  25.011  1.00  0.00     0.243 C 
ATOM      5  O   UNL A   1      36.057  19.501  24.870  1.00  0.00    -0.273 OA
ATOM      6  H   UNL A   1      36.910  21.070  26.380  1.00  0.00     0.163 HD
BRANCH   4   7
ATOM      7  C   UNL A   1      34.330  21.012  24.155  1.00  0.00     0.184 C 
ATOM      8  N   UNL A   1      33.013  20.680  24.721  1.00  0.00    -0.299 N 
ATOM      9  C   UNL A   1      32.313  21.860  24.954  1.00  0.00     0.048 A 
ATOM     10  C   UNL A   1      31.233  22.048  25.783  1.00  0.00     0.028 A 
ATOM     11  C   UNL A   1      32.979  22.952  24.393  1.00  0.00    -0.020 A 
ATOM     12  C   UNL A   1      34.301  22.523  23.821  1.00  0.00     0.073 C 
ATOM     13  C   UNL A   1      30.746  23.341  25.944  1.00  0.00     0.024 A 
ATOM     14  C   UNL A   1      32.453  24.239  24.479  1.00  0.00     0.027 A 
ATOM     15  C   UNL A   1      31.298  24.420  25.250  1.00  0.00     0.083 A 
BRANCH   8  16
ATOM     16  C   UNL A   1      32.601  19.368  24.773  1.00  0.00     0.227 C 
ATOM     17  O   UNL A   1      32.524  18.781  25.856  1.00  0.00    -0.275 OA
BRANCH  16  18
ATOM     18  C   UNL A   1      32.561  18.552  23.480  1.00  0.00     0.097 C 
ATOM     19  C   UNL A   1      33.498  17.382  23.303  1.00  0.00     0.014 C 
ENDBRANCH  16  18
ENDBRANCH   8  16
BRANCH  15  20
ATOM     20  S   UNL A   1      30.541  26.033  25.366  1.00  0.00     0.243 S 
ATOM     21  O   UNL A   1      29.810  26.224  24.129  1.00  0.00    -0.207 OA
ATOM     22  O   UNL A   1      29.872  26.071  26.647  1.00  0.00    -0.207 OA
BRANCH  20  23
ATOM     23  N   UNL A   1      31.814  27.137  25.424  1.00  0.00    -0.198 NA
ATOM     24  C   UNL A   1      32.573  27.423  26.649  1.00  0.00     0.103 C 
ATOM     25  C   UNL A   1      32.133  28.005  24.288  1.00  0.00     0.103 C 
ATOM     26  C   UNL A   1      32.507  28.898  27.058  1.00  0.00     0.020 C 
ATOM     27  C   UNL A   1      31.747  29.431  24.630  1.00  0.00     0.020 C 
ATOM     28  C   UNL A   1      32.409  29.934  25.922  1.00  0.00    -0.012 C 
ATOM     29  C   UNL A   1      31.667  31.185  26.411  1.00  0.00     0.008 C 
ENDBRANCH  20  23
ENDBRANCH  15  20
ENDBRANCH   4   7
ENDBRANCH   2   3
ENDBRANCH   1   2
BRANCH   1  30
ATOM     30  C   UNL A   1      38.336  24.178  26.490  1.00  0.00     0.118 C 
BRANCH  30  31
ATOM     31  N   UNL A   1      39.732  24.092  26.079  1.00  0.00    -0.352 N 
ATOM     32  C   UNL A   1      40.830  24.833  26.441  1.00  0.00     0.251 C 
ATOM     33  H   UNL A   1      39.920  23.378  25.427  1.00  0.00     0.163 HD
ATOM     34  O   UNL A   1      41.875  24.683  25.812  1.00  0.00    -0.269 OA
BRANCH  32  35
ATOM     35  C   UNL A   1      40.776  25.807  27.554  1.00  0.00     0.039 A 
ATOM     36  C   UNL A   1      41.704  26.855  27.571  1.00  0.00     0.014 A 
ATOM     37  C   UNL A   1      39.874  25.666  28.612  1.00  0.00     0.014 A 
ATOM     38  C   UNL A   1      41.689  27.789  28.611  1.00  0.00     0.010 A 
ATOM     39  C   UNL A   1      39.818  26.634  29.615  1.00  0.00     0.010 A 
ATOM     40  C   UNL A   1      40.724  27.705  29.627  1.00  0.00    -0.014 A 
BRANCH  40  41
ATOM     41  C   UNL A   1      40.640  28.731  30.698  1.00  0.00     0.031 A 
ATOM     42  C   UNL A   1      41.489  28.609  31.936  1.00  0.00     0.074 A 
ATOM     43  C   UNL A   1      39.737  29.727  30.595  1.00  0.00     0.049 A 
ATOM     44  N   UNL A   1      41.480  29.345  33.018  1.00  0.00    -0.248 NA
ATOM     45  C   UNL A   1      42.456  27.500  31.975  1.00  0.00     0.031 C 
ATOM     46  C   UNL A   1      38.814  29.920  29.474  1.00  0.00     0.029 A 
ATOM     47  N   UNL A   1      39.428  30.751  31.455  1.00  0.00    -0.354 N 
ATOM     48  C   UNL A   1      42.410  28.771  33.878  1.00  0.00     0.074 A 
ATOM     49  C   UNL A   1      42.951  27.612  33.201  1.00  0.00     0.031 C 
ATOM     50  C   UNL A   1      38.043  30.992  29.716  1.00  0.00     0.029 A 
ATOM     51  C   UNL A   1      38.393  31.546  31.020  1.00  0.00     0.049 A 
ATOM     52  H   UNL A   1      39.902  30.903  32.305  1.00  0.00     0.167 HD
ATOM     53  C   UNL A   1      42.789  29.183  35.111  1.00  0.00     0.037 A 
ATOM     54  C   UNL A   1      37.782  32.592  31.610  1.00  0.00     0.037 A 
ATOM     55  C   UNL A   1      42.291  30.369  35.757  1.00  0.00     0.049 A 
ATOM     56  C   UNL A   1      38.261  33.059  32.958  1.00  0.00     0.074 A 
ATOM     57  C   UNL A   1      42.689  30.922  36.962  1.00  0.00     0.029 A 
ATOM     58  N   UNL A   1      41.289  31.184  35.254  1.00  0.00    -0.354 N 
ATOM     59  N   UNL A   1      39.202  32.552  33.717  1.00  0.00    -0.248 NA
ATOM     60  C   UNL A   1      37.602  34.244  33.526  1.00  0.00     0.031 C 
ATOM     61  C   UNL A   1      41.905  32.055  37.204  1.00  0.00     0.029 A 
ATOM     62  C   UNL A   1      41.045  32.227  36.132  1.00  0.00     0.049 A 
ATOM     63  H   UNL A   1      40.822  31.044  34.399  1.00  0.00     0.167 HD
ATOM     64  C   UNL A   1      39.264  33.369  34.841  1.00  0.00     0.074 A 
ATOM     65  C   UNL A   1      38.274  34.410  34.657  1.00  0.00     0.031 C 
ATOM     66  C   UNL A   1      40.065  33.265  35.927  1.00  0.00     0.037 A 
BRANCH  53  67
ATOM     67  C   UNL A   1      43.801  28.356  35.853  1.00  0.00     0.058 A 
ATOM     68  C   UNL A   1      43.415  27.305  36.699  1.00  0.00     0.135 A 
ATOM     69  C   UNL A   1      45.175  28.564  35.649  1.00  0.00     0.135 A 
ATOM     70  F   UNL A   1      42.115  27.072  36.938  1.00  0.00    -0.206 F 
ATOM     71  C   UNL A   1      44.356  26.495  37.326  1.00  0.00     0.059 A 
ATOM     72  C   UNL A   1      46.133  27.753  36.250  1.00  0.00     0.059 A 
ATOM     73  F   UNL A   1      45.597  29.557  34.850  1.00  0.00    -0.206 F 
ATOM     74  C   UNL A   1      45.714  26.725  37.093  1.00  0.00     0.060 A 
BRANCH  74  75
ATOM     75  S   UNL A   1      46.921  25.638  37.881  1.00  0.00     0.124 S 
ATOM     76  O   UNL A   1      47.928  26.597  38.326  1.00  0.00    -0.237 OA
ATOM     77  O   UNL A   1      46.135  25.009  38.937  1.00  0.00    -0.237 OA
ATOM     78  O   UNL A   1      47.336  24.750  36.799  1.00  0.00    -0.744 OA
ENDBRANCH  74  75
ENDBRANCH  53  67
BRANCH  54  79
ATOM     79  C   UNL A   1      36.649  33.273  30.932  1.00  0.00     0.058 A 
ATOM     80  C   UNL A   1      36.871  34.194  29.897  1.00  0.00     0.135 A 
ATOM     81  C   UNL A   1      35.321  33.023  31.312  1.00  0.00     0.135 A 
ATOM     82  F   UNL A   1      38.123  34.469  29.503  1.00  0.00    -0.206 F 
ATOM     83  C   UNL A   1      35.819  34.864  29.281  1.00  0.00     0.059 A 
ATOM     84  C   UNL A   1      34.253  33.663  30.694  1.00  0.00     0.059 A 
ATOM     85  F   UNL A   1      35.055  32.135  32.283  1.00  0.00    -0.206 F 
ATOM     86  C   UNL A   1      34.513  34.593  29.688  1.00  0.00     0.060 A 
BRANCH  86  87
ATOM     87  S   UNL A   1      33.146  35.439  28.863  1.00  0.00     0.124 S 
ATOM     88  O   UNL A   1      32.428  36.009  29.996  1.00  0.00    -0.237 OA
ATOM     89  O   UNL A   1      33.844  36.389  28.002  1.00  0.00    -0.237 OA
ATOM     90  O   UNL A   1      32.463  34.357  28.159  1.00  0.00    -0.744 OA
ENDBRANCH  86  87
ENDBRANCH  54  79
BRANCH  66  91
ATOM     91  C   UNL A   1      39.934  34.319  36.989  1.00  0.00     0.058 A 
ATOM     92  C   UNL A   1      40.594  35.552  36.884  1.00  0.00     0.135 A 
ATOM     93  C   UNL A   1      39.098  34.111  38.098  1.00  0.00     0.135 A 
ATOM     94  F   UNL A   1      41.410  35.796  35.846  1.00  0.00    -0.206 F 
ATOM     95  C   UNL A   1      40.446  36.539  37.854  1.00  0.00     0.059 A 
ATOM     96  C   UNL A   1      38.917  35.091  39.067  1.00  0.00     0.059 A 
ATOM     97  F   UNL A   1      38.437  32.951  38.237  1.00  0.00    -0.206 F 
ATOM     98  C   UNL A   1      39.605  36.299  38.942  1.00  0.00     0.060 A 
BRANCH  98  99
ATOM     99  S   UNL A   1      39.392  37.597  40.179  1.00  0.00     0.124 S 
ATOM    100  O   UNL A   1      38.405  38.456  39.535  1.00  0.00    -0.237 OA
ATOM    101  O   UNL A   1      38.921  36.850  41.342  1.00  0.00    -0.237 OA
ATOM    102  O   UNL A   1      40.732  38.164  40.307  1.00  0.00    -0.744 OA
ENDBRANCH  98  99
ENDBRANCH  66  91
ENDBRANCH  40  41
ENDBRANCH  32  35
ENDBRANCH  30  31
ENDBRANCH   1  30
TORSDOF 17
ENDMDL
MODEL 2
REMARK VINA RESULT:     -12.7      6.337     11.972
REMARK SMILES CCC(=O)N1c2ccc(S(=O)(=O)N3CCC(C)CC3)cc2C[C@H]1C(=O)NCCCNC(=O)c1ccc(-c2c3nc(c(-c4c(F)cc(S(=O)(=O)[O-])cc4F)c4ccc([nH]4)c(-c4c(F)cc(S(=O)(=O)[O-])cc4F)c4nc(c(-c5c(F)cc(S(=O)(=O)[O-])cc5F)c5ccc2[nH]5)C=C4)C=C3)cc1
REMARK SMILES IDX 28 1 27 2 26 3 24 4 25 5 23 7 5 8 6 9 7 10 21 11 22 12 8 13
REMARK SMILES IDX 20 14 9 15 3 16 4 17 2 18 1 19 10 20 11 21 12 22 13 23 14 24
REMARK SMILES IDX 19 25 15 26 18 27 16 28 17 29 29 30 30 31 31 32 32 34 33 35
REMARK SMILES IDX 34 36 98 37 35 38 97 39 36 40 37 41 38 42 91 43 39 44 96 45
REMARK SMILES IDX 90 46 92 47 40 48 95 49 89 50 88 51 41 53 75 54 54 55 74 56
REMARK SMILES IDX 55 57 58 58 73 59 93 60 56 61 57 62 72 64 94 65 59 66 42 67
REMARK SMILES IDX 43 68 52 69 44 70 45 71 51 72 53 73 46 74 47 75 48 76 49 77
REMARK SMILES IDX 50 78 76 79 77 80 86 81 78 82 79 83 85 84 87 85 80 86 81 87
REMARK SMILES IDX 82 88 83 89 84 90 60 91 61 92 70 93 62 94 63 95 69 96 71 97
REMARK SMILES IDX 64 98 65 99 66 100 67 101 68 102
REMARK H PARENT 26 6 30 33 92 52 58 63
REMARK Flexibility Score: inf
ROOT
ATOM      1  C   UNL A   1      34.017  31.210  27.446  1.00  0.00     0.042 C 
ENDROOT
BRANCH   1   2
ATOM      2  C   UNL A   1      33.121  30.179  26.767  1.00  0.00     0.117 C 
BRANCH   2   3
ATOM      3  N   UNL A   1      33.492  29.877  25.398  1.00  0.00    -0.354 N 
ATOM      4  C   UNL A   1      33.053  28.921  24.534  1.00  0.00     0.243 C 
ATOM      5  O   UNL A   1      33.316  29.106  23.337  1.00  0.00    -0.273 OA
ATOM      6  H   UNL A   1      34.184  30.469  25.028  1.00  0.00     0.163 HD
BRANCH   4   7
ATOM      7  C   UNL A   1      32.113  27.766  24.928  1.00  0.00     0.184 C 
ATOM      8  N   UNL A   1      31.582  26.957  23.819  1.00  0.00    -0.299 N 
ATOM      9  C   UNL A   1      32.053  25.653  23.948  1.00  0.00     0.048 A 
ATOM     10  C   UNL A   1      32.114  24.682  22.978  1.00  0.00     0.028 A 
ATOM     11  C   UNL A   1      32.691  25.474  25.177  1.00  0.00    -0.020 A 
ATOM     12  C   UNL A   1      32.775  26.778  25.919  1.00  0.00     0.073 C 
ATOM     13  C   UNL A   1      32.716  23.470  23.300  1.00  0.00     0.024 A 
ATOM     14  C   UNL A   1      33.224  24.239  25.539  1.00  0.00     0.027 A 
ATOM     15  C   UNL A   1      33.205  23.217  24.583  1.00  0.00     0.083 A 
BRANCH   8  16
ATOM     16  C   UNL A   1      30.631  27.488  22.978  1.00  0.00     0.227 C 
ATOM     17  O   UNL A   1      30.801  27.471  21.755  1.00  0.00    -0.275 OA
BRANCH  16  18
ATOM     18  C   UNL A   1      29.539  28.382  23.565  1.00  0.00     0.097 C 
ATOM     19  C   UNL A   1      28.086  28.040  23.335  1.00  0.00     0.014 C 
ENDBRANCH  16  18
ENDBRANCH   8  16
BRANCH  15  20
ATOM     20  S   UNL A   1      33.827  21.594  24.994  1.00  0.00     0.243 S 
ATOM     21  O   UNL A   1      33.757  21.490  26.438  1.00  0.00    -0.207 OA
ATOM     22  O   UNL A   1      33.121  20.665  24.139  1.00  0.00    -0.207 OA
BRANCH  20  23
ATOM     23  N   UNL A   1      35.447  21.587  24.524  1.00  0.00    -0.198 NA
ATOM     24  C   UNL A   1      36.417  20.592  25.003  1.00  0.00     0.103 C 
ATOM     25  C   UNL A   1      36.024  22.677  23.735  1.00  0.00     0.103 C 
ATOM     26  C   UNL A   1      37.601  21.226  25.739  1.00  0.00     0.020 C 
ATOM     27  C   UNL A   1      36.963  23.481  24.613  1.00  0.00     0.020 C 
ATOM     28  C   UNL A   1      38.057  22.618  25.260  1.00  0.00    -0.012 C 
ATOM     29  C   UNL A   1      38.686  23.396  26.424  1.00  0.00     0.008 C 
ENDBRANCH  20  23
ENDBRANCH  15  20
ENDBRANCH   4   7
ENDBRANCH   2   3
ENDBRANCH   1   2
BRANCH   1  30
ATOM     30  C   UNL A   1      35.232  30.624  28.164  1.00  0.00     0.118 C 
BRANCH  30  31
ATOM     31  N   UNL A   1      35.292  30.998  29.571  1.00  0.00    -0.352 N 
ATOM     32  C   UNL A   1      36.276  30.828  30.512  1.00  0.00     0.251 C 
ATOM     33  H   UNL A   1      34.483  31.450  29.906  1.00  0.00     0.163 HD
ATOM     34  O   UNL A   1      36.015  31.068  31.689  1.00  0.00    -0.269 OA
BRANCH  32  35
ATOM     35  C   UNL A   1      37.630  30.356  30.142  1.00  0.00     0.039 A 
ATOM     36  C   UNL A   1      37.982  30.333  28.788  1.00  0.00     0.014 A 
ATOM     37  C   UNL A   1      38.528  29.875  31.098  1.00  0.00     0.014 A 
ATOM     38  C   UNL A   1      39.249  29.886  28.400  1.00  0.00     0.010 A 
ATOM     39  C   UNL A   1      39.813  29.489  30.716  1.00  0.00     0.010 A 
ATOM     40  C   UNL A   1      40.188  29.489  29.365  1.00  0.00    -0.014 A 
BRANCH  40  41
ATOM     41  C   UNL A   1      41.565  29.085  28.981  1.00  0.00     0.031 A 
ATOM     42  C   UNL A   1      42.663  30.111  28.893  1.00  0.00     0.074 A 
ATOM     43  C   UNL A   1      41.807  27.806  28.629  1.00  0.00     0.049 A 
ATOM     44  N   UNL A   1      43.896  29.966  28.477  1.00  0.00    -0.248 NA
ATOM     45  C   UNL A   1      42.326  31.485  29.299  1.00  0.00     0.031 C 
ATOM     46  C   UNL A   1      40.813  26.729  28.613  1.00  0.00     0.029 A 
ATOM     47  N   UNL A   1      42.957  27.197  28.191  1.00  0.00    -0.354 N 
ATOM     48  C   UNL A   1      44.470  31.231  28.539  1.00  0.00     0.074 A 
ATOM     49  C   UNL A   1      43.445  32.137  29.011  1.00  0.00     0.031 C 
ATOM     50  C   UNL A   1      41.396  25.597  28.187  1.00  0.00     0.029 A 
ATOM     51  C   UNL A   1      42.794  25.870  27.869  1.00  0.00     0.049 A 
ATOM     52  H   UNL A   1      43.820  27.666  28.115  1.00  0.00     0.167 HD
ATOM     53  C   UNL A   1      45.739  31.599  28.243  1.00  0.00     0.037 A 
ATOM     54  C   UNL A   1      43.664  24.976  27.361  1.00  0.00     0.037 A 
ATOM     55  C   UNL A   1      46.771  30.686  27.828  1.00  0.00     0.049 A 
ATOM     56  C   UNL A   1      45.083  25.402  27.092  1.00  0.00     0.074 A 
ATOM     57  C   UNL A   1      48.112  30.948  27.605  1.00  0.00     0.029 A 
ATOM     58  N   UNL A   1      46.581  29.336  27.577  1.00  0.00    -0.354 N 
ATOM     59  N   UNL A   1      45.627  26.586  27.239  1.00  0.00    -0.248 NA
ATOM     60  C   UNL A   1      46.006  24.371  26.597  1.00  0.00     0.031 C 
ATOM     61  C   UNL A   1      48.727  29.764  27.186  1.00  0.00     0.029 A 
ATOM     62  C   UNL A   1      47.776  28.756  27.185  1.00  0.00     0.049 A 
ATOM     63  H   UNL A   1      45.725  28.859  27.666  1.00  0.00     0.167 HD
ATOM     64  C   UNL A   1      46.962  26.436  26.877  1.00  0.00     0.074 A 
ATOM     65  C   UNL A   1      47.145  25.045  26.517  1.00  0.00     0.031 C 
ATOM     66  C   UNL A   1      47.945  27.366  26.844  1.00  0.00     0.037 A 
BRANCH  53  67
ATOM     67  C   UNL A   1      46.100  33.053  28.363  1.00  0.00     0.058 A 
ATOM     68  C   UNL A   1      46.607  33.590  29.556  1.00  0.00     0.135 A 
ATOM     69  C   UNL A   1      46.016  33.900  27.246  1.00  0.00     0.135 A 
ATOM     70  F   UNL A   1      46.695  32.826  30.657  1.00  0.00    -0.206 F 
ATOM     71  C   UNL A   1      47.009  34.918  29.642  1.00  0.00     0.059 A 
ATOM     72  C   UNL A   1      46.432  35.227  27.303  1.00  0.00     0.059 A 
ATOM     73  F   UNL A   1      45.537  33.436  26.081  1.00  0.00    -0.206 F 
ATOM     74  C   UNL A   1      46.921  35.729  28.508  1.00  0.00     0.060 A 
BRANCH  74  75
ATOM     75  S   UNL A   1      47.487  37.440  28.624  1.00  0.00     0.124 S 
ATOM     76  O   UNL A   1      48.528  37.471  27.602  1.00  0.00    -0.237 OA
ATOM     77  O   UNL A   1      46.275  38.192  28.316  1.00  0.00    -0.237 OA
ATOM     78  O   UNL A   1      47.956  37.550  30.002  1.00  0.00    -0.744 OA
ENDBRANCH  74  75
ENDBRANCH  53  67
BRANCH  54  79
ATOM     79  C   UNL A   1      43.223  23.588  27.069  1.00  0.00     0.058 A 
ATOM     80  C   UNL A   1      43.102  22.636  28.093  1.00  0.00     0.135 A 
ATOM     81  C   UNL A   1      42.923  23.182  25.760  1.00  0.00     0.135 A 
ATOM     82  F   UNL A   1      43.383  22.976  29.360  1.00  0.00    -0.206 F 
ATOM     83  C   UNL A   1      42.725  21.324  27.827  1.00  0.00     0.059 A 
ATOM     84  C   UNL A   1      42.522  21.882  25.473  1.00  0.00     0.059 A 
ATOM     85  F   UNL A   1      43.004  24.061  24.748  1.00  0.00    -0.206 F 
ATOM     86  C   UNL A   1      42.439  20.956  26.511  1.00  0.00     0.060 A 
BRANCH  86  87
ATOM     87  S   UNL A   1      41.916  19.260  26.172  1.00  0.00     0.124 S 
ATOM     88  O   UNL A   1      42.727  18.932  25.007  1.00  0.00    -0.237 OA
ATOM     89  O   UNL A   1      42.267  18.573  27.411  1.00  0.00    -0.237 OA
ATOM     90  O   UNL A   1      40.483  19.398  25.929  1.00  0.00    -0.744 OA
ENDBRANCH  86  87
ENDBRANCH  54  79
BRANCH  66  91
ATOM     91  C   UNL A   1      49.317  26.909  26.437  1.00  0.00     0.058 A 
ATOM     92  C   UNL A   1      50.191  26.304  27.352  1.00  0.00     0.135 A 
ATOM     93  C   UNL A   1      49.742  27.035  25.104  1.00  0.00     0.135 A 
ATOM     94  F   UNL A   1      49.833  26.168  28.639  1.00  0.00    -0.206 F 
ATOM     95  C   UNL A   1      51.449  25.854  26.964  1.00  0.00     0.059 A 
ATOM     96  C   UNL A   1      50.986  26.572  24.690  1.00  0.00     0.059 A 
ATOM     97  F   UNL A   1      48.938  27.599  24.189  1.00  0.00    -0.206 F 
ATOM     98  C   UNL A   1      51.837  25.992  25.631  1.00  0.00     0.060 A 
BRANCH  98  99
ATOM     99  S   UNL A   1      53.459  25.376  25.129  1.00  0.00     0.124 S 
ATOM    100  O   UNL A   1      53.337  23.954  25.428  1.00  0.00    -0.237 OA
ATOM    101  O   UNL A   1      53.505  25.726  23.712  1.00  0.00    -0.237 OA
ATOM    102  O   UNL A   1      54.381  26.121  25.981  1.00  0.00    -0.744 OA
ENDBRANCH  98  99
ENDBRANCH  66  91
ENDBRANCH  40  41
ENDBRANCH  32  35
ENDBRANCH  30  31
ENDBRANCH   1  30
TORSDOF 17
ENDMDL
MODEL 3
REMARK VINA RESULT:     -12.7      0.537      7.961
REMARK SMILES CCC(=O)N1c2ccc(S(=O)(=O)N3CCC(C)CC3)cc2C[C@H]1C(=O)NCCCNC(=O)c1ccc(-c2c3nc(c(-c4c(F)cc(S(=O)(=O)[O-])cc4F)c4ccc([nH]4)c(-c4c(F)cc(S(=O)(=O)[O-])cc4F)c4nc(c(-c5c(F)cc(S(=O)(=O)[O-])cc5F)c5ccc2[nH]5)C=C4)C=C3)cc1
REMARK SMILES IDX 28 1 27 2 26 3 24 4 25 5 23 7 5 8 6 9 7 10 21 11 22 12 8 13
REMARK SMILES IDX 20 14 9 15 3 16 4 17 2 18 1 19 10 20 11 21 12 22 13 23 14 24
REMARK SMILES IDX 19 25 15 26 18 27 16 28 17 29 29 30 30 31 31 32 32 34 33 35
REMARK SMILES IDX 34 36 98 37 35 38 97 39 36 40 37 41 38 42 91 43 39 44 96 45
REMARK SMILES IDX 90 46 92 47 40 48 95 49 89 50 88 51 41 53 75 54 54 55 74 56
REMARK SMILES IDX 55 57 58 58 73 59 93 60 56 61 57 62 72 64 94 65 59 66 42 67
REMARK SMILES IDX 43 68 52 69 44 70 45 71 51 72 53 73 46 74 47 75 48 76 49 77
REMARK SMILES IDX 50 78 76 79 77 80 86 81 78 82 79 83 85 84 87 85 80 86 81 87
REMARK SMILES IDX 82 88 83 89 84 90 60 91 61 92 70 93 62 94 63 95 69 96 71 97
REMARK SMILES IDX 64 98 65 99 66 100 67 101 68 102
REMARK H PARENT 26 6 30 33 92 52 58 63
REMARK Flexibility Score: inf
ROOT
ATOM      1  C   UNL A   1      37.365  23.559  25.406  1.00  0.00     0.042 C 
ENDROOT
BRANCH   1   2
ATOM      2  C   UNL A   1      36.172  22.822  26.006  1.00  0.00     0.117 C 
BRANCH   2   3
ATOM      3  N   UNL A   1      36.230  21.381  25.863  1.00  0.00    -0.354 N 
ATOM      4  C   UNL A   1      35.537  20.524  25.063  1.00  0.00     0.243 C 
ATOM      5  O   UNL A   1      36.021  19.392  24.927  1.00  0.00    -0.273 OA
ATOM      6  H   UNL A   1      36.887  20.943  26.449  1.00  0.00     0.163 HD
BRANCH   4   7
ATOM      7  C   UNL A   1      34.333  20.937  24.193  1.00  0.00     0.184 C 
ATOM      8  N   UNL A   1      33.003  20.607  24.732  1.00  0.00    -0.299 N 
ATOM      9  C   UNL A   1      32.310  21.790  24.972  1.00  0.00     0.048 A 
ATOM     10  C   UNL A   1      31.218  21.974  25.786  1.00  0.00     0.028 A 
ATOM     11  C   UNL A   1      32.994  22.885  24.439  1.00  0.00    -0.020 A 
ATOM     12  C   UNL A   1      34.322  22.453  23.883  1.00  0.00     0.073 C 
ATOM     13  C   UNL A   1      30.739  23.268  25.959  1.00  0.00     0.024 A 
ATOM     14  C   UNL A   1      32.478  24.175  24.538  1.00  0.00     0.027 A 
ATOM     15  C   UNL A   1      31.312  24.353  25.292  1.00  0.00     0.083 A 
BRANCH   8  16
ATOM     16  C   UNL A   1      32.580  19.298  24.756  1.00  0.00     0.227 C 
ATOM     17  O   UNL A   1      32.514  18.684  25.825  1.00  0.00    -0.275 OA
BRANCH  16  18
ATOM     18  C   UNL A   1      32.510  18.517  23.443  1.00  0.00     0.097 C 
ATOM     19  C   UNL A   1      33.494  17.402  23.183  1.00  0.00     0.014 C 
ENDBRANCH  16  18
ENDBRANCH   8  16
BRANCH  15  20
ATOM     20  S   UNL A   1      30.567  25.971  25.420  1.00  0.00     0.243 S 
ATOM     21  O   UNL A   1      29.761  26.139  24.228  1.00  0.00    -0.207 OA
ATOM     22  O   UNL A   1      29.978  26.038  26.740  1.00  0.00    -0.207 OA
BRANCH  20  23
ATOM     23  N   UNL A   1      31.843  27.072  25.377  1.00  0.00    -0.198 NA
ATOM     24  C   UNL A   1      32.750  27.294  26.512  1.00  0.00     0.103 C 
ATOM     25  C   UNL A   1      32.023  27.999  24.258  1.00  0.00     0.103 C 
ATOM     26  C   UNL A   1      32.743  28.745  27.003  1.00  0.00     0.020 C 
ATOM     27  C   UNL A   1      31.690  29.404  24.718  1.00  0.00     0.020 C 
ATOM     28  C   UNL A   1      32.511  29.839  25.943  1.00  0.00    -0.012 C 
ATOM     29  C   UNL A   1      31.842  31.062  26.585  1.00  0.00     0.008 C 
ENDBRANCH  20  23
ENDBRANCH  15  20
ENDBRANCH   4   7
ENDBRANCH   2   3
ENDBRANCH   1   2
BRANCH   1  30
ATOM     30  C   UNL A   1      38.228  24.309  26.420  1.00  0.00     0.118 C 
BRANCH  30  31
ATOM     31  N   UNL A   1      39.655  24.161  26.169  1.00  0.00    -0.352 N 
ATOM     32  C   UNL A   1      40.736  24.857  26.648  1.00  0.00     0.251 C 
ATOM     33  H   UNL A   1      39.884  23.435  25.544  1.00  0.00     0.163 HD
ATOM     34  O   UNL A   1      41.838  24.658  26.141  1.00  0.00    -0.269 OA
BRANCH  32  35
ATOM     35  C   UNL A   1      40.600  25.841  27.746  1.00  0.00     0.039 A 
ATOM     36  C   UNL A   1      39.562  25.672  28.670  1.00  0.00     0.014 A 
ATOM     37  C   UNL A   1      41.433  26.959  27.839  1.00  0.00     0.014 A 
ATOM     38  C   UNL A   1      39.398  26.586  29.716  1.00  0.00     0.010 A 
ATOM     39  C   UNL A   1      41.308  27.835  28.918  1.00  0.00     0.010 A 
ATOM     40  C   UNL A   1      40.290  27.659  29.867  1.00  0.00    -0.014 A 
BRANCH  40  41
ATOM     41  C   UNL A   1      40.181  28.597  31.014  1.00  0.00     0.031 A 
ATOM     42  C   UNL A   1      39.162  29.705  30.996  1.00  0.00     0.074 A 
ATOM     43  C   UNL A   1      41.057  28.502  32.035  1.00  0.00     0.049 A 
ATOM     44  N   UNL A   1      38.988  30.679  31.854  1.00  0.00    -0.248 NA
ATOM     45  C   UNL A   1      38.236  29.742  29.853  1.00  0.00     0.031 C 
ATOM     46  C   UNL A   1      42.130  27.510  32.141  1.00  0.00     0.029 A 
ATOM     47  N   UNL A   1      41.202  29.265  33.167  1.00  0.00    -0.354 N 
ATOM     48  C   UNL A   1      37.958  31.460  31.339  1.00  0.00     0.074 A 
ATOM     49  C   UNL A   1      37.562  30.861  30.083  1.00  0.00     0.031 C 
ATOM     50  C   UNL A   1      42.821  27.726  33.271  1.00  0.00     0.029 A 
ATOM     51  C   UNL A   1      42.264  28.888  33.956  1.00  0.00     0.049 A 
ATOM     52  H   UNL A   1      40.602  30.012  33.394  1.00  0.00     0.167 HD
ATOM     53  C   UNL A   1      37.388  32.566  31.872  1.00  0.00     0.037 A 
ATOM     54  C   UNL A   1      42.747  29.426  35.093  1.00  0.00     0.037 A 
ATOM     55  C   UNL A   1      37.747  33.126  33.149  1.00  0.00     0.049 A 
ATOM     56  C   UNL A   1      42.059  30.624  35.691  1.00  0.00     0.074 A 
ATOM     57  C   UNL A   1      37.157  34.184  33.820  1.00  0.00     0.029 A 
ATOM     58  N   UNL A   1      38.785  32.675  33.949  1.00  0.00    -0.354 N 
ATOM     59  N   UNL A   1      41.032  31.296  35.229  1.00  0.00    -0.248 NA
ATOM     60  C   UNL A   1      42.588  31.130  36.965  1.00  0.00     0.031 C 
ATOM     61  C   UNL A   1      37.859  34.394  35.011  1.00  0.00     0.029 A 
ATOM     62  C   UNL A   1      38.863  33.444  35.099  1.00  0.00     0.049 A 
ATOM     63  H   UNL A   1      39.378  31.920  33.734  1.00  0.00     0.167 HD
ATOM     64  C   UNL A   1      40.779  32.291  36.168  1.00  0.00     0.074 A 
ATOM     65  C   UNL A   1      41.750  32.123  37.229  1.00  0.00     0.031 C 
ATOM     66  C   UNL A   1      39.828  33.256  36.153  1.00  0.00     0.037 A 
BRANCH  53  67
ATOM     67  C   UNL A   1      36.304  33.252  31.089  1.00  0.00     0.058 A 
ATOM     68  C   UNL A   1      34.963  33.214  31.500  1.00  0.00     0.135 A 
ATOM     69  C   UNL A   1      36.624  34.024  29.961  1.00  0.00     0.135 A 
ATOM     70  F   UNL A   1      34.603  32.479  32.564  1.00  0.00    -0.206 F 
ATOM     71  C   UNL A   1      33.974  33.910  30.814  1.00  0.00     0.059 A 
ATOM     72  C   UNL A   1      35.653  34.746  29.271  1.00  0.00     0.059 A 
ATOM     73  F   UNL A   1      37.892  34.093  29.526  1.00  0.00    -0.206 F 
ATOM     74  C   UNL A   1      34.329  34.677  29.702  1.00  0.00     0.060 A 
BRANCH  74  75
ATOM     75  S   UNL A   1      33.040  35.608  28.848  1.00  0.00     0.124 S 
ATOM     76  O   UNL A   1      32.263  36.125  29.970  1.00  0.00    -0.237 OA
ATOM     77  O   UNL A   1      33.810  36.598  28.101  1.00  0.00    -0.237 OA
ATOM     78  O   UNL A   1      32.372  34.596  28.035  1.00  0.00    -0.744 OA
ENDBRANCH  74  75
ENDBRANCH  53  67
BRANCH  54  79
ATOM     79  C   UNL A   1      43.946  28.839  35.745  1.00  0.00     0.058 A 
ATOM     80  C   UNL A   1      43.830  27.770  36.647  1.00  0.00     0.135 A 
ATOM     81  C   UNL A   1      45.230  29.341  35.487  1.00  0.00     0.135 A 
ATOM     82  F   UNL A   1      42.622  27.259  36.929  1.00  0.00    -0.206 F 
ATOM     83  C   UNL A   1      44.942  27.237  37.290  1.00  0.00     0.059 A 
ATOM     84  C   UNL A   1      46.359  28.809  36.101  1.00  0.00     0.059 A 
ATOM     85  F   UNL A   1      45.396  30.350  34.617  1.00  0.00    -0.206 F 
ATOM     86  C   UNL A   1      46.203  27.766  37.013  1.00  0.00     0.060 A 
BRANCH  86  87
ATOM     87  S   UNL A   1      47.650  27.049  37.824  1.00  0.00     0.124 S 
ATOM     88  O   UNL A   1      47.447  27.466  39.205  1.00  0.00    -0.237 OA
ATOM     89  O   UNL A   1      47.483  25.625  37.553  1.00  0.00    -0.237 OA
ATOM     90  O   UNL A   1      48.767  27.682  37.127  1.00  0.00    -0.744 OA
ENDBRANCH  86  87
ENDBRANCH  54  79
BRANCH  66  91
ATOM     91  C   UNL A   1      39.767  34.186  37.329  1.00  0.00     0.058 A 
ATOM     92  C   UNL A   1      40.380  35.448  37.301  1.00  0.00     0.135 A 
ATOM     93  C   UNL A   1      39.044  33.831  38.480  1.00  0.00     0.135 A 
ATOM     94  F   UNL A   1      41.089  35.830  36.227  1.00  0.00    -0.206 F 
ATOM     95  C   UNL A   1      40.296  36.319  38.382  1.00  0.00     0.059 A 
ATOM     96  C   UNL A   1      38.927  34.696  39.562  1.00  0.00     0.059 A 
ATOM     97  F   UNL A   1      38.431  32.639  38.551  1.00  0.00    -0.206 F 
ATOM     98  C   UNL A   1      39.566  35.935  39.508  1.00  0.00     0.060 A 
BRANCH  98  99
ATOM     99  S   UNL A   1      39.433  37.086  40.892  1.00  0.00     0.124 S 
ATOM    100  O   UNL A   1      38.516  38.085  40.356  1.00  0.00    -0.237 OA
ATOM    101  O   UNL A   1      38.899  36.240  41.956  1.00  0.00    -0.237 OA
ATOM    102  O   UNL A   1      40.809  37.536  41.091  1.00  0.00    -0.744 OA
ENDBRANCH  98  99
ENDBRANCH  66  91
ENDBRANCH  40  41
ENDBRANCH  32  35
ENDBRANCH  30  31
ENDBRANCH   1  30
TORSDOF 17
ENDMDL
