MODEL 1
REMARK VINA RESULT:     -13.1      0.000      0.000
REMARK SMILES COc1ccc(NC2=[NH+]C(=O)/C(=C\c3ccccc3C(=O)NCCCNC(=O)c3ccc(-c4c5nc(c(-c6c(F)cc(S(=O)(=O)[O-])cc6F)c6ccc([nH]6)c(-c6c(F)cc(S(=O)(=O)[O-])cc6F)c6nc(c(-c7c(F)cc(S(=O)(=O)[O-])cc7F)c7ccc4[nH]7)C=C6)C=C5)cc3)S2)cc1
REMARK SMILES IDX 24 1 23 2 22 3 20 4 21 5 19 7 14 8 15 9 16 10 18 11 17 12
REMARK SMILES IDX 13 13 7 14 8 15 9 17 95 18 10 19 12 21 11 22 6 23 3 24 4 25
REMARK SMILES IDX 97 26 5 27 96 28 2 29 1 30 25 31 26 32 27 33 28 35 29 36
REMARK SMILES IDX 30 37 94 38 31 39 93 40 32 41 33 42 34 43 87 44 35 45 92 46
REMARK SMILES IDX 86 47 88 48 36 49 91 50 85 51 84 52 37 54 71 55 50 56 70 57
REMARK SMILES IDX 51 58 54 59 69 60 89 61 52 62 53 63 68 65 90 66 55 67 38 68
REMARK SMILES IDX 39 69 48 70 40 71 41 72 47 73 49 74 42 75 43 76 44 77 45 78
REMARK SMILES IDX 46 79 72 80 73 81 82 82 74 83 75 84 81 85 83 86 76 87 77 88
REMARK SMILES IDX 78 89 79 90 80 91 56 92 57 93 66 94 58 95 59 96 65 97 67 98
REMARK SMILES IDX 60 99 61 100 62 101 63 102 64 103
REMARK H PARENT 22 6 7 16 9 20 26 34 88 53 54 64
REMARK Flexibility Score: inf
ROOT
ATOM      1  C   UNL A   1      32.892  28.676  27.566  1.00  0.00     0.042 C 
ENDROOT
BRANCH   1   2
ATOM      2  C   UNL A   1      31.398  28.431  27.510  1.00  0.00     0.118 C 
BRANCH   2   3
ATOM      3  N   UNL A   1      30.990  27.079  27.203  1.00  0.00    -0.352 N 
ATOM      4  C   UNL A   1      31.168  26.405  26.015  1.00  0.00     0.251 C 
ATOM      5  O   UNL A   1      30.642  25.303  25.867  1.00  0.00    -0.269 OA
ATOM      6  H   UNL A   1      30.534  26.585  27.922  1.00  0.00     0.163 HD
BRANCH   4   7
ATOM      7  C   UNL A   1      31.862  27.052  24.863  1.00  0.00     0.047 A 
ATOM      8  C   UNL A   1      33.185  26.817  24.430  1.00  0.00    -0.011 A 
ATOM      9  C   UNL A   1      33.719  27.696  23.460  1.00  0.00     0.009 A 
ATOM     10  C   UNL A   1      32.956  28.712  22.881  1.00  0.00     0.001 A 
ATOM     11  C   UNL A   1      31.083  28.042  24.225  1.00  0.00     0.014 A 
ATOM     12  C   UNL A   1      31.626  28.867  23.242  1.00  0.00     0.001 A 
BRANCH   8  13
ATOM     13  C   UNL A   1      34.164  25.833  24.942  1.00  0.00     0.032 C 
ATOM     14  N   UNL A   1      35.301  21.036  24.835  1.00  0.00    -0.235 N 
ATOM     15  C   UNL A   1      35.032  22.273  24.331  1.00  0.00     0.322 C 
ATOM     16  H   UNL A   1      36.195  20.916  25.229  1.00  0.00     0.313 HD
ATOM     17  N   UNL A   1      34.404  22.634  23.263  1.00  0.00    -0.199 N 
ATOM     18  S   UNL A   1      35.603  23.595  25.345  1.00  0.00     0.006 SA
ATOM     19  C   UNL A   1      34.308  24.006  23.138  1.00  0.00     0.346 C 
ATOM     20  H   UNL A   1      34.032  22.000  22.609  1.00  0.00     0.316 HD
ATOM     21  C   UNL A   1      34.619  24.681  24.427  1.00  0.00     0.110 C 
ATOM     22  O   UNL A   1      34.059  24.614  22.107  1.00  0.00    -0.240 OA
BRANCH  14  23
ATOM     23  C   UNL A   1      34.458  19.906  24.863  1.00  0.00     0.125 A 
ATOM     24  C   UNL A   1      33.039  17.501  25.253  1.00  0.00     0.119 A 
ATOM     25  C   UNL A   1      32.428  18.734  25.488  1.00  0.00     0.051 A 
ATOM     26  C   UNL A   1      34.317  17.471  24.708  1.00  0.00     0.051 A 
ATOM     27  C   UNL A   1      33.126  19.933  25.280  1.00  0.00     0.055 A 
ATOM     28  C   UNL A   1      35.015  18.665  24.508  1.00  0.00     0.055 A 
BRANCH  24  29
ATOM     29  O   UNL A   1      32.304  16.400  25.595  1.00  0.00    -0.497 OA
ATOM     30  C   UNL A   1      32.913  15.141  25.315  1.00  0.00     0.278 C 
ENDBRANCH  24  29
ENDBRANCH  14  23
ENDBRANCH   8  13
ENDBRANCH   4   7
ENDBRANCH   2   3
ENDBRANCH   1   2
BRANCH   1  31
ATOM     31  C   UNL A   1      33.374  30.009  26.997  1.00  0.00     0.118 C 
BRANCH  31  32
ATOM     32  N   UNL A   1      33.715  31.041  27.974  1.00  0.00    -0.352 N 
ATOM     33  C   UNL A   1      34.853  31.258  28.721  1.00  0.00     0.251 C 
ATOM     34  H   UNL A   1      33.000  31.701  28.129  1.00  0.00     0.163 HD
ATOM     35  O   UNL A   1      34.895  32.259  29.440  1.00  0.00    -0.269 OA
BRANCH  33  36
ATOM     36  C   UNL A   1      35.962  30.273  28.760  1.00  0.00     0.039 A 
ATOM     37  C   UNL A   1      36.769  30.163  27.621  1.00  0.00     0.014 A 
ATOM     38  C   UNL A   1      36.304  29.569  29.911  1.00  0.00     0.014 A 
ATOM     39  C   UNL A   1      38.009  29.532  27.707  1.00  0.00     0.010 A 
ATOM     40  C   UNL A   1      37.583  29.046  30.037  1.00  0.00     0.010 A 
ATOM     41  C   UNL A   1      38.467  29.082  28.953  1.00  0.00    -0.014 A 
BRANCH  41  42
ATOM     42  C   UNL A   1      39.905  28.815  29.185  1.00  0.00     0.031 A 
ATOM     43  C   UNL A   1      40.820  29.898  29.667  1.00  0.00     0.074 A 
ATOM     44  C   UNL A   1      40.398  27.620  28.795  1.00  0.00     0.049 A 
ATOM     45  N   UNL A   1      42.114  29.863  29.845  1.00  0.00    -0.248 NA
ATOM     46  C   UNL A   1      40.209  31.208  29.939  1.00  0.00     0.031 C 
ATOM     47  C   UNL A   1      39.612  26.543  28.181  1.00  0.00     0.029 A 
ATOM     48  N   UNL A   1      41.672  27.116  28.824  1.00  0.00    -0.354 N 
ATOM     49  C   UNL A   1      42.476  31.147  30.229  1.00  0.00     0.074 A 
ATOM     50  C   UNL A   1      41.273  31.951  30.203  1.00  0.00     0.031 C 
ATOM     51  C   UNL A   1      40.414  25.503  27.911  1.00  0.00     0.029 A 
ATOM     52  C   UNL A   1      41.775  25.847  28.301  1.00  0.00     0.049 A 
ATOM     53  H   UNL A   1      42.440  27.613  29.184  1.00  0.00     0.167 HD
ATOM     54  C   UNL A   1      43.699  31.604  30.589  1.00  0.00     0.037 A 
ATOM     55  C   UNL A   1      42.848  25.049  28.149  1.00  0.00     0.037 A 
ATOM     56  C   UNL A   1      44.878  30.780  30.619  1.00  0.00     0.049 A 
ATOM     57  C   UNL A   1      44.177  25.543  28.632  1.00  0.00     0.074 A 
ATOM     58  C   UNL A   1      46.147  31.098  31.066  1.00  0.00     0.029 A 
ATOM     59  N   UNL A   1      44.932  29.466  30.166  1.00  0.00    -0.354 N 
ATOM     60  N   UNL A   1      44.482  26.720  29.124  1.00  0.00    -0.248 NA
ATOM     61  C   UNL A   1      45.303  24.604  28.558  1.00  0.00     0.031 C 
ATOM     62  C   UNL A   1      46.975  29.989  30.855  1.00  0.00     0.029 A 
ATOM     63  C   UNL A   1      46.214  28.966  30.306  1.00  0.00     0.049 A 
ATOM     64  H   UNL A   1      44.167  28.964  29.800  1.00  0.00     0.167 HD
ATOM     65  C   UNL A   1      45.836  26.667  29.423  1.00  0.00     0.074 A 
ATOM     66  C   UNL A   1      46.285  25.332  29.076  1.00  0.00     0.031 C 
ATOM     67  C   UNL A   1      46.635  27.636  29.935  1.00  0.00     0.037 A 
BRANCH  54  68
ATOM     68  C   UNL A   1      43.800  33.053  30.977  1.00  0.00     0.058 A 
ATOM     69  C   UNL A   1      44.091  34.049  30.030  1.00  0.00     0.135 A 
ATOM     70  C   UNL A   1      43.643  33.452  32.314  1.00  0.00     0.135 A 
ATOM     71  F   UNL A   1      44.265  33.724  28.739  1.00  0.00    -0.206 F 
ATOM     72  C   UNL A   1      44.283  35.376  30.401  1.00  0.00     0.059 A 
ATOM     73  C   UNL A   1      43.802  34.779  32.705  1.00  0.00     0.059 A 
ATOM     74  F   UNL A   1      43.361  32.544  33.262  1.00  0.00    -0.206 F 
ATOM     75  C   UNL A   1      44.151  35.729  31.744  1.00  0.00     0.060 A 
BRANCH  75  76
ATOM     76  S   UNL A   1      44.456  37.443  32.221  1.00  0.00     0.124 S 
ATOM     77  O   UNL A   1      45.833  37.367  32.699  1.00  0.00    -0.237 OA
ATOM     78  O   UNL A   1      44.261  38.160  30.964  1.00  0.00    -0.237 OA
ATOM     79  O   UNL A   1      43.447  37.694  33.245  1.00  0.00    -0.744 OA
ENDBRANCH  75  76
ENDBRANCH  54  68
BRANCH  55  80
ATOM     80  C   UNL A   1      42.670  23.697  27.557  1.00  0.00     0.058 A 
ATOM     81  C   UNL A   1      42.835  23.487  26.181  1.00  0.00     0.135 A 
ATOM     82  C   UNL A   1      42.436  22.574  28.367  1.00  0.00     0.135 A 
ATOM     83  F   UNL A   1      43.061  24.529  25.366  1.00  0.00    -0.206 F 
ATOM     84  C   UNL A   1      42.789  22.211  25.627  1.00  0.00     0.059 A 
ATOM     85  C   UNL A   1      42.403  21.286  27.839  1.00  0.00     0.059 A 
ATOM     86  F   UNL A   1      42.296  22.720  29.693  1.00  0.00    -0.206 F 
ATOM     87  C   UNL A   1      42.584  21.115  26.467  1.00  0.00     0.060 A 
BRANCH  87  88
ATOM     88  S   UNL A   1      42.642  19.455  25.755  1.00  0.00     0.124 S 
ATOM     89  O   UNL A   1      43.115  18.665  26.886  1.00  0.00    -0.237 OA
ATOM     90  O   UNL A   1      41.253  19.240  25.362  1.00  0.00    -0.237 OA
ATOM     91  O   UNL A   1      43.582  19.598  24.647  1.00  0.00    -0.744 OA
ENDBRANCH  87  88
ENDBRANCH  55  80
BRANCH  67  92
ATOM     92  C   UNL A   1      48.078  27.283  30.141  1.00  0.00     0.058 A 
ATOM     93  C   UNL A   1      49.051  27.610  29.184  1.00  0.00     0.135 A 
ATOM     94  C   UNL A   1      48.498  26.659  31.326  1.00  0.00     0.135 A 
ATOM     95  F   UNL A   1      48.694  28.198  28.032  1.00  0.00    -0.206 F 
ATOM     96  C   UNL A   1      50.394  27.318  29.390  1.00  0.00     0.059 A 
ATOM     97  C   UNL A   1      49.839  26.377  31.561  1.00  0.00     0.059 A 
ATOM     98  F   UNL A   1      47.604  26.333  32.272  1.00  0.00    -0.206 F 
ATOM     99  C   UNL A   1      50.778  26.702  30.582  1.00  0.00     0.060 A 
BRANCH  99 100
ATOM    100  S   UNL A   1      52.529  26.363  30.857  1.00  0.00     0.124 S 
ATOM    101  O   UNL A   1      53.005  26.155  29.493  1.00  0.00    -0.237 OA
ATOM    102  O   UNL A   1      52.988  27.586  31.508  1.00  0.00    -0.237 OA
ATOM    103  O   UNL A   1      52.514  25.176  31.706  1.00  0.00    -0.744 OA
ENDBRANCH  99 100
ENDBRANCH  67  92
ENDBRANCH  41  42
ENDBRANCH  33  36
ENDBRANCH  31  32
ENDBRANCH   1  31
TORSDOF 16
ENDMDL
MODEL 2
REMARK VINA RESULT:     -12.6      1.456      2.109
REMARK SMILES COc1ccc(NC2=[NH+]C(=O)/C(=C\c3ccccc3C(=O)NCCCNC(=O)c3ccc(-c4c5nc(c(-c6c(F)cc(S(=O)(=O)[O-])cc6F)c6ccc([nH]6)c(-c6c(F)cc(S(=O)(=O)[O-])cc6F)c6nc(c(-c7c(F)cc(S(=O)(=O)[O-])cc7F)c7ccc4[nH]7)C=C6)C=C5)cc3)S2)cc1
REMARK SMILES IDX 24 1 23 2 22 3 20 4 21 5 19 7 14 8 15 9 16 10 18 11 17 12
REMARK SMILES IDX 13 13 7 14 8 15 9 17 95 18 10 19 12 21 11 22 6 23 3 24 4 25
REMARK SMILES IDX 97 26 5 27 96 28 2 29 1 30 25 31 26 32 27 33 28 35 29 36
REMARK SMILES IDX 30 37 94 38 31 39 93 40 32 41 33 42 34 43 87 44 35 45 92 46
REMARK SMILES IDX 86 47 88 48 36 49 91 50 85 51 84 52 37 54 71 55 50 56 70 57
REMARK SMILES IDX 51 58 54 59 69 60 89 61 52 62 53 63 68 65 90 66 55 67 38 68
REMARK SMILES IDX 39 69 48 70 40 71 41 72 47 73 49 74 42 75 43 76 44 77 45 78
REMARK SMILES IDX 46 79 72 80 73 81 82 82 74 83 75 84 81 85 83 86 76 87 77 88
REMARK SMILES IDX 78 89 79 90 80 91 56 92 57 93 66 94 58 95 59 96 65 97 67 98
REMARK SMILES IDX 60 99 61 100 62 101 63 102 64 103
REMARK H PARENT 22 6 7 16 9 20 26 34 88 53 54 64
REMARK Flexibility Score: inf
ROOT
ATOM      1  C   UNL A   1      32.732  30.995  26.840  1.00  0.00     0.042 C 
ENDROOT
BRANCH   1   2
ATOM      2  C   UNL A   1      32.086  29.916  25.993  1.00  0.00     0.118 C 
BRANCH   2   3
ATOM      3  N   UNL A   1      32.658  29.714  24.682  1.00  0.00    -0.352 N 
ATOM      4  C   UNL A   1      32.173  28.905  23.678  1.00  0.00     0.251 C 
ATOM      5  O   UNL A   1      32.851  28.737  22.666  1.00  0.00    -0.269 OA
ATOM      6  H   UNL A   1      33.486  30.209  24.485  1.00  0.00     0.163 HD
BRANCH   4   7
ATOM      7  C   UNL A   1      30.916  28.122  23.863  1.00  0.00     0.047 A 
ATOM      8  C   UNL A   1      30.777  26.888  24.534  1.00  0.00    -0.011 A 
ATOM      9  C   UNL A   1      29.544  26.209  24.401  1.00  0.00     0.009 A 
ATOM     10  C   UNL A   1      28.466  26.760  23.704  1.00  0.00     0.001 A 
ATOM     11  C   UNL A   1      29.800  28.695  23.215  1.00  0.00     0.014 A 
ATOM     12  C   UNL A   1      28.584  28.020  23.136  1.00  0.00     0.001 A 
BRANCH   8  13
ATOM     13  C   UNL A   1      31.798  26.122  25.280  1.00  0.00     0.032 C 
ATOM     14  N   UNL A   1      34.465  21.977  25.115  1.00  0.00    -0.235 N 
ATOM     15  C   UNL A   1      33.978  23.173  24.681  1.00  0.00     0.322 C 
ATOM     16  H   UNL A   1      35.158  22.021  25.813  1.00  0.00     0.313 HD
ATOM     17  N   UNL A   1      33.664  23.581  23.499  1.00  0.00    -0.199 N 
ATOM     18  S   UNL A   1      33.688  24.334  25.974  1.00  0.00     0.006 SA
ATOM     19  C   UNL A   1      33.155  24.865  23.493  1.00  0.00     0.346 C 
ATOM     20  H   UNL A   1      33.774  23.035  22.687  1.00  0.00     0.316 HD
ATOM     21  C   UNL A   1      32.764  25.288  24.865  1.00  0.00     0.110 C 
ATOM     22  O   UNL A   1      33.077  25.599  22.519  1.00  0.00    -0.240 OA
BRANCH  14  23
ATOM     23  C   UNL A   1      34.101  20.684  24.689  1.00  0.00     0.125 A 
ATOM     24  C   UNL A   1      33.426  17.978  24.268  1.00  0.00     0.119 A 
ATOM     25  C   UNL A   1      32.486  18.988  24.055  1.00  0.00     0.051 A 
ATOM     26  C   UNL A   1      34.737  18.326  24.574  1.00  0.00     0.051 A 
ATOM     27  C   UNL A   1      32.823  20.335  24.248  1.00  0.00     0.055 A 
ATOM     28  C   UNL A   1      35.069  19.669  24.774  1.00  0.00     0.055 A 
BRANCH  24  29
ATOM     29  O   UNL A   1      32.958  16.698  24.158  1.00  0.00    -0.497 OA
ATOM     30  C   UNL A   1      33.216  15.849  25.275  1.00  0.00     0.278 C 
ENDBRANCH  24  29
ENDBRANCH  14  23
ENDBRANCH   8  13
ENDBRANCH   4   7
ENDBRANCH   2   3
ENDBRANCH   1   2
BRANCH   1  31
ATOM     31  C   UNL A   1      33.963  30.571  27.640  1.00  0.00     0.118 C 
BRANCH  31  32
ATOM     32  N   UNL A   1      34.278  31.381  28.814  1.00  0.00    -0.352 N 
ATOM     33  C   UNL A   1      35.386  31.418  29.633  1.00  0.00     0.251 C 
ATOM     34  H   UNL A   1      33.568  32.015  29.069  1.00  0.00     0.163 HD
ATOM     35  O   UNL A   1      35.413  32.256  30.537  1.00  0.00    -0.269 OA
BRANCH  33  36
ATOM     36  C   UNL A   1      36.476  30.418  29.520  1.00  0.00     0.039 A 
ATOM     37  C   UNL A   1      36.980  30.154  28.241  1.00  0.00     0.014 A 
ATOM     38  C   UNL A   1      37.094  29.848  30.629  1.00  0.00     0.014 A 
ATOM     39  C   UNL A   1      38.206  29.507  28.098  1.00  0.00     0.010 A 
ATOM     40  C   UNL A   1      38.367  29.312  30.502  1.00  0.00     0.010 A 
ATOM     41  C   UNL A   1      38.958  29.197  29.239  1.00  0.00    -0.014 A 
BRANCH  41  42
ATOM     42  C   UNL A   1      40.411  28.924  29.144  1.00  0.00     0.031 A 
ATOM     43  C   UNL A   1      41.412  30.025  29.312  1.00  0.00     0.074 A 
ATOM     44  C   UNL A   1      40.798  27.695  28.741  1.00  0.00     0.049 A 
ATOM     45  N   UNL A   1      42.711  29.981  29.181  1.00  0.00    -0.248 NA
ATOM     46  C   UNL A   1      40.881  31.361  29.620  1.00  0.00     0.031 C 
ATOM     47  C   UNL A   1      39.891  26.589  28.414  1.00  0.00     0.029 A 
ATOM     48  N   UNL A   1      42.044  27.174  28.506  1.00  0.00    -0.354 N 
ATOM     49  C   UNL A   1      43.152  31.284  29.369  1.00  0.00     0.074 A 
ATOM     50  C   UNL A   1      41.976  32.104  29.568  1.00  0.00     0.031 C 
ATOM     51  C   UNL A   1      40.608  25.519  28.042  1.00  0.00     0.029 A 
ATOM     52  C   UNL A   1      42.022  25.868  28.072  1.00  0.00     0.049 A 
ATOM     53  H   UNL A   1      42.875  27.684  28.636  1.00  0.00     0.167 HD
ATOM     54  C   UNL A   1      44.425  31.747  29.394  1.00  0.00     0.037 A 
ATOM     55  C   UNL A   1      43.029  25.043  27.731  1.00  0.00     0.037 A 
ATOM     56  C   UNL A   1      45.579  30.907  29.207  1.00  0.00     0.049 A 
ATOM     57  C   UNL A   1      44.435  25.549  27.847  1.00  0.00     0.074 A 
ATOM     58  C   UNL A   1      46.917  31.237  29.316  1.00  0.00     0.029 A 
ATOM     59  N   UNL A   1      45.526  29.563  28.856  1.00  0.00    -0.354 N 
ATOM     60  N   UNL A   1      44.846  26.754  28.162  1.00  0.00    -0.248 NA
ATOM     61  C   UNL A   1      45.512  24.589  27.581  1.00  0.00     0.031 C 
ATOM     62  C   UNL A   1      47.673  30.101  29.000  1.00  0.00     0.029 A 
ATOM     63  C   UNL A   1      46.806  29.053  28.726  1.00  0.00     0.049 A 
ATOM     64  H   UNL A   1      44.697  29.048  28.721  1.00  0.00     0.167 HD
ATOM     65  C   UNL A   1      46.232  26.702  28.136  1.00  0.00     0.074 A 
ATOM     66  C   UNL A   1      46.588  25.337  27.795  1.00  0.00     0.031 C 
ATOM     67  C   UNL A   1      47.129  27.692  28.369  1.00  0.00     0.037 A 
BRANCH  54  68
ATOM     68  C   UNL A   1      44.613  33.218  29.637  1.00  0.00     0.058 A 
ATOM     69  C   UNL A   1      44.717  33.741  30.937  1.00  0.00     0.135 A 
ATOM     70  C   UNL A   1      44.650  34.125  28.565  1.00  0.00     0.135 A 
ATOM     71  F   UNL A   1      44.673  32.923  32.001  1.00  0.00    -0.206 F 
ATOM     72  C   UNL A   1      44.791  35.111  31.169  1.00  0.00     0.059 A 
ATOM     73  C   UNL A   1      44.752  35.498  28.773  1.00  0.00     0.059 A 
ATOM     74  F   UNL A   1      44.558  33.681  27.301  1.00  0.00    -0.206 F 
ATOM     75  C   UNL A   1      44.793  35.983  30.079  1.00  0.00     0.060 A 
BRANCH  75  76
ATOM     76  S   UNL A   1      44.833  37.760  30.396  1.00  0.00     0.124 S 
ATOM     77  O   UNL A   1      44.565  38.294  29.064  1.00  0.00    -0.237 OA
ATOM     78  O   UNL A   1      43.762  37.931  31.373  1.00  0.00    -0.237 OA
ATOM     79  O   UNL A   1      46.182  37.982  30.904  1.00  0.00    -0.744 OA
ENDBRANCH  75  76
ENDBRANCH  54  68
BRANCH  55  80
ATOM     80  C   UNL A   1      42.718  23.654  27.303  1.00  0.00     0.058 A 
ATOM     81  C   UNL A   1      42.701  23.307  25.945  1.00  0.00     0.135 A 
ATOM     82  C   UNL A   1      42.537  22.627  28.243  1.00  0.00     0.135 A 
ATOM     83  F   UNL A   1      42.870  24.254  25.009  1.00  0.00    -0.206 F 
ATOM     84  C   UNL A   1      42.528  21.989  25.531  1.00  0.00     0.059 A 
ATOM     85  C   UNL A   1      42.380  21.299  27.854  1.00  0.00     0.059 A 
ATOM     86  F   UNL A   1      42.571  22.904  29.555  1.00  0.00    -0.206 F 
ATOM     87  C   UNL A   1      42.380  20.990  26.495  1.00  0.00     0.060 A 
BRANCH  87  88
ATOM     88  S   UNL A   1      42.274  19.271  25.950  1.00  0.00     0.124 S 
ATOM     89  O   UNL A   1      43.221  19.253  24.841  1.00  0.00    -0.237 OA
ATOM     90  O   UNL A   1      42.680  18.543  27.149  1.00  0.00    -0.237 OA
ATOM     91  O   UNL A   1      40.869  19.121  25.584  1.00  0.00    -0.744 OA
ENDBRANCH  87  88
ENDBRANCH  55  80
BRANCH  67  92
ATOM     92  C   UNL A   1      48.580  27.331  28.254  1.00  0.00     0.058 A 
ATOM     93  C   UNL A   1      49.264  27.450  27.035  1.00  0.00     0.135 A 
ATOM     94  C   UNL A   1      49.303  26.914  29.382  1.00  0.00     0.135 A 
ATOM     95  F   UNL A   1      48.612  27.836  25.928  1.00  0.00    -0.206 F 
ATOM     96  C   UNL A   1      50.618  27.152  26.935  1.00  0.00     0.059 A 
ATOM     97  C   UNL A   1      50.662  26.631  29.308  1.00  0.00     0.059 A 
ATOM     98  F   UNL A   1      48.691  26.792  30.570  1.00  0.00    -0.206 F 
ATOM     99  C   UNL A   1      51.309  26.745  28.077  1.00  0.00     0.060 A 
BRANCH  99 100
ATOM    100  S   UNL A   1      53.074  26.400  27.945  1.00  0.00     0.124 S 
ATOM    101  O   UNL A   1      53.084  25.264  27.030  1.00  0.00    -0.237 OA
ATOM    102  O   UNL A   1      53.600  27.651  27.409  1.00  0.00    -0.237 OA
ATOM    103  O   UNL A   1      53.464  26.102  29.320  1.00  0.00    -0.744 OA
ENDBRANCH  99 100
ENDBRANCH  67  92
ENDBRANCH  41  42
ENDBRANCH  33  36
ENDBRANCH  31  32
ENDBRANCH   1  31
TORSDOF 16
ENDMDL
MODEL 3
REMARK VINA RESULT:     -12.6      5.054     10.886
REMARK SMILES COc1ccc(NC2=[NH+]C(=O)/C(=C\c3ccccc3C(=O)NCCCNC(=O)c3ccc(-c4c5nc(c(-c6c(F)cc(S(=O)(=O)[O-])cc6F)c6ccc([nH]6)c(-c6c(F)cc(S(=O)(=O)[O-])cc6F)c6nc(c(-c7c(F)cc(S(=O)(=O)[O-])cc7F)c7ccc4[nH]7)C=C6)C=C5)cc3)S2)cc1
REMARK SMILES IDX 24 1 23 2 22 3 20 4 21 5 19 7 14 8 15 9 16 10 18 11 17 12
REMARK SMILES IDX 13 13 7 14 8 15 9 17 95 18 10 19 12 21 11 22 6 23 3 24 4 25
REMARK SMILES IDX 97 26 5 27 96 28 2 29 1 30 25 31 26 32 27 33 28 35 29 36
REMARK SMILES IDX 30 37 94 38 31 39 93 40 32 41 33 42 34 43 87 44 35 45 92 46
REMARK SMILES IDX 86 47 88 48 36 49 91 50 85 51 84 52 37 54 71 55 50 56 70 57
REMARK SMILES IDX 51 58 54 59 69 60 89 61 52 62 53 63 68 65 90 66 55 67 38 68
REMARK SMILES IDX 39 69 48 70 40 71 41 72 47 73 49 74 42 75 43 76 44 77 45 78
REMARK SMILES IDX 46 79 72 80 73 81 82 82 74 83 75 84 81 85 83 86 76 87 77 88
REMARK SMILES IDX 78 89 79 90 80 91 56 92 57 93 66 94 58 95 59 96 65 97 67 98
REMARK SMILES IDX 60 99 61 100 62 101 63 102 64 103
REMARK H PARENT 22 6 7 16 9 20 26 34 88 53 54 64
REMARK Flexibility Score: inf
ROOT
ATOM      1  C   UNL A   1      37.880  22.841  25.792  1.00  0.00     0.042 C 
ENDROOT
BRANCH   1   2
ATOM      2  C   UNL A   1      36.470  23.082  25.292  1.00  0.00     0.118 C 
BRANCH   2   3
ATOM      3  N   UNL A   1      35.454  23.227  26.309  1.00  0.00    -0.352 N 
ATOM      4  C   UNL A   1      34.261  22.543  26.397  1.00  0.00     0.251 C 
ATOM      5  O   UNL A   1      33.441  22.879  27.250  1.00  0.00    -0.269 OA
ATOM      6  H   UNL A   1      35.634  23.886  27.017  1.00  0.00     0.163 HD
BRANCH   4   7
ATOM      7  C   UNL A   1      33.893  21.508  25.387  1.00  0.00     0.047 A 
ATOM      8  C   UNL A   1      32.831  21.569  24.459  1.00  0.00    -0.011 A 
ATOM      9  C   UNL A   1      32.520  20.388  23.746  1.00  0.00     0.009 A 
ATOM     10  C   UNL A   1      33.274  19.221  23.880  1.00  0.00     0.001 A 
ATOM     11  C   UNL A   1      34.685  20.343  25.467  1.00  0.00     0.014 A 
ATOM     12  C   UNL A   1      34.378  19.207  24.720  1.00  0.00     0.001 A 
BRANCH   8  13
ATOM     13  C   UNL A   1      31.891  22.682  24.201  1.00  0.00     0.032 C 
ATOM     14  N   UNL A   1      31.623  27.602  24.012  1.00  0.00    -0.235 N 
ATOM     15  C   UNL A   1      32.084  26.359  23.702  1.00  0.00     0.322 C 
ATOM     16  H   UNL A   1      30.761  27.855  23.610  1.00  0.00     0.313 HD
ATOM     17  N   UNL A   1      33.275  25.940  23.435  1.00  0.00    -0.199 N 
ATOM     18  S   UNL A   1      30.839  25.112  23.719  1.00  0.00     0.006 SA
ATOM     19  C   UNL A   1      33.325  24.576  23.217  1.00  0.00     0.346 C 
ATOM     20  H   UNL A   1      34.063  26.527  23.393  1.00  0.00     0.316 HD
ATOM     21  C   UNL A   1      32.086  23.913  23.705  1.00  0.00     0.110 C 
ATOM     22  O   UNL A   1      34.226  23.976  22.651  1.00  0.00    -0.240 OA
BRANCH  14  23
ATOM     23  C   UNL A   1      32.227  28.574  24.836  1.00  0.00     0.125 A 
ATOM     24  C   UNL A   1      33.122  30.400  26.789  1.00  0.00     0.119 A 
ATOM     25  C   UNL A   1      33.941  29.351  26.367  1.00  0.00     0.051 A 
ATOM     26  C   UNL A   1      31.906  30.609  26.151  1.00  0.00     0.051 A 
ATOM     27  C   UNL A   1      33.505  28.450  25.385  1.00  0.00     0.055 A 
ATOM     28  C   UNL A   1      31.468  29.706  25.178  1.00  0.00     0.055 A 
BRANCH  24  29
ATOM     29  O   UNL A   1      33.604  31.147  27.828  1.00  0.00    -0.497 OA
ATOM     30  C   UNL A   1      35.024  31.262  27.900  1.00  0.00     0.278 C 
ENDBRANCH  24  29
ENDBRANCH  14  23
ENDBRANCH   8  13
ENDBRANCH   4   7
ENDBRANCH   2   3
ENDBRANCH   1   2
BRANCH   1  31
ATOM     31  C   UNL A   1      38.532  24.001  26.543  1.00  0.00     0.118 C 
BRANCH  31  32
ATOM     32  N   UNL A   1      39.476  24.813  25.778  1.00  0.00    -0.352 N 
ATOM     33  C   UNL A   1      40.481  25.669  26.174  1.00  0.00     0.251 C 
ATOM     34  H   UNL A   1      39.375  24.736  24.801  1.00  0.00     0.163 HD
ATOM     35  O   UNL A   1      41.178  26.191  25.301  1.00  0.00    -0.269 OA
BRANCH  33  36
ATOM     36  C   UNL A   1      40.666  26.053  27.595  1.00  0.00     0.039 A 
ATOM     37  C   UNL A   1      41.867  26.684  27.942  1.00  0.00     0.014 A 
ATOM     38  C   UNL A   1      39.656  25.936  28.546  1.00  0.00     0.014 A 
ATOM     39  C   UNL A   1      41.966  27.371  29.151  1.00  0.00     0.010 A 
ATOM     40  C   UNL A   1      39.704  26.714  29.693  1.00  0.00     0.010 A 
ATOM     41  C   UNL A   1      40.836  27.488  29.970  1.00  0.00    -0.014 A 
BRANCH  41  42
ATOM     42  C   UNL A   1      40.754  28.540  31.011  1.00  0.00     0.031 A 
ATOM     43  C   UNL A   1      41.563  28.443  32.267  1.00  0.00     0.074 A 
ATOM     44  C   UNL A   1      39.811  29.497  30.869  1.00  0.00     0.049 A 
ATOM     45  N   UNL A   1      41.553  29.226  33.313  1.00  0.00    -0.248 NA
ATOM     46  C   UNL A   1      42.466  27.289  32.385  1.00  0.00     0.031 C 
ATOM     47  C   UNL A   1      38.873  29.598  29.745  1.00  0.00     0.029 A 
ATOM     48  N   UNL A   1      39.460  30.544  31.680  1.00  0.00    -0.354 N 
ATOM     49  C   UNL A   1      42.431  28.650  34.221  1.00  0.00     0.074 A 
ATOM     50  C   UNL A   1      42.912  27.423  33.624  1.00  0.00     0.031 C 
ATOM     51  C   UNL A   1      38.070  30.656  29.927  1.00  0.00     0.029 A 
ATOM     52  C   UNL A   1      38.412  31.292  31.193  1.00  0.00     0.049 A 
ATOM     53  H   UNL A   1      39.915  30.744  32.530  1.00  0.00     0.167 HD
ATOM     54  C   UNL A   1      42.814  29.117  35.434  1.00  0.00     0.037 A 
ATOM     55  C   UNL A   1      37.792  32.368  31.710  1.00  0.00     0.037 A 
ATOM     56  C   UNL A   1      42.330  30.349  35.999  1.00  0.00     0.049 A 
ATOM     57  C   UNL A   1      38.288  32.919  33.013  1.00  0.00     0.074 A 
ATOM     58  C   UNL A   1      42.722  30.980  37.165  1.00  0.00     0.029 A 
ATOM     59  N   UNL A   1      41.330  31.134  35.437  1.00  0.00    -0.354 N 
ATOM     60  N   UNL A   1      39.219  32.439  33.801  1.00  0.00    -0.248 NA
ATOM     61  C   UNL A   1      37.667  34.160  33.490  1.00  0.00     0.031 C 
ATOM     62  C   UNL A   1      41.937  32.128  37.324  1.00  0.00     0.029 A 
ATOM     63  C   UNL A   1      41.078  32.233  36.239  1.00  0.00     0.049 A 
ATOM     64  H   UNL A   1      40.869  30.938  34.589  1.00  0.00     0.167 HD
ATOM     65  C   UNL A   1      39.302  33.319  34.871  1.00  0.00     0.074 A 
ATOM     66  C   UNL A   1      38.339  34.374  34.614  1.00  0.00     0.031 C 
ATOM     67  C   UNL A   1      40.100  33.258  35.966  1.00  0.00     0.037 A 
BRANCH  54  68
ATOM     68  C   UNL A   1      43.801  28.286  36.206  1.00  0.00     0.058 A 
ATOM     69  C   UNL A   1      45.184  28.521  36.121  1.00  0.00     0.135 A 
ATOM     70  C   UNL A   1      43.369  27.219  37.009  1.00  0.00     0.135 A 
ATOM     71  F   UNL A   1      45.655  29.520  35.357  1.00  0.00    -0.206 F 
ATOM     72  C   UNL A   1      46.105  27.693  36.754  1.00  0.00     0.059 A 
ATOM     73  C   UNL A   1      44.272  26.394  37.675  1.00  0.00     0.059 A 
ATOM     74  F   UNL A   1      42.059  26.949  37.129  1.00  0.00    -0.206 F 
ATOM     75  C   UNL A   1      45.639  26.622  37.518  1.00  0.00     0.060 A 
BRANCH  75  76
ATOM     76  S   UNL A   1      46.845  25.523  38.289  1.00  0.00     0.124 S 
ATOM     77  O   UNL A   1      46.497  24.242  37.681  1.00  0.00    -0.237 OA
ATOM     78  O   UNL A   1      48.116  26.100  37.864  1.00  0.00    -0.237 OA
ATOM     79  O   UNL A   1      46.550  25.644  39.713  1.00  0.00    -0.744 OA
ENDBRANCH  75  76
ENDBRANCH  54  68
BRANCH  55  80
ATOM     80  C   UNL A   1      36.678  32.998  30.954  1.00  0.00     0.058 A 
ATOM     81  C   UNL A   1      35.348  32.841  31.368  1.00  0.00     0.135 A 
ATOM     82  C   UNL A   1      36.929  33.854  29.869  1.00  0.00     0.135 A 
ATOM     83  F   UNL A   1      35.059  32.035  32.400  1.00  0.00    -0.206 F 
ATOM     84  C   UNL A   1      34.305  33.518  30.743  1.00  0.00     0.059 A 
ATOM     85  C   UNL A   1      35.904  34.555  29.238  1.00  0.00     0.059 A 
ATOM     86  F   UNL A   1      38.188  34.056  29.451  1.00  0.00    -0.206 F 
ATOM     87  C   UNL A   1      34.595  34.382  29.686  1.00  0.00     0.060 A 
BRANCH  87  88
ATOM     88  S   UNL A   1      33.249  35.345  28.959  1.00  0.00     0.124 S 
ATOM     89  O   UNL A   1      33.981  36.385  28.245  1.00  0.00    -0.237 OA
ATOM     90  O   UNL A   1      32.576  34.352  28.128  1.00  0.00    -0.237 OA
ATOM     91  O   UNL A   1      32.490  35.792  30.124  1.00  0.00    -0.744 OA
ENDBRANCH  87  88
ENDBRANCH  55  80
BRANCH  67  92
ATOM     92  C   UNL A   1      39.954  34.363  36.970  1.00  0.00     0.058 A 
ATOM     93  C   UNL A   1      39.079  34.245  38.059  1.00  0.00     0.135 A 
ATOM     94  C   UNL A   1      40.734  35.526  36.869  1.00  0.00     0.135 A 
ATOM     95  F   UNL A   1      38.306  33.155  38.191  1.00  0.00    -0.206 F 
ATOM     96  C   UNL A   1      38.970  35.251  39.012  1.00  0.00     0.059 A 
ATOM     97  C   UNL A   1      40.656  36.535  37.822  1.00  0.00     0.059 A 
ATOM     98  F   UNL A   1      41.590  35.680  35.847  1.00  0.00    -0.206 F 
ATOM     99  C   UNL A   1      39.764  36.392  38.885  1.00  0.00     0.060 A 
BRANCH  99 100
ATOM    100  S   UNL A   1      39.645  37.675  40.148  1.00  0.00     0.124 S 
ATOM    101  O   UNL A   1      38.260  38.108  39.996  1.00  0.00    -0.237 OA
ATOM    102  O   UNL A   1      39.948  36.940  41.372  1.00  0.00    -0.237 OA
ATOM    103  O   UNL A   1      40.656  38.646  39.740  1.00  0.00    -0.744 OA
ENDBRANCH  99 100
ENDBRANCH  67  92
ENDBRANCH  41  42
ENDBRANCH  33  36
ENDBRANCH  31  32
ENDBRANCH   1  31
TORSDOF 16
ENDMDL
