MODEL 1
REMARK VINA RESULT:     -12.1      0.000      0.000
REMARK SMILES Cc1n[nH]c(C(=O)N[C@@H](CC(C)C)C(=O)NCCCNC(=O)c2ccc(-c3c4nc(c(-c5c(F)cc(S(=O)(=O)[O-])cc5F)c5ccc([nH]5)c(-c5c(F)cc(S(=O)(=O)[O-])cc5F)c5nc(c(-c6c(F)cc(S(=O)(=O)[O-])cc6F)c6ccc3[nH]6)C=C5)C=C4)cc2)n1
REMARK SMILES IDX 18 1 17 2 16 3 14 4 15 5 9 7 8 8 6 9 7 10 5 12 1 13 2 14
REMARK SMILES IDX 3 15 89 16 4 17 10 19 11 20 12 21 13 22 19 23 20 24 21 25
REMARK SMILES IDX 22 27 23 28 24 29 88 30 25 31 87 32 26 33 27 34 28 35 81 36
REMARK SMILES IDX 29 37 86 38 80 39 82 40 30 41 85 42 79 43 78 44 31 46 65 47
REMARK SMILES IDX 44 48 64 49 45 50 48 51 63 52 83 53 46 54 47 55 62 57 84 58
REMARK SMILES IDX 49 59 32 60 33 61 42 62 34 63 35 64 41 65 43 66 36 67 37 68
REMARK SMILES IDX 38 69 39 70 40 71 66 72 67 73 76 74 68 75 69 76 75 77 77 78
REMARK SMILES IDX 70 79 71 80 72 81 73 82 74 83 50 84 51 85 60 86 52 87 53 88
REMARK SMILES IDX 59 89 61 90 54 91 55 92 56 93 57 94 58 95
REMARK H PARENT 16 6 8 11 4 18 20 26 82 45 48 56
REMARK Flexibility Score: inf
ROOT
ATOM      1  C   UNL A   1      37.325  21.937  24.346  1.00  0.00     0.042 C 
ENDROOT
BRANCH   1   2
ATOM      2  C   UNL A   1      35.811  21.762  24.400  1.00  0.00     0.117 C 
BRANCH   2   3
ATOM      3  N   UNL A   1      35.273  21.274  25.660  1.00  0.00    -0.354 N 
ATOM      4  C   UNL A   1      34.198  21.712  26.385  1.00  0.00     0.242 C 
ATOM      5  O   UNL A   1      33.705  20.936  27.210  1.00  0.00    -0.273 OA
ATOM      6  H   UNL A   1      35.758  20.512  26.051  1.00  0.00     0.163 HD
BRANCH   4   7
ATOM      7  C   UNL A   1      33.554  23.106  26.195  1.00  0.00     0.172 C 
BRANCH   7   8
ATOM      8  N   UNL A   1      32.310  23.186  26.956  1.00  0.00    -0.338 N 
ATOM      9  C   UNL A   1      31.019  23.535  26.639  1.00  0.00     0.289 C 
ATOM     10  O   UNL A   1      30.210  23.274  27.537  1.00  0.00    -0.266 OA
ATOM     11  H   UNL A   1      32.421  22.936  27.902  1.00  0.00     0.164 HD
BRANCH   9  12
ATOM     12  C   UNL A   1      30.632  24.221  25.420  1.00  0.00     0.214 A 
ATOM     13  C   UNL A   1      29.467  27.092  23.690  1.00  0.00     0.092 C 
ATOM     14  C   UNL A   1      29.972  25.774  24.122  1.00  0.00     0.148 A 
ATOM     15  N   UNL A   1      30.222  24.770  23.278  1.00  0.00    -0.159 NA
ATOM     16  N   UNL A   1      30.232  25.486  25.430  1.00  0.00    -0.207 NA
ATOM     17  N   UNL A   1      30.561  23.782  24.128  1.00  0.00    -0.255 N 
ATOM     18  H   UNL A   1      30.735  22.853  23.851  1.00  0.00     0.192 HD
ENDBRANCH   9  12
ENDBRANCH   7   8
BRANCH   7  19
ATOM     19  C   UNL A   1      34.433  24.372  26.317  1.00  0.00     0.038 C 
BRANCH  19  20
ATOM     20  C   UNL A   1      34.431  25.438  25.209  1.00  0.00    -0.015 C 
ATOM     21  C   UNL A   1      33.940  24.886  23.867  1.00  0.00     0.007 C 
ATOM     22  C   UNL A   1      33.537  26.623  25.597  1.00  0.00     0.007 C 
ENDBRANCH  19  20
ENDBRANCH   7  19
ENDBRANCH   4   7
ENDBRANCH   2   3
ENDBRANCH   1   2
BRANCH   1  23
ATOM     23  C   UNL A   1      37.873  22.692  25.544  1.00  0.00     0.118 C 
BRANCH  23  24
ATOM     24  N   UNL A   1      38.679  21.860  26.446  1.00  0.00    -0.352 N 
ATOM     25  C   UNL A   1      39.795  22.250  27.177  1.00  0.00     0.251 C 
ATOM     26  H   UNL A   1      38.399  20.921  26.542  1.00  0.00     0.163 HD
ATOM     27  O   UNL A   1      40.520  21.444  27.717  1.00  0.00    -0.269 OA
BRANCH  25  28
ATOM     28  C   UNL A   1      40.068  23.699  27.231  1.00  0.00     0.039 A 
ATOM     29  C   UNL A   1      39.013  24.605  27.355  1.00  0.00     0.014 A 
ATOM     30  C   UNL A   1      41.387  24.088  27.423  1.00  0.00     0.014 A 
ATOM     31  C   UNL A   1      39.286  25.892  27.821  1.00  0.00     0.010 A 
ATOM     32  C   UNL A   1      41.628  25.309  28.015  1.00  0.00     0.010 A 
ATOM     33  C   UNL A   1      40.590  26.232  28.211  1.00  0.00    -0.014 A 
BRANCH  33  34
ATOM     34  C   UNL A   1      40.853  27.497  28.911  1.00  0.00     0.031 A 
ATOM     35  C   UNL A   1      41.891  28.425  28.350  1.00  0.00     0.074 A 
ATOM     36  C   UNL A   1      40.068  27.970  29.901  1.00  0.00     0.049 A 
ATOM     37  N   UNL A   1      42.979  28.832  28.924  1.00  0.00    -0.248 NA
ATOM     38  C   UNL A   1      41.717  28.952  26.990  1.00  0.00     0.031 C 
ATOM     39  C   UNL A   1      38.837  27.396  30.457  1.00  0.00     0.029 A 
ATOM     40  N   UNL A   1      40.155  29.169  30.543  1.00  0.00    -0.354 N 
ATOM     41  C   UNL A   1      43.557  29.783  28.079  1.00  0.00     0.074 A 
ATOM     42  C   UNL A   1      42.787  29.743  26.860  1.00  0.00     0.031 C 
ATOM     43  C   UNL A   1      38.167  28.345  31.141  1.00  0.00     0.029 A 
ATOM     44  C   UNL A   1      39.010  29.521  31.234  1.00  0.00     0.049 A 
ATOM     45  H   UNL A   1      40.961  29.735  30.515  1.00  0.00     0.167 HD
ATOM     46  C   UNL A   1      44.543  30.633  28.496  1.00  0.00     0.037 A 
ATOM     47  C   UNL A   1      38.750  30.705  31.832  1.00  0.00     0.037 A 
ATOM     48  C   UNL A   1      45.067  30.250  29.781  1.00  0.00     0.049 A 
ATOM     49  C   UNL A   1      40.062  31.311  32.172  1.00  0.00     0.074 A 
ATOM     50  C   UNL A   1      45.704  29.131  30.282  1.00  0.00     0.029 A 
ATOM     51  N   UNL A   1      44.677  30.973  30.883  1.00  0.00    -0.354 N 
ATOM     52  N   UNL A   1      40.897  30.790  33.034  1.00  0.00    -0.248 NA
ATOM     53  C   UNL A   1      40.642  32.286  31.261  1.00  0.00     0.031 C 
ATOM     54  C   UNL A   1      45.212  28.994  31.614  1.00  0.00     0.029 A 
ATOM     55  C   UNL A   1      44.338  30.058  31.848  1.00  0.00     0.049 A 
ATOM     56  H   UNL A   1      44.646  31.953  30.963  1.00  0.00     0.167 HD
ATOM     57  C   UNL A   1      42.156  31.041  32.508  1.00  0.00     0.074 A 
ATOM     58  C   UNL A   1      41.940  32.068  31.493  1.00  0.00     0.031 C 
ATOM     59  C   UNL A   1      43.210  30.202  32.744  1.00  0.00     0.037 A 
BRANCH  46  60
ATOM     60  C   UNL A   1      44.885  31.979  27.897  1.00  0.00     0.058 A 
ATOM     61  C   UNL A   1      46.151  32.179  27.302  1.00  0.00     0.135 A 
ATOM     62  C   UNL A   1      44.132  33.146  28.133  1.00  0.00     0.135 A 
ATOM     63  F   UNL A   1      46.953  31.137  27.029  1.00  0.00    -0.206 F 
ATOM     64  C   UNL A   1      46.664  33.450  27.036  1.00  0.00     0.059 A 
ATOM     65  C   UNL A   1      44.604  34.422  27.830  1.00  0.00     0.059 A 
ATOM     66  F   UNL A   1      42.949  33.103  28.759  1.00  0.00    -0.206 F 
ATOM     67  C   UNL A   1      45.891  34.568  27.328  1.00  0.00     0.060 A 
BRANCH  67  68
ATOM     68  S   UNL A   1      46.604  36.214  27.123  1.00  0.00     0.124 S 
ATOM     69  O   UNL A   1      46.983  36.190  25.715  1.00  0.00    -0.237 OA
ATOM     70  O   UNL A   1      45.482  37.082  27.467  1.00  0.00    -0.237 OA
ATOM     71  O   UNL A   1      47.708  36.219  28.077  1.00  0.00    -0.744 OA
ENDBRANCH  67  68
ENDBRANCH  46  60
BRANCH  47  72
ATOM     72  C   UNL A   1      37.451  31.421  31.843  1.00  0.00     0.058 A 
ATOM     73  C   UNL A   1      36.801  31.725  33.050  1.00  0.00     0.135 A 
ATOM     74  C   UNL A   1      36.936  32.044  30.684  1.00  0.00     0.135 A 
ATOM     75  F   UNL A   1      37.237  31.198  34.203  1.00  0.00    -0.206 F 
ATOM     76  C   UNL A   1      35.736  32.631  33.111  1.00  0.00     0.059 A 
ATOM     77  C   UNL A   1      35.865  32.932  30.719  1.00  0.00     0.059 A 
ATOM     78  F   UNL A   1      37.517  31.881  29.486  1.00  0.00    -0.206 F 
ATOM     79  C   UNL A   1      35.288  33.245  31.941  1.00  0.00     0.060 A 
BRANCH  79  80
ATOM     80  S   UNL A   1      34.053  34.559  32.040  1.00  0.00     0.124 S 
ATOM     81  O   UNL A   1      33.602  34.652  30.657  1.00  0.00    -0.237 OA
ATOM     82  O   UNL A   1      33.093  34.008  32.991  1.00  0.00    -0.237 OA
ATOM     83  O   UNL A   1      34.817  35.704  32.528  1.00  0.00    -0.744 OA
ENDBRANCH  79  80
ENDBRANCH  47  72
BRANCH  59  84
ATOM     84  C   UNL A   1      43.075  29.151  33.819  1.00  0.00     0.058 A 
ATOM     85  C   UNL A   1      43.312  29.395  35.183  1.00  0.00     0.135 A 
ATOM     86  C   UNL A   1      42.501  27.914  33.486  1.00  0.00     0.135 A 
ATOM     87  F   UNL A   1      43.750  30.586  35.603  1.00  0.00    -0.206 F 
ATOM     88  C   UNL A   1      43.030  28.446  36.166  1.00  0.00     0.059 A 
ATOM     89  C   UNL A   1      42.180  26.963  34.454  1.00  0.00     0.059 A 
ATOM     90  F   UNL A   1      42.182  27.643  32.209  1.00  0.00    -0.206 F 
ATOM     91  C   UNL A   1      42.457  27.233  35.792  1.00  0.00     0.060 A 
BRANCH  91  92
ATOM     92  S   UNL A   1      41.989  26.056  37.081  1.00  0.00     0.124 S 
ATOM     93  O   UNL A   1      42.170  24.775  36.406  1.00  0.00    -0.237 OA
ATOM     94  O   UNL A   1      42.943  26.351  38.147  1.00  0.00    -0.237 OA
ATOM     95  O   UNL A   1      40.605  26.414  37.382  1.00  0.00    -0.744 OA
ENDBRANCH  91  92
ENDBRANCH  59  84
ENDBRANCH  33  34
ENDBRANCH  25  28
ENDBRANCH  23  24
ENDBRANCH   1  23
TORSDOF 17
ENDMDL
MODEL 2
REMARK VINA RESULT:     -11.8      1.450      1.988
REMARK SMILES Cc1n[nH]c(C(=O)N[C@@H](CC(C)C)C(=O)NCCCNC(=O)c2ccc(-c3c4nc(c(-c5c(F)cc(S(=O)(=O)[O-])cc5F)c5ccc([nH]5)c(-c5c(F)cc(S(=O)(=O)[O-])cc5F)c5nc(c(-c6c(F)cc(S(=O)(=O)[O-])cc6F)c6ccc3[nH]6)C=C5)C=C4)cc2)n1
REMARK SMILES IDX 18 1 17 2 16 3 14 4 15 5 9 7 8 8 6 9 7 10 5 12 1 13 2 14
REMARK SMILES IDX 3 15 89 16 4 17 10 19 11 20 12 21 13 22 19 23 20 24 21 25
REMARK SMILES IDX 22 27 23 28 24 29 88 30 25 31 87 32 26 33 27 34 28 35 81 36
REMARK SMILES IDX 29 37 86 38 80 39 82 40 30 41 85 42 79 43 78 44 31 46 65 47
REMARK SMILES IDX 44 48 64 49 45 50 48 51 63 52 83 53 46 54 47 55 62 57 84 58
REMARK SMILES IDX 49 59 32 60 33 61 42 62 34 63 35 64 41 65 43 66 36 67 37 68
REMARK SMILES IDX 38 69 39 70 40 71 66 72 67 73 76 74 68 75 69 76 75 77 77 78
REMARK SMILES IDX 70 79 71 80 72 81 73 82 74 83 50 84 51 85 60 86 52 87 53 88
REMARK SMILES IDX 59 89 61 90 54 91 55 92 56 93 57 94 58 95
REMARK H PARENT 16 6 8 11 4 18 20 26 82 45 48 56
REMARK Flexibility Score: inf
ROOT
ATOM      1  C   UNL A   1      36.807  22.117  24.551  1.00  0.00     0.042 C 
ENDROOT
BRANCH   1   2
ATOM      2  C   UNL A   1      35.412  22.729  24.598  1.00  0.00     0.117 C 
BRANCH   2   3
ATOM      3  N   UNL A   1      34.314  21.834  24.265  1.00  0.00    -0.354 N 
ATOM      4  C   UNL A   1      33.137  22.092  23.617  1.00  0.00     0.242 C 
ATOM      5  O   UNL A   1      32.533  21.136  23.118  1.00  0.00    -0.273 OA
ATOM      6  H   UNL A   1      34.438  20.901  24.550  1.00  0.00     0.163 HD
BRANCH   4   7
ATOM      7  C   UNL A   1      32.551  23.514  23.448  1.00  0.00     0.172 C 
BRANCH   7   8
ATOM      8  N   UNL A   1      32.688  23.945  22.060  1.00  0.00    -0.338 N 
ATOM      9  C   UNL A   1      32.817  25.171  21.451  1.00  0.00     0.289 C 
ATOM     10  O   UNL A   1      33.113  25.089  20.253  1.00  0.00    -0.266 OA
ATOM     11  H   UNL A   1      32.688  23.196  21.421  1.00  0.00     0.164 HD
BRANCH   9  12
ATOM     12  C   UNL A   1      32.553  26.441  22.102  1.00  0.00     0.214 A 
ATOM     13  C   UNL A   1      33.355  28.957  24.473  1.00  0.00     0.092 C 
ATOM     14  C   UNL A   1      32.791  28.106  23.406  1.00  0.00     0.148 A 
ATOM     15  N   UNL A   1      31.709  28.438  22.698  1.00  0.00    -0.159 NA
ATOM     16  N   UNL A   1      33.346  26.911  23.057  1.00  0.00    -0.207 NA
ATOM     17  N   UNL A   1      31.536  27.338  21.940  1.00  0.00    -0.255 N 
ATOM     18  H   UNL A   1      30.767  27.197  21.341  1.00  0.00     0.192 HD
ENDBRANCH   9  12
ENDBRANCH   7   8
BRANCH   7  19
ATOM     19  C   UNL A   1      31.171  23.845  24.061  1.00  0.00     0.038 C 
BRANCH  19  20
ATOM     20  C   UNL A   1      31.067  24.643  25.372  1.00  0.00    -0.015 C 
ATOM     21  C   UNL A   1      32.440  24.987  25.958  1.00  0.00     0.007 C 
ATOM     22  C   UNL A   1      30.296  25.950  25.152  1.00  0.00     0.007 C 
ENDBRANCH  19  20
ENDBRANCH   7  19
ENDBRANCH   4   7
ENDBRANCH   2   3
ENDBRANCH   1   2
BRANCH   1  23
ATOM     23  C   UNL A   1      37.805  22.859  25.423  1.00  0.00     0.118 C 
BRANCH  23  24
ATOM     24  N   UNL A   1      38.565  21.984  26.324  1.00  0.00    -0.352 N 
ATOM     25  C   UNL A   1      39.690  22.317  27.068  1.00  0.00     0.251 C 
ATOM     26  H   UNL A   1      38.242  21.058  26.409  1.00  0.00     0.163 HD
ATOM     27  O   UNL A   1      40.374  21.475  27.607  1.00  0.00    -0.269 OA
BRANCH  25  28
ATOM     28  C   UNL A   1      40.027  23.752  27.138  1.00  0.00     0.039 A 
ATOM     29  C   UNL A   1      39.011  24.707  27.179  1.00  0.00     0.014 A 
ATOM     30  C   UNL A   1      41.345  24.080  27.429  1.00  0.00     0.014 A 
ATOM     31  C   UNL A   1      39.309  25.983  27.660  1.00  0.00     0.010 A 
ATOM     32  C   UNL A   1      41.598  25.292  28.034  1.00  0.00     0.010 A 
ATOM     33  C   UNL A   1      40.594  26.264  28.147  1.00  0.00    -0.014 A 
BRANCH  33  34
ATOM     34  C   UNL A   1      40.863  27.520  28.860  1.00  0.00     0.031 A 
ATOM     35  C   UNL A   1      41.918  28.441  28.320  1.00  0.00     0.074 A 
ATOM     36  C   UNL A   1      40.072  27.994  29.846  1.00  0.00     0.049 A 
ATOM     37  N   UNL A   1      43.003  28.831  28.909  1.00  0.00    -0.248 NA
ATOM     38  C   UNL A   1      41.764  28.982  26.962  1.00  0.00     0.031 C 
ATOM     39  C   UNL A   1      38.828  27.429  30.383  1.00  0.00     0.029 A 
ATOM     40  N   UNL A   1      40.166  29.186  30.499  1.00  0.00    -0.354 N 
ATOM     41  C   UNL A   1      43.602  29.782  28.079  1.00  0.00     0.074 A 
ATOM     42  C   UNL A   1      42.845  29.761  26.851  1.00  0.00     0.031 C 
ATOM     43  C   UNL A   1      38.162  28.380  31.068  1.00  0.00     0.029 A 
ATOM     44  C   UNL A   1      39.016  29.545  31.180  1.00  0.00     0.049 A 
ATOM     45  H   UNL A   1      40.978  29.742  30.485  1.00  0.00     0.167 HD
ATOM     46  C   UNL A   1      44.592  30.618  28.515  1.00  0.00     0.037 A 
ATOM     47  C   UNL A   1      38.763  30.727  31.785  1.00  0.00     0.037 A 
ATOM     48  C   UNL A   1      45.098  30.218  29.802  1.00  0.00     0.049 A 
ATOM     49  C   UNL A   1      40.077  31.314  32.145  1.00  0.00     0.074 A 
ATOM     50  C   UNL A   1      45.716  29.087  30.301  1.00  0.00     0.029 A 
ATOM     51  N   UNL A   1      44.702  30.935  30.905  1.00  0.00    -0.354 N 
ATOM     52  N   UNL A   1      40.897  30.778  33.012  1.00  0.00    -0.248 NA
ATOM     53  C   UNL A   1      40.678  32.291  31.250  1.00  0.00     0.031 C 
ATOM     54  C   UNL A   1      45.207  28.945  31.625  1.00  0.00     0.029 A 
ATOM     55  C   UNL A   1      44.343  30.016  31.858  1.00  0.00     0.049 A 
ATOM     56  H   UNL A   1      44.682  31.916  30.993  1.00  0.00     0.167 HD
ATOM     57  C   UNL A   1      42.164  31.018  32.502  1.00  0.00     0.074 A 
ATOM     58  C   UNL A   1      41.971  32.056  31.494  1.00  0.00     0.031 C 
ATOM     59  C   UNL A   1      43.207  30.166  32.743  1.00  0.00     0.037 A 
BRANCH  46  60
ATOM     60  C   UNL A   1      44.956  31.965  27.930  1.00  0.00     0.058 A 
ATOM     61  C   UNL A   1      46.248  32.170  27.395  1.00  0.00     0.135 A 
ATOM     62  C   UNL A   1      44.188  33.129  28.130  1.00  0.00     0.135 A 
ATOM     63  F   UNL A   1      47.066  31.131  27.161  1.00  0.00    -0.206 F 
ATOM     64  C   UNL A   1      46.767  33.443  27.152  1.00  0.00     0.059 A 
ATOM     65  C   UNL A   1      44.668  34.407  27.849  1.00  0.00     0.059 A 
ATOM     66  F   UNL A   1      42.977  33.081  28.701  1.00  0.00    -0.206 F 
ATOM     67  C   UNL A   1      45.976  34.558  27.407  1.00  0.00     0.060 A 
BRANCH  67  68
ATOM     68  S   UNL A   1      46.691  36.206  27.234  1.00  0.00     0.124 S 
ATOM     69  O   UNL A   1      46.442  36.481  25.823  1.00  0.00    -0.237 OA
ATOM     70  O   UNL A   1      45.904  36.986  28.185  1.00  0.00    -0.237 OA
ATOM     71  O   UNL A   1      48.088  36.004  27.604  1.00  0.00    -0.744 OA
ENDBRANCH  67  68
ENDBRANCH  46  60
BRANCH  47  72
ATOM     72  C   UNL A   1      37.472  31.457  31.788  1.00  0.00     0.058 A 
ATOM     73  C   UNL A   1      36.781  31.704  32.985  1.00  0.00     0.135 A 
ATOM     74  C   UNL A   1      37.006  32.147  30.646  1.00  0.00     0.135 A 
ATOM     75  F   UNL A   1      37.169  31.112  34.123  1.00  0.00    -0.206 F 
ATOM     76  C   UNL A   1      35.725  32.619  33.057  1.00  0.00     0.059 A 
ATOM     77  C   UNL A   1      35.944  33.045  30.690  1.00  0.00     0.059 A 
ATOM     78  F   UNL A   1      37.629  32.041  29.463  1.00  0.00    -0.206 F 
ATOM     79  C   UNL A   1      35.326  33.300  31.906  1.00  0.00     0.060 A 
BRANCH  79  80
ATOM     80  S   UNL A   1      34.102  34.622  32.031  1.00  0.00     0.124 S 
ATOM     81  O   UNL A   1      33.173  34.079  33.014  1.00  0.00    -0.237 OA
ATOM     82  O   UNL A   1      34.913  35.751  32.474  1.00  0.00    -0.237 OA
ATOM     83  O   UNL A   1      33.581  34.730  30.671  1.00  0.00    -0.744 OA
ENDBRANCH  79  80
ENDBRANCH  47  72
BRANCH  59  84
ATOM     84  C   UNL A   1      43.047  29.107  33.808  1.00  0.00     0.058 A 
ATOM     85  C   UNL A   1      43.254  29.341  35.178  1.00  0.00     0.135 A 
ATOM     86  C   UNL A   1      42.481  27.872  33.453  1.00  0.00     0.135 A 
ATOM     87  F   UNL A   1      43.683  30.529  35.616  1.00  0.00    -0.206 F 
ATOM     88  C   UNL A   1      42.950  28.386  36.147  1.00  0.00     0.059 A 
ATOM     89  C   UNL A   1      42.139  26.914  34.407  1.00  0.00     0.059 A 
ATOM     90  F   UNL A   1      42.191  27.611  32.168  1.00  0.00    -0.206 F 
ATOM     91  C   UNL A   1      42.386  27.175  35.753  1.00  0.00     0.060 A 
BRANCH  91  92
ATOM     92  S   UNL A   1      41.889  25.989  37.023  1.00  0.00     0.124 S 
ATOM     93  O   UNL A   1      42.879  26.228  38.068  1.00  0.00    -0.237 OA
ATOM     94  O   UNL A   1      40.525  26.406  37.336  1.00  0.00    -0.237 OA
ATOM     95  O   UNL A   1      41.995  24.700  36.343  1.00  0.00    -0.744 OA
ENDBRANCH  91  92
ENDBRANCH  59  84
ENDBRANCH  33  34
ENDBRANCH  25  28
ENDBRANCH  23  24
ENDBRANCH   1  23
TORSDOF 17
ENDMDL
MODEL 3
REMARK VINA RESULT:     -11.6      3.057      9.340
REMARK SMILES Cc1n[nH]c(C(=O)N[C@@H](CC(C)C)C(=O)NCCCNC(=O)c2ccc(-c3c4nc(c(-c5c(F)cc(S(=O)(=O)[O-])cc5F)c5ccc([nH]5)c(-c5c(F)cc(S(=O)(=O)[O-])cc5F)c5nc(c(-c6c(F)cc(S(=O)(=O)[O-])cc6F)c6ccc3[nH]6)C=C5)C=C4)cc2)n1
REMARK SMILES IDX 18 1 17 2 16 3 14 4 15 5 9 7 8 8 6 9 7 10 5 12 1 13 2 14
REMARK SMILES IDX 3 15 89 16 4 17 10 19 11 20 12 21 13 22 19 23 20 24 21 25
REMARK SMILES IDX 22 27 23 28 24 29 88 30 25 31 87 32 26 33 27 34 28 35 81 36
REMARK SMILES IDX 29 37 86 38 80 39 82 40 30 41 85 42 79 43 78 44 31 46 65 47
REMARK SMILES IDX 44 48 64 49 45 50 48 51 63 52 83 53 46 54 47 55 62 57 84 58
REMARK SMILES IDX 49 59 32 60 33 61 42 62 34 63 35 64 41 65 43 66 36 67 37 68
REMARK SMILES IDX 38 69 39 70 40 71 66 72 67 73 76 74 68 75 69 76 75 77 77 78
REMARK SMILES IDX 70 79 71 80 72 81 73 82 74 83 50 84 51 85 60 86 52 87 53 88
REMARK SMILES IDX 59 89 61 90 54 91 55 92 56 93 57 94 58 95
REMARK H PARENT 16 6 8 11 4 18 20 26 82 45 48 56
REMARK Flexibility Score: inf
ROOT
ATOM      1  C   UNL A   1      32.966  29.916  27.246  1.00  0.00     0.042 C 
ENDROOT
BRANCH   1   2
ATOM      2  C   UNL A   1      32.252  29.742  25.910  1.00  0.00     0.117 C 
BRANCH   2   3
ATOM      3  N   UNL A   1      33.106  29.709  24.734  1.00  0.00    -0.354 N 
ATOM      4  C   UNL A   1      33.206  28.767  23.746  1.00  0.00     0.242 C 
ATOM      5  O   UNL A   1      33.710  29.109  22.672  1.00  0.00    -0.273 OA
ATOM      6  H   UNL A   1      33.705  30.484  24.633  1.00  0.00     0.163 HD
BRANCH   4   7
ATOM      7  C   UNL A   1      32.689  27.316  23.899  1.00  0.00     0.172 C 
BRANCH   7   8
ATOM      8  N   UNL A   1      31.257  27.268  23.616  1.00  0.00    -0.338 N 
ATOM      9  C   UNL A   1      30.194  26.612  24.189  1.00  0.00     0.289 C 
ATOM     10  O   UNL A   1      29.098  27.003  23.770  1.00  0.00    -0.266 OA
ATOM     11  H   UNL A   1      30.996  27.827  22.848  1.00  0.00     0.164 HD
BRANCH   9  12
ATOM     12  C   UNL A   1      30.320  25.512  25.127  1.00  0.00     0.214 A 
ATOM     13  C   UNL A   1      31.116  22.139  25.889  1.00  0.00     0.092 C 
ATOM     14  C   UNL A   1      30.737  23.566  25.881  1.00  0.00     0.148 A 
ATOM     15  N   UNL A   1      30.374  24.235  26.978  1.00  0.00    -0.159 NA
ATOM     16  N   UNL A   1      30.739  24.313  24.741  1.00  0.00    -0.207 NA
ATOM     17  N   UNL A   1      30.042  25.434  26.462  1.00  0.00    -0.255 N 
ATOM     18  H   UNL A   1      29.645  26.168  26.986  1.00  0.00     0.192 HD
ENDBRANCH   9  12
ENDBRANCH   7   8
BRANCH   7  19
ATOM     19  C   UNL A   1      33.482  26.156  23.256  1.00  0.00     0.038 C 
BRANCH  19  20
ATOM     20  C   UNL A   1      34.334  25.213  24.123  1.00  0.00    -0.015 C 
ATOM     21  C   UNL A   1      34.034  25.363  25.617  1.00  0.00     0.007 C 
ATOM     22  C   UNL A   1      34.097  23.750  23.728  1.00  0.00     0.007 C 
ENDBRANCH  19  20
ENDBRANCH   7  19
ENDBRANCH   4   7
ENDBRANCH   2   3
ENDBRANCH   1   2
BRANCH   1  23
ATOM     23  C   UNL A   1      33.818  31.172  27.299  1.00  0.00     0.118 C 
BRANCH  23  24
ATOM     24  N   UNL A   1      33.800  31.843  28.604  1.00  0.00    -0.352 N 
ATOM     25  C   UNL A   1      34.807  31.847  29.561  1.00  0.00     0.251 C 
ATOM     26  H   UNL A   1      32.982  32.344  28.826  1.00  0.00     0.163 HD
ATOM     27  O   UNL A   1      34.615  32.240  30.691  1.00  0.00    -0.269 OA
BRANCH  25  28
ATOM     28  C   UNL A   1      36.115  31.312  29.137  1.00  0.00     0.039 A 
ATOM     29  C   UNL A   1      37.218  32.162  29.038  1.00  0.00     0.014 A 
ATOM     30  C   UNL A   1      36.257  29.931  29.110  1.00  0.00     0.014 A 
ATOM     31  C   UNL A   1      38.498  31.605  29.054  1.00  0.00     0.010 A 
ATOM     32  C   UNL A   1      37.519  29.401  29.270  1.00  0.00     0.010 A 
ATOM     33  C   UNL A   1      38.655  30.222  29.231  1.00  0.00    -0.014 A 
BRANCH  33  34
ATOM     34  C   UNL A   1      39.986  29.649  29.477  1.00  0.00     0.031 A 
ATOM     35  C   UNL A   1      40.363  29.289  30.885  1.00  0.00     0.074 A 
ATOM     36  C   UNL A   1      40.803  29.228  28.489  1.00  0.00     0.049 A 
ATOM     37  N   UNL A   1      41.342  29.765  31.587  1.00  0.00    -0.248 NA
ATOM     38  C   UNL A   1      39.554  28.299  31.609  1.00  0.00     0.031 C 
ATOM     39  C   UNL A   1      40.568  29.214  27.040  1.00  0.00     0.029 A 
ATOM     40  N   UNL A   1      42.002  28.591  28.604  1.00  0.00    -0.354 N 
ATOM     41  C   UNL A   1      41.383  29.040  32.780  1.00  0.00     0.074 A 
ATOM     42  C   UNL A   1      40.198  28.217  32.778  1.00  0.00     0.031 C 
ATOM     43  C   UNL A   1      41.448  28.380  26.451  1.00  0.00     0.029 A 
ATOM     44  C   UNL A   1      42.418  27.963  27.444  1.00  0.00     0.049 A 
ATOM     45  H   UNL A   1      42.525  28.579  29.439  1.00  0.00     0.167 HD
ATOM     46  C   UNL A   1      42.462  29.066  33.619  1.00  0.00     0.037 A 
ATOM     47  C   UNL A   1      43.478  27.137  27.299  1.00  0.00     0.037 A 
ATOM     48  C   UNL A   1      43.391  30.105  33.258  1.00  0.00     0.049 A 
ATOM     49  C   UNL A   1      44.450  27.496  28.362  1.00  0.00     0.074 A 
ATOM     50  C   UNL A   1      43.327  31.482  33.159  1.00  0.00     0.029 A 
ATOM     51  N   UNL A   1      44.546  29.745  32.606  1.00  0.00    -0.354 N 
ATOM     52  N   UNL A   1      45.060  28.652  28.424  1.00  0.00    -0.248 NA
ATOM     53  C   UNL A   1      44.454  26.729  29.598  1.00  0.00     0.031 C 
ATOM     54  C   UNL A   1      44.147  31.808  32.039  1.00  0.00     0.029 A 
ATOM     55  C   UNL A   1      44.685  30.614  31.553  1.00  0.00     0.049 A 
ATOM     56  H   UNL A   1      45.152  29.008  32.846  1.00  0.00     0.167 HD
ATOM     57  C   UNL A   1      45.143  28.940  29.778  1.00  0.00     0.074 A 
ATOM     58  C   UNL A   1      44.873  27.671  30.448  1.00  0.00     0.031 C 
ATOM     59  C   UNL A   1      45.149  30.229  30.237  1.00  0.00     0.037 A 
BRANCH  46  60
ATOM     60  C   UNL A   1      42.850  28.002  34.621  1.00  0.00     0.058 A 
ATOM     61  C   UNL A   1      42.976  28.339  35.988  1.00  0.00     0.135 A 
ATOM     62  C   UNL A   1      43.370  26.746  34.254  1.00  0.00     0.135 A 
ATOM     63  F   UNL A   1      42.513  29.513  36.449  1.00  0.00    -0.206 F 
ATOM     64  C   UNL A   1      43.642  27.524  36.904  1.00  0.00     0.059 A 
ATOM     65  C   UNL A   1      43.995  25.893  35.163  1.00  0.00     0.059 A 
ATOM     66  F   UNL A   1      43.382  26.336  32.978  1.00  0.00    -0.206 F 
ATOM     67  C   UNL A   1      44.171  26.312  36.475  1.00  0.00     0.060 A 
BRANCH  67  68
ATOM     68  S   UNL A   1      45.157  25.323  37.619  1.00  0.00     0.124 S 
ATOM     69  O   UNL A   1      44.545  25.668  38.898  1.00  0.00    -0.237 OA
ATOM     70  O   UNL A   1      44.916  23.965  37.141  1.00  0.00    -0.237 OA
ATOM     71  O   UNL A   1      46.512  25.824  37.409  1.00  0.00    -0.744 OA
ENDBRANCH  67  68
ENDBRANCH  46  60
BRANCH  47  72
ATOM     72  C   UNL A   1      43.528  25.902  26.479  1.00  0.00     0.058 A 
ATOM     73  C   UNL A   1      44.514  25.723  25.496  1.00  0.00     0.135 A 
ATOM     74  C   UNL A   1      42.762  24.760  26.808  1.00  0.00     0.135 A 
ATOM     75  F   UNL A   1      45.303  26.746  25.139  1.00  0.00    -0.206 F 
ATOM     76  C   UNL A   1      44.760  24.477  24.910  1.00  0.00     0.059 A 
ATOM     77  C   UNL A   1      42.976  23.516  26.224  1.00  0.00     0.059 A 
ATOM     78  F   UNL A   1      41.838  24.795  27.780  1.00  0.00    -0.206 F 
ATOM     79  C   UNL A   1      43.998  23.374  25.296  1.00  0.00     0.060 A 
BRANCH  79  80
ATOM     80  S   UNL A   1      44.441  21.730  24.694  1.00  0.00     0.124 S 
ATOM     81  O   UNL A   1      44.394  21.916  23.249  1.00  0.00    -0.237 OA
ATOM     82  O   UNL A   1      45.768  21.538  25.271  1.00  0.00    -0.237 OA
ATOM     83  O   UNL A   1      43.396  20.873  25.250  1.00  0.00    -0.744 OA
ENDBRANCH  79  80
ENDBRANCH  47  72
BRANCH  59  84
ATOM     84  C   UNL A   1      45.354  31.351  29.248  1.00  0.00     0.058 A 
ATOM     85  C   UNL A   1      46.617  31.777  28.803  1.00  0.00     0.135 A 
ATOM     86  C   UNL A   1      44.235  31.879  28.584  1.00  0.00     0.135 A 
ATOM     87  F   UNL A   1      47.738  31.243  29.300  1.00  0.00    -0.206 F 
ATOM     88  C   UNL A   1      46.765  32.709  27.776  1.00  0.00     0.059 A 
ATOM     89  C   UNL A   1      44.360  32.787  27.534  1.00  0.00     0.059 A 
ATOM     90  F   UNL A   1      43.001  31.462  28.911  1.00  0.00    -0.206 F 
ATOM     91  C   UNL A   1      45.630  33.206  27.141  1.00  0.00     0.060 A 
BRANCH  91  92
ATOM     92  S   UNL A   1      45.834  34.325  25.738  1.00  0.00     0.124 S 
ATOM     93  O   UNL A   1      47.255  34.184  25.439  1.00  0.00    -0.237 OA
ATOM     94  O   UNL A   1      44.920  33.765  24.745  1.00  0.00    -0.237 OA
ATOM     95  O   UNL A   1      45.433  35.622  26.277  1.00  0.00    -0.744 OA
ENDBRANCH  91  92
ENDBRANCH  59  84
ENDBRANCH  33  34
ENDBRANCH  25  28
ENDBRANCH  23  24
ENDBRANCH   1  23
TORSDOF 17
ENDMDL
