MODEL 1
REMARK VINA RESULT:     -14.4      0.000      0.000
REMARK SMILES Cc1c(C(=O)Nc2ccc(C(=O)Nc3ccccc3C(=O)NCCCNC(=O)c3ccc(-c4c5nc(c(-c6c(F)cc(S(=O)(=O)[O-])cc6F)c6ccc([nH]6)c(-c6c(F)cc(S(=O)(=O)[O-])cc6F)c6nc(c(-c7c(F)cc(S(=O)(=O)[O-])cc7F)c7ccc4[nH]7)C=C6)C=C5)cc3)cc2)cccc1[N+](=O)[O-]
REMARK SMILES IDX 23 1 22 2 20 3 21 4 19 6 14 7 15 8 16 9 18 10 17 11 13 12
REMARK SMILES IDX 11 13 12 14 10 16 7 17 8 18 96 19 9 20 95 21 6 22 4 23 5 24
REMARK SMILES IDX 3 26 1 27 2 28 100 29 97 30 99 31 98 32 101 33 102 34 103 35
REMARK SMILES IDX 24 36 25 37 26 38 27 39 28 41 29 42 30 43 94 44 31 45 93 46
REMARK SMILES IDX 32 47 33 48 34 49 87 50 35 51 92 52 86 53 88 54 36 55 91 56
REMARK SMILES IDX 85 57 84 58 37 60 71 61 50 62 70 63 51 64 54 65 69 66 89 67
REMARK SMILES IDX 52 68 53 69 68 71 90 72 55 73 38 74 39 75 48 76 40 77 41 78
REMARK SMILES IDX 47 79 49 80 42 81 43 82 44 83 45 84 46 85 72 86 73 87 82 88
REMARK SMILES IDX 74 89 75 90 81 91 83 92 76 93 77 94 78 95 79 96 80 97 56 98
REMARK SMILES IDX 57 99 66 100 58 101 59 102 65 103 67 104 60 105 61 106
REMARK SMILES IDX 62 107 63 108 64 109
REMARK H PARENT 22 5 13 15 6 25 26 40 88 59 54 70
REMARK Flexibility Score: inf
ROOT
ATOM      1  C   UNL A   1      33.170  29.424  25.736  1.00  0.00     0.118 C 
ENDROOT
BRANCH   1   2
ATOM      2  N   UNL A   1      31.948  29.748  24.995  1.00  0.00    -0.352 N 
ATOM      3  C   UNL A   1      31.107  29.102  24.117  1.00  0.00     0.253 C 
ATOM      4  O   UNL A   1      29.998  29.614  23.948  1.00  0.00    -0.269 OA
ATOM      5  H   UNL A   1      31.651  30.669  25.173  1.00  0.00     0.163 HD
BRANCH   3   6
ATOM      6  C   UNL A   1      31.460  27.888  23.314  1.00  0.00     0.063 A 
ATOM      7  C   UNL A   1      31.086  26.583  23.744  1.00  0.00     0.054 A 
ATOM      8  C   UNL A   1      31.468  25.458  22.982  1.00  0.00     0.027 A 
ATOM      9  C   UNL A   1      32.117  25.606  21.762  1.00  0.00     0.002 A 
ATOM     10  C   UNL A   1      32.199  27.990  22.127  1.00  0.00     0.016 A 
ATOM     11  C   UNL A   1      32.484  26.872  21.335  1.00  0.00     0.001 A 
BRANCH   7  12
ATOM     12  N   UNL A   1      30.252  26.246  24.835  1.00  0.00    -0.321 N 
ATOM     13  C   UNL A   1      30.428  25.407  25.920  1.00  0.00     0.255 C 
ATOM     14  O   UNL A   1      29.479  25.256  26.695  1.00  0.00    -0.269 OA
ATOM     15  H   UNL A   1      29.377  26.694  24.819  1.00  0.00     0.170 HD
BRANCH  13  16
ATOM     16  C   UNL A   1      31.757  24.846  26.307  1.00  0.00     0.040 A 
ATOM     17  C   UNL A   1      34.274  23.639  26.654  1.00  0.00     0.041 A 
ATOM     18  C   UNL A   1      33.130  23.019  27.113  1.00  0.00     0.027 A 
ATOM     19  C   UNL A   1      34.191  24.954  26.183  1.00  0.00     0.027 A 
ATOM     20  C   UNL A   1      31.891  23.566  26.833  1.00  0.00     0.016 A 
ATOM     21  C   UNL A   1      32.931  25.555  26.009  1.00  0.00     0.016 A 
BRANCH  17  22
ATOM     22  N   UNL A   1      35.466  22.915  26.506  1.00  0.00    -0.322 N 
ATOM     23  C   UNL A   1      35.704  21.710  25.857  1.00  0.00     0.256 C 
ATOM     24  O   UNL A   1      36.803  21.171  25.999  1.00  0.00    -0.269 OA
ATOM     25  H   UNL A   1      36.255  23.324  26.930  1.00  0.00     0.170 HD
BRANCH  23  26
ATOM     26  C   UNL A   1      34.693  21.012  24.981  1.00  0.00     0.049 A 
ATOM     27  C   UNL A   1      34.567  22.798  23.168  1.00  0.00     0.053 C 
ATOM     28  C   UNL A   1      34.025  21.575  23.864  1.00  0.00     0.039 A 
ATOM     29  C   UNL A   1      32.884  20.890  23.372  1.00  0.00     0.273 A 
ATOM     30  C   UNL A   1      34.416  19.678  25.340  1.00  0.00     0.014 A 
ATOM     31  C   UNL A   1      32.617  19.564  23.750  1.00  0.00     0.086 A 
ATOM     32  C   UNL A   1      33.428  18.939  24.688  1.00  0.00     0.008 A 
BRANCH  29  33
ATOM     33  N   UNL A   1      31.866  21.560  22.539  1.00  0.00     0.063 N 
ATOM     34  O   UNL A   1      31.753  21.191  21.361  1.00  0.00    -0.258 OA
ATOM     35  O   UNL A   1      31.133  22.402  23.075  1.00  0.00    -0.258 OA
ENDBRANCH  29  33
ENDBRANCH  23  26
ENDBRANCH  17  22
ENDBRANCH  13  16
ENDBRANCH   7  12
ENDBRANCH   3   6
ENDBRANCH   1   2
BRANCH   1  36
ATOM     36  C   UNL A   1      33.534  30.397  26.846  1.00  0.00     0.042 C 
BRANCH  36  37
ATOM     37  C   UNL A   1      34.715  29.927  27.677  1.00  0.00     0.118 C 
BRANCH  37  38
ATOM     38  N   UNL A   1      35.903  30.681  27.308  1.00  0.00    -0.352 N 
ATOM     39  C   UNL A   1      37.047  30.777  28.091  1.00  0.00     0.251 C 
ATOM     40  H   UNL A   1      35.895  31.156  26.444  1.00  0.00     0.163 HD
ATOM     41  O   UNL A   1      37.393  31.747  28.706  1.00  0.00    -0.269 OA
BRANCH  39  42
ATOM     42  C   UNL A   1      37.785  29.500  28.154  1.00  0.00     0.039 A 
ATOM     43  C   UNL A   1      37.744  28.769  29.347  1.00  0.00     0.014 A 
ATOM     44  C   UNL A   1      38.820  29.381  27.233  1.00  0.00     0.014 A 
ATOM     45  C   UNL A   1      38.870  28.061  29.725  1.00  0.00     0.010 A 
ATOM     46  C   UNL A   1      39.979  28.812  27.672  1.00  0.00     0.010 A 
ATOM     47  C   UNL A   1      40.001  28.193  28.929  1.00  0.00    -0.014 A 
BRANCH  47  48
ATOM     48  C   UNL A   1      41.276  27.597  29.232  1.00  0.00     0.031 A 
ATOM     49  C   UNL A   1      41.408  26.184  28.867  1.00  0.00     0.074 A 
ATOM     50  C   UNL A   1      42.281  28.424  29.578  1.00  0.00     0.049 A 
ATOM     51  N   UNL A   1      42.334  25.406  29.285  1.00  0.00    -0.248 NA
ATOM     52  C   UNL A   1      40.429  25.505  28.016  1.00  0.00     0.031 C 
ATOM     53  C   UNL A   1      43.715  28.183  29.579  1.00  0.00     0.029 A 
ATOM     54  N   UNL A   1      42.137  29.655  30.230  1.00  0.00    -0.354 N 
ATOM     55  C   UNL A   1      42.295  24.278  28.491  1.00  0.00     0.074 A 
ATOM     56  C   UNL A   1      41.008  24.316  27.850  1.00  0.00     0.031 C 
ATOM     57  C   UNL A   1      44.287  29.037  30.451  1.00  0.00     0.029 A 
ATOM     58  C   UNL A   1      43.206  29.719  31.148  1.00  0.00     0.049 A 
ATOM     59  H   UNL A   1      41.438  30.333  30.079  1.00  0.00     0.167 HD
ATOM     60  C   UNL A   1      43.453  23.575  28.341  1.00  0.00     0.037 A 
ATOM     61  C   UNL A   1      42.922  29.574  32.480  1.00  0.00     0.037 A 
ATOM     62  C   UNL A   1      44.475  24.135  29.238  1.00  0.00     0.049 A 
ATOM     63  C   UNL A   1      43.458  28.276  33.074  1.00  0.00     0.074 A 
ATOM     64  C   UNL A   1      45.540  25.004  29.068  1.00  0.00     0.029 A 
ATOM     65  N   UNL A   1      44.216  24.131  30.598  1.00  0.00    -0.354 N 
ATOM     66  N   UNL A   1      43.954  27.285  32.378  1.00  0.00    -0.248 NA
ATOM     67  C   UNL A   1      43.449  27.984  34.504  1.00  0.00     0.031 C 
ATOM     68  C   UNL A   1      45.891  25.535  30.350  1.00  0.00     0.029 A 
ATOM     69  C   UNL A   1      45.054  24.974  31.299  1.00  0.00     0.049 A 
ATOM     70  H   UNL A   1      43.512  23.587  31.019  1.00  0.00     0.167 HD
ATOM     71  C   UNL A   1      44.315  26.252  33.207  1.00  0.00     0.074 A 
ATOM     72  C   UNL A   1      43.946  26.734  34.530  1.00  0.00     0.031 C 
ATOM     73  C   UNL A   1      44.871  25.084  32.743  1.00  0.00     0.037 A 
BRANCH  60  74
ATOM     74  C   UNL A   1      43.748  22.591  27.222  1.00  0.00     0.058 A 
ATOM     75  C   UNL A   1      42.957  21.429  27.089  1.00  0.00     0.135 A 
ATOM     76  C   UNL A   1      44.803  22.675  26.284  1.00  0.00     0.135 A 
ATOM     77  F   UNL A   1      41.875  21.229  27.855  1.00  0.00    -0.206 F 
ATOM     78  C   UNL A   1      43.233  20.412  26.171  1.00  0.00     0.059 A 
ATOM     79  C   UNL A   1      45.119  21.657  25.378  1.00  0.00     0.059 A 
ATOM     80  F   UNL A   1      45.563  23.765  26.155  1.00  0.00    -0.206 F 
ATOM     81  C   UNL A   1      44.330  20.524  25.331  1.00  0.00     0.060 A 
BRANCH  81  82
ATOM     82  S   UNL A   1      44.679  19.199  24.163  1.00  0.00     0.124 S 
ATOM     83  O   UNL A   1      44.460  19.860  22.881  1.00  0.00    -0.237 OA
ATOM     84  O   UNL A   1      46.062  18.869  24.482  1.00  0.00    -0.237 OA
ATOM     85  O   UNL A   1      43.697  18.174  24.507  1.00  0.00    -0.744 OA
ENDBRANCH  81  82
ENDBRANCH  60  74
BRANCH  61  86
ATOM     86  C   UNL A   1      41.641  30.269  32.851  1.00  0.00     0.058 A 
ATOM     87  C   UNL A   1      40.509  29.463  33.115  1.00  0.00     0.135 A 
ATOM     88  C   UNL A   1      41.621  31.572  33.365  1.00  0.00     0.135 A 
ATOM     89  F   UNL A   1      40.458  28.205  32.644  1.00  0.00    -0.206 F 
ATOM     90  C   UNL A   1      39.493  29.867  33.979  1.00  0.00     0.059 A 
ATOM     91  C   UNL A   1      40.597  32.007  34.219  1.00  0.00     0.059 A 
ATOM     92  F   UNL A   1      42.656  32.399  33.155  1.00  0.00    -0.206 F 
ATOM     93  C   UNL A   1      39.571  31.126  34.567  1.00  0.00     0.060 A 
BRANCH  93  94
ATOM     94  S   UNL A   1      38.431  31.505  35.920  1.00  0.00     0.124 S 
ATOM     95  O   UNL A   1      37.269  32.018  35.206  1.00  0.00    -0.237 OA
ATOM     96  O   UNL A   1      38.264  30.195  36.553  1.00  0.00    -0.237 OA
ATOM     97  O   UNL A   1      39.165  32.476  36.721  1.00  0.00    -0.744 OA
ENDBRANCH  93  94
ENDBRANCH  61  86
BRANCH  73  98
ATOM     98  C   UNL A   1      45.250  23.892  33.608  1.00  0.00     0.058 A 
ATOM     99  C   UNL A   1      46.546  23.670  34.097  1.00  0.00     0.135 A 
ATOM    100  C   UNL A   1      44.317  22.864  33.915  1.00  0.00     0.135 A 
ATOM    101  F   UNL A   1      47.567  24.459  33.734  1.00  0.00    -0.206 F 
ATOM    102  C   UNL A   1      46.855  22.598  34.942  1.00  0.00     0.059 A 
ATOM    103  C   UNL A   1      44.616  21.763  34.706  1.00  0.00     0.059 A 
ATOM    104  F   UNL A   1      43.055  22.874  33.474  1.00  0.00    -0.206 F 
ATOM    105  C   UNL A   1      45.876  21.659  35.255  1.00  0.00     0.060 A 
BRANCH 105 106
ATOM    106  S   UNL A   1      46.267  20.283  36.343  1.00  0.00     0.124 S 
ATOM    107  O   UNL A   1      45.807  20.774  37.638  1.00  0.00    -0.237 OA
ATOM    108  O   UNL A   1      45.476  19.210  35.751  1.00  0.00    -0.237 OA
ATOM    109  O   UNL A   1      47.714  20.141  36.211  1.00  0.00    -0.744 OA
ENDBRANCH 105 106
ENDBRANCH  73  98
ENDBRANCH  47  48
ENDBRANCH  39  42
ENDBRANCH  37  38
ENDBRANCH  36  37
ENDBRANCH   1  36
TORSDOF 18
ENDMDL
MODEL 2
REMARK VINA RESULT:     -12.5      2.155      3.001
REMARK SMILES Cc1c(C(=O)Nc2ccc(C(=O)Nc3ccccc3C(=O)NCCCNC(=O)c3ccc(-c4c5nc(c(-c6c(F)cc(S(=O)(=O)[O-])cc6F)c6ccc([nH]6)c(-c6c(F)cc(S(=O)(=O)[O-])cc6F)c6nc(c(-c7c(F)cc(S(=O)(=O)[O-])cc7F)c7ccc4[nH]7)C=C6)C=C5)cc3)cc2)cccc1[N+](=O)[O-]
REMARK SMILES IDX 23 1 22 2 20 3 21 4 19 6 14 7 15 8 16 9 18 10 17 11 13 12
REMARK SMILES IDX 11 13 12 14 10 16 7 17 8 18 96 19 9 20 95 21 6 22 4 23 5 24
REMARK SMILES IDX 3 26 1 27 2 28 100 29 97 30 99 31 98 32 101 33 102 34 103 35
REMARK SMILES IDX 24 36 25 37 26 38 27 39 28 41 29 42 30 43 94 44 31 45 93 46
REMARK SMILES IDX 32 47 33 48 34 49 87 50 35 51 92 52 86 53 88 54 36 55 91 56
REMARK SMILES IDX 85 57 84 58 37 60 71 61 50 62 70 63 51 64 54 65 69 66 89 67
REMARK SMILES IDX 52 68 53 69 68 71 90 72 55 73 38 74 39 75 48 76 40 77 41 78
REMARK SMILES IDX 47 79 49 80 42 81 43 82 44 83 45 84 46 85 72 86 73 87 82 88
REMARK SMILES IDX 74 89 75 90 81 91 83 92 76 93 77 94 78 95 79 96 80 97 56 98
REMARK SMILES IDX 57 99 66 100 58 101 59 102 65 103 67 104 60 105 61 106
REMARK SMILES IDX 62 107 63 108 64 109
REMARK H PARENT 22 5 13 15 6 25 26 40 88 59 54 70
REMARK Flexibility Score: inf
ROOT
ATOM      1  C   UNL A   1      34.285  29.320  26.926  1.00  0.00     0.118 C 
ENDROOT
BRANCH   1   2
ATOM      2  N   UNL A   1      33.049  28.867  27.569  1.00  0.00    -0.352 N 
ATOM      3  C   UNL A   1      31.903  28.207  27.185  1.00  0.00     0.253 C 
ATOM      4  O   UNL A   1      31.220  27.729  28.092  1.00  0.00    -0.269 OA
ATOM      5  H   UNL A   1      33.035  29.092  28.527  1.00  0.00     0.163 HD
BRANCH   3   6
ATOM      6  C   UNL A   1      31.400  28.092  25.779  1.00  0.00     0.063 A 
ATOM      7  C   UNL A   1      30.732  26.917  25.326  1.00  0.00     0.054 A 
ATOM      8  C   UNL A   1      30.305  26.828  23.985  1.00  0.00     0.027 A 
ATOM      9  C   UNL A   1      30.433  27.908  23.118  1.00  0.00     0.002 A 
ATOM     10  C   UNL A   1      31.596  29.121  24.848  1.00  0.00     0.016 A 
ATOM     11  C   UNL A   1      31.080  29.054  23.550  1.00  0.00     0.001 A 
BRANCH   7  12
ATOM     12  N   UNL A   1      30.326  25.808  26.104  1.00  0.00    -0.321 N 
ATOM     13  C   UNL A   1      30.904  24.575  26.345  1.00  0.00     0.255 C 
ATOM     14  O   UNL A   1      30.272  23.765  27.029  1.00  0.00    -0.269 OA
ATOM     15  H   UNL A   1      29.465  25.939  26.562  1.00  0.00     0.170 HD
BRANCH  13  16
ATOM     16  C   UNL A   1      32.321  24.260  25.995  1.00  0.00     0.040 A 
ATOM     17  C   UNL A   1      34.863  23.279  25.297  1.00  0.00     0.041 A 
ATOM     18  C   UNL A   1      34.536  23.502  26.619  1.00  0.00     0.027 A 
ATOM     19  C   UNL A   1      33.987  23.718  24.298  1.00  0.00     0.027 A 
ATOM     20  C   UNL A   1      33.247  23.873  26.957  1.00  0.00     0.016 A 
ATOM     21  C   UNL A   1      32.716  24.207  24.650  1.00  0.00     0.016 A 
BRANCH  17  22
ATOM     22  N   UNL A   1      35.966  22.481  24.961  1.00  0.00    -0.322 N 
ATOM     23  C   UNL A   1      36.066  21.101  24.837  1.00  0.00     0.256 C 
ATOM     24  O   UNL A   1      37.184  20.601  24.697  1.00  0.00    -0.269 OA
ATOM     25  H   UNL A   1      36.799  22.977  24.788  1.00  0.00     0.170 HD
BRANCH  23  26
ATOM     26  C   UNL A   1      34.882  20.166  24.865  1.00  0.00     0.049 A 
ATOM     27  C   UNL A   1      36.206  17.989  24.805  1.00  0.00     0.053 C 
ATOM     28  C   UNL A   1      34.920  18.763  24.655  1.00  0.00     0.039 A 
ATOM     29  C   UNL A   1      33.690  18.109  24.393  1.00  0.00     0.273 A 
ATOM     30  C   UNL A   1      33.643  20.783  25.126  1.00  0.00     0.014 A 
ATOM     31  C   UNL A   1      32.464  18.743  24.649  1.00  0.00     0.086 A 
ATOM     32  C   UNL A   1      32.448  20.063  25.080  1.00  0.00     0.008 A 
BRANCH  29  33
ATOM     33  N   UNL A   1      33.629  16.787  23.738  1.00  0.00     0.063 N 
ATOM     34  O   UNL A   1      33.754  16.749  22.505  1.00  0.00    -0.258 OA
ATOM     35  O   UNL A   1      33.528  15.783  24.456  1.00  0.00    -0.258 OA
ENDBRANCH  29  33
ENDBRANCH  23  26
ENDBRANCH  17  22
ENDBRANCH  13  16
ENDBRANCH   7  12
ENDBRANCH   3   6
ENDBRANCH   1   2
BRANCH   1  36
ATOM     36  C   UNL A   1      35.569  28.947  27.650  1.00  0.00     0.042 C 
BRANCH  36  37
ATOM     37  C   UNL A   1      36.651  30.004  27.513  1.00  0.00     0.118 C 
BRANCH  37  38
ATOM     38  N   UNL A   1      36.158  31.275  28.022  1.00  0.00    -0.352 N 
ATOM     39  C   UNL A   1      35.938  31.550  29.367  1.00  0.00     0.251 C 
ATOM     40  H   UNL A   1      35.967  31.988  27.370  1.00  0.00     0.163 HD
ATOM     41  O   UNL A   1      34.865  31.643  29.894  1.00  0.00    -0.269 OA
BRANCH  39  42
ATOM     42  C   UNL A   1      37.200  31.648  30.126  1.00  0.00     0.039 A 
ATOM     43  C   UNL A   1      38.263  32.360  29.557  1.00  0.00     0.014 A 
ATOM     44  C   UNL A   1      37.385  30.649  31.076  1.00  0.00     0.014 A 
ATOM     45  C   UNL A   1      39.552  31.916  29.789  1.00  0.00     0.010 A 
ATOM     46  C   UNL A   1      38.637  30.119  31.183  1.00  0.00     0.010 A 
ATOM     47  C   UNL A   1      39.699  30.735  30.507  1.00  0.00    -0.014 A 
BRANCH  47  48
ATOM     48  C   UNL A   1      40.962  30.093  30.756  1.00  0.00     0.031 A 
ATOM     49  C   UNL A   1      41.120  28.767  30.152  1.00  0.00     0.074 A 
ATOM     50  C   UNL A   1      41.946  30.844  31.288  1.00  0.00     0.049 A 
ATOM     51  N   UNL A   1      42.032  27.927  30.465  1.00  0.00    -0.248 NA
ATOM     52  C   UNL A   1      40.185  28.252  29.151  1.00  0.00     0.031 C 
ATOM     53  C   UNL A   1      43.380  30.605  31.310  1.00  0.00     0.029 A 
ATOM     54  N   UNL A   1      41.765  31.940  32.141  1.00  0.00    -0.354 N 
ATOM     55  C   UNL A   1      42.036  26.958  29.482  1.00  0.00     0.074 A 
ATOM     56  C   UNL A   1      40.778  27.111  28.802  1.00  0.00     0.031 C 
ATOM     57  C   UNL A   1      43.907  31.289  32.345  1.00  0.00     0.029 A 
ATOM     58  C   UNL A   1      42.792  31.837  33.103  1.00  0.00     0.049 A 
ATOM     59  H   UNL A   1      41.069  32.635  32.083  1.00  0.00     0.167 HD
ATOM     60  C   UNL A   1      43.203  26.292  29.261  1.00  0.00     0.037 A 
ATOM     61  C   UNL A   1      42.451  31.459  34.374  1.00  0.00     0.037 A 
ATOM     62  C   UNL A   1      44.181  26.682  30.288  1.00  0.00     0.049 A 
ATOM     63  C   UNL A   1      42.968  30.075  34.751  1.00  0.00     0.074 A 
ATOM     64  C   UNL A   1      45.247  27.566  30.323  1.00  0.00     0.029 A 
ATOM     65  N   UNL A   1      43.862  26.436  31.613  1.00  0.00    -0.354 N 
ATOM     66  N   UNL A   1      43.501  29.223  33.913  1.00  0.00    -0.248 NA
ATOM     67  C   UNL A   1      42.899  29.533  36.104  1.00  0.00     0.031 C 
ATOM     68  C   UNL A   1      45.537  27.860  31.694  1.00  0.00     0.029 A 
ATOM     69  C   UNL A   1      44.663  27.139  32.489  1.00  0.00     0.049 A 
ATOM     70  H   UNL A   1      43.144  25.826  31.899  1.00  0.00     0.167 HD
ATOM     71  C   UNL A   1      43.832  28.058  34.560  1.00  0.00     0.074 A 
ATOM     72  C   UNL A   1      43.402  28.298  35.929  1.00  0.00     0.031 C 
ATOM     73  C   UNL A   1      44.416  26.991  33.921  1.00  0.00     0.037 A 
BRANCH  60  74
ATOM     74  C   UNL A   1      43.555  25.522  28.000  1.00  0.00     0.058 A 
ATOM     75  C   UNL A   1      43.499  24.111  28.006  1.00  0.00     0.135 A 
ATOM     76  C   UNL A   1      44.003  26.071  26.776  1.00  0.00     0.135 A 
ATOM     77  F   UNL A   1      43.030  23.435  29.064  1.00  0.00    -0.206 F 
ATOM     78  C   UNL A   1      43.921  23.320  26.934  1.00  0.00     0.059 A 
ATOM     79  C   UNL A   1      44.461  25.302  25.702  1.00  0.00     0.059 A 
ATOM     80  F   UNL A   1      43.980  27.382  26.528  1.00  0.00    -0.206 F 
ATOM     81  C   UNL A   1      44.422  23.924  25.790  1.00  0.00     0.060 A 
BRANCH  81  82
ATOM     82  S   UNL A   1      44.975  22.890  24.424  1.00  0.00     0.124 S 
ATOM     83  O   UNL A   1      43.752  22.740  23.643  1.00  0.00    -0.237 OA
ATOM     84  O   UNL A   1      46.018  23.713  23.823  1.00  0.00    -0.237 OA
ATOM     85  O   UNL A   1      45.443  21.674  25.084  1.00  0.00    -0.744 OA
ENDBRANCH  81  82
ENDBRANCH  60  74
BRANCH  61  86
ATOM     86  C   UNL A   1      41.150  32.077  34.805  1.00  0.00     0.058 A 
ATOM     87  C   UNL A   1      39.991  31.268  34.761  1.00  0.00     0.135 A 
ATOM     88  C   UNL A   1      41.100  33.207  35.633  1.00  0.00     0.135 A 
ATOM     89  F   UNL A   1      39.967  30.175  33.980  1.00  0.00    -0.206 F 
ATOM     90  C   UNL A   1      38.908  31.473  35.613  1.00  0.00     0.059 A 
ATOM     91  C   UNL A   1      40.010  33.443  36.484  1.00  0.00     0.059 A 
ATOM     92  F   UNL A   1      42.158  34.025  35.728  1.00  0.00    -0.206 F 
ATOM     93  C   UNL A   1      38.948  32.537  36.509  1.00  0.00     0.060 A 
BRANCH  93  94
ATOM     94  S   UNL A   1      37.698  32.597  37.817  1.00  0.00     0.124 S 
ATOM     95  O   UNL A   1      37.447  31.183  38.064  1.00  0.00    -0.237 OA
ATOM     96  O   UNL A   1      38.405  33.315  38.879  1.00  0.00    -0.237 OA
ATOM     97  O   UNL A   1      36.604  33.340  37.207  1.00  0.00    -0.744 OA
ENDBRANCH  93  94
ENDBRANCH  61  86
BRANCH  73  98
ATOM     98  C   UNL A   1      44.764  25.663  34.576  1.00  0.00     0.058 A 
ATOM     99  C   UNL A   1      43.807  24.709  34.952  1.00  0.00     0.135 A 
ATOM    100  C   UNL A   1      46.101  25.333  34.931  1.00  0.00     0.135 A 
ATOM    101  F   UNL A   1      42.495  24.967  34.847  1.00  0.00    -0.206 F 
ATOM    102  C   UNL A   1      44.158  23.469  35.497  1.00  0.00     0.059 A 
ATOM    103  C   UNL A   1      46.466  24.131  35.523  1.00  0.00     0.059 A 
ATOM    104  F   UNL A   1      47.133  26.153  34.712  1.00  0.00    -0.206 F 
ATOM    105  C   UNL A   1      45.494  23.183  35.762  1.00  0.00     0.060 A 
BRANCH 105 106
ATOM    106  S   UNL A   1      45.950  21.590  36.458  1.00  0.00     0.124 S 
ATOM    107  O   UNL A   1      47.388  21.549  36.218  1.00  0.00    -0.237 OA
ATOM    108  O   UNL A   1      45.542  21.753  37.850  1.00  0.00    -0.237 OA
ATOM    109  O   UNL A   1      45.161  20.637  35.682  1.00  0.00    -0.744 OA
ENDBRANCH 105 106
ENDBRANCH  73  98
ENDBRANCH  47  48
ENDBRANCH  39  42
ENDBRANCH  37  38
ENDBRANCH  36  37
ENDBRANCH   1  36
TORSDOF 18
ENDMDL
MODEL 3
REMARK VINA RESULT:     -12.4      3.068      4.183
REMARK SMILES Cc1c(C(=O)Nc2ccc(C(=O)Nc3ccccc3C(=O)NCCCNC(=O)c3ccc(-c4c5nc(c(-c6c(F)cc(S(=O)(=O)[O-])cc6F)c6ccc([nH]6)c(-c6c(F)cc(S(=O)(=O)[O-])cc6F)c6nc(c(-c7c(F)cc(S(=O)(=O)[O-])cc7F)c7ccc4[nH]7)C=C6)C=C5)cc3)cc2)cccc1[N+](=O)[O-]
REMARK SMILES IDX 23 1 22 2 20 3 21 4 19 6 14 7 15 8 16 9 18 10 17 11 13 12
REMARK SMILES IDX 11 13 12 14 10 16 7 17 8 18 96 19 9 20 95 21 6 22 4 23 5 24
REMARK SMILES IDX 3 26 1 27 2 28 100 29 97 30 99 31 98 32 101 33 102 34 103 35
REMARK SMILES IDX 24 36 25 37 26 38 27 39 28 41 29 42 30 43 94 44 31 45 93 46
REMARK SMILES IDX 32 47 33 48 34 49 87 50 35 51 92 52 86 53 88 54 36 55 91 56
REMARK SMILES IDX 85 57 84 58 37 60 71 61 50 62 70 63 51 64 54 65 69 66 89 67
REMARK SMILES IDX 52 68 53 69 68 71 90 72 55 73 38 74 39 75 48 76 40 77 41 78
REMARK SMILES IDX 47 79 49 80 42 81 43 82 44 83 45 84 46 85 72 86 73 87 82 88
REMARK SMILES IDX 74 89 75 90 81 91 83 92 76 93 77 94 78 95 79 96 80 97 56 98
REMARK SMILES IDX 57 99 66 100 58 101 59 102 65 103 67 104 60 105 61 106
REMARK SMILES IDX 62 107 63 108 64 109
REMARK H PARENT 22 5 13 15 6 25 26 40 88 59 54 70
REMARK Flexibility Score: inf
ROOT
ATOM      1  C   UNL A   1      34.191  29.191  26.813  1.00  0.00     0.118 C 
ENDROOT
BRANCH   1   2
ATOM      2  N   UNL A   1      32.934  28.806  27.458  1.00  0.00    -0.352 N 
ATOM      3  C   UNL A   1      31.791  28.124  27.101  1.00  0.00     0.253 C 
ATOM      4  O   UNL A   1      31.078  27.733  28.027  1.00  0.00    -0.269 OA
ATOM      5  H   UNL A   1      32.896  29.114  28.392  1.00  0.00     0.163 HD
BRANCH   3   6
ATOM      6  C   UNL A   1      31.325  27.892  25.697  1.00  0.00     0.063 A 
ATOM      7  C   UNL A   1      30.689  26.673  25.321  1.00  0.00     0.054 A 
ATOM      8  C   UNL A   1      30.297  26.473  23.981  1.00  0.00     0.027 A 
ATOM      9  C   UNL A   1      30.426  27.486  23.037  1.00  0.00     0.002 A 
ATOM     10  C   UNL A   1      31.525  28.851  24.694  1.00  0.00     0.016 A 
ATOM     11  C   UNL A   1      31.042  28.674  23.393  1.00  0.00     0.001 A 
BRANCH   7  12
ATOM     12  N   UNL A   1      30.284  25.620  26.173  1.00  0.00    -0.321 N 
ATOM     13  C   UNL A   1      30.881  24.425  26.529  1.00  0.00     0.255 C 
ATOM     14  O   UNL A   1      30.247  23.655  27.256  1.00  0.00    -0.269 OA
ATOM     15  H   UNL A   1      29.406  25.765  26.592  1.00  0.00     0.170 HD
BRANCH  13  16
ATOM     16  C   UNL A   1      32.316  24.118  26.248  1.00  0.00     0.040 A 
ATOM     17  C   UNL A   1      34.881  23.185  25.571  1.00  0.00     0.041 A 
ATOM     18  C   UNL A   1      34.422  23.094  26.869  1.00  0.00     0.027 A 
ATOM     19  C   UNL A   1      34.136  23.912  24.636  1.00  0.00     0.027 A 
ATOM     20  C   UNL A   1      33.118  23.448  27.164  1.00  0.00     0.016 A 
ATOM     21  C   UNL A   1      32.852  24.377  24.977  1.00  0.00     0.016 A 
BRANCH  17  22
ATOM     22  N   UNL A   1      35.985  22.429  25.152  1.00  0.00    -0.322 N 
ATOM     23  C   UNL A   1      36.077  21.078  24.844  1.00  0.00     0.256 C 
ATOM     24  O   UNL A   1      37.193  20.589  24.659  1.00  0.00    -0.269 OA
ATOM     25  H   UNL A   1      36.826  22.935  25.063  1.00  0.00     0.170 HD
BRANCH  23  26
ATOM     26  C   UNL A   1      34.886  20.160  24.721  1.00  0.00     0.049 A 
ATOM     27  C   UNL A   1      36.145  17.970  25.061  1.00  0.00     0.053 C 
ATOM     28  C   UNL A   1      34.927  18.745  24.624  1.00  0.00     0.039 A 
ATOM     29  C   UNL A   1      33.750  18.086  24.188  1.00  0.00     0.273 A 
ATOM     30  C   UNL A   1      33.635  20.808  24.707  1.00  0.00     0.014 A 
ATOM     31  C   UNL A   1      32.513  18.750  24.169  1.00  0.00     0.086 A 
ATOM     32  C   UNL A   1      32.451  20.099  24.494  1.00  0.00     0.008 A 
BRANCH  29  33
ATOM     33  N   UNL A   1      33.776  16.719  23.630  1.00  0.00     0.063 N 
ATOM     34  O   UNL A   1      34.105  16.590  22.442  1.00  0.00    -0.258 OA
ATOM     35  O   UNL A   1      33.540  15.772  24.391  1.00  0.00    -0.258 OA
ENDBRANCH  29  33
ENDBRANCH  23  26
ENDBRANCH  17  22
ENDBRANCH  13  16
ENDBRANCH   7  12
ENDBRANCH   3   6
ENDBRANCH   1   2
BRANCH   1  36
ATOM     36  C   UNL A   1      35.442  28.978  27.650  1.00  0.00     0.042 C 
BRANCH  36  37
ATOM     37  C   UNL A   1      36.486  30.060  27.435  1.00  0.00     0.118 C 
BRANCH  37  38
ATOM     38  N   UNL A   1      35.870  31.369  27.594  1.00  0.00    -0.352 N 
ATOM     39  C   UNL A   1      35.455  31.898  28.811  1.00  0.00     0.251 C 
ATOM     40  H   UNL A   1      35.739  31.917  26.786  1.00  0.00     0.163 HD
ATOM     41  O   UNL A   1      34.315  32.018  29.168  1.00  0.00    -0.269 OA
BRANCH  39  42
ATOM     42  C   UNL A   1      36.593  32.243  29.684  1.00  0.00     0.039 A 
ATOM     43  C   UNL A   1      37.601  33.065  29.166  1.00  0.00     0.014 A 
ATOM     44  C   UNL A   1      36.810  31.356  30.733  1.00  0.00     0.014 A 
ATOM     45  C   UNL A   1      38.906  32.841  29.567  1.00  0.00     0.010 A 
ATOM     46  C   UNL A   1      38.105  31.032  31.015  1.00  0.00     0.010 A 
ATOM     47  C   UNL A   1      39.137  31.753  30.399  1.00  0.00    -0.014 A 
BRANCH  47  48
ATOM     48  C   UNL A   1      40.443  31.331  30.832  1.00  0.00     0.031 A 
ATOM     49  C   UNL A   1      40.991  30.170  30.127  1.00  0.00     0.074 A 
ATOM     50  C   UNL A   1      41.127  32.163  31.642  1.00  0.00     0.049 A 
ATOM     51  N   UNL A   1      41.991  29.478  30.526  1.00  0.00    -0.248 NA
ATOM     52  C   UNL A   1      40.388  29.649  28.899  1.00  0.00     0.031 C 
ATOM     53  C   UNL A   1      42.551  32.199  31.938  1.00  0.00     0.029 A 
ATOM     54  N   UNL A   1      40.561  33.058  32.559  1.00  0.00    -0.354 N 
ATOM     55  C   UNL A   1      42.383  28.693  29.461  1.00  0.00     0.074 A 
ATOM     56  C   UNL A   1      41.268  28.709  28.554  1.00  0.00     0.031 C 
ATOM     57  C   UNL A   1      42.719  32.801  33.131  1.00  0.00     0.029 A 
ATOM     58  C   UNL A   1      41.393  33.003  33.696  1.00  0.00     0.049 A 
ATOM     59  H   UNL A   1      39.754  33.608  32.435  1.00  0.00     0.167 HD
ATOM     60  C   UNL A   1      43.688  28.303  29.415  1.00  0.00     0.037 A 
ATOM     61  C   UNL A   1      40.916  32.373  34.815  1.00  0.00     0.037 A 
ATOM     62  C   UNL A   1      44.355  28.706  30.663  1.00  0.00     0.049 A 
ATOM     63  C   UNL A   1      41.644  31.071  35.130  1.00  0.00     0.074 A 
ATOM     64  C   UNL A   1      45.179  29.760  31.023  1.00  0.00     0.029 A 
ATOM     65  N   UNL A   1      43.861  28.201  31.854  1.00  0.00    -0.354 N 
ATOM     66  N   UNL A   1      42.493  30.477  34.331  1.00  0.00    -0.248 NA
ATOM     67  C   UNL A   1      41.449  30.322  36.367  1.00  0.00     0.031 C 
ATOM     68  C   UNL A   1      45.145  29.886  32.448  1.00  0.00     0.029 A 
ATOM     69  C   UNL A   1      44.317  28.899  32.954  1.00  0.00     0.049 A 
ATOM     70  H   UNL A   1      43.253  27.430  31.910  1.00  0.00     0.167 HD
ATOM     71  C   UNL A   1      42.945  29.309  34.895  1.00  0.00     0.074 A 
ATOM     72  C   UNL A   1      42.231  29.247  36.162  1.00  0.00     0.031 C 
ATOM     73  C   UNL A   1      43.852  28.485  34.275  1.00  0.00     0.037 A 
BRANCH  60  74
ATOM     74  C   UNL A   1      44.421  27.820  28.176  1.00  0.00     0.058 A 
ATOM     75  C   UNL A   1      44.968  26.518  28.152  1.00  0.00     0.135 A 
ATOM     76  C   UNL A   1      44.681  28.570  27.006  1.00  0.00     0.135 A 
ATOM     77  F   UNL A   1      44.755  25.652  29.154  1.00  0.00    -0.206 F 
ATOM     78  C   UNL A   1      45.761  26.036  27.108  1.00  0.00     0.059 A 
ATOM     79  C   UNL A   1      45.498  28.122  25.962  1.00  0.00     0.059 A 
ATOM     80  F   UNL A   1      44.124  29.761  26.780  1.00  0.00    -0.206 F 
ATOM     81  C   UNL A   1      46.040  26.853  26.023  1.00  0.00     0.060 A 
BRANCH  81  82
ATOM     82  S   UNL A   1      47.074  26.221  24.692  1.00  0.00     0.124 S 
ATOM     83  O   UNL A   1      46.913  27.249  23.669  1.00  0.00    -0.237 OA
ATOM     84  O   UNL A   1      48.383  26.156  25.330  1.00  0.00    -0.237 OA
ATOM     85  O   UNL A   1      46.470  24.930  24.374  1.00  0.00    -0.744 OA
ENDBRANCH  81  82
ENDBRANCH  60  74
BRANCH  61  86
ATOM     86  C   UNL A   1      39.457  32.659  35.031  1.00  0.00     0.058 A 
ATOM     87  C   UNL A   1      39.071  34.008  35.211  1.00  0.00     0.135 A 
ATOM     88  C   UNL A   1      38.454  31.764  34.635  1.00  0.00     0.135 A 
ATOM     89  F   UNL A   1      39.980  34.918  35.600  1.00  0.00    -0.206 F 
ATOM     90  C   UNL A   1      37.807  34.474  34.856  1.00  0.00     0.059 A 
ATOM     91  C   UNL A   1      37.168  32.209  34.293  1.00  0.00     0.059 A 
ATOM     92  F   UNL A   1      38.740  30.467  34.446  1.00  0.00    -0.206 F 
ATOM     93  C   UNL A   1      36.875  33.572  34.349  1.00  0.00     0.060 A 
BRANCH  93  94
ATOM     94  S   UNL A   1      35.369  34.237  33.597  1.00  0.00     0.124 S 
ATOM     95  O   UNL A   1      34.593  33.030  33.347  1.00  0.00    -0.237 OA
ATOM     96  O   UNL A   1      34.863  35.114  34.654  1.00  0.00    -0.237 OA
ATOM     97  O   UNL A   1      35.859  34.934  32.415  1.00  0.00    -0.744 OA
ENDBRANCH  93  94
ENDBRANCH  61  86
BRANCH  73  98
ATOM     98  C   UNL A   1      44.354  27.162  34.831  1.00  0.00     0.058 A 
ATOM     99  C   UNL A   1      45.683  26.941  35.226  1.00  0.00     0.135 A 
ATOM    100  C   UNL A   1      43.515  26.017  34.912  1.00  0.00     0.135 A 
ATOM    101  F   UNL A   1      46.626  27.874  35.032  1.00  0.00    -0.206 F 
ATOM    102  C   UNL A   1      46.106  25.734  35.793  1.00  0.00     0.059 A 
ATOM    103  C   UNL A   1      43.928  24.793  35.420  1.00  0.00     0.059 A 
ATOM    104  F   UNL A   1      42.239  26.024  34.514  1.00  0.00    -0.206 F 
ATOM    105  C   UNL A   1      45.214  24.670  35.902  1.00  0.00     0.060 A 
BRANCH 105 106
ATOM    106  S   UNL A   1      45.752  23.119  36.633  1.00  0.00     0.124 S 
ATOM    107  O   UNL A   1      44.923  22.144  35.931  1.00  0.00    -0.237 OA
ATOM    108  O   UNL A   1      47.170  23.112  36.290  1.00  0.00    -0.237 OA
ATOM    109  O   UNL A   1      45.450  23.285  38.052  1.00  0.00    -0.744 OA
ENDBRANCH 105 106
ENDBRANCH  73  98
ENDBRANCH  47  48
ENDBRANCH  39  42
ENDBRANCH  37  38
ENDBRANCH  36  37
ENDBRANCH   1  36
TORSDOF 18
ENDMDL
