MODEL 1
REMARK VINA RESULT:     -12.0      0.000      0.000
REMARK SMILES C[C@H]1[C@@H]([NH2+]C[C@H]2CC[C@@H](C(=O)NCCCNC(=O)c3ccc(-c4c5nc(c(-c6c(F)cc(S(=O)(=O)[O-])cc6F)c6ccc([nH]6)c(-c6c(F)cc(S(=O)(=O)[O-])cc6F)c6nc(c(-c7c(F)cc(S(=O)(=O)[O-])cc7F)c7ccc4[nH]7)C=C6)C=C5)cc3)CC2)CCC[C@@H]1C
REMARK SMILES IDX 14 1 13 2 12 3 10 4 11 5 9 7 6 8 7 9 86 10 8 11 85 12 5 13
REMARK SMILES IDX 4 14 3 17 1 18 2 19 90 20 87 21 89 22 91 23 88 24 15 25
REMARK SMILES IDX 16 26 17 27 18 29 19 30 20 31 84 32 21 33 83 34 22 35 23 36
REMARK SMILES IDX 24 37 77 38 25 39 82 40 76 41 78 42 26 43 81 44 75 45 74 46
REMARK SMILES IDX 27 48 61 49 40 50 60 51 41 52 44 53 59 54 79 55 42 56 43 57
REMARK SMILES IDX 58 59 80 60 45 61 28 62 29 63 38 64 30 65 31 66 37 67 39 68
REMARK SMILES IDX 32 69 33 70 34 71 35 72 36 73 62 74 63 75 72 76 64 77 65 78
REMARK SMILES IDX 71 79 73 80 66 81 67 82 68 83 69 84 70 85 46 86 47 87 56 88
REMARK SMILES IDX 48 89 49 90 55 91 57 92 50 93 51 94 52 95 53 96 54 97
REMARK H PARENT 12 6 4 15 4 16 16 28 78 47 44 58
REMARK Flexibility Score: inf
ROOT
ATOM      1  C   UNL A   1      34.323  31.310  27.821  1.00  0.00     0.042 C 
ENDROOT
BRANCH   1   2
ATOM      2  C   UNL A   1      33.375  30.551  26.900  1.00  0.00     0.117 C 
BRANCH   2   3
ATOM      3  N   UNL A   1      32.577  29.554  27.588  1.00  0.00    -0.356 N 
ATOM      4  C   UNL A   1      32.027  28.385  27.153  1.00  0.00     0.223 C 
ATOM      5  O   UNL A   1      31.435  27.695  27.988  1.00  0.00    -0.275 OA
ATOM      6  H   UNL A   1      32.402  29.756  28.536  1.00  0.00     0.163 HD
BRANCH   4   7
ATOM      7  C   UNL A   1      32.124  27.916  25.699  1.00  0.00     0.078 C 
ATOM      8  C   UNL A   1      32.388  25.563  23.862  1.00  0.00     0.044 C 
ATOM      9  C   UNL A   1      31.076  26.369  23.941  1.00  0.00     0.010 C 
ATOM     10  C   UNL A   1      33.553  26.548  24.054  1.00  0.00     0.010 C 
ATOM     11  C   UNL A   1      30.893  27.100  25.273  1.00  0.00     0.014 C 
ATOM     12  C   UNL A   1      33.492  27.290  25.393  1.00  0.00     0.014 C 
BRANCH   8  13
ATOM     13  C   UNL A   1      32.424  24.430  24.912  1.00  0.00     0.264 C 
BRANCH  13  14
ATOM     14  N   UNL A   1      33.306  23.303  24.607  1.00  0.00    -0.343 N 
ATOM     15  H   UNL A   1      32.782  22.615  24.068  1.00  0.00     0.346 HD
ATOM     16  H   UNL A   1      34.100  23.667  24.081  1.00  0.00     0.346 HD
BRANCH  14  17
ATOM     17  C   UNL A   1      33.838  22.647  25.830  1.00  0.00     0.185 C 
ATOM     18  C   UNL A   1      36.061  23.913  25.692  1.00  0.00     0.014 C 
ATOM     19  C   UNL A   1      35.392  22.543  25.827  1.00  0.00     0.047 C 
ATOM     20  C   UNL A   1      35.892  21.513  24.775  1.00  0.00    -0.006 C 
ATOM     21  C   UNL A   1      33.286  21.232  26.127  1.00  0.00     0.065 C 
ATOM     22  C   UNL A   1      35.241  20.135  25.000  1.00  0.00     0.004 C 
ATOM     23  C   UNL A   1      37.414  21.348  24.784  1.00  0.00     0.008 C 
ATOM     24  C   UNL A   1      33.724  20.205  25.090  1.00  0.00     0.006 C 
ENDBRANCH  14  17
ENDBRANCH  13  14
ENDBRANCH   8  13
ENDBRANCH   4   7
ENDBRANCH   2   3
ENDBRANCH   1   2
BRANCH   1  25
ATOM     25  C   UNL A   1      35.488  30.483  28.345  1.00  0.00     0.118 C 
BRANCH  25  26
ATOM     26  N   UNL A   1      35.524  30.415  29.799  1.00  0.00    -0.352 N 
ATOM     27  C   UNL A   1      36.538  30.065  30.658  1.00  0.00     0.251 C 
ATOM     28  H   UNL A   1      34.680  30.662  30.241  1.00  0.00     0.163 HD
ATOM     29  O   UNL A   1      36.276  29.910  31.848  1.00  0.00    -0.269 OA
BRANCH  27  30
ATOM     30  C   UNL A   1      37.921  29.851  30.171  1.00  0.00     0.039 A 
ATOM     31  C   UNL A   1      38.898  29.454  31.090  1.00  0.00     0.014 A 
ATOM     32  C   UNL A   1      38.277  30.068  28.838  1.00  0.00     0.014 A 
ATOM     33  C   UNL A   1      40.203  29.207  30.658  1.00  0.00     0.010 A 
ATOM     34  C   UNL A   1      39.553  29.733  28.391  1.00  0.00     0.010 A 
ATOM     35  C   UNL A   1      40.533  29.300  29.295  1.00  0.00    -0.014 A 
BRANCH  35  36
ATOM     36  C   UNL A   1      41.888  28.920  28.813  1.00  0.00     0.031 A 
ATOM     37  C   UNL A   1      42.997  29.936  28.742  1.00  0.00     0.074 A 
ATOM     38  C   UNL A   1      42.104  27.656  28.396  1.00  0.00     0.049 A 
ATOM     39  N   UNL A   1      44.237  29.776  28.354  1.00  0.00    -0.248 NA
ATOM     40  C   UNL A   1      42.668  31.315  29.133  1.00  0.00     0.031 C 
ATOM     41  C   UNL A   1      41.091  26.597  28.348  1.00  0.00     0.029 A 
ATOM     42  N   UNL A   1      43.242  27.043  27.934  1.00  0.00    -0.354 N 
ATOM     43  C   UNL A   1      44.831  31.029  28.447  1.00  0.00     0.074 A 
ATOM     44  C   UNL A   1      43.801  31.951  28.872  1.00  0.00     0.031 C 
ATOM     45  C   UNL A   1      41.661  25.460  27.922  1.00  0.00     0.029 A 
ATOM     46  C   UNL A   1      43.067  25.713  27.630  1.00  0.00     0.049 A 
ATOM     47  H   UNL A   1      44.101  27.511  27.831  1.00  0.00     0.167 HD
ATOM     48  C   UNL A   1      46.123  31.375  28.224  1.00  0.00     0.037 A 
ATOM     49  C   UNL A   1      43.941  24.798  27.168  1.00  0.00     0.037 A 
ATOM     50  C   UNL A   1      47.148  30.448  27.815  1.00  0.00     0.049 A 
ATOM     51  C   UNL A   1      45.372  25.202  26.946  1.00  0.00     0.074 A 
ATOM     52  C   UNL A   1      48.498  30.686  27.621  1.00  0.00     0.029 A 
ATOM     53  N   UNL A   1      46.937  29.106  27.530  1.00  0.00    -0.354 N 
ATOM     54  N   UNL A   1      45.933  26.377  27.115  1.00  0.00    -0.248 NA
ATOM     55  C   UNL A   1      46.291  24.156  26.482  1.00  0.00     0.031 C 
ATOM     56  C   UNL A   1      49.093  29.501  27.173  1.00  0.00     0.029 A 
ATOM     57  C   UNL A   1      48.127  28.509  27.141  1.00  0.00     0.049 A 
ATOM     58  H   UNL A   1      46.070  28.645  27.597  1.00  0.00     0.167 HD
ATOM     59  C   UNL A   1      47.275  26.205  26.797  1.00  0.00     0.074 A 
ATOM     60  C   UNL A   1      47.445  24.807  26.453  1.00  0.00     0.031 C 
ATOM     61  C   UNL A   1      48.278  27.119  26.788  1.00  0.00     0.037 A 
BRANCH  48  62
ATOM     62  C   UNL A   1      46.504  32.818  28.423  1.00  0.00     0.058 A 
ATOM     63  C   UNL A   1      46.450  33.749  27.372  1.00  0.00     0.135 A 
ATOM     64  C   UNL A   1      46.890  33.290  29.689  1.00  0.00     0.135 A 
ATOM     65  F   UNL A   1      46.103  33.353  26.136  1.00  0.00    -0.206 F 
ATOM     66  C   UNL A   1      46.791  35.084  27.560  1.00  0.00     0.059 A 
ATOM     67  C   UNL A   1      47.206  34.628  29.907  1.00  0.00     0.059 A 
ATOM     68  F   UNL A   1      46.960  32.448  30.731  1.00  0.00    -0.206 F 
ATOM     69  C   UNL A   1      47.167  35.515  28.832  1.00  0.00     0.060 A 
BRANCH  69  70
ATOM     70  S   UNL A   1      47.595  37.254  29.061  1.00  0.00     0.124 S 
ATOM     71  O   UNL A   1      47.823  37.311  30.502  1.00  0.00    -0.237 OA
ATOM     72  O   UNL A   1      48.784  37.396  28.226  1.00  0.00    -0.237 OA
ATOM     73  O   UNL A   1      46.411  37.962  28.585  1.00  0.00    -0.744 OA
ENDBRANCH  69  70
ENDBRANCH  48  62
BRANCH  49  74
ATOM     74  C   UNL A   1      43.492  23.402  26.918  1.00  0.00     0.058 A 
ATOM     75  C   UNL A   1      43.296  22.926  25.613  1.00  0.00     0.135 A 
ATOM     76  C   UNL A   1      43.263  22.510  27.979  1.00  0.00     0.135 A 
ATOM     77  F   UNL A   1      43.498  23.741  24.566  1.00  0.00    -0.206 F 
ATOM     78  C   UNL A   1      42.871  21.625  25.367  1.00  0.00     0.059 A 
ATOM     79  C   UNL A   1      42.867  21.196  27.757  1.00  0.00     0.059 A 
ATOM     80  F   UNL A   1      43.455  22.909  29.246  1.00  0.00    -0.206 F 
ATOM     81  C   UNL A   1      42.663  20.765  26.446  1.00  0.00     0.060 A 
BRANCH  81  82
ATOM     82  S   UNL A   1      42.161  19.063  26.114  1.00  0.00     0.124 S 
ATOM     83  O   UNL A   1      40.753  19.232  25.774  1.00  0.00    -0.237 OA
ATOM     84  O   UNL A   1      43.045  18.694  25.012  1.00  0.00    -0.237 OA
ATOM     85  O   UNL A   1      42.430  18.382  27.377  1.00  0.00    -0.744 OA
ENDBRANCH  81  82
ENDBRANCH  49  74
BRANCH  61  86
ATOM     86  C   UNL A   1      49.649  26.625  26.412  1.00  0.00     0.058 A 
ATOM     87  C   UNL A   1      50.119  26.682  25.090  1.00  0.00     0.135 A 
ATOM     88  C   UNL A   1      50.505  26.085  27.387  1.00  0.00     0.135 A 
ATOM     89  F   UNL A   1      49.341  27.186  24.117  1.00  0.00    -0.206 F 
ATOM     90  C   UNL A   1      51.366  26.176  24.738  1.00  0.00     0.059 A 
ATOM     91  C   UNL A   1      51.769  25.604  27.064  1.00  0.00     0.059 A 
ATOM     92  F   UNL A   1      50.113  26.021  28.669  1.00  0.00    -0.206 F 
ATOM     93  C   UNL A   1      52.181  25.631  25.732  1.00  0.00     0.060 A 
BRANCH  93  94
ATOM     94  S   UNL A   1      53.789  24.961  25.262  1.00  0.00     0.124 S 
ATOM     95  O   UNL A   1      54.112  25.767  24.090  1.00  0.00    -0.237 OA
ATOM     96  O   UNL A   1      54.596  25.217  26.450  1.00  0.00    -0.237 OA
ATOM     97  O   UNL A   1      53.506  23.553  24.997  1.00  0.00    -0.744 OA
ENDBRANCH  93  94
ENDBRANCH  61  86
ENDBRANCH  35  36
ENDBRANCH  27  30
ENDBRANCH  25  26
ENDBRANCH   1  25
TORSDOF 16
ENDMDL
MODEL 2
REMARK VINA RESULT:     -11.9      6.349      8.572
REMARK SMILES C[C@H]1[C@@H]([NH2+]C[C@H]2CC[C@@H](C(=O)NCCCNC(=O)c3ccc(-c4c5nc(c(-c6c(F)cc(S(=O)(=O)[O-])cc6F)c6ccc([nH]6)c(-c6c(F)cc(S(=O)(=O)[O-])cc6F)c6nc(c(-c7c(F)cc(S(=O)(=O)[O-])cc7F)c7ccc4[nH]7)C=C6)C=C5)cc3)CC2)CCC[C@@H]1C
REMARK SMILES IDX 14 1 13 2 12 3 10 4 11 5 9 7 6 8 7 9 86 10 8 11 85 12 5 13
REMARK SMILES IDX 4 14 3 17 1 18 2 19 90 20 87 21 89 22 91 23 88 24 15 25
REMARK SMILES IDX 16 26 17 27 18 29 19 30 20 31 84 32 21 33 83 34 22 35 23 36
REMARK SMILES IDX 24 37 77 38 25 39 82 40 76 41 78 42 26 43 81 44 75 45 74 46
REMARK SMILES IDX 27 48 61 49 40 50 60 51 41 52 44 53 59 54 79 55 42 56 43 57
REMARK SMILES IDX 58 59 80 60 45 61 28 62 29 63 38 64 30 65 31 66 37 67 39 68
REMARK SMILES IDX 32 69 33 70 34 71 35 72 36 73 62 74 63 75 72 76 64 77 65 78
REMARK SMILES IDX 71 79 73 80 66 81 67 82 68 83 69 84 70 85 46 86 47 87 56 88
REMARK SMILES IDX 48 89 49 90 55 91 57 92 50 93 51 94 52 95 53 96 54 97
REMARK H PARENT 12 6 4 15 4 16 16 28 78 47 44 58
REMARK Flexibility Score: inf
ROOT
ATOM      1  C   UNL A   1      31.551  32.474  26.796  1.00  0.00     0.042 C 
ENDROOT
BRANCH   1   2
ATOM      2  C   UNL A   1      31.658  30.971  26.567  1.00  0.00     0.117 C 
BRANCH   2   3
ATOM      3  N   UNL A   1      32.878  30.392  27.097  1.00  0.00    -0.356 N 
ATOM      4  C   UNL A   1      33.530  29.234  26.794  1.00  0.00     0.223 C 
ATOM      5  O   UNL A   1      34.599  29.020  27.373  1.00  0.00    -0.275 OA
ATOM      6  H   UNL A   1      33.312  30.930  27.798  1.00  0.00     0.163 HD
BRANCH   4   7
ATOM      7  C   UNL A   1      32.991  28.223  25.778  1.00  0.00     0.078 C 
ATOM      8  C   UNL A   1      33.345  25.515  24.543  1.00  0.00     0.044 C 
ATOM      9  C   UNL A   1      32.163  25.812  25.487  1.00  0.00     0.010 C 
ATOM     10  C   UNL A   1      33.631  26.793  23.737  1.00  0.00     0.010 C 
ATOM     11  C   UNL A   1      32.438  26.961  26.459  1.00  0.00     0.014 C 
ATOM     12  C   UNL A   1      33.978  27.993  24.624  1.00  0.00     0.014 C 
BRANCH   8  13
ATOM     13  C   UNL A   1      34.594  25.047  25.324  1.00  0.00     0.264 C 
BRANCH  13  14
ATOM     14  N   UNL A   1      34.738  23.601  25.492  1.00  0.00    -0.343 N 
ATOM     15  H   UNL A   1      35.535  23.421  26.101  1.00  0.00     0.346 HD
ATOM     16  H   UNL A   1      33.869  23.250  25.895  1.00  0.00     0.346 HD
BRANCH  14  17
ATOM     17  C   UNL A   1      34.955  22.895  24.202  1.00  0.00     0.185 C 
ATOM     18  C   UNL A   1      32.622  21.837  24.247  1.00  0.00     0.014 C 
ATOM     19  C   UNL A   1      34.123  21.583  24.089  1.00  0.00     0.047 C 
ATOM     20  C   UNL A   1      34.661  20.484  25.049  1.00  0.00    -0.006 C 
ATOM     21  C   UNL A   1      36.423  22.535  23.872  1.00  0.00     0.065 C 
ATOM     22  C   UNL A   1      36.158  20.218  24.799  1.00  0.00     0.004 C 
ATOM     23  C   UNL A   1      33.897  19.163  24.923  1.00  0.00     0.008 C 
ATOM     24  C   UNL A   1      36.995  21.489  24.821  1.00  0.00     0.006 C 
ENDBRANCH  14  17
ENDBRANCH  13  14
ENDBRANCH   8  13
ENDBRANCH   4   7
ENDBRANCH   2   3
ENDBRANCH   1   2
BRANCH   1  25
ATOM     25  C   UNL A   1      32.790  33.106  27.413  1.00  0.00     0.118 C 
BRANCH  25  26
ATOM     26  N   UNL A   1      32.548  34.452  27.912  1.00  0.00    -0.352 N 
ATOM     27  C   UNL A   1      33.115  35.140  28.958  1.00  0.00     0.251 C 
ATOM     28  H   UNL A   1      31.862  34.955  27.415  1.00  0.00     0.163 HD
ATOM     29  O   UNL A   1      32.617  36.209  29.300  1.00  0.00    -0.269 OA
BRANCH  27  30
ATOM     30  C   UNL A   1      34.289  34.604  29.685  1.00  0.00     0.039 A 
ATOM     31  C   UNL A   1      34.093  34.055  30.957  1.00  0.00     0.014 A 
ATOM     32  C   UNL A   1      35.579  34.663  29.153  1.00  0.00     0.014 A 
ATOM     33  C   UNL A   1      35.171  33.506  31.654  1.00  0.00     0.010 A 
ATOM     34  C   UNL A   1      36.636  34.034  29.807  1.00  0.00     0.010 A 
ATOM     35  C   UNL A   1      36.446  33.450  31.067  1.00  0.00    -0.014 A 
BRANCH  35  36
ATOM     36  C   UNL A   1      37.570  32.758  31.753  1.00  0.00     0.031 A 
ATOM     37  C   UNL A   1      38.094  33.256  33.073  1.00  0.00     0.074 A 
ATOM     38  C   UNL A   1      38.148  31.696  31.156  1.00  0.00     0.049 A 
ATOM     39  N   UNL A   1      39.061  32.772  33.812  1.00  0.00    -0.248 NA
ATOM     40  C   UNL A   1      37.472  34.469  33.626  1.00  0.00     0.031 C 
ATOM     41  C   UNL A   1      37.778  31.160  29.843  1.00  0.00     0.029 A 
ATOM     42  N   UNL A   1      39.166  30.874  31.570  1.00  0.00    -0.354 N 
ATOM     43  C   UNL A   1      39.167  33.620  34.908  1.00  0.00     0.074 A 
ATOM     44  C   UNL A   1      38.206  34.683  34.709  1.00  0.00     0.031 C 
ATOM     45  C   UNL A   1      38.529  30.080  29.578  1.00  0.00     0.029 A 
ATOM     46  C   UNL A   1      39.458  29.866  30.682  1.00  0.00     0.049 A 
ATOM     47  H   UNL A   1      39.642  30.995  32.422  1.00  0.00     0.167 HD
ATOM     48  C   UNL A   1      39.971  33.510  35.993  1.00  0.00     0.037 A 
ATOM     49  C   UNL A   1      40.372  28.878  30.747  1.00  0.00     0.037 A 
ATOM     50  C   UNL A   1      40.916  32.439  36.192  1.00  0.00     0.049 A 
ATOM     51  C   UNL A   1      41.241  28.767  31.968  1.00  0.00     0.074 A 
ATOM     52  C   UNL A   1      41.734  32.203  37.283  1.00  0.00     0.029 A 
ATOM     53  N   UNL A   1      41.174  31.427  35.277  1.00  0.00    -0.354 N 
ATOM     54  N   UNL A   1      41.272  29.536  33.032  1.00  0.00    -0.248 NA
ATOM     55  C   UNL A   1      42.190  27.648  32.005  1.00  0.00     0.031 C 
ATOM     56  C   UNL A   1      42.521  31.079  37.007  1.00  0.00     0.029 A 
ATOM     57  C   UNL A   1      42.155  30.579  35.769  1.00  0.00     0.049 A 
ATOM     58  H   UNL A   1      40.726  31.326  34.407  1.00  0.00     0.167 HD
ATOM     59  C   UNL A   1      42.229  28.981  33.873  1.00  0.00     0.074 A 
ATOM     60  C   UNL A   1      42.733  27.797  33.205  1.00  0.00     0.031 C 
ATOM     61  C   UNL A   1      42.656  29.412  35.087  1.00  0.00     0.037 A 
BRANCH  48  62
ATOM     62  C   UNL A   1      39.864  34.572  37.055  1.00  0.00     0.058 A 
ATOM     63  C   UNL A   1      40.602  35.765  36.983  1.00  0.00     0.135 A 
ATOM     64  C   UNL A   1      38.982  34.417  38.137  1.00  0.00     0.135 A 
ATOM     65  F   UNL A   1      41.472  35.963  35.980  1.00  0.00    -0.206 F 
ATOM     66  C   UNL A   1      40.492  36.751  37.959  1.00  0.00     0.059 A 
ATOM     67  C   UNL A   1      38.833  35.403  39.108  1.00  0.00     0.059 A 
ATOM     68  F   UNL A   1      38.250  33.298  38.258  1.00  0.00    -0.206 F 
ATOM     69  C   UNL A   1      39.604  36.562  39.018  1.00  0.00     0.060 A 
BRANCH  69  70
ATOM     70  S   UNL A   1      39.465  37.857  40.268  1.00  0.00     0.124 S 
ATOM     71  O   UNL A   1      40.827  38.386  40.290  1.00  0.00    -0.237 OA
ATOM     72  O   UNL A   1      38.453  38.738  39.695  1.00  0.00    -0.237 OA
ATOM     73  O   UNL A   1      39.055  37.131  41.467  1.00  0.00    -0.744 OA
ENDBRANCH  69  70
ENDBRANCH  48  62
BRANCH  49  74
ATOM     74  C   UNL A   1      40.486  27.898  29.633  1.00  0.00     0.058 A 
ATOM     75  C   UNL A   1      39.624  26.794  29.548  1.00  0.00     0.135 A 
ATOM     76  C   UNL A   1      41.450  28.052  28.624  1.00  0.00     0.135 A 
ATOM     77  F   UNL A   1      38.688  26.601  30.491  1.00  0.00    -0.206 F 
ATOM     78  C   UNL A   1      39.724  25.868  28.516  1.00  0.00     0.059 A 
ATOM     79  C   UNL A   1      41.551  27.155  27.566  1.00  0.00     0.059 A 
ATOM     80  F   UNL A   1      42.287  29.101  28.648  1.00  0.00    -0.206 F 
ATOM     81  C   UNL A   1      40.689  26.060  27.526  1.00  0.00     0.060 A 
BRANCH  81  82
ATOM     82  S   UNL A   1      40.777  24.880  26.162  1.00  0.00     0.124 S 
ATOM     83  O   UNL A   1      41.396  25.684  25.116  1.00  0.00    -0.237 OA
ATOM     84  O   UNL A   1      41.606  23.820  26.728  1.00  0.00    -0.237 OA
ATOM     85  O   UNL A   1      39.380  24.520  25.940  1.00  0.00    -0.744 OA
ENDBRANCH  81  82
ENDBRANCH  49  74
BRANCH  61  86
ATOM     86  C   UNL A   1      43.707  28.581  35.774  1.00  0.00     0.058 A 
ATOM     87  C   UNL A   1      45.077  28.819  35.586  1.00  0.00     0.135 A 
ATOM     88  C   UNL A   1      43.337  27.533  36.634  1.00  0.00     0.135 A 
ATOM     89  F   UNL A   1      45.487  29.806  34.773  1.00  0.00    -0.206 F 
ATOM     90  C   UNL A   1      46.044  28.016  36.182  1.00  0.00     0.059 A 
ATOM     91  C   UNL A   1      44.286  26.738  37.267  1.00  0.00     0.059 A 
ATOM     92  F   UNL A   1      42.040  27.272  36.863  1.00  0.00    -0.206 F 
ATOM     93  C   UNL A   1      45.637  26.972  37.016  1.00  0.00     0.060 A 
BRANCH  93  94
ATOM     94  S   UNL A   1      46.899  25.924  37.770  1.00  0.00     0.124 S 
ATOM     95  O   UNL A   1      46.563  26.032  39.185  1.00  0.00    -0.237 OA
ATOM     96  O   UNL A   1      46.641  24.628  37.152  1.00  0.00    -0.237 OA
ATOM     97  O   UNL A   1      48.151  26.562  37.371  1.00  0.00    -0.744 OA
ENDBRANCH  93  94
ENDBRANCH  61  86
ENDBRANCH  35  36
ENDBRANCH  27  30
ENDBRANCH  25  26
ENDBRANCH   1  25
TORSDOF 16
ENDMDL
MODEL 3
REMARK VINA RESULT:     -11.9      6.559     12.221
REMARK SMILES C[C@H]1[C@@H]([NH2+]C[C@H]2CC[C@@H](C(=O)NCCCNC(=O)c3ccc(-c4c5nc(c(-c6c(F)cc(S(=O)(=O)[O-])cc6F)c6ccc([nH]6)c(-c6c(F)cc(S(=O)(=O)[O-])cc6F)c6nc(c(-c7c(F)cc(S(=O)(=O)[O-])cc7F)c7ccc4[nH]7)C=C6)C=C5)cc3)CC2)CCC[C@@H]1C
REMARK SMILES IDX 14 1 13 2 12 3 10 4 11 5 9 7 6 8 7 9 86 10 8 11 85 12 5 13
REMARK SMILES IDX 4 14 3 17 1 18 2 19 90 20 87 21 89 22 91 23 88 24 15 25
REMARK SMILES IDX 16 26 17 27 18 29 19 30 20 31 84 32 21 33 83 34 22 35 23 36
REMARK SMILES IDX 24 37 77 38 25 39 82 40 76 41 78 42 26 43 81 44 75 45 74 46
REMARK SMILES IDX 27 48 61 49 40 50 60 51 41 52 44 53 59 54 79 55 42 56 43 57
REMARK SMILES IDX 58 59 80 60 45 61 28 62 29 63 38 64 30 65 31 66 37 67 39 68
REMARK SMILES IDX 32 69 33 70 34 71 35 72 36 73 62 74 63 75 72 76 64 77 65 78
REMARK SMILES IDX 71 79 73 80 66 81 67 82 68 83 69 84 70 85 46 86 47 87 56 88
REMARK SMILES IDX 48 89 49 90 55 91 57 92 50 93 51 94 52 95 53 96 54 97
REMARK H PARENT 12 6 4 15 4 16 16 28 78 47 44 58
REMARK Flexibility Score: inf
ROOT
ATOM      1  C   UNL A   1      40.720  21.640  26.756  1.00  0.00     0.042 C 
ENDROOT
BRANCH   1   2
ATOM      2  C   UNL A   1      39.333  21.733  26.129  1.00  0.00     0.117 C 
BRANCH   2   3
ATOM      3  N   UNL A   1      38.641  22.969  26.443  1.00  0.00    -0.356 N 
ATOM      4  C   UNL A   1      37.418  23.435  26.064  1.00  0.00     0.223 C 
ATOM      5  O   UNL A   1      37.054  24.515  26.538  1.00  0.00    -0.275 OA
ATOM      6  H   UNL A   1      39.142  23.577  27.033  1.00  0.00     0.163 HD
BRANCH   4   7
ATOM      7  C   UNL A   1      36.506  22.675  25.097  1.00  0.00     0.078 C 
ATOM      8  C   UNL A   1      33.679  22.100  24.284  1.00  0.00     0.044 C 
ATOM      9  C   UNL A   1      34.611  22.940  23.387  1.00  0.00     0.010 C 
ATOM     10  C   UNL A   1      34.537  21.024  24.970  1.00  0.00     0.010 C 
ATOM     11  C   UNL A   1      35.741  23.624  24.160  1.00  0.00     0.014 C 
ATOM     12  C   UNL A   1      35.665  21.615  25.822  1.00  0.00     0.014 C 
BRANCH   8  13
ATOM     13  C   UNL A   1      32.939  22.979  25.317  1.00  0.00     0.264 C 
BRANCH  13  14
ATOM     14  N   UNL A   1      32.199  24.118  24.775  1.00  0.00    -0.343 N 
ATOM     15  H   UNL A   1      32.564  24.334  23.848  1.00  0.00     0.346 HD
ATOM     16  H   UNL A   1      31.213  23.857  24.739  1.00  0.00     0.346 HD
BRANCH  14  17
ATOM     17  C   UNL A   1      32.313  25.331  25.626  1.00  0.00     0.185 C 
ATOM     18  C   UNL A   1      29.777  25.699  25.657  1.00  0.00     0.014 C 
ATOM     19  C   UNL A   1      31.145  26.336  25.398  1.00  0.00     0.047 C 
ATOM     20  C   UNL A   1      31.246  27.020  24.005  1.00  0.00    -0.006 C 
ATOM     21  C   UNL A   1      33.633  26.127  25.489  1.00  0.00     0.065 C 
ATOM     22  C   UNL A   1      32.614  27.706  23.826  1.00  0.00     0.004 C 
ATOM     23  C   UNL A   1      30.142  28.054  23.772  1.00  0.00     0.008 C 
ATOM     24  C   UNL A   1      33.783  26.777  24.119  1.00  0.00     0.006 C 
ENDBRANCH  14  17
ENDBRANCH  13  14
ENDBRANCH   8  13
ENDBRANCH   4   7
ENDBRANCH   2   3
ENDBRANCH   1   2
BRANCH   1  25
ATOM     25  C   UNL A   1      41.280  22.967  27.246  1.00  0.00     0.118 C 
BRANCH  25  26
ATOM     26  N   UNL A   1      41.568  23.894  26.161  1.00  0.00    -0.352 N 
ATOM     27  C   UNL A   1      41.554  25.267  26.123  1.00  0.00     0.251 C 
ATOM     28  H   UNL A   1      41.814  23.463  25.310  1.00  0.00     0.163 HD
ATOM     29  O   UNL A   1      41.661  25.829  25.036  1.00  0.00    -0.269 OA
BRANCH  27  30
ATOM     30  C   UNL A   1      41.391  26.070  27.358  1.00  0.00     0.039 A 
ATOM     31  C   UNL A   1      42.420  26.943  27.727  1.00  0.00     0.014 A 
ATOM     32  C   UNL A   1      40.262  25.952  28.172  1.00  0.00     0.014 A 
ATOM     33  C   UNL A   1      42.282  27.742  28.864  1.00  0.00     0.010 A 
ATOM     34  C   UNL A   1      40.085  26.815  29.252  1.00  0.00     0.010 A 
ATOM     35  C   UNL A   1      41.094  27.719  29.613  1.00  0.00    -0.014 A 
BRANCH  35  36
ATOM     36  C   UNL A   1      40.894  28.655  30.751  1.00  0.00     0.031 A 
ATOM     37  C   UNL A   1      41.737  28.553  31.994  1.00  0.00     0.074 A 
ATOM     38  C   UNL A   1      39.913  29.577  30.676  1.00  0.00     0.049 A 
ATOM     39  N   UNL A   1      41.702  29.289  33.077  1.00  0.00    -0.248 NA
ATOM     40  C   UNL A   1      42.732  27.470  32.041  1.00  0.00     0.031 C 
ATOM     41  C   UNL A   1      38.981  29.730  29.555  1.00  0.00     0.029 A 
ATOM     42  N   UNL A   1      39.533  30.561  31.555  1.00  0.00    -0.354 N 
ATOM     43  C   UNL A   1      42.660  28.757  33.932  1.00  0.00     0.074 A 
ATOM     44  C   UNL A   1      43.219  27.601  33.267  1.00  0.00     0.031 C 
ATOM     45  C   UNL A   1      38.166  30.769  29.796  1.00  0.00     0.029 A 
ATOM     46  C   UNL A   1      38.489  31.333  31.102  1.00  0.00     0.049 A 
ATOM     47  H   UNL A   1      39.967  30.700  32.427  1.00  0.00     0.167 HD
ATOM     48  C   UNL A   1      43.057  29.206  35.147  1.00  0.00     0.037 A 
ATOM     49  C   UNL A   1      37.862  32.380  31.672  1.00  0.00     0.037 A 
ATOM     50  C   UNL A   1      42.506  30.370  35.797  1.00  0.00     0.049 A 
ATOM     51  C   UNL A   1      38.331  32.869  33.013  1.00  0.00     0.074 A 
ATOM     52  C   UNL A   1      42.879  30.942  37.001  1.00  0.00     0.029 A 
ATOM     53  N   UNL A   1      41.459  31.135  35.302  1.00  0.00    -0.354 N 
ATOM     54  N   UNL A   1      39.293  32.400  33.774  1.00  0.00    -0.248 NA
ATOM     55  C   UNL A   1      37.640  34.039  33.570  1.00  0.00     0.031 C 
ATOM     56  C   UNL A   1      42.028  32.023  37.256  1.00  0.00     0.029 A 
ATOM     57  C   UNL A   1      41.160  32.161  36.185  1.00  0.00     0.049 A 
ATOM     58  H   UNL A   1      40.999  30.974  34.447  1.00  0.00     0.167 HD
ATOM     59  C   UNL A   1      39.335  33.229  34.888  1.00  0.00     0.074 A 
ATOM     60  C   UNL A   1      38.319  34.244  34.689  1.00  0.00     0.031 C 
ATOM     61  C   UNL A   1      40.137  33.157  35.980  1.00  0.00     0.037 A 
BRANCH  48  62
ATOM     62  C   UNL A   1      44.143  28.441  35.856  1.00  0.00     0.058 A 
ATOM     63  C   UNL A   1      43.851  27.388  36.738  1.00  0.00     0.135 A 
ATOM     64  C   UNL A   1      45.497  28.735  35.620  1.00  0.00     0.135 A 
ATOM     65  F   UNL A   1      42.575  27.072  37.014  1.00  0.00    -0.206 F 
ATOM     66  C   UNL A   1      44.856  26.675  37.382  1.00  0.00     0.059 A 
ATOM     67  C   UNL A   1      46.520  28.013  36.230  1.00  0.00     0.059 A 
ATOM     68  F   UNL A   1      45.837  29.730  34.786  1.00  0.00    -0.206 F 
ATOM     69  C   UNL A   1      46.189  26.994  37.121  1.00  0.00     0.060 A 
BRANCH  69  70
ATOM     70  S   UNL A   1      47.481  26.049  37.957  1.00  0.00     0.124 S 
ATOM     71  O   UNL A   1      48.689  26.669  37.418  1.00  0.00    -0.237 OA
ATOM     72  O   UNL A   1      47.204  26.319  39.364  1.00  0.00    -0.237 OA
ATOM     73  O   UNL A   1      47.234  24.678  37.524  1.00  0.00    -0.744 OA
ENDBRANCH  69  70
ENDBRANCH  48  62
BRANCH  49  74
ATOM     74  C   UNL A   1      36.743  33.053  30.959  1.00  0.00     0.058 A 
ATOM     75  C   UNL A   1      35.411  32.870  31.362  1.00  0.00     0.135 A 
ATOM     76  C   UNL A   1      36.983  33.905  29.869  1.00  0.00     0.135 A 
ATOM     77  F   UNL A   1      35.130  32.062  32.397  1.00  0.00    -0.206 F 
ATOM     78  C   UNL A   1      34.357  33.490  30.701  1.00  0.00     0.059 A 
ATOM     79  C   UNL A   1      35.948  34.559  29.210  1.00  0.00     0.059 A 
ATOM     80  F   UNL A   1      38.240  34.129  29.455  1.00  0.00    -0.206 F 
ATOM     81  C   UNL A   1      34.636  34.336  29.627  1.00  0.00     0.060 A 
BRANCH  81  82
ATOM     82  S   UNL A   1      33.264  35.176  28.807  1.00  0.00     0.124 S 
ATOM     83  O   UNL A   1      32.465  35.615  29.944  1.00  0.00    -0.237 OA
ATOM     84  O   UNL A   1      33.951  36.229  28.063  1.00  0.00    -0.237 OA
ATOM     85  O   UNL A   1      32.671  34.125  27.985  1.00  0.00    -0.744 OA
ENDBRANCH  81  82
ENDBRANCH  49  74
BRANCH  61  86
ATOM     86  C   UNL A   1      39.958  34.220  37.030  1.00  0.00     0.058 A 
ATOM     87  C   UNL A   1      39.059  34.062  38.097  1.00  0.00     0.135 A 
ATOM     88  C   UNL A   1      40.695  35.415  36.968  1.00  0.00     0.135 A 
ATOM     89  F   UNL A   1      38.327  32.941  38.204  1.00  0.00    -0.206 F 
ATOM     90  C   UNL A   1      38.859  35.070  39.035  1.00  0.00     0.059 A 
ATOM     91  C   UNL A   1      40.535  36.422  37.913  1.00  0.00     0.059 A 
ATOM     92  F   UNL A   1      41.580  35.613  35.978  1.00  0.00    -0.206 F 
ATOM     93  C   UNL A   1      39.596  36.250  38.929  1.00  0.00     0.060 A 
BRANCH  93  94
ATOM     94  S   UNL A   1      39.315  37.558  40.141  1.00  0.00     0.124 S 
ATOM     95  O   UNL A   1      40.593  38.261  40.116  1.00  0.00    -0.237 OA
ATOM     96  O   UNL A   1      38.183  38.278  39.568  1.00  0.00    -0.237 OA
ATOM     97  O   UNL A   1      39.026  36.825  41.370  1.00  0.00    -0.744 OA
ENDBRANCH  93  94
ENDBRANCH  61  86
ENDBRANCH  35  36
ENDBRANCH  27  30
ENDBRANCH  25  26
ENDBRANCH   1  25
TORSDOF 16
ENDMDL
