MODEL 1
REMARK VINA RESULT:     -11.3      0.000      0.000
REMARK SMILES CSc1nc(C2CC2)nc(C)c1C(=O)NCCCNC(=O)c1ccc(-c2c3nc(c(-c4c(F)cc(S(=O)(=O)[O-])cc4F)c4ccc([nH]4)c(-c4c(F)cc(S(=O)(=O)[O-])cc4F)c4nc(c(-c5c(F)cc(S(=O)(=O)[O-])cc5F)c5ccc2[nH]5)C=C4)C=C3)cc1
REMARK SMILES IDX 18 1 17 2 16 3 15 4 13 5 14 6 12 8 3 9 4 10 5 11 10 12 9 13
REMARK SMILES IDX 11 14 2 15 1 16 6 17 7 18 8 19 19 20 20 21 21 23 22 24 23 25
REMARK SMILES IDX 87 26 24 27 86 28 25 29 26 30 27 31 80 32 28 33 85 34 79 35
REMARK SMILES IDX 81 36 29 37 84 38 78 39 77 40 30 42 64 43 43 44 63 45 44 46
REMARK SMILES IDX 47 47 62 48 82 49 45 50 46 51 61 53 83 54 48 55 31 56 32 57
REMARK SMILES IDX 41 58 33 59 34 60 40 61 42 62 35 63 36 64 37 65 38 66 39 67
REMARK SMILES IDX 65 68 66 69 75 70 67 71 68 72 74 73 76 74 69 75 70 76 71 77
REMARK SMILES IDX 72 78 73 79 49 80 50 81 59 82 51 83 52 84 58 85 60 86 53 87
REMARK SMILES IDX 54 88 55 89 56 90 57 91
REMARK H PARENT 15 7 19 22 81 41 47 52
REMARK Flexibility Score: inf
ROOT
ATOM      1  C   UNL A   1      35.177  29.479  27.542  1.00  0.00     0.118 C 
ENDROOT
BRANCH   1   2
ATOM      2  C   UNL A   1      33.766  29.378  26.982  1.00  0.00     0.042 C 
BRANCH   2   3
ATOM      3  C   UNL A   1      33.121  27.985  27.094  1.00  0.00     0.118 C 
BRANCH   3   4
ATOM      4  N   UNL A   1      33.691  27.111  26.087  1.00  0.00    -0.352 N 
ATOM      5  C   UNL A   1      33.247  26.622  24.884  1.00  0.00     0.255 C 
ATOM      6  O   UNL A   1      33.781  25.571  24.517  1.00  0.00    -0.269 OA
ATOM      7  H   UNL A   1      34.596  26.799  26.317  1.00  0.00     0.163 HD
BRANCH   5   8
ATOM      8  C   UNL A   1      32.254  27.240  23.966  1.00  0.00     0.093 A 
ATOM      9  C   UNL A   1      30.901  26.919  24.159  1.00  0.00     0.113 A 
ATOM     10  N   UNL A   1      29.865  27.604  23.607  1.00  0.00    -0.225 NA
ATOM     11  C   UNL A   1      30.152  28.658  22.842  1.00  0.00     0.133 A 
ATOM     12  C   UNL A   1      32.447  28.300  23.092  1.00  0.00     0.055 A 
ATOM     13  N   UNL A   1      31.410  28.977  22.531  1.00  0.00    -0.237 NA
ATOM     14  C   UNL A   1      33.721  28.962  22.708  1.00  0.00     0.068 C 
BRANCH   9  15
ATOM     15  S   UNL A   1      30.330  25.494  25.104  1.00  0.00    -0.109 SA
ATOM     16  C   UNL A   1      30.670  24.194  23.885  1.00  0.00     0.092 C 
ENDBRANCH   9  15
BRANCH  11  17
ATOM     17  C   UNL A   1      29.074  29.596  22.362  1.00  0.00     0.058 C 
ATOM     18  C   UNL A   1      27.677  29.610  22.928  1.00  0.00     0.012 C 
ATOM     19  C   UNL A   1      28.631  30.709  23.291  1.00  0.00     0.012 C 
ENDBRANCH  11  17
ENDBRANCH   5   8
ENDBRANCH   3   4
ENDBRANCH   2   3
ENDBRANCH   1   2
BRANCH   1  20
ATOM     20  N   UNL A   1      35.200  30.261  28.767  1.00  0.00    -0.352 N 
ATOM     21  C   UNL A   1      36.197  30.398  29.704  1.00  0.00     0.251 C 
ATOM     22  H   UNL A   1      34.377  30.768  28.954  1.00  0.00     0.163 HD
ATOM     23  O   UNL A   1      35.911  30.859  30.806  1.00  0.00    -0.269 OA
BRANCH  21  24
ATOM     24  C   UNL A   1      37.597  30.001  29.407  1.00  0.00     0.039 A 
ATOM     25  C   UNL A   1      38.029  30.001  28.076  1.00  0.00     0.014 A 
ATOM     26  C   UNL A   1      38.464  29.558  30.411  1.00  0.00     0.014 A 
ATOM     27  C   UNL A   1      39.331  29.596  27.759  1.00  0.00     0.010 A 
ATOM     28  C   UNL A   1      39.783  29.225  30.104  1.00  0.00     0.010 A 
ATOM     29  C   UNL A   1      40.227  29.225  28.774  1.00  0.00    -0.014 A 
BRANCH  29  30
ATOM     30  C   UNL A   1      41.617  28.798  28.462  1.00  0.00     0.031 A 
ATOM     31  C   UNL A   1      42.731  29.814  28.451  1.00  0.00     0.074 A 
ATOM     32  C   UNL A   1      41.869  27.513  28.142  1.00  0.00     0.049 A 
ATOM     33  N   UNL A   1      43.985  29.665  28.106  1.00  0.00    -0.248 NA
ATOM     34  C   UNL A   1      42.384  31.185  28.860  1.00  0.00     0.031 C 
ATOM     35  C   UNL A   1      40.870  26.443  28.085  1.00  0.00     0.029 A 
ATOM     36  N   UNL A   1      43.040  26.888  27.794  1.00  0.00    -0.354 N 
ATOM     37  C   UNL A   1      44.571  30.917  28.251  1.00  0.00     0.074 A 
ATOM     38  C   UNL A   1      43.525  31.829  28.659  1.00  0.00     0.031 C 
ATOM     39  C   UNL A   1      41.473  25.293  27.738  1.00  0.00     0.029 A 
ATOM     40  C   UNL A   1      42.891  25.550  27.511  1.00  0.00     0.049 A 
ATOM     41  H   UNL A   1      43.906  27.354  27.749  1.00  0.00     0.167 HD
ATOM     42  C   UNL A   1      45.869  31.271  28.086  1.00  0.00     0.037 A 
ATOM     43  C   UNL A   1      43.795  24.636  27.105  1.00  0.00     0.037 A 
ATOM     44  C   UNL A   1      46.911  30.354  27.706  1.00  0.00     0.049 A 
ATOM     45  C   UNL A   1      45.228  25.059  26.918  1.00  0.00     0.074 A 
ATOM     46  C   UNL A   1      48.260  30.608  27.529  1.00  0.00     0.029 A 
ATOM     47  N   UNL A   1      46.724  29.002  27.461  1.00  0.00    -0.354 N 
ATOM     48  N   UNL A   1      45.768  26.244  27.085  1.00  0.00    -0.248 NA
ATOM     49  C   UNL A   1      46.180  24.022  26.495  1.00  0.00     0.031 C 
ATOM     50  C   UNL A   1      48.884  29.414  27.153  1.00  0.00     0.029 A 
ATOM     51  C   UNL A   1      47.931  28.409  27.134  1.00  0.00     0.049 A 
ATOM     52  H   UNL A   1      45.860  28.533  27.511  1.00  0.00     0.167 HD
ATOM     53  C   UNL A   1      47.123  26.086  26.819  1.00  0.00     0.074 A 
ATOM     54  C   UNL A   1      47.325  24.689  26.493  1.00  0.00     0.031 C 
ATOM     55  C   UNL A   1      48.113  27.012  26.839  1.00  0.00     0.037 A 
BRANCH  42  56
ATOM     56  C   UNL A   1      46.244  32.704  28.346  1.00  0.00     0.058 A 
ATOM     57  C   UNL A   1      46.709  33.118  29.605  1.00  0.00     0.135 A 
ATOM     58  C   UNL A   1      46.199  33.660  27.318  1.00  0.00     0.135 A 
ATOM     59  F   UNL A   1      46.755  32.249  30.627  1.00  0.00    -0.206 F 
ATOM     60  C   UNL A   1      47.101  34.431  29.840  1.00  0.00     0.059 A 
ATOM     61  C   UNL A   1      46.611  34.974  27.525  1.00  0.00     0.059 A 
ATOM     62  F   UNL A   1      45.760  33.320  26.096  1.00  0.00    -0.206 F 
ATOM     63  C   UNL A   1      47.054  35.352  28.793  1.00  0.00     0.060 A 
BRANCH  63  64
ATOM     64  S   UNL A   1      47.598  37.044  29.110  1.00  0.00     0.124 S 
ATOM     65  O   UNL A   1      49.020  36.955  28.797  1.00  0.00    -0.237 OA
ATOM     66  O   UNL A   1      46.788  37.813  28.170  1.00  0.00    -0.237 OA
ATOM     67  O   UNL A   1      47.277  37.246  30.520  1.00  0.00    -0.744 OA
ENDBRANCH  63  64
ENDBRANCH  42  56
BRANCH  43  68
ATOM     68  C   UNL A   1      43.385  23.229  26.849  1.00  0.00     0.058 A 
ATOM     69  C   UNL A   1      43.111  22.353  27.909  1.00  0.00     0.135 A 
ATOM     70  C   UNL A   1      43.296  22.721  25.544  1.00  0.00     0.135 A 
ATOM     71  F   UNL A   1      43.186  22.790  29.176  1.00  0.00    -0.206 F 
ATOM     72  C   UNL A   1      42.803  21.014  27.690  1.00  0.00     0.059 A 
ATOM     73  C   UNL A   1      42.962  21.393  25.297  1.00  0.00     0.059 A 
ATOM     74  F   UNL A   1      43.527  23.523  24.493  1.00  0.00    -0.206 F 
ATOM     75  C   UNL A   1      42.740  20.542  26.378  1.00  0.00     0.060 A 
BRANCH  75  76
ATOM     76  S   UNL A   1      42.343  18.802  26.098  1.00  0.00     0.124 S 
ATOM     77  O   UNL A   1      43.273  18.459  25.028  1.00  0.00    -0.237 OA
ATOM     78  O   UNL A   1      42.622  18.207  27.401  1.00  0.00    -0.237 OA
ATOM     79  O   UNL A   1      40.933  18.839  25.724  1.00  0.00    -0.744 OA
ENDBRANCH  75  76
ENDBRANCH  43  68
BRANCH  55  80
ATOM     80  C   UNL A   1      49.508  26.535  26.549  1.00  0.00     0.058 A 
ATOM     81  C   UNL A   1      50.348  26.052  27.562  1.00  0.00     0.135 A 
ATOM     82  C   UNL A   1      49.990  26.517  25.229  1.00  0.00     0.135 A 
ATOM     83  F   UNL A   1      49.935  26.054  28.840  1.00  0.00    -0.206 F 
ATOM     84  C   UNL A   1      51.629  25.588  27.282  1.00  0.00     0.059 A 
ATOM     85  C   UNL A   1      51.257  26.034  24.923  1.00  0.00     0.059 A 
ATOM     86  F   UNL A   1      49.220  26.960  24.222  1.00  0.00    -0.206 F 
ATOM     87  C   UNL A   1      52.074  25.582  25.959  1.00  0.00     0.060 A 
BRANCH  87  88
ATOM     88  S   UNL A   1      53.725  24.945  25.603  1.00  0.00     0.124 S 
ATOM     89  O   UNL A   1      54.149  25.822  24.516  1.00  0.00    -0.237 OA
ATOM     90  O   UNL A   1      54.415  25.135  26.875  1.00  0.00    -0.237 OA
ATOM     91  O   UNL A   1      53.480  23.556  25.231  1.00  0.00    -0.744 OA
ENDBRANCH  87  88
ENDBRANCH  55  80
ENDBRANCH  29  30
ENDBRANCH  21  24
ENDBRANCH   1  20
TORSDOF 15
ENDMDL
MODEL 2
REMARK VINA RESULT:     -11.3      3.281      4.692
REMARK SMILES CSc1nc(C2CC2)nc(C)c1C(=O)NCCCNC(=O)c1ccc(-c2c3nc(c(-c4c(F)cc(S(=O)(=O)[O-])cc4F)c4ccc([nH]4)c(-c4c(F)cc(S(=O)(=O)[O-])cc4F)c4nc(c(-c5c(F)cc(S(=O)(=O)[O-])cc5F)c5ccc2[nH]5)C=C4)C=C3)cc1
REMARK SMILES IDX 18 1 17 2 16 3 15 4 13 5 14 6 12 8 3 9 4 10 5 11 10 12 9 13
REMARK SMILES IDX 11 14 2 15 1 16 6 17 7 18 8 19 19 20 20 21 21 23 22 24 23 25
REMARK SMILES IDX 87 26 24 27 86 28 25 29 26 30 27 31 80 32 28 33 85 34 79 35
REMARK SMILES IDX 81 36 29 37 84 38 78 39 77 40 30 42 64 43 43 44 63 45 44 46
REMARK SMILES IDX 47 47 62 48 82 49 45 50 46 51 61 53 83 54 48 55 31 56 32 57
REMARK SMILES IDX 41 58 33 59 34 60 40 61 42 62 35 63 36 64 37 65 38 66 39 67
REMARK SMILES IDX 65 68 66 69 75 70 67 71 68 72 74 73 76 74 69 75 70 76 71 77
REMARK SMILES IDX 72 78 73 79 49 80 50 81 59 82 51 83 52 84 58 85 60 86 53 87
REMARK SMILES IDX 54 88 55 89 56 90 57 91
REMARK H PARENT 15 7 19 22 81 41 47 52
REMARK Flexibility Score: inf
ROOT
ATOM      1  C   UNL A   1      33.304  28.059  27.230  1.00  0.00     0.118 C 
ENDROOT
BRANCH   1   2
ATOM      2  C   UNL A   1      33.647  27.590  25.824  1.00  0.00     0.042 C 
BRANCH   2   3
ATOM      3  C   UNL A   1      34.028  26.103  25.708  1.00  0.00     0.118 C 
BRANCH   3   4
ATOM      4  N   UNL A   1      33.776  25.647  24.354  1.00  0.00    -0.352 N 
ATOM      5  C   UNL A   1      33.985  24.465  23.690  1.00  0.00     0.255 C 
ATOM      6  O   UNL A   1      34.078  24.564  22.463  1.00  0.00    -0.269 OA
ATOM      7  H   UNL A   1      33.365  26.339  23.787  1.00  0.00     0.163 HD
BRANCH   5   8
ATOM      8  C   UNL A   1      34.050  23.099  24.273  1.00  0.00     0.093 A 
ATOM      9  C   UNL A   1      32.835  22.448  24.544  1.00  0.00     0.113 A 
ATOM     10  N   UNL A   1      32.720  21.118  24.800  1.00  0.00    -0.225 NA
ATOM     11  C   UNL A   1      33.831  20.381  24.782  1.00  0.00     0.133 A 
ATOM     12  C   UNL A   1      35.152  22.261  24.358  1.00  0.00     0.055 A 
ATOM     13  N   UNL A   1      35.036  20.933  24.626  1.00  0.00    -0.237 NA
ATOM     14  C   UNL A   1      36.576  22.573  24.068  1.00  0.00     0.068 C 
BRANCH   9  15
ATOM     15  S   UNL A   1      31.248  23.293  24.673  1.00  0.00    -0.109 SA
ATOM     16  C   UNL A   1      31.255  23.630  26.457  1.00  0.00     0.092 C 
ENDBRANCH   9  15
BRANCH  11  17
ATOM     17  C   UNL A   1      33.775  18.876  24.848  1.00  0.00     0.058 C 
ATOM     18  C   UNL A   1      32.490  18.092  24.775  1.00  0.00     0.012 C 
ATOM     19  C   UNL A   1      33.405  18.121  23.587  1.00  0.00     0.012 C 
ENDBRANCH  11  17
ENDBRANCH   5   8
ENDBRANCH   3   4
ENDBRANCH   2   3
ENDBRANCH   1   2
BRANCH   1  20
ATOM     20  N   UNL A   1      33.222  29.508  27.294  1.00  0.00    -0.352 N 
ATOM     21  C   UNL A   1      34.121  30.417  27.798  1.00  0.00     0.251 C 
ATOM     22  H   UNL A   1      32.399  29.897  26.919  1.00  0.00     0.163 HD
ATOM     23  O   UNL A   1      33.737  31.562  28.029  1.00  0.00    -0.269 OA
BRANCH  21  24
ATOM     24  C   UNL A   1      35.533  30.042  28.068  1.00  0.00     0.039 A 
ATOM     25  C   UNL A   1      35.901  29.702  29.375  1.00  0.00     0.014 A 
ATOM     26  C   UNL A   1      36.510  30.093  27.069  1.00  0.00     0.014 A 
ATOM     27  C   UNL A   1      37.231  29.380  29.669  1.00  0.00     0.010 A 
ATOM     28  C   UNL A   1      37.820  29.701  27.348  1.00  0.00     0.010 A 
ATOM     29  C   UNL A   1      38.198  29.356  28.653  1.00  0.00    -0.014 A 
BRANCH  29  30
ATOM     30  C   UNL A   1      39.616  29.010  28.941  1.00  0.00     0.031 A 
ATOM     31  C   UNL A   1      40.542  30.050  29.519  1.00  0.00     0.074 A 
ATOM     32  C   UNL A   1      40.081  27.781  28.640  1.00  0.00     0.049 A 
ATOM     33  N   UNL A   1      41.829  29.979  29.745  1.00  0.00    -0.248 NA
ATOM     34  C   UNL A   1      39.945  31.351  29.866  1.00  0.00     0.031 C 
ATOM     35  C   UNL A   1      39.292  26.698  28.047  1.00  0.00     0.029 A 
ATOM     36  N   UNL A   1      41.333  27.236  28.781  1.00  0.00    -0.354 N 
ATOM     37  C   UNL A   1      42.195  31.221  30.254  1.00  0.00     0.074 A 
ATOM     38  C   UNL A   1      41.007  32.046  30.250  1.00  0.00     0.031 C 
ATOM     39  C   UNL A   1      40.074  25.617  27.888  1.00  0.00     0.029 A 
ATOM     40  C   UNL A   1      41.427  25.939  28.332  1.00  0.00     0.049 A 
ATOM     41  H   UNL A   1      42.095  27.728  29.165  1.00  0.00     0.167 HD
ATOM     42  C   UNL A   1      43.404  31.628  30.710  1.00  0.00     0.037 A 
ATOM     43  C   UNL A   1      42.486  25.108  28.275  1.00  0.00     0.037 A 
ATOM     44  C   UNL A   1      44.577  30.794  30.737  1.00  0.00     0.049 A 
ATOM     45  C   UNL A   1      43.821  25.591  28.777  1.00  0.00     0.074 A 
ATOM     46  C   UNL A   1      45.846  31.106  31.194  1.00  0.00     0.029 A 
ATOM     47  N   UNL A   1      44.621  29.477  30.303  1.00  0.00    -0.354 N 
ATOM     48  N   UNL A   1      44.141  26.761  29.279  1.00  0.00    -0.248 NA
ATOM     49  C   UNL A   1      44.941  24.639  28.714  1.00  0.00     0.031 C 
ATOM     50  C   UNL A   1      46.663  29.984  31.015  1.00  0.00     0.029 A 
ATOM     51  C   UNL A   1      45.893  28.963  30.481  1.00  0.00     0.049 A 
ATOM     52  H   UNL A   1      43.860  28.981  29.924  1.00  0.00     0.167 HD
ATOM     53  C   UNL A   1      45.486  26.674  29.619  1.00  0.00     0.074 A 
ATOM     54  C   UNL A   1      45.918  25.334  29.279  1.00  0.00     0.031 C 
ATOM     55  C   UNL A   1      46.294  27.618  30.161  1.00  0.00     0.037 A 
BRANCH  42  56
ATOM     56  C   UNL A   1      43.517  33.028  31.246  1.00  0.00     0.058 A 
ATOM     57  C   UNL A   1      43.253  33.314  32.596  1.00  0.00     0.135 A 
ATOM     58  C   UNL A   1      43.950  34.083  30.427  1.00  0.00     0.135 A 
ATOM     59  F   UNL A   1      42.819  32.346  33.419  1.00  0.00    -0.206 F 
ATOM     60  C   UNL A   1      43.399  34.597  33.110  1.00  0.00     0.059 A 
ATOM     61  C   UNL A   1      44.128  35.371  30.927  1.00  0.00     0.059 A 
ATOM     62  F   UNL A   1      44.214  33.867  29.129  1.00  0.00    -0.206 F 
ATOM     63  C   UNL A   1      43.841  35.619  32.269  1.00  0.00     0.060 A 
BRANCH  63  64
ATOM     64  S   UNL A   1      44.055  37.272  32.964  1.00  0.00     0.124 S 
ATOM     65  O   UNL A   1      43.823  38.112  31.793  1.00  0.00    -0.237 OA
ATOM     66  O   UNL A   1      43.019  37.315  33.991  1.00  0.00    -0.237 OA
ATOM     67  O   UNL A   1      45.427  37.257  33.463  1.00  0.00    -0.744 OA
ENDBRANCH  63  64
ENDBRANCH  42  56
BRANCH  43  68
ATOM     68  C   UNL A   1      42.339  23.732  27.729  1.00  0.00     0.058 A 
ATOM     69  C   UNL A   1      42.271  22.620  28.582  1.00  0.00     0.135 A 
ATOM     70  C   UNL A   1      42.300  23.496  26.346  1.00  0.00     0.135 A 
ATOM     71  F   UNL A   1      42.307  22.793  29.912  1.00  0.00    -0.206 F 
ATOM     72  C   UNL A   1      42.213  21.321  28.087  1.00  0.00     0.059 A 
ATOM     73  C   UNL A   1      42.213  22.208  25.826  1.00  0.00     0.059 A 
ATOM     74  F   UNL A   1      42.340  24.526  25.487  1.00  0.00    -0.206 F 
ATOM     75  C   UNL A   1      42.193  21.126  26.704  1.00  0.00     0.060 A 
BRANCH  75  76
ATOM     76  S   UNL A   1      42.121  19.438  26.066  1.00  0.00     0.124 S 
ATOM     77  O   UNL A   1      42.599  18.672  27.211  1.00  0.00    -0.237 OA
ATOM     78  O   UNL A   1      40.705  19.289  25.743  1.00  0.00    -0.237 OA
ATOM     79  O   UNL A   1      43.017  19.480  24.915  1.00  0.00    -0.744 OA
ENDBRANCH  75  76
ENDBRANCH  43  68
BRANCH  55  80
ATOM     80  C   UNL A   1      47.710  27.219  30.466  1.00  0.00     0.058 A 
ATOM     81  C   UNL A   1      48.757  27.470  29.567  1.00  0.00     0.135 A 
ATOM     82  C   UNL A   1      48.028  26.623  31.697  1.00  0.00     0.135 A 
ATOM     83  F   UNL A   1      48.503  28.033  28.375  1.00  0.00    -0.206 F 
ATOM     84  C   UNL A   1      50.070  27.121  29.868  1.00  0.00     0.059 A 
ATOM     85  C   UNL A   1      49.337  26.290  32.029  1.00  0.00     0.059 A 
ATOM     86  F   UNL A   1      47.063  26.372  32.596  1.00  0.00    -0.206 F 
ATOM     87  C   UNL A   1      50.349  26.533  31.102  1.00  0.00     0.060 A 
BRANCH  87  88
ATOM     88  S   UNL A   1      52.061  26.117  31.495  1.00  0.00     0.124 S 
ATOM     89  O   UNL A   1      52.401  27.156  32.463  1.00  0.00    -0.237 OA
ATOM     90  O   UNL A   1      51.940  24.766  32.034  1.00  0.00    -0.237 OA
ATOM     91  O   UNL A   1      52.738  26.213  30.206  1.00  0.00    -0.744 OA
ENDBRANCH  87  88
ENDBRANCH  55  80
ENDBRANCH  29  30
ENDBRANCH  21  24
ENDBRANCH   1  20
TORSDOF 15
ENDMDL
MODEL 3
REMARK VINA RESULT:     -11.2      3.172      4.558
REMARK SMILES CSc1nc(C2CC2)nc(C)c1C(=O)NCCCNC(=O)c1ccc(-c2c3nc(c(-c4c(F)cc(S(=O)(=O)[O-])cc4F)c4ccc([nH]4)c(-c4c(F)cc(S(=O)(=O)[O-])cc4F)c4nc(c(-c5c(F)cc(S(=O)(=O)[O-])cc5F)c5ccc2[nH]5)C=C4)C=C3)cc1
REMARK SMILES IDX 18 1 17 2 16 3 15 4 13 5 14 6 12 8 3 9 4 10 5 11 10 12 9 13
REMARK SMILES IDX 11 14 2 15 1 16 6 17 7 18 8 19 19 20 20 21 21 23 22 24 23 25
REMARK SMILES IDX 87 26 24 27 86 28 25 29 26 30 27 31 80 32 28 33 85 34 79 35
REMARK SMILES IDX 81 36 29 37 84 38 78 39 77 40 30 42 64 43 43 44 63 45 44 46
REMARK SMILES IDX 47 47 62 48 82 49 45 50 46 51 61 53 83 54 48 55 31 56 32 57
REMARK SMILES IDX 41 58 33 59 34 60 40 61 42 62 35 63 36 64 37 65 38 66 39 67
REMARK SMILES IDX 65 68 66 69 75 70 67 71 68 72 74 73 76 74 69 75 70 76 71 77
REMARK SMILES IDX 72 78 73 79 49 80 50 81 59 82 51 83 52 84 58 85 60 86 53 87
REMARK SMILES IDX 54 88 55 89 56 90 57 91
REMARK H PARENT 15 7 19 22 81 41 47 52
REMARK Flexibility Score: inf
ROOT
ATOM      1  C   UNL A   1      33.357  28.098  27.010  1.00  0.00     0.118 C 
ENDROOT
BRANCH   1   2
ATOM      2  C   UNL A   1      32.013  27.414  27.216  1.00  0.00     0.042 C 
BRANCH   2   3
ATOM      3  C   UNL A   1      31.467  26.668  25.985  1.00  0.00     0.118 C 
BRANCH   3   4
ATOM      4  N   UNL A   1      30.944  25.380  26.399  1.00  0.00    -0.352 N 
ATOM      5  C   UNL A   1      31.292  24.079  26.136  1.00  0.00     0.255 C 
ATOM      6  O   UNL A   1      30.382  23.256  26.274  1.00  0.00    -0.269 OA
ATOM      7  H   UNL A   1      30.168  25.456  27.000  1.00  0.00     0.163 HD
BRANCH   5   8
ATOM      8  C   UNL A   1      32.635  23.558  25.770  1.00  0.00     0.093 A 
ATOM      9  C   UNL A   1      33.118  23.850  24.484  1.00  0.00     0.113 A 
ATOM     10  N   UNL A   1      34.413  23.700  24.100  1.00  0.00    -0.225 NA
ATOM     11  C   UNL A   1      35.285  23.256  25.006  1.00  0.00     0.133 A 
ATOM     12  C   UNL A   1      33.602  23.027  26.611  1.00  0.00     0.055 A 
ATOM     13  N   UNL A   1      34.895  22.866  26.222  1.00  0.00    -0.237 NA
ATOM     14  C   UNL A   1      33.482  22.670  28.049  1.00  0.00     0.068 C 
BRANCH   9  15
ATOM     15  S   UNL A   1      32.076  24.395  23.118  1.00  0.00    -0.109 SA
ATOM     16  C   UNL A   1      33.038  25.841  22.590  1.00  0.00     0.092 C 
ENDBRANCH   9  15
BRANCH  11  17
ATOM     17  C   UNL A   1      36.767  23.256  24.735  1.00  0.00     0.058 C 
ATOM     18  C   UNL A   1      37.790  22.762  25.724  1.00  0.00     0.012 C 
ATOM     19  C   UNL A   1      37.454  21.921  24.529  1.00  0.00     0.012 C 
ENDBRANCH  11  17
ENDBRANCH   5   8
ENDBRANCH   3   4
ENDBRANCH   2   3
ENDBRANCH   1   2
BRANCH   1  20
ATOM     20  N   UNL A   1      33.249  29.534  27.204  1.00  0.00    -0.352 N 
ATOM     21  C   UNL A   1      34.117  30.405  27.820  1.00  0.00     0.251 C 
ATOM     22  H   UNL A   1      32.432  29.945  26.841  1.00  0.00     0.163 HD
ATOM     23  O   UNL A   1      33.706  31.517  28.143  1.00  0.00    -0.269 OA
BRANCH  21  24
ATOM     24  C   UNL A   1      35.525  30.026  28.100  1.00  0.00     0.039 A 
ATOM     25  C   UNL A   1      35.868  29.618  29.394  1.00  0.00     0.014 A 
ATOM     26  C   UNL A   1      36.523  30.138  27.127  1.00  0.00     0.014 A 
ATOM     27  C   UNL A   1      37.194  29.290  29.700  1.00  0.00     0.010 A 
ATOM     28  C   UNL A   1      37.830  29.741  27.412  1.00  0.00     0.010 A 
ATOM     29  C   UNL A   1      38.183  29.328  28.705  1.00  0.00    -0.014 A 
BRANCH  29  30
ATOM     30  C   UNL A   1      39.597  28.977  29.005  1.00  0.00     0.031 A 
ATOM     31  C   UNL A   1      40.515  30.007  29.612  1.00  0.00     0.074 A 
ATOM     32  C   UNL A   1      40.066  27.753  28.689  1.00  0.00     0.049 A 
ATOM     33  N   UNL A   1      41.799  29.932  29.853  1.00  0.00    -0.248 NA
ATOM     34  C   UNL A   1      39.915  31.302  29.974  1.00  0.00     0.031 C 
ATOM     35  C   UNL A   1      39.285  26.681  28.067  1.00  0.00     0.029 A 
ATOM     36  N   UNL A   1      41.317  27.206  28.836  1.00  0.00    -0.354 N 
ATOM     37  C   UNL A   1      42.159  31.165  30.388  1.00  0.00     0.074 A 
ATOM     38  C   UNL A   1      40.971  31.990  30.383  1.00  0.00     0.031 C 
ATOM     39  C   UNL A   1      40.069  25.603  27.900  1.00  0.00     0.029 A 
ATOM     40  C   UNL A   1      41.416  25.917  28.366  1.00  0.00     0.049 A 
ATOM     41  H   UNL A   1      42.073  27.691  29.238  1.00  0.00     0.167 HD
ATOM     42  C   UNL A   1      43.362  31.564  30.865  1.00  0.00     0.037 A 
ATOM     43  C   UNL A   1      42.476  25.087  28.308  1.00  0.00     0.037 A 
ATOM     44  C   UNL A   1      44.535  30.730  30.893  1.00  0.00     0.049 A 
ATOM     45  C   UNL A   1      43.805  25.561  28.835  1.00  0.00     0.074 A 
ATOM     46  C   UNL A   1      45.798  31.033  31.371  1.00  0.00     0.029 A 
ATOM     47  N   UNL A   1      44.584  29.420  30.438  1.00  0.00    -0.354 N 
ATOM     48  N   UNL A   1      44.117  26.722  29.361  1.00  0.00    -0.248 NA
ATOM     49  C   UNL A   1      44.925  24.611  28.769  1.00  0.00     0.031 C 
ATOM     50  C   UNL A   1      46.617  29.915  31.183  1.00  0.00     0.029 A 
ATOM     51  C   UNL A   1      45.854  28.903  30.623  1.00  0.00     0.049 A 
ATOM     52  H   UNL A   1      43.828  28.931  30.040  1.00  0.00     0.167 HD
ATOM     53  C   UNL A   1      45.458  26.629  29.716  1.00  0.00     0.074 A 
ATOM     54  C   UNL A   1      45.895  25.295  29.358  1.00  0.00     0.031 C 
ATOM     55  C   UNL A   1      46.259  27.564  30.284  1.00  0.00     0.037 A 
BRANCH  42  56
ATOM     56  C   UNL A   1      43.468  32.955  31.428  1.00  0.00     0.058 A 
ATOM     57  C   UNL A   1      43.329  33.196  32.804  1.00  0.00     0.135 A 
ATOM     58  C   UNL A   1      43.770  34.048  30.599  1.00  0.00     0.135 A 
ATOM     59  F   UNL A   1      43.023  32.190  33.639  1.00  0.00    -0.206 F 
ATOM     60  C   UNL A   1      43.471  34.472  33.337  1.00  0.00     0.059 A 
ATOM     61  C   UNL A   1      43.942  35.330  31.115  1.00  0.00     0.059 A 
ATOM     62  F   UNL A   1      43.911  33.875  29.275  1.00  0.00    -0.206 F 
ATOM     63  C   UNL A   1      43.782  35.533  32.486  1.00  0.00     0.060 A 
BRANCH  63  64
ATOM     64  S   UNL A   1      43.993  37.177  33.202  1.00  0.00     0.124 S 
ATOM     65  O   UNL A   1      43.994  38.016  32.008  1.00  0.00    -0.237 OA
ATOM     66  O   UNL A   1      42.819  37.296  34.060  1.00  0.00    -0.237 OA
ATOM     67  O   UNL A   1      45.271  37.081  33.902  1.00  0.00    -0.744 OA
ENDBRANCH  63  64
ENDBRANCH  42  56
BRANCH  43  68
ATOM     68  C   UNL A   1      42.336  23.720  27.736  1.00  0.00     0.058 A 
ATOM     69  C   UNL A   1      42.253  22.595  28.569  1.00  0.00     0.135 A 
ATOM     70  C   UNL A   1      42.319  23.507  26.349  1.00  0.00     0.135 A 
ATOM     71  F   UNL A   1      42.268  22.745  29.903  1.00  0.00    -0.206 F 
ATOM     72  C   UNL A   1      42.201  21.304  28.052  1.00  0.00     0.059 A 
ATOM     73  C   UNL A   1      42.239  22.229  25.806  1.00  0.00     0.059 A 
ATOM     74  F   UNL A   1      42.374  24.552  25.508  1.00  0.00    -0.206 F 
ATOM     75  C   UNL A   1      42.203  21.132  26.666  1.00  0.00     0.060 A 
BRANCH  75  76
ATOM     76  S   UNL A   1      42.139  19.455  25.998  1.00  0.00     0.124 S 
ATOM     77  O   UNL A   1      40.722  19.320  25.685  1.00  0.00    -0.237 OA
ATOM     78  O   UNL A   1      43.041  19.542  24.855  1.00  0.00    -0.237 OA
ATOM     79  O   UNL A   1      42.623  18.637  27.107  1.00  0.00    -0.744 OA
ENDBRANCH  75  76
ENDBRANCH  43  68
BRANCH  55  80
ATOM     80  C   UNL A   1      47.672  27.160  30.600  1.00  0.00     0.058 A 
ATOM     81  C   UNL A   1      48.001  26.499  31.791  1.00  0.00     0.135 A 
ATOM     82  C   UNL A   1      48.700  27.396  29.672  1.00  0.00     0.135 A 
ATOM     83  F   UNL A   1      47.055  26.255  32.712  1.00  0.00    -0.206 F 
ATOM     84  C   UNL A   1      49.307  26.105  32.066  1.00  0.00     0.059 A 
ATOM     85  C   UNL A   1      50.007  26.988  29.914  1.00  0.00     0.059 A 
ATOM     86  F   UNL A   1      48.434  28.017  28.512  1.00  0.00    -0.206 F 
ATOM     87  C   UNL A   1      50.302  26.353  31.119  1.00  0.00     0.060 A 
BRANCH  87  88
ATOM     88  S   UNL A   1      51.986  25.807  31.470  1.00  0.00     0.124 S 
ATOM     89  O   UNL A   1      51.767  24.423  31.878  1.00  0.00    -0.237 OA
ATOM     90  O   UNL A   1      52.650  25.990  30.183  1.00  0.00    -0.237 OA
ATOM     91  O   UNL A   1      52.424  26.712  32.528  1.00  0.00    -0.744 OA
ENDBRANCH  87  88
ENDBRANCH  55  80
ENDBRANCH  29  30
ENDBRANCH  21  24
ENDBRANCH   1  20
TORSDOF 15
ENDMDL
