MODEL 1
REMARK VINA RESULT:     -12.3      0.000      0.000
REMARK SMILES Cc1cc2nc(SCC(=O)NCCCNC(=O)c3ccc(-c4c5nc(c(-c6c(F)cc(S(=O)(=O)[O-])cc6F)c6ccc([nH]6)c(-c6c(F)cc(S(=O)(=O)[O-])cc6F)c6nc(c(-c7c(F)cc(S(=O)(=O)[O-])cc7F)c7ccc4[nH]7)C=C6)C=C5)cc3)n(CC(C)C)c(=O)c2[nH]1
REMARK SMILES IDX 12 1 11 2 9 3 10 4 8 6 7 7 6 8 1 9 2 10 3 11 92 12 4 13
REMARK SMILES IDX 91 14 5 16 89 17 84 18 90 19 85 20 86 21 87 22 88 23 13 24
REMARK SMILES IDX 14 25 15 26 16 27 17 29 18 30 19 31 83 32 20 33 82 34 21 35
REMARK SMILES IDX 22 36 23 37 76 38 24 39 81 40 75 41 77 42 25 43 80 44 74 45
REMARK SMILES IDX 73 46 26 48 60 49 39 50 59 51 40 52 43 53 58 54 78 55 41 56
REMARK SMILES IDX 42 57 57 59 79 60 44 61 27 62 28 63 37 64 29 65 30 66 36 67
REMARK SMILES IDX 38 68 31 69 32 70 33 71 34 72 35 73 61 74 62 75 71 76 63 77
REMARK SMILES IDX 64 78 70 79 72 80 65 81 66 82 67 83 68 84 69 85 45 86 46 87
REMARK SMILES IDX 55 88 47 89 48 90 54 91 56 92 49 93 50 94 51 95 52 96 53 97
REMARK H PARENT 11 5 92 15 15 28 77 47 43 58
REMARK Flexibility Score: inf
ROOT
ATOM      1  C   UNL A   1      37.279  22.457  25.690  1.00  0.00     0.117 C 
ENDROOT
BRANCH   1   2
ATOM      2  N   UNL A   1      36.234  21.837  26.483  1.00  0.00    -0.355 N 
ATOM      3  C   UNL A   1      34.942  22.243  26.617  1.00  0.00     0.230 C 
ATOM      4  O   UNL A   1      34.099  21.379  26.862  1.00  0.00    -0.274 OA
ATOM      5  H   UNL A   1      36.490  21.029  26.985  1.00  0.00     0.163 HD
BRANCH   3   6
ATOM      6  C   UNL A   1      34.516  23.670  26.371  1.00  0.00     0.178 C 
BRANCH   6   7
ATOM      7  S   UNL A   1      32.813  23.911  25.965  1.00  0.00    -0.078 SA
BRANCH   7   8
ATOM      8  C   UNL A   1      32.411  24.755  24.485  1.00  0.00     0.172 A 
ATOM      9  C   UNL A   1      29.972  29.568  22.000  1.00  0.00     0.064 C 
ATOM     10  C   UNL A   1      30.693  28.399  22.564  1.00  0.00     0.014 A 
ATOM     11  C   UNL A   1      30.771  27.930  23.868  1.00  0.00     0.052 A 
ATOM     12  N   UNL A   1      31.414  27.533  21.763  1.00  0.00    -0.353 N 
ATOM     13  C   UNL A   1      31.500  26.734  23.809  1.00  0.00     0.097 A 
ATOM     14  C   UNL A   1      31.903  26.519  22.538  1.00  0.00     0.131 A 
ATOM     15  H   UNL A   1      31.554  27.631  20.794  1.00  0.00     0.166 HD
ATOM     16  N   UNL A   1      31.822  25.870  24.835  1.00  0.00    -0.222 NA
ATOM     17  C   UNL A   1      32.666  25.383  22.154  1.00  0.00     0.278 A 
ATOM     18  N   UNL A   1      32.735  24.396  23.166  1.00  0.00    -0.286 N 
ATOM     19  O   UNL A   1      33.199  25.302  21.061  1.00  0.00    -0.267 OA
BRANCH  18  20
ATOM     20  C   UNL A   1      33.187  23.098  22.647  1.00  0.00     0.131 C 
BRANCH  20  21
ATOM     21  C   UNL A   1      32.155  21.942  22.812  1.00  0.00     0.003 C 
ATOM     22  C   UNL A   1      31.855  21.169  21.521  1.00  0.00     0.009 C 
ATOM     23  C   UNL A   1      32.663  20.914  23.835  1.00  0.00     0.009 C 
ENDBRANCH  20  21
ENDBRANCH  18  20
ENDBRANCH   7   8
ENDBRANCH   6   7
ENDBRANCH   3   6
ENDBRANCH   1   2
BRANCH   1  24
ATOM     24  C   UNL A   1      38.607  21.706  25.707  1.00  0.00     0.042 C 
BRANCH  24  25
ATOM     25  C   UNL A   1      39.628  22.357  26.615  1.00  0.00     0.118 C 
BRANCH  25  26
ATOM     26  N   UNL A   1      41.011  22.158  26.179  1.00  0.00    -0.352 N 
ATOM     27  C   UNL A   1      41.996  23.111  26.005  1.00  0.00     0.251 C 
ATOM     28  H   UNL A   1      41.273  21.228  25.986  1.00  0.00     0.163 HD
ATOM     29  O   UNL A   1      43.027  22.836  25.403  1.00  0.00    -0.269 OA
BRANCH  27  30
ATOM     30  C   UNL A   1      41.783  24.454  26.571  1.00  0.00     0.039 A 
ATOM     31  C   UNL A   1      41.063  25.438  25.888  1.00  0.00     0.014 A 
ATOM     32  C   UNL A   1      42.341  24.719  27.820  1.00  0.00     0.014 A 
ATOM     33  C   UNL A   1      40.894  26.681  26.494  1.00  0.00     0.010 A 
ATOM     34  C   UNL A   1      42.005  25.853  28.497  1.00  0.00     0.010 A 
ATOM     35  C   UNL A   1      41.382  26.871  27.794  1.00  0.00    -0.014 A 
BRANCH  35  36
ATOM     36  C   UNL A   1      41.300  28.146  28.476  1.00  0.00     0.031 A 
ATOM     37  C   UNL A   1      42.368  29.116  28.133  1.00  0.00     0.074 A 
ATOM     38  C   UNL A   1      40.185  28.489  29.154  1.00  0.00     0.049 A 
ATOM     39  N   UNL A   1      43.319  29.544  28.893  1.00  0.00    -0.248 NA
ATOM     40  C   UNL A   1      42.477  29.560  26.734  1.00  0.00     0.031 C 
ATOM     41  C   UNL A   1      38.910  27.765  29.274  1.00  0.00     0.029 A 
ATOM     42  N   UNL A   1      39.932  29.641  29.818  1.00  0.00    -0.354 N 
ATOM     43  C   UNL A   1      44.031  30.470  28.135  1.00  0.00     0.074 A 
ATOM     44  C   UNL A   1      43.589  30.297  26.776  1.00  0.00     0.031 C 
ATOM     45  C   UNL A   1      37.966  28.587  29.785  1.00  0.00     0.029 A 
ATOM     46  C   UNL A   1      38.606  29.825  30.187  1.00  0.00     0.049 A 
ATOM     47  H   UNL A   1      40.635  30.298  30.025  1.00  0.00     0.167 HD
ATOM     48  C   UNL A   1      44.779  31.445  28.724  1.00  0.00     0.037 A 
ATOM     49  C   UNL A   1      38.088  30.941  30.757  1.00  0.00     0.037 A 
ATOM     50  C   UNL A   1      44.955  31.178  30.131  1.00  0.00     0.049 A 
ATOM     51  C   UNL A   1      39.237  31.676  31.358  1.00  0.00     0.074 A 
ATOM     52  C   UNL A   1      45.579  30.182  30.856  1.00  0.00     0.029 A 
ATOM     53  N   UNL A   1      44.093  31.793  31.010  1.00  0.00    -0.354 N 
ATOM     54  N   UNL A   1      39.958  31.210  32.344  1.00  0.00    -0.248 NA
ATOM     55  C   UNL A   1      39.886  32.692  30.543  1.00  0.00     0.031 C 
ATOM     56  C   UNL A   1      44.719  29.939  31.968  1.00  0.00     0.029 A 
ATOM     57  C   UNL A   1      43.655  30.841  31.898  1.00  0.00     0.049 A 
ATOM     58  H   UNL A   1      43.836  32.743  31.002  1.00  0.00     0.167 HD
ATOM     59  C   UNL A   1      41.267  31.559  32.036  1.00  0.00     0.074 A 
ATOM     60  C   UNL A   1      41.150  32.534  30.952  1.00  0.00     0.031 C 
ATOM     61  C   UNL A   1      42.328  30.822  32.487  1.00  0.00     0.037 A 
BRANCH  48  62
ATOM     62  C   UNL A   1      45.088  32.793  28.118  1.00  0.00     0.058 A 
ATOM     63  C   UNL A   1      46.413  33.093  27.738  1.00  0.00     0.135 A 
ATOM     64  C   UNL A   1      44.198  33.891  28.129  1.00  0.00     0.135 A 
ATOM     65  F   UNL A   1      47.346  32.129  27.687  1.00  0.00    -0.206 F 
ATOM     66  C   UNL A   1      46.839  34.394  27.466  1.00  0.00     0.059 A 
ATOM     67  C   UNL A   1      44.588  35.187  27.807  1.00  0.00     0.059 A 
ATOM     68  F   UNL A   1      42.932  33.780  28.547  1.00  0.00    -0.206 F 
ATOM     69  C   UNL A   1      45.920  35.437  27.521  1.00  0.00     0.060 A 
BRANCH  69  70
ATOM     70  S   UNL A   1      46.491  37.131  27.298  1.00  0.00     0.124 S 
ATOM     71  O   UNL A   1      45.239  37.874  27.378  1.00  0.00    -0.237 OA
ATOM     72  O   UNL A   1      47.404  37.292  28.424  1.00  0.00    -0.237 OA
ATOM     73  O   UNL A   1      47.125  37.103  25.983  1.00  0.00    -0.744 OA
ENDBRANCH  69  70
ENDBRANCH  48  62
BRANCH  49  74
ATOM     74  C   UNL A   1      36.784  31.588  30.450  1.00  0.00     0.058 A 
ATOM     75  C   UNL A   1      35.978  32.119  31.472  1.00  0.00     0.135 A 
ATOM     76  C   UNL A   1      36.439  31.957  29.133  1.00  0.00     0.135 A 
ATOM     77  F   UNL A   1      36.245  31.833  32.756  1.00  0.00    -0.206 F 
ATOM     78  C   UNL A   1      34.932  33.011  31.212  1.00  0.00     0.059 A 
ATOM     79  C   UNL A   1      35.398  32.840  28.848  1.00  0.00     0.059 A 
ATOM     80  F   UNL A   1      37.168  31.546  28.085  1.00  0.00    -0.206 F 
ATOM     81  C   UNL A   1      34.666  33.387  29.895  1.00  0.00     0.060 A 
BRANCH  81  82
ATOM     82  S   UNL A   1      33.442  34.679  29.568  1.00  0.00     0.124 S 
ATOM     83  O   UNL A   1      32.524  34.004  28.659  1.00  0.00    -0.237 OA
ATOM     84  O   UNL A   1      32.927  34.956  30.905  1.00  0.00    -0.237 OA
ATOM     85  O   UNL A   1      34.233  35.754  28.974  1.00  0.00    -0.744 OA
ENDBRANCH  81  82
ENDBRANCH  49  74
BRANCH  61  86
ATOM     86  C   UNL A   1      42.059  29.751  33.522  1.00  0.00     0.058 A 
ATOM     87  C   UNL A   1      41.744  28.412  33.217  1.00  0.00     0.135 A 
ATOM     88  C   UNL A   1      42.277  30.051  34.873  1.00  0.00     0.135 A 
ATOM     89  F   UNL A   1      41.624  28.006  31.948  1.00  0.00    -0.206 F 
ATOM     90  C   UNL A   1      41.607  27.435  34.206  1.00  0.00     0.059 A 
ATOM     91  C   UNL A   1      42.177  29.087  35.875  1.00  0.00     0.059 A 
ATOM     92  F   UNL A   1      42.647  31.292  35.233  1.00  0.00    -0.206 F 
ATOM     93  C   UNL A   1      41.825  27.783  35.536  1.00  0.00     0.060 A 
BRANCH  93  94
ATOM     94  S   UNL A   1      41.701  26.506  36.808  1.00  0.00     0.124 S 
ATOM     95  O   UNL A   1      40.452  26.857  37.476  1.00  0.00    -0.237 OA
ATOM     96  O   UNL A   1      41.674  25.276  36.022  1.00  0.00    -0.237 OA
ATOM     97  O   UNL A   1      42.910  26.700  37.606  1.00  0.00    -0.744 OA
ENDBRANCH  93  94
ENDBRANCH  61  86
ENDBRANCH  35  36
ENDBRANCH  27  30
ENDBRANCH  25  26
ENDBRANCH  24  25
ENDBRANCH   1  24
TORSDOF 17
ENDMDL
MODEL 2
REMARK VINA RESULT:     -12.0      2.832      9.544
REMARK SMILES Cc1cc2nc(SCC(=O)NCCCNC(=O)c3ccc(-c4c5nc(c(-c6c(F)cc(S(=O)(=O)[O-])cc6F)c6ccc([nH]6)c(-c6c(F)cc(S(=O)(=O)[O-])cc6F)c6nc(c(-c7c(F)cc(S(=O)(=O)[O-])cc7F)c7ccc4[nH]7)C=C6)C=C5)cc3)n(CC(C)C)c(=O)c2[nH]1
REMARK SMILES IDX 12 1 11 2 9 3 10 4 8 6 7 7 6 8 1 9 2 10 3 11 92 12 4 13
REMARK SMILES IDX 91 14 5 16 89 17 84 18 90 19 85 20 86 21 87 22 88 23 13 24
REMARK SMILES IDX 14 25 15 26 16 27 17 29 18 30 19 31 83 32 20 33 82 34 21 35
REMARK SMILES IDX 22 36 23 37 76 38 24 39 81 40 75 41 77 42 25 43 80 44 74 45
REMARK SMILES IDX 73 46 26 48 60 49 39 50 59 51 40 52 43 53 58 54 78 55 41 56
REMARK SMILES IDX 42 57 57 59 79 60 44 61 27 62 28 63 37 64 29 65 30 66 36 67
REMARK SMILES IDX 38 68 31 69 32 70 33 71 34 72 35 73 61 74 62 75 71 76 63 77
REMARK SMILES IDX 64 78 70 79 72 80 65 81 66 82 67 83 68 84 69 85 45 86 46 87
REMARK SMILES IDX 55 88 47 89 48 90 54 91 56 92 49 93 50 94 51 95 52 96 53 97
REMARK H PARENT 11 5 92 15 15 28 77 47 43 58
REMARK Flexibility Score: inf
ROOT
ATOM      1  C   UNL A   1      33.170  29.194  25.388  1.00  0.00     0.117 C 
ENDROOT
BRANCH   1   2
ATOM      2  N   UNL A   1      32.388  29.527  24.212  1.00  0.00    -0.355 N 
ATOM      3  C   UNL A   1      32.320  28.841  23.038  1.00  0.00     0.230 C 
ATOM      4  O   UNL A   1      31.279  28.933  22.387  1.00  0.00    -0.274 OA
ATOM      5  H   UNL A   1      31.843  30.346  24.269  1.00  0.00     0.163 HD
BRANCH   3   6
ATOM      6  C   UNL A   1      33.418  27.910  22.585  1.00  0.00     0.178 C 
BRANCH   6   7
ATOM      7  S   UNL A   1      32.898  26.328  21.994  1.00  0.00    -0.078 SA
BRANCH   7   8
ATOM      8  C   UNL A   1      33.211  24.915  22.981  1.00  0.00     0.172 A 
ATOM      9  C   UNL A   1      37.173  20.866  24.766  1.00  0.00     0.064 C 
ATOM     10  C   UNL A   1      36.172  21.914  24.444  1.00  0.00     0.014 A 
ATOM     11  C   UNL A   1      36.199  22.927  23.496  1.00  0.00     0.052 A 
ATOM     12  N   UNL A   1      34.956  21.983  25.097  1.00  0.00    -0.353 N 
ATOM     13  C   UNL A   1      34.948  23.554  23.560  1.00  0.00     0.097 A 
ATOM     14  C   UNL A   1      34.216  22.992  24.546  1.00  0.00     0.131 A 
ATOM     15  H   UNL A   1      34.669  21.402  25.838  1.00  0.00     0.166 HD
ATOM     16  N   UNL A   1      34.467  24.599  22.797  1.00  0.00    -0.222 NA
ATOM     17  C   UNL A   1      32.895  23.412  24.860  1.00  0.00     0.278 A 
ATOM     18  N   UNL A   1      32.346  24.281  23.887  1.00  0.00    -0.286 N 
ATOM     19  O   UNL A   1      32.326  23.049  25.874  1.00  0.00    -0.267 OA
BRANCH  18  20
ATOM     20  C   UNL A   1      30.887  24.407  24.014  1.00  0.00     0.131 C 
BRANCH  20  21
ATOM     21  C   UNL A   1      30.406  25.769  24.597  1.00  0.00     0.003 C 
ATOM     22  C   UNL A   1      29.265  26.429  23.812  1.00  0.00     0.009 C 
ATOM     23  C   UNL A   1      29.902  25.585  26.037  1.00  0.00     0.009 C 
ENDBRANCH  20  21
ENDBRANCH  18  20
ENDBRANCH   7   8
ENDBRANCH   6   7
ENDBRANCH   3   6
ENDBRANCH   1   2
BRANCH   1  24
ATOM     24  C   UNL A   1      33.028  30.188  26.537  1.00  0.00     0.042 C 
BRANCH  24  25
ATOM     25  C   UNL A   1      34.362  30.554  27.153  1.00  0.00     0.118 C 
BRANCH  25  26
ATOM     26  N   UNL A   1      34.274  31.628  28.143  1.00  0.00    -0.352 N 
ATOM     27  C   UNL A   1      35.063  31.825  29.259  1.00  0.00     0.251 C 
ATOM     28  H   UNL A   1      33.564  32.295  27.995  1.00  0.00     0.163 HD
ATOM     29  O   UNL A   1      34.723  32.619  30.129  1.00  0.00    -0.269 OA
BRANCH  27  30
ATOM     30  C   UNL A   1      36.324  31.072  29.372  1.00  0.00     0.039 A 
ATOM     31  C   UNL A   1      36.347  29.678  29.461  1.00  0.00     0.014 A 
ATOM     32  C   UNL A   1      37.508  31.806  29.398  1.00  0.00     0.014 A 
ATOM     33  C   UNL A   1      37.580  29.037  29.552  1.00  0.00     0.010 A 
ATOM     34  C   UNL A   1      38.710  31.177  29.281  1.00  0.00     0.010 A 
ATOM     35  C   UNL A   1      38.749  29.805  29.471  1.00  0.00    -0.014 A 
BRANCH  35  36
ATOM     36  C   UNL A   1      40.069  29.228  29.614  1.00  0.00     0.031 A 
ATOM     37  C   UNL A   1      40.494  28.957  31.008  1.00  0.00     0.074 A 
ATOM     38  C   UNL A   1      40.723  28.740  28.538  1.00  0.00     0.049 A 
ATOM     39  N   UNL A   1      41.426  29.548  31.677  1.00  0.00    -0.248 NA
ATOM     40  C   UNL A   1      39.695  28.014  31.805  1.00  0.00     0.031 C 
ATOM     41  C   UNL A   1      40.262  28.620  27.145  1.00  0.00     0.029 A 
ATOM     42  N   UNL A   1      41.939  28.147  28.497  1.00  0.00    -0.354 N 
ATOM     43  C   UNL A   1      41.474  28.912  32.915  1.00  0.00     0.074 A 
ATOM     44  C   UNL A   1      40.276  28.118  33.002  1.00  0.00     0.031 C 
ATOM     45  C   UNL A   1      41.100  27.811  26.458  1.00  0.00     0.029 A 
ATOM     46  C   UNL A   1      42.237  27.502  27.304  1.00  0.00     0.049 A 
ATOM     47  H   UNL A   1      42.567  28.173  29.255  1.00  0.00     0.167 HD
ATOM     48  C   UNL A   1      42.600  28.934  33.683  1.00  0.00     0.037 A 
ATOM     49  C   UNL A   1      43.337  26.747  27.062  1.00  0.00     0.037 A 
ATOM     50  C   UNL A   1      43.539  29.912  33.189  1.00  0.00     0.049 A 
ATOM     51  C   UNL A   1      44.353  27.152  28.074  1.00  0.00     0.074 A 
ATOM     52  C   UNL A   1      43.527  31.287  33.066  1.00  0.00     0.029 A 
ATOM     53  N   UNL A   1      44.538  29.472  32.352  1.00  0.00    -0.354 N 
ATOM     54  N   UNL A   1      44.883  28.346  28.129  1.00  0.00    -0.248 NA
ATOM     55  C   UNL A   1      44.407  26.393  29.315  1.00  0.00     0.031 C 
ATOM     56  C   UNL A   1      44.171  31.553  31.820  1.00  0.00     0.029 A 
ATOM     57  C   UNL A   1      44.597  30.336  31.284  1.00  0.00     0.049 A 
ATOM     58  H   UNL A   1      45.106  28.680  32.491  1.00  0.00     0.167 HD
ATOM     59  C   UNL A   1      44.966  28.647  29.483  1.00  0.00     0.074 A 
ATOM     60  C   UNL A   1      44.725  27.375  30.165  1.00  0.00     0.031 C 
ATOM     61  C   UNL A   1      44.938  29.939  29.931  1.00  0.00     0.037 A 
BRANCH  48  62
ATOM     62  C   UNL A   1      42.997  27.871  34.679  1.00  0.00     0.058 A 
ATOM     63  C   UNL A   1      43.106  28.209  36.044  1.00  0.00     0.135 A 
ATOM     64  C   UNL A   1      43.521  26.608  34.325  1.00  0.00     0.135 A 
ATOM     65  F   UNL A   1      42.639  29.383  36.498  1.00  0.00    -0.206 F 
ATOM     66  C   UNL A   1      43.754  27.391  36.970  1.00  0.00     0.059 A 
ATOM     67  C   UNL A   1      44.121  25.751  35.242  1.00  0.00     0.059 A 
ATOM     68  F   UNL A   1      43.567  26.183  33.056  1.00  0.00    -0.206 F 
ATOM     69  C   UNL A   1      44.274  26.169  36.553  1.00  0.00     0.060 A 
BRANCH  69  70
ATOM     70  S   UNL A   1      45.223  25.171  37.714  1.00  0.00     0.124 S 
ATOM     71  O   UNL A   1      44.916  23.821  37.255  1.00  0.00    -0.237 OA
ATOM     72  O   UNL A   1      46.584  25.636  37.470  1.00  0.00    -0.237 OA
ATOM     73  O   UNL A   1      44.664  25.538  39.011  1.00  0.00    -0.744 OA
ENDBRANCH  69  70
ENDBRANCH  48  62
BRANCH  49  74
ATOM     74  C   UNL A   1      43.400  25.459  26.320  1.00  0.00     0.058 A 
ATOM     75  C   UNL A   1      44.342  25.256  25.297  1.00  0.00     0.135 A 
ATOM     76  C   UNL A   1      42.739  24.306  26.792  1.00  0.00     0.135 A 
ATOM     77  F   UNL A   1      45.030  26.297  24.800  1.00  0.00    -0.206 F 
ATOM     78  C   UNL A   1      44.657  23.982  24.812  1.00  0.00     0.059 A 
ATOM     79  C   UNL A   1      43.030  23.026  26.321  1.00  0.00     0.059 A 
ATOM     80  F   UNL A   1      41.855  24.377  27.798  1.00  0.00    -0.206 F 
ATOM     81  C   UNL A   1      44.013  22.867  25.350  1.00  0.00     0.060 A 
BRANCH  81  82
ATOM     82  S   UNL A   1      44.547  21.209  24.863  1.00  0.00     0.124 S 
ATOM     83  O   UNL A   1      44.535  21.302  23.408  1.00  0.00    -0.237 OA
ATOM     84  O   UNL A   1      45.864  21.117  25.485  1.00  0.00    -0.237 OA
ATOM     85  O   UNL A   1      43.526  20.339  25.441  1.00  0.00    -0.744 OA
ENDBRANCH  81  82
ENDBRANCH  49  74
BRANCH  61  86
ATOM     86  C   UNL A   1      45.049  31.047  28.906  1.00  0.00     0.058 A 
ATOM     87  C   UNL A   1      46.264  31.502  28.355  1.00  0.00     0.135 A 
ATOM     88  C   UNL A   1      43.874  31.566  28.345  1.00  0.00     0.135 A 
ATOM     89  F   UNL A   1      47.433  30.985  28.750  1.00  0.00    -0.206 F 
ATOM     90  C   UNL A   1      46.309  32.455  27.335  1.00  0.00     0.059 A 
ATOM     91  C   UNL A   1      43.892  32.495  27.306  1.00  0.00     0.059 A 
ATOM     92  F   UNL A   1      42.678  31.129  28.774  1.00  0.00    -0.206 F 
ATOM     93  C   UNL A   1      45.116  32.948  26.815  1.00  0.00     0.060 A 
BRANCH  93  94
ATOM     94  S   UNL A   1      45.175  34.139  25.458  1.00  0.00     0.124 S 
ATOM     95  O   UNL A   1      46.610  34.305  25.257  1.00  0.00    -0.237 OA
ATOM     96  O   UNL A   1      44.463  33.441  24.392  1.00  0.00    -0.237 OA
ATOM     97  O   UNL A   1      44.483  35.307  25.999  1.00  0.00    -0.744 OA
ENDBRANCH  93  94
ENDBRANCH  61  86
ENDBRANCH  35  36
ENDBRANCH  27  30
ENDBRANCH  25  26
ENDBRANCH  24  25
ENDBRANCH   1  24
TORSDOF 17
ENDMDL
MODEL 3
REMARK VINA RESULT:     -11.8      1.759      3.648
REMARK SMILES Cc1cc2nc(SCC(=O)NCCCNC(=O)c3ccc(-c4c5nc(c(-c6c(F)cc(S(=O)(=O)[O-])cc6F)c6ccc([nH]6)c(-c6c(F)cc(S(=O)(=O)[O-])cc6F)c6nc(c(-c7c(F)cc(S(=O)(=O)[O-])cc7F)c7ccc4[nH]7)C=C6)C=C5)cc3)n(CC(C)C)c(=O)c2[nH]1
REMARK SMILES IDX 12 1 11 2 9 3 10 4 8 6 7 7 6 8 1 9 2 10 3 11 92 12 4 13
REMARK SMILES IDX 91 14 5 16 89 17 84 18 90 19 85 20 86 21 87 22 88 23 13 24
REMARK SMILES IDX 14 25 15 26 16 27 17 29 18 30 19 31 83 32 20 33 82 34 21 35
REMARK SMILES IDX 22 36 23 37 76 38 24 39 81 40 75 41 77 42 25 43 80 44 74 45
REMARK SMILES IDX 73 46 26 48 60 49 39 50 59 51 40 52 43 53 58 54 78 55 41 56
REMARK SMILES IDX 42 57 57 59 79 60 44 61 27 62 28 63 37 64 29 65 30 66 36 67
REMARK SMILES IDX 38 68 31 69 32 70 33 71 34 72 35 73 61 74 62 75 71 76 63 77
REMARK SMILES IDX 64 78 70 79 72 80 65 81 66 82 67 83 68 84 69 85 45 86 46 87
REMARK SMILES IDX 55 88 47 89 48 90 54 91 56 92 49 93 50 94 51 95 52 96 53 97
REMARK H PARENT 11 5 92 15 15 28 77 47 43 58
REMARK Flexibility Score: inf
ROOT
ATOM      1  C   UNL A   1      35.123  23.919  25.109  1.00  0.00     0.117 C 
ENDROOT
BRANCH   1   2
ATOM      2  N   UNL A   1      34.561  24.973  24.285  1.00  0.00    -0.355 N 
ATOM      3  C   UNL A   1      33.736  24.839  23.212  1.00  0.00     0.230 C 
ATOM      4  O   UNL A   1      32.962  25.766  22.971  1.00  0.00    -0.274 OA
ATOM      5  H   UNL A   1      34.807  25.895  24.531  1.00  0.00     0.163 HD
BRANCH   3   6
ATOM      6  C   UNL A   1      33.673  23.568  22.398  1.00  0.00     0.178 C 
BRANCH   6   7
ATOM      7  S   UNL A   1      32.285  22.519  22.706  1.00  0.00    -0.078 SA
BRANCH   7   8
ATOM      8  C   UNL A   1      32.393  21.331  23.987  1.00  0.00     0.172 A 
ATOM      9  C   UNL A   1      32.911  15.592  25.428  1.00  0.00     0.064 C 
ATOM     10  C   UNL A   1      32.894  17.046  25.130  1.00  0.00     0.014 A 
ATOM     11  C   UNL A   1      32.712  17.720  23.930  1.00  0.00     0.052 A 
ATOM     12  N   UNL A   1      33.034  17.994  26.126  1.00  0.00    -0.353 N 
ATOM     13  C   UNL A   1      32.685  19.084  24.249  1.00  0.00     0.097 A 
ATOM     14  C   UNL A   1      32.904  19.238  25.573  1.00  0.00     0.131 A 
ATOM     15  H   UNL A   1      33.201  17.805  27.078  1.00  0.00     0.166 HD
ATOM     16  N   UNL A   1      32.497  20.162  23.409  1.00  0.00    -0.222 NA
ATOM     17  C   UNL A   1      32.937  20.510  26.206  1.00  0.00     0.278 A 
ATOM     18  N   UNL A   1      32.468  21.553  25.372  1.00  0.00    -0.286 N 
ATOM     19  O   UNL A   1      33.338  20.654  27.347  1.00  0.00    -0.267 OA
BRANCH  18  20
ATOM     20  C   UNL A   1      32.151  22.771  26.130  1.00  0.00     0.131 C 
BRANCH  20  21
ATOM     21  C   UNL A   1      30.672  23.245  25.999  1.00  0.00     0.003 C 
ATOM     22  C   UNL A   1      29.800  22.954  27.228  1.00  0.00     0.009 C 
ATOM     23  C   UNL A   1      30.617  24.764  25.769  1.00  0.00     0.009 C 
ENDBRANCH  20  21
ENDBRANCH  18  20
ENDBRANCH   7   8
ENDBRANCH   6   7
ENDBRANCH   3   6
ENDBRANCH   1   2
BRANCH   1  24
ATOM     24  C   UNL A   1      36.620  23.704  24.916  1.00  0.00     0.042 C 
BRANCH  24  25
ATOM     25  C   UNL A   1      37.364  23.598  26.231  1.00  0.00     0.118 C 
BRANCH  25  26
ATOM     26  N   UNL A   1      38.495  22.670  26.192  1.00  0.00    -0.352 N 
ATOM     27  C   UNL A   1      39.816  22.922  26.501  1.00  0.00     0.251 C 
ATOM     28  H   UNL A   1      38.286  21.749  25.910  1.00  0.00     0.163 HD
ATOM     29  O   UNL A   1      40.692  22.124  26.188  1.00  0.00    -0.269 OA
BRANCH  27  30
ATOM     30  C   UNL A   1      40.145  24.162  27.225  1.00  0.00     0.039 A 
ATOM     31  C   UNL A   1      41.267  24.258  28.054  1.00  0.00     0.014 A 
ATOM     32  C   UNL A   1      39.285  25.245  27.064  1.00  0.00     0.014 A 
ATOM     33  C   UNL A   1      41.518  25.469  28.696  1.00  0.00     0.010 A 
ATOM     34  C   UNL A   1      39.638  26.479  27.522  1.00  0.00     0.010 A 
ATOM     35  C   UNL A   1      40.686  26.563  28.425  1.00  0.00    -0.014 A 
BRANCH  35  36
ATOM     36  C   UNL A   1      40.841  27.840  29.090  1.00  0.00     0.031 A 
ATOM     37  C   UNL A   1      41.931  28.697  28.568  1.00  0.00     0.074 A 
ATOM     38  C   UNL A   1      39.886  28.294  29.930  1.00  0.00     0.049 A 
ATOM     39  N   UNL A   1      43.029  29.027  29.162  1.00  0.00    -0.248 NA
ATOM     40  C   UNL A   1      41.862  29.128  27.163  1.00  0.00     0.031 C 
ATOM     41  C   UNL A   1      38.580  27.702  30.261  1.00  0.00     0.029 A 
ATOM     42  N   UNL A   1      39.857  29.465  30.608  1.00  0.00    -0.354 N 
ATOM     43  C   UNL A   1      43.701  29.877  28.287  1.00  0.00     0.074 A 
ATOM     44  C   UNL A   1      43.034  29.749  27.017  1.00  0.00     0.031 C 
ATOM     45  C   UNL A   1      37.816  28.615  30.902  1.00  0.00     0.029 A 
ATOM     46  C   UNL A   1      38.632  29.782  31.178  1.00  0.00     0.049 A 
ATOM     47  H   UNL A   1      40.647  30.048  30.691  1.00  0.00     0.167 HD
ATOM     48  C   UNL A   1      44.626  30.772  28.736  1.00  0.00     0.037 A 
ATOM     49  C   UNL A   1      38.324  30.945  31.805  1.00  0.00     0.037 A 
ATOM     50  C   UNL A   1      44.994  30.488  30.101  1.00  0.00     0.049 A 
ATOM     51  C   UNL A   1      39.622  31.560  32.205  1.00  0.00     0.074 A 
ATOM     52  C   UNL A   1      45.623  29.434  30.734  1.00  0.00     0.029 A 
ATOM     53  N   UNL A   1      44.348  31.187  31.095  1.00  0.00    -0.354 N 
ATOM     54  N   UNL A   1      40.439  31.023  33.073  1.00  0.00    -0.248 NA
ATOM     55  C   UNL A   1      40.231  32.505  31.282  1.00  0.00     0.031 C 
ATOM     56  C   UNL A   1      44.930  29.278  31.972  1.00  0.00     0.029 A 
ATOM     57  C   UNL A   1      43.963  30.283  32.056  1.00  0.00     0.049 A 
ATOM     58  H   UNL A   1      44.189  32.158  31.113  1.00  0.00     0.167 HD
ATOM     59  C   UNL A   1      41.712  31.239  32.557  1.00  0.00     0.074 A 
ATOM     60  C   UNL A   1      41.521  32.220  31.489  1.00  0.00     0.031 C 
ATOM     61  C   UNL A   1      42.752  30.398  32.847  1.00  0.00     0.037 A 
BRANCH  48  62
ATOM     62  C   UNL A   1      44.968  32.081  28.067  1.00  0.00     0.058 A 
ATOM     63  C   UNL A   1      46.258  32.266  27.527  1.00  0.00     0.135 A 
ATOM     64  C   UNL A   1      44.177  33.249  28.158  1.00  0.00     0.135 A 
ATOM     65  F   UNL A   1      47.097  31.227  27.388  1.00  0.00    -0.206 F 
ATOM     66  C   UNL A   1      46.751  33.523  27.177  1.00  0.00     0.059 A 
ATOM     67  C   UNL A   1      44.628  34.504  27.763  1.00  0.00     0.059 A 
ATOM     68  F   UNL A   1      42.965  33.249  28.725  1.00  0.00    -0.206 F 
ATOM     69  C   UNL A   1      45.932  34.640  27.317  1.00  0.00     0.060 A 
BRANCH  69  70
ATOM     70  S   UNL A   1      46.608  36.277  26.990  1.00  0.00     0.124 S 
ATOM     71  O   UNL A   1      47.414  36.503  28.184  1.00  0.00    -0.237 OA
ATOM     72  O   UNL A   1      47.346  36.058  25.751  1.00  0.00    -0.237 OA
ATOM     73  O   UNL A   1      45.418  37.115  26.864  1.00  0.00    -0.744 OA
ENDBRANCH  69  70
ENDBRANCH  48  62
BRANCH  49  74
ATOM     74  C   UNL A   1      37.059  31.719  31.696  1.00  0.00     0.058 A 
ATOM     75  C   UNL A   1      36.345  32.107  32.844  1.00  0.00     0.135 A 
ATOM     76  C   UNL A   1      36.680  32.343  30.489  1.00  0.00     0.135 A 
ATOM     77  F   UNL A   1      36.651  31.576  34.038  1.00  0.00    -0.206 F 
ATOM     78  C   UNL A   1      35.357  33.098  32.809  1.00  0.00     0.059 A 
ATOM     79  C   UNL A   1      35.695  33.328  30.429  1.00  0.00     0.059 A 
ATOM     80  F   UNL A   1      37.326  32.083  29.343  1.00  0.00    -0.206 F 
ATOM     81  C   UNL A   1      35.057  33.723  31.599  1.00  0.00     0.060 A 
BRANCH  81  82
ATOM     82  S   UNL A   1      33.919  35.130  31.581  1.00  0.00     0.124 S 
ATOM     83  O   UNL A   1      32.792  34.617  32.352  1.00  0.00    -0.237 OA
ATOM     84  O   UNL A   1      34.712  36.172  32.226  1.00  0.00    -0.237 OA
ATOM     85  O   UNL A   1      33.660  35.340  30.159  1.00  0.00    -0.744 OA
ENDBRANCH  81  82
ENDBRANCH  49  74
BRANCH  61  86
ATOM     86  C   UNL A   1      42.544  29.359  33.928  1.00  0.00     0.058 A 
ATOM     87  C   UNL A   1      42.070  28.054  33.695  1.00  0.00     0.135 A 
ATOM     88  C   UNL A   1      42.986  29.644  35.227  1.00  0.00     0.135 A 
ATOM     89  F   UNL A   1      41.728  27.656  32.465  1.00  0.00    -0.206 F 
ATOM     90  C   UNL A   1      41.994  27.096  34.710  1.00  0.00     0.059 A 
ATOM     91  C   UNL A   1      42.949  28.697  36.250  1.00  0.00     0.059 A 
ATOM     92  F   UNL A   1      43.513  30.848  35.508  1.00  0.00    -0.206 F 
ATOM     93  C   UNL A   1      42.436  27.428  35.988  1.00  0.00     0.060 A 
BRANCH  93  94
ATOM     94  S   UNL A   1      42.389  26.172  37.286  1.00  0.00     0.124 S 
ATOM     95  O   UNL A   1      41.008  26.261  37.750  1.00  0.00    -0.237 OA
ATOM     96  O   UNL A   1      42.736  24.953  36.561  1.00  0.00    -0.237 OA
ATOM     97  O   UNL A   1      43.397  26.629  38.240  1.00  0.00    -0.744 OA
ENDBRANCH  93  94
ENDBRANCH  61  86
ENDBRANCH  35  36
ENDBRANCH  27  30
ENDBRANCH  25  26
ENDBRANCH  24  25
ENDBRANCH   1  24
TORSDOF 17
ENDMDL
