MODEL 1
REMARK VINA RESULT:      -9.8      0.000      0.000
REMARK SMILES CC[C@@]1(C)C[C@@H]([NH2+]C[C@H]2CC[C@@H](C(=O)NCCCNC(=O)c3ccc(-c4c5nc(c(-c6c(F)cc(S(=O)(=O)[O-])cc6F)c6ccc([nH]6)c(-c6c(F)cc(S(=O)(=O)[O-])cc6F)c6nc(c(-c7c(F)cc(S(=O)(=O)[O-])cc7F)c7ccc4[nH]7)C=C6)C=C5)cc3)CC2)CCO1
REMARK SMILES IDX 16 1 15 2 13 3 14 4 12 6 9 7 10 8 89 9 11 10 88 11 8 12 7 13
REMARK SMILES IDX 6 16 3 17 4 18 5 19 92 20 91 21 90 22 2 23 1 24 17 25 18 26
REMARK SMILES IDX 19 27 20 28 21 30 22 31 23 32 87 33 24 34 86 35 25 36 26 37
REMARK SMILES IDX 27 38 80 39 28 40 85 41 79 42 81 43 29 44 84 45 78 46 77 47
REMARK SMILES IDX 30 49 64 50 43 51 63 52 44 53 47 54 62 55 82 56 45 57 46 58
REMARK SMILES IDX 61 60 83 61 48 62 31 63 32 64 41 65 33 66 34 67 40 68 42 69
REMARK SMILES IDX 35 70 36 71 37 72 38 73 39 74 65 75 66 76 75 77 67 78 68 79
REMARK SMILES IDX 74 80 76 81 69 82 70 83 71 84 72 85 73 86 49 87 50 88 59 89
REMARK SMILES IDX 51 90 52 91 58 92 60 93 53 94 54 95 55 96 56 97 57 98
REMARK H PARENT 15 5 7 14 7 15 19 29 81 48 47 59
REMARK Flexibility Score: inf
ROOT
ATOM      1  C   UNL A   1      34.261  34.974  28.726  1.00  0.00     0.117 C 
ENDROOT
BRANCH   1   2
ATOM      2  N   UNL A   1      33.768  35.157  30.079  1.00  0.00    -0.356 N 
ATOM      3  C   UNL A   1      34.079  34.503  31.231  1.00  0.00     0.223 C 
ATOM      4  O   UNL A   1      33.463  34.813  32.252  1.00  0.00    -0.275 OA
ATOM      5  H   UNL A   1      33.101  35.873  30.181  1.00  0.00     0.163 HD
BRANCH   3   6
ATOM      6  C   UNL A   1      35.217  33.492  31.285  1.00  0.00     0.078 C 
ATOM      7  C   UNL A   1      37.581  32.487  32.866  1.00  0.00     0.044 C 
ATOM      8  C   UNL A   1      36.251  31.761  32.746  1.00  0.00     0.010 C 
ATOM      9  C   UNL A   1      37.799  33.222  31.535  1.00  0.00     0.010 C 
ATOM     10  C   UNL A   1      35.056  32.657  32.545  1.00  0.00     0.014 C 
ATOM     11  C   UNL A   1      36.618  34.085  31.071  1.00  0.00     0.014 C 
BRANCH   7  12
ATOM     12  C   UNL A   1      37.758  33.365  34.137  1.00  0.00     0.264 C 
BRANCH  12  13
ATOM     13  N   UNL A   1      39.111  33.530  34.701  1.00  0.00    -0.343 N 
ATOM     14  H   UNL A   1      39.775  33.157  34.024  1.00  0.00     0.346 HD
ATOM     15  H   UNL A   1      39.201  34.530  34.887  1.00  0.00     0.346 HD
BRANCH  13  16
ATOM     16  C   UNL A   1      39.380  32.879  35.989  1.00  0.00     0.187 C 
ATOM     17  C   UNL A   1      40.596  30.561  35.560  1.00  0.00     0.071 C 
ATOM     18  C   UNL A   1      41.914  29.914  36.028  1.00  0.00     0.042 C 
ATOM     19  C   UNL A   1      40.656  32.029  36.080  1.00  0.00     0.100 C 
ATOM     20  O   UNL A   1      39.502  29.954  36.283  1.00  0.00    -0.375 OA
ATOM     21  C   UNL A   1      38.237  30.569  35.992  1.00  0.00     0.167 C 
ATOM     22  C   UNL A   1      38.188  32.017  36.457  1.00  0.00     0.093 C 
BRANCH  17  23
ATOM     23  C   UNL A   1      40.358  30.220  34.048  1.00  0.00     0.032 C 
ATOM     24  C   UNL A   1      41.028  28.980  33.447  1.00  0.00     0.007 C 
ENDBRANCH  17  23
ENDBRANCH  13  16
ENDBRANCH  12  13
ENDBRANCH   7  12
ENDBRANCH   3   6
ENDBRANCH   1   2
BRANCH   1  25
ATOM     25  C   UNL A   1      33.656  33.749  28.064  1.00  0.00     0.042 C 
BRANCH  25  26
ATOM     26  C   UNL A   1      34.630  32.595  27.999  1.00  0.00     0.118 C 
BRANCH  26  27
ATOM     27  N   UNL A   1      33.950  31.315  27.876  1.00  0.00    -0.352 N 
ATOM     28  C   UNL A   1      34.489  30.048  27.870  1.00  0.00     0.251 C 
ATOM     29  H   UNL A   1      32.971  31.361  27.783  1.00  0.00     0.163 HD
ATOM     30  O   UNL A   1      33.813  29.093  27.532  1.00  0.00    -0.269 OA
BRANCH  28  31
ATOM     31  C   UNL A   1      35.907  29.882  28.256  1.00  0.00     0.039 A 
ATOM     32  C   UNL A   1      36.219  29.534  29.571  1.00  0.00     0.014 A 
ATOM     33  C   UNL A   1      36.916  30.015  27.300  1.00  0.00     0.014 A 
ATOM     34  C   UNL A   1      37.544  29.251  29.904  1.00  0.00     0.010 A 
ATOM     35  C   UNL A   1      38.205  29.607  27.601  1.00  0.00     0.010 A 
ATOM     36  C   UNL A   1      38.540  29.242  28.913  1.00  0.00    -0.014 A 
BRANCH  36  37
ATOM     37  C   UNL A   1      39.945  28.882  29.223  1.00  0.00     0.031 A 
ATOM     38  C   UNL A   1      40.855  29.907  29.849  1.00  0.00     0.074 A 
ATOM     39  C   UNL A   1      40.421  27.673  28.867  1.00  0.00     0.049 A 
ATOM     40  N   UNL A   1      42.130  29.820  30.121  1.00  0.00    -0.248 NA
ATOM     41  C   UNL A   1      40.262  31.215  30.174  1.00  0.00     0.031 C 
ATOM     42  C   UNL A   1      39.653  26.626  28.186  1.00  0.00     0.029 A 
ATOM     43  N   UNL A   1      41.668  27.122  29.016  1.00  0.00    -0.354 N 
ATOM     44  C   UNL A   1      42.494  31.065  30.620  1.00  0.00     0.074 A 
ATOM     45  C   UNL A   1      41.324  31.909  30.553  1.00  0.00     0.031 C 
ATOM     46  C   UNL A   1      40.439  25.554  28.000  1.00  0.00     0.029 A 
ATOM     47  C   UNL A   1      41.774  25.849  28.507  1.00  0.00     0.049 A 
ATOM     48  H   UNL A   1      42.417  27.595  29.446  1.00  0.00     0.167 HD
ATOM     49  C   UNL A   1      43.690  31.462  31.117  1.00  0.00     0.037 A 
ATOM     50  C   UNL A   1      42.833  25.017  28.448  1.00  0.00     0.037 A 
ATOM     51  C   UNL A   1      44.836  30.599  31.216  1.00  0.00     0.049 A 
ATOM     52  C   UNL A   1      44.144  25.466  29.034  1.00  0.00     0.074 A 
ATOM     53  C   UNL A   1      46.067  30.868  31.785  1.00  0.00     0.029 A 
ATOM     54  N   UNL A   1      44.893  29.300  30.731  1.00  0.00    -0.354 N 
ATOM     55  N   UNL A   1      44.447  26.617  29.587  1.00  0.00    -0.248 NA
ATOM     56  C   UNL A   1      45.253  24.505  28.998  1.00  0.00     0.031 C 
ATOM     57  C   UNL A   1      46.887  29.751  31.597  1.00  0.00     0.029 A 
ATOM     58  C   UNL A   1      46.148  28.764  30.961  1.00  0.00     0.049 A 
ATOM     59  H   UNL A   1      44.150  28.829  30.287  1.00  0.00     0.167 HD
ATOM     60  C   UNL A   1      45.775  26.511  29.983  1.00  0.00     0.074 A 
ATOM     61  C   UNL A   1      46.212  25.178  29.620  1.00  0.00     0.031 C 
ATOM     62  C   UNL A   1      46.563  27.434  30.591  1.00  0.00     0.037 A 
BRANCH  49  63
ATOM     63  C   UNL A   1      43.813  32.885  31.589  1.00  0.00     0.058 A 
ATOM     64  C   UNL A   1      43.487  33.262  32.903  1.00  0.00     0.135 A 
ATOM     65  C   UNL A   1      44.280  33.884  30.721  1.00  0.00     0.135 A 
ATOM     66  F   UNL A   1      43.019  32.352  33.773  1.00  0.00    -0.206 F 
ATOM     67  C   UNL A   1      43.585  34.583  33.327  1.00  0.00     0.059 A 
ATOM     68  C   UNL A   1      44.417  35.207  31.133  1.00  0.00     0.059 A 
ATOM     69  F   UNL A   1      44.604  33.582  29.454  1.00  0.00    -0.206 F 
ATOM     70  C   UNL A   1      44.050  35.549  32.434  1.00  0.00     0.060 A 
BRANCH  70  71
ATOM     71  S   UNL A   1      44.170  37.258  33.000  1.00  0.00     0.124 S 
ATOM     72  O   UNL A   1      45.540  37.301  33.504  1.00  0.00    -0.237 OA
ATOM     73  O   UNL A   1      43.923  38.012  31.775  1.00  0.00    -0.237 OA
ATOM     74  O   UNL A   1      43.126  37.355  34.015  1.00  0.00    -0.744 OA
ENDBRANCH  70  71
ENDBRANCH  49  63
BRANCH  50  75
ATOM     75  C   UNL A   1      42.683  23.674  27.828  1.00  0.00     0.058 A 
ATOM     76  C   UNL A   1      42.803  23.498  26.441  1.00  0.00     0.135 A 
ATOM     77  C   UNL A   1      42.452  22.533  28.613  1.00  0.00     0.135 A 
ATOM     78  F   UNL A   1      43.018  24.557  25.648  1.00  0.00    -0.206 F 
ATOM     79  C   UNL A   1      42.690  22.242  25.854  1.00  0.00     0.059 A 
ATOM     80  C   UNL A   1      42.361  21.263  28.052  1.00  0.00     0.059 A 
ATOM     81  F   UNL A   1      42.349  22.645  29.946  1.00  0.00    -0.206 F 
ATOM     82  C   UNL A   1      42.475  21.129  26.669  1.00  0.00     0.060 A 
BRANCH  82  83
ATOM     83  S   UNL A   1      42.394  19.495  25.902  1.00  0.00     0.124 S 
ATOM     84  O   UNL A   1      42.918  18.645  26.964  1.00  0.00    -0.237 OA
ATOM     85  O   UNL A   1      40.969  19.360  25.620  1.00  0.00    -0.237 OA
ATOM     86  O   UNL A   1      43.247  19.635  24.725  1.00  0.00    -0.744 OA
ENDBRANCH  82  83
ENDBRANCH  50  75
BRANCH  62  87
ATOM     87  C   UNL A   1      47.972  27.028  30.925  1.00  0.00     0.058 A 
ATOM     88  C   UNL A   1      48.307  26.491  32.176  1.00  0.00     0.135 A 
ATOM     89  C   UNL A   1      48.985  27.122  29.956  1.00  0.00     0.135 A 
ATOM     90  F   UNL A   1      47.377  26.386  33.139  1.00  0.00    -0.206 F 
ATOM     91  C   UNL A   1      49.604  26.078  32.464  1.00  0.00     0.059 A 
ATOM     92  C   UNL A   1      50.282  26.688  30.212  1.00  0.00     0.059 A 
ATOM     93  F   UNL A   1      48.714  27.620  28.739  1.00  0.00    -0.206 F 
ATOM     94  C   UNL A   1      50.584  26.177  31.474  1.00  0.00     0.060 A 
BRANCH  94  95
ATOM     95  S   UNL A   1      52.253  25.602  31.848  1.00  0.00     0.124 S 
ATOM     96  O   UNL A   1      52.040  24.168  32.006  1.00  0.00    -0.237 OA
ATOM     97  O   UNL A   1      52.996  26.005  30.658  1.00  0.00    -0.237 OA
ATOM     98  O   UNL A   1      52.597  26.326  33.068  1.00  0.00    -0.744 OA
ENDBRANCH  94  95
ENDBRANCH  62  87
ENDBRANCH  36  37
ENDBRANCH  28  31
ENDBRANCH  26  27
ENDBRANCH  25  26
ENDBRANCH   1  25
TORSDOF 17
ENDMDL
MODEL 2
REMARK VINA RESULT:      -9.8      3.255     10.927
REMARK SMILES CC[C@@]1(C)C[C@@H]([NH2+]C[C@H]2CC[C@@H](C(=O)NCCCNC(=O)c3ccc(-c4c5nc(c(-c6c(F)cc(S(=O)(=O)[O-])cc6F)c6ccc([nH]6)c(-c6c(F)cc(S(=O)(=O)[O-])cc6F)c6nc(c(-c7c(F)cc(S(=O)(=O)[O-])cc7F)c7ccc4[nH]7)C=C6)C=C5)cc3)CC2)CCO1
REMARK SMILES IDX 16 1 15 2 13 3 14 4 12 6 9 7 10 8 89 9 11 10 88 11 8 12 7 13
REMARK SMILES IDX 6 16 3 17 4 18 5 19 92 20 91 21 90 22 2 23 1 24 17 25 18 26
REMARK SMILES IDX 19 27 20 28 21 30 22 31 23 32 87 33 24 34 86 35 25 36 26 37
REMARK SMILES IDX 27 38 80 39 28 40 85 41 79 42 81 43 29 44 84 45 78 46 77 47
REMARK SMILES IDX 30 49 64 50 43 51 63 52 44 53 47 54 62 55 82 56 45 57 46 58
REMARK SMILES IDX 61 60 83 61 48 62 31 63 32 64 41 65 33 66 34 67 40 68 42 69
REMARK SMILES IDX 35 70 36 71 37 72 38 73 39 74 65 75 66 76 75 77 67 78 68 79
REMARK SMILES IDX 74 80 76 81 69 82 70 83 71 84 72 85 73 86 49 87 50 88 59 89
REMARK SMILES IDX 51 90 52 91 58 92 60 93 53 94 54 95 55 96 56 97 57 98
REMARK H PARENT 15 5 7 14 7 15 19 29 81 48 47 59
REMARK Flexibility Score: inf
ROOT
ATOM      1  C   UNL A   1      42.530  21.222  25.972  1.00  0.00     0.117 C 
ENDROOT
BRANCH   1   2
ATOM      2  N   UNL A   1      42.495  22.496  25.278  1.00  0.00    -0.356 N 
ATOM      3  C   UNL A   1      43.334  23.565  25.345  1.00  0.00     0.223 C 
ATOM      4  O   UNL A   1      43.042  24.567  24.689  1.00  0.00    -0.275 OA
ATOM      5  H   UNL A   1      41.741  22.604  24.655  1.00  0.00     0.163 HD
BRANCH   3   6
ATOM      6  C   UNL A   1      44.643  23.497  26.120  1.00  0.00     0.078 C 
ATOM      7  C   UNL A   1      46.576  25.003  27.880  1.00  0.00     0.044 C 
ATOM      8  C   UNL A   1      45.630  23.917  28.367  1.00  0.00     0.010 C 
ATOM      9  C   UNL A   1      46.972  24.626  26.445  1.00  0.00     0.010 C 
ATOM     10  C   UNL A   1      44.350  23.792  27.582  1.00  0.00     0.014 C 
ATOM     11  C   UNL A   1      45.797  24.308  25.510  1.00  0.00     0.014 C 
BRANCH   7  12
ATOM     12  C   UNL A   1      46.074  26.464  28.058  1.00  0.00     0.264 C 
BRANCH  12  13
ATOM     13  N   UNL A   1      46.805  27.552  27.380  1.00  0.00    -0.343 N 
ATOM     14  H   UNL A   1      46.968  28.288  28.067  1.00  0.00     0.346 HD
ATOM     15  H   UNL A   1      47.650  27.114  27.012  1.00  0.00     0.346 HD
BRANCH  13  16
ATOM     16  C   UNL A   1      46.156  28.168  26.217  1.00  0.00     0.187 C 
ATOM     17  C   UNL A   1      45.301  30.592  26.872  1.00  0.00     0.071 C 
ATOM     18  C   UNL A   1      45.517  32.014  26.321  1.00  0.00     0.042 C 
ATOM     19  C   UNL A   1      46.293  29.691  26.075  1.00  0.00     0.100 C 
ATOM     20  O   UNL A   1      43.987  30.138  26.478  1.00  0.00    -0.375 OA
ATOM     21  C   UNL A   1      43.735  28.776  26.856  1.00  0.00     0.167 C 
ATOM     22  C   UNL A   1      44.659  27.804  26.135  1.00  0.00     0.093 C 
BRANCH  17  23
ATOM     23  C   UNL A   1      45.291  30.638  28.439  1.00  0.00     0.032 C 
ATOM     24  C   UNL A   1      44.320  31.584  29.153  1.00  0.00     0.007 C 
ENDBRANCH  17  23
ENDBRANCH  13  16
ENDBRANCH  12  13
ENDBRANCH   7  12
ENDBRANCH   3   6
ENDBRANCH   1   2
BRANCH   1  25
ATOM     25  C   UNL A   1      41.147  20.609  26.103  1.00  0.00     0.042 C 
BRANCH  25  26
ATOM     26  C   UNL A   1      40.184  21.522  26.827  1.00  0.00     0.118 C 
BRANCH  26  27
ATOM     27  N   UNL A   1      39.168  22.059  25.935  1.00  0.00    -0.352 N 
ATOM     28  C   UNL A   1      38.598  23.313  25.929  1.00  0.00     0.251 C 
ATOM     29  H   UNL A   1      38.842  21.440  25.241  1.00  0.00     0.163 HD
ATOM     30  O   UNL A   1      37.602  23.532  25.265  1.00  0.00    -0.269 OA
BRANCH  28  31
ATOM     31  C   UNL A   1      39.207  24.369  26.765  1.00  0.00     0.039 A 
ATOM     32  C   UNL A   1      40.045  25.312  26.169  1.00  0.00     0.014 A 
ATOM     33  C   UNL A   1      38.900  24.453  28.125  1.00  0.00     0.014 A 
ATOM     34  C   UNL A   1      40.515  26.383  26.929  1.00  0.00     0.010 A 
ATOM     35  C   UNL A   1      39.260  25.584  28.841  1.00  0.00     0.010 A 
ATOM     36  C   UNL A   1      40.092  26.551  28.258  1.00  0.00    -0.014 A 
BRANCH  36  37
ATOM     37  C   UNL A   1      40.523  27.713  29.073  1.00  0.00     0.031 A 
ATOM     38  C   UNL A   1      41.846  27.669  29.791  1.00  0.00     0.074 A 
ATOM     39  C   UNL A   1      39.693  28.763  29.233  1.00  0.00     0.049 A 
ATOM     40  N   UNL A   1      42.367  28.539  30.615  1.00  0.00    -0.248 NA
ATOM     41  C   UNL A   1      42.675  26.468  29.588  1.00  0.00     0.031 C 
ATOM     42  C   UNL A   1      38.355  28.884  28.648  1.00  0.00     0.029 A 
ATOM     43  N   UNL A   1      39.847  29.924  29.946  1.00  0.00    -0.354 N 
ATOM     44  C   UNL A   1      43.564  27.981  31.046  1.00  0.00     0.074 A 
ATOM     45  C   UNL A   1      43.662  26.671  30.446  1.00  0.00     0.031 C 
ATOM     46  C   UNL A   1      37.823  30.063  29.006  1.00  0.00     0.029 A 
ATOM     47  C   UNL A   1      38.759  30.763  29.878  1.00  0.00     0.049 A 
ATOM     48  H   UNL A   1      40.660  30.136  30.460  1.00  0.00     0.167 HD
ATOM     49  C   UNL A   1      44.511  28.523  31.848  1.00  0.00     0.037 A 
ATOM     50  C   UNL A   1      38.539  31.958  30.461  1.00  0.00     0.037 A 
ATOM     51  C   UNL A   1      44.419  29.845  32.405  1.00  0.00     0.049 A 
ATOM     52  C   UNL A   1      39.617  32.555  31.323  1.00  0.00     0.074 A 
ATOM     53  C   UNL A   1      45.360  30.528  33.155  1.00  0.00     0.029 A 
ATOM     54  N   UNL A   1      43.321  30.684  32.278  1.00  0.00    -0.354 N 
ATOM     55  N   UNL A   1      40.785  32.052  31.648  1.00  0.00    -0.248 NA
ATOM     56  C   UNL A   1      39.354  33.883  31.891  1.00  0.00     0.031 C 
ATOM     57  C   UNL A   1      44.810  31.759  33.526  1.00  0.00     0.029 A 
ATOM     58  C   UNL A   1      43.548  31.867  32.959  1.00  0.00     0.049 A 
ATOM     59  H   UNL A   1      42.501  30.469  31.777  1.00  0.00     0.167 HD
ATOM     60  C   UNL A   1      41.405  33.011  32.441  1.00  0.00     0.074 A 
ATOM     61  C   UNL A   1      40.489  34.130  32.533  1.00  0.00     0.031 C 
ATOM     62  C   UNL A   1      42.622  32.969  33.039  1.00  0.00     0.037 A 
BRANCH  49  63
ATOM     63  C   UNL A   1      45.721  27.687  32.165  1.00  0.00     0.058 A 
ATOM     64  C   UNL A   1      45.724  26.751  33.213  1.00  0.00     0.135 A 
ATOM     65  C   UNL A   1      46.891  27.811  31.398  1.00  0.00     0.135 A 
ATOM     66  F   UNL A   1      44.639  26.601  33.990  1.00  0.00    -0.206 F 
ATOM     67  C   UNL A   1      46.853  25.996  33.512  1.00  0.00     0.059 A 
ATOM     68  C   UNL A   1      48.022  27.042  31.659  1.00  0.00     0.059 A 
ATOM     69  F   UNL A   1      46.946  28.691  30.386  1.00  0.00    -0.206 F 
ATOM     70  C   UNL A   1      47.998  26.150  32.730  1.00  0.00     0.060 A 
BRANCH  70  71
ATOM     71  S   UNL A   1      49.454  25.163  33.132  1.00  0.00     0.124 S 
ATOM     72  O   UNL A   1      48.859  24.057  33.877  1.00  0.00    -0.237 OA
ATOM     73  O   UNL A   1      49.979  24.827  31.812  1.00  0.00    -0.237 OA
ATOM     74  O   UNL A   1      50.279  26.076  33.917  1.00  0.00    -0.744 OA
ENDBRANCH  70  71
ENDBRANCH  49  63
BRANCH  50  75
ATOM     75  C   UNL A   1      37.253  32.667  30.228  1.00  0.00     0.058 A 
ATOM     76  C   UNL A   1      36.144  32.450  31.059  1.00  0.00     0.135 A 
ATOM     77  C   UNL A   1      37.117  33.604  29.190  1.00  0.00     0.135 A 
ATOM     78  F   UNL A   1      36.221  31.562  32.061  1.00  0.00    -0.206 F 
ATOM     79  C   UNL A   1      34.944  33.127  30.866  1.00  0.00     0.059 A 
ATOM     80  C   UNL A   1      35.936  34.312  28.993  1.00  0.00     0.059 A 
ATOM     81  F   UNL A   1      38.154  33.862  28.379  1.00  0.00    -0.206 F 
ATOM     82  C   UNL A   1      34.852  34.062  29.833  1.00  0.00     0.060 A 
BRANCH  82  83
ATOM     83  S   UNL A   1      33.311  34.983  29.631  1.00  0.00     0.124 S 
ATOM     84  O   UNL A   1      32.585  34.139  28.690  1.00  0.00    -0.237 OA
ATOM     85  O   UNL A   1      32.793  35.012  30.995  1.00  0.00    -0.237 OA
ATOM     86  O   UNL A   1      33.757  36.272  29.112  1.00  0.00    -0.744 OA
ENDBRANCH  82  83
ENDBRANCH  50  75
BRANCH  62  87
ATOM     87  C   UNL A   1      43.047  34.176  33.829  1.00  0.00     0.058 A 
ATOM     88  C   UNL A   1      43.749  35.236  33.235  1.00  0.00     0.135 A 
ATOM     89  C   UNL A   1      42.691  34.300  35.182  1.00  0.00     0.135 A 
ATOM     90  F   UNL A   1      44.118  35.165  31.947  1.00  0.00    -0.206 F 
ATOM     91  C   UNL A   1      44.101  36.369  33.961  1.00  0.00     0.059 A 
ATOM     92  C   UNL A   1      43.007  35.436  35.919  1.00  0.00     0.059 A 
ATOM     93  F   UNL A   1      42.010  33.318  35.795  1.00  0.00    -0.206 F 
ATOM     94  C   UNL A   1      43.723  36.461  35.302  1.00  0.00     0.060 A 
BRANCH  94  95
ATOM     95  S   UNL A   1      44.153  37.953  36.222  1.00  0.00     0.124 S 
ATOM     96  O   UNL A   1      45.587  37.774  36.417  1.00  0.00    -0.237 OA
ATOM     97  O   UNL A   1      43.767  39.013  35.295  1.00  0.00    -0.237 OA
ATOM     98  O   UNL A   1      43.337  37.857  37.428  1.00  0.00    -0.744 OA
ENDBRANCH  94  95
ENDBRANCH  62  87
ENDBRANCH  36  37
ENDBRANCH  28  31
ENDBRANCH  26  27
ENDBRANCH  25  26
ENDBRANCH   1  25
TORSDOF 17
ENDMDL
MODEL 3
REMARK VINA RESULT:      -9.7      5.409     12.783
REMARK SMILES CC[C@@]1(C)C[C@@H]([NH2+]C[C@H]2CC[C@@H](C(=O)NCCCNC(=O)c3ccc(-c4c5nc(c(-c6c(F)cc(S(=O)(=O)[O-])cc6F)c6ccc([nH]6)c(-c6c(F)cc(S(=O)(=O)[O-])cc6F)c6nc(c(-c7c(F)cc(S(=O)(=O)[O-])cc7F)c7ccc4[nH]7)C=C6)C=C5)cc3)CC2)CCO1
REMARK SMILES IDX 16 1 15 2 13 3 14 4 12 6 9 7 10 8 89 9 11 10 88 11 8 12 7 13
REMARK SMILES IDX 6 16 3 17 4 18 5 19 92 20 91 21 90 22 2 23 1 24 17 25 18 26
REMARK SMILES IDX 19 27 20 28 21 30 22 31 23 32 87 33 24 34 86 35 25 36 26 37
REMARK SMILES IDX 27 38 80 39 28 40 85 41 79 42 81 43 29 44 84 45 78 46 77 47
REMARK SMILES IDX 30 49 64 50 43 51 63 52 44 53 47 54 62 55 82 56 45 57 46 58
REMARK SMILES IDX 61 60 83 61 48 62 31 63 32 64 41 65 33 66 34 67 40 68 42 69
REMARK SMILES IDX 35 70 36 71 37 72 38 73 39 74 65 75 66 76 75 77 67 78 68 79
REMARK SMILES IDX 74 80 76 81 69 82 70 83 71 84 72 85 73 86 49 87 50 88 59 89
REMARK SMILES IDX 51 90 52 91 58 92 60 93 53 94 54 95 55 96 56 97 57 98
REMARK H PARENT 15 5 7 14 7 15 19 29 81 48 47 59
REMARK Flexibility Score: inf
ROOT
ATOM      1  C   UNL A   1      39.760  22.575  26.284  1.00  0.00     0.117 C 
ENDROOT
BRANCH   1   2
ATOM      2  N   UNL A   1      39.184  21.349  25.764  1.00  0.00    -0.356 N 
ATOM      3  C   UNL A   1      37.923  21.076  25.332  1.00  0.00     0.223 C 
ATOM      4  O   UNL A   1      37.669  19.919  24.992  1.00  0.00    -0.275 OA
ATOM      5  H   UNL A   1      39.808  20.589  25.715  1.00  0.00     0.163 HD
BRANCH   3   6
ATOM      6  C   UNL A   1      36.884  22.178  25.174  1.00  0.00     0.078 C 
ATOM      7  C   UNL A   1      33.942  22.845  25.171  1.00  0.00     0.044 C 
ATOM      8  C   UNL A   1      34.907  23.202  26.289  1.00  0.00     0.010 C 
ATOM      9  C   UNL A   1      34.747  22.901  23.864  1.00  0.00     0.010 C 
ATOM     10  C   UNL A   1      36.067  22.254  26.453  1.00  0.00     0.014 C 
ATOM     11  C   UNL A   1      36.061  22.108  23.878  1.00  0.00     0.014 C 
BRANCH   7  12
ATOM     12  C   UNL A   1      33.121  21.541  25.378  1.00  0.00     0.264 C 
BRANCH  12  13
ATOM     13  N   UNL A   1      33.489  20.341  24.604  1.00  0.00    -0.343 N 
ATOM     14  H   UNL A   1      33.863  20.654  23.709  1.00  0.00     0.346 HD
ATOM     15  H   UNL A   1      34.153  19.838  25.194  1.00  0.00     0.346 HD
BRANCH  13  16
ATOM     16  C   UNL A   1      32.421  19.374  24.323  1.00  0.00     0.187 C 
ATOM     17  C   UNL A   1      33.303  16.924  24.825  1.00  0.00     0.071 C 
ATOM     18  C   UNL A   1      32.838  15.755  25.714  1.00  0.00     0.042 C 
ATOM     19  C   UNL A   1      32.377  18.118  25.205  1.00  0.00     0.100 C 
ATOM     20  O   UNL A   1      32.975  16.619  23.451  1.00  0.00    -0.375 OA
ATOM     21  C   UNL A   1      33.274  17.702  22.557  1.00  0.00     0.167 C 
ATOM     22  C   UNL A   1      32.423  18.931  22.845  1.00  0.00     0.093 C 
BRANCH  17  23
ATOM     23  C   UNL A   1      34.866  17.030  24.883  1.00  0.00     0.032 C 
ATOM     24  C   UNL A   1      35.680  15.827  25.373  1.00  0.00     0.007 C 
ENDBRANCH  17  23
ENDBRANCH  13  16
ENDBRANCH  12  13
ENDBRANCH   7  12
ENDBRANCH   3   6
ENDBRANCH   1   2
BRANCH   1  25
ATOM     25  C   UNL A   1      40.417  22.363  27.636  1.00  0.00     0.042 C 
BRANCH  25  26
ATOM     26  C   UNL A   1      41.652  23.217  27.812  1.00  0.00     0.118 C 
BRANCH  26  27
ATOM     27  N   UNL A   1      42.075  23.827  26.560  1.00  0.00    -0.352 N 
ATOM     28  C   UNL A   1      41.985  25.144  26.167  1.00  0.00     0.251 C 
ATOM     29  H   UNL A   1      42.480  23.214  25.905  1.00  0.00     0.163 HD
ATOM     30  O   UNL A   1      42.175  25.453  25.005  1.00  0.00    -0.269 OA
BRANCH  28  31
ATOM     31  C   UNL A   1      41.627  26.160  27.180  1.00  0.00     0.039 A 
ATOM     32  C   UNL A   1      40.503  25.957  27.981  1.00  0.00     0.014 A 
ATOM     33  C   UNL A   1      42.440  27.281  27.368  1.00  0.00     0.014 A 
ATOM     34  C   UNL A   1      40.239  26.848  29.022  1.00  0.00     0.010 A 
ATOM     35  C   UNL A   1      42.249  28.086  28.480  1.00  0.00     0.010 A 
ATOM     36  C   UNL A   1      41.133  27.894  29.306  1.00  0.00    -0.014 A 
BRANCH  36  37
ATOM     37  C   UNL A   1      40.914  28.819  30.445  1.00  0.00     0.031 A 
ATOM     38  C   UNL A   1      41.722  28.651  31.705  1.00  0.00     0.074 A 
ATOM     39  C   UNL A   1      39.941  29.748  30.376  1.00  0.00     0.049 A 
ATOM     40  N   UNL A   1      41.627  29.297  32.838  1.00  0.00    -0.248 NA
ATOM     41  C   UNL A   1      42.742  27.589  31.708  1.00  0.00     0.031 C 
ATOM     42  C   UNL A   1      39.044  29.953  29.235  1.00  0.00     0.029 A 
ATOM     43  N   UNL A   1      39.531  30.685  31.290  1.00  0.00    -0.354 N 
ATOM     44  C   UNL A   1      42.551  28.703  33.689  1.00  0.00     0.074 A 
ATOM     45  C   UNL A   1      43.150  27.605  32.967  1.00  0.00     0.031 C 
ATOM     46  C   UNL A   1      38.209  30.969  29.509  1.00  0.00     0.029 A 
ATOM     47  C   UNL A   1      38.480  31.457  30.856  1.00  0.00     0.049 A 
ATOM     48  H   UNL A   1      39.950  30.793  32.174  1.00  0.00     0.167 HD
ATOM     49  C   UNL A   1      42.892  29.059  34.950  1.00  0.00     0.037 A 
ATOM     50  C   UNL A   1      37.804  32.443  31.479  1.00  0.00     0.037 A 
ATOM     51  C   UNL A   1      42.318  30.181  35.642  1.00  0.00     0.049 A 
ATOM     52  C   UNL A   1      38.219  32.844  32.868  1.00  0.00     0.074 A 
ATOM     53  C   UNL A   1      42.653  30.687  36.885  1.00  0.00     0.029 A 
ATOM     54  N   UNL A   1      41.285  30.969  35.153  1.00  0.00    -0.354 N 
ATOM     55  N   UNL A   1      39.160  32.330  33.626  1.00  0.00    -0.248 NA
ATOM     56  C   UNL A   1      37.491  33.960  33.484  1.00  0.00     0.031 C 
ATOM     57  C   UNL A   1      41.787  31.747  37.171  1.00  0.00     0.029 A 
ATOM     58  C   UNL A   1      40.950  31.940  36.082  1.00  0.00     0.049 A 
ATOM     59  H   UNL A   1      40.854  30.855  34.275  1.00  0.00     0.167 HD
ATOM     60  C   UNL A   1      39.150  33.074  34.801  1.00  0.00     0.074 A 
ATOM     61  C   UNL A   1      38.121  34.082  34.645  1.00  0.00     0.031 C 
ATOM     62  C   UNL A   1      39.922  32.935  35.908  1.00  0.00     0.037 A 
BRANCH  49  63
ATOM     63  C   UNL A   1      43.930  28.229  35.655  1.00  0.00     0.058 A 
ATOM     64  C   UNL A   1      45.306  28.469  35.496  1.00  0.00     0.135 A 
ATOM     65  C   UNL A   1      43.544  27.189  36.515  1.00  0.00     0.135 A 
ATOM     66  F   UNL A   1      45.734  29.440  34.672  1.00  0.00    -0.206 F 
ATOM     67  C   UNL A   1      46.260  27.684  36.135  1.00  0.00     0.059 A 
ATOM     68  C   UNL A   1      44.482  26.412  37.191  1.00  0.00     0.059 A 
ATOM     69  F   UNL A   1      42.245  26.913  36.703  1.00  0.00    -0.206 F 
ATOM     70  C   UNL A   1      45.838  26.657  36.980  1.00  0.00     0.060 A 
BRANCH  70  71
ATOM     71  S   UNL A   1      47.090  25.650  37.801  1.00  0.00     0.124 S 
ATOM     72  O   UNL A   1      48.322  26.285  37.342  1.00  0.00    -0.237 OA
ATOM     73  O   UNL A   1      46.767  25.838  39.211  1.00  0.00    -0.237 OA
ATOM     74  O   UNL A   1      46.844  24.309  37.279  1.00  0.00    -0.744 OA
ENDBRANCH  70  71
ENDBRANCH  49  63
BRANCH  50  75
ATOM     75  C   UNL A   1      36.682  33.125  30.780  1.00  0.00     0.058 A 
ATOM     76  C   UNL A   1      35.348  32.880  31.138  1.00  0.00     0.135 A 
ATOM     77  C   UNL A   1      36.923  34.064  29.763  1.00  0.00     0.135 A 
ATOM     78  F   UNL A   1      35.066  31.988  32.099  1.00  0.00    -0.206 F 
ATOM     79  C   UNL A   1      34.293  33.531  30.508  1.00  0.00     0.059 A 
ATOM     80  C   UNL A   1      35.886  34.748  29.137  1.00  0.00     0.059 A 
ATOM     81  F   UNL A   1      38.182  34.349  29.397  1.00  0.00    -0.206 F 
ATOM     82  C   UNL A   1      34.573  34.469  29.512  1.00  0.00     0.060 A 
BRANCH  82  83
ATOM     83  S   UNL A   1      33.198  35.357  28.747  1.00  0.00     0.124 S 
ATOM     84  O   UNL A   1      33.900  36.353  27.946  1.00  0.00    -0.237 OA
ATOM     85  O   UNL A   1      32.527  34.296  28.002  1.00  0.00    -0.237 OA
ATOM     86  O   UNL A   1      32.454  35.874  29.891  1.00  0.00    -0.744 OA
ENDBRANCH  82  83
ENDBRANCH  50  75
BRANCH  62  87
ATOM     87  C   UNL A   1      39.702  33.909  37.032  1.00  0.00     0.058 A 
ATOM     88  C   UNL A   1      38.843  33.619  38.101  1.00  0.00     0.135 A 
ATOM     89  C   UNL A   1      40.412  35.122  37.067  1.00  0.00     0.135 A 
ATOM     90  F   UNL A   1      38.137  32.478  38.112  1.00  0.00    -0.206 F 
ATOM     91  C   UNL A   1      38.677  34.507  39.159  1.00  0.00     0.059 A 
ATOM     92  C   UNL A   1      40.284  36.011  38.129  1.00  0.00     0.059 A 
ATOM     93  F   UNL A   1      41.255  35.442  36.073  1.00  0.00    -0.206 F 
ATOM     94  C   UNL A   1      39.405  35.699  39.166  1.00  0.00     0.060 A 
BRANCH  94  95
ATOM     95  S   UNL A   1      39.210  36.824  40.564  1.00  0.00     0.124 S 
ATOM     96  O   UNL A   1      40.597  37.046  40.956  1.00  0.00    -0.237 OA
ATOM     97  O   UNL A   1      38.533  37.964  39.954  1.00  0.00    -0.237 OA
ATOM     98  O   UNL A   1      38.404  36.057  41.509  1.00  0.00    -0.744 OA
ENDBRANCH  94  95
ENDBRANCH  62  87
ENDBRANCH  36  37
ENDBRANCH  28  31
ENDBRANCH  26  27
ENDBRANCH  25  26
ENDBRANCH   1  25
TORSDOF 17
ENDMDL
