MODEL 1
REMARK VINA RESULT:     -12.0      0.000      0.000
REMARK SMILES O=C(NCCCNC(=O)[C@H]1C[NH2+]C[C@H]1c1ccc(C2CC2)cc1)c1ccc(-c2c3nc(c(-c4c(F)cc(S(=O)(=O)[O-])cc4F)c4ccc([nH]4)c(-c4c(F)cc(S(=O)(=O)[O-])cc4F)c4nc(c(-c5c(F)cc(S(=O)(=O)[O-])cc5F)c5ccc2[nH]5)C=C4)C=C3)cc1
REMARK SMILES IDX 4 1 3 2 1 3 2 4 24 6 25 7 89 8 26 9 88 10 27 11 28 12 29 13
REMARK SMILES IDX 82 14 30 15 87 16 81 17 83 18 31 19 86 20 80 21 79 22 32 24
REMARK SMILES IDX 66 25 45 26 65 27 46 28 49 29 64 30 84 31 47 32 48 33 63 35
REMARK SMILES IDX 85 36 50 37 33 38 34 39 43 40 35 41 36 42 42 43 44 44 37 45
REMARK SMILES IDX 38 46 39 47 40 48 41 49 67 50 68 51 77 52 69 53 70 54 76 55
REMARK SMILES IDX 78 56 71 57 72 58 73 59 74 60 75 61 51 62 52 63 61 64 53 65
REMARK SMILES IDX 54 66 60 67 62 68 55 69 56 70 57 71 58 72 59 73 5 74 6 75
REMARK SMILES IDX 7 76 8 77 9 79 10 80 11 81 14 82 12 83 13 84 15 87 16 88
REMARK SMILES IDX 23 89 17 90 22 91 18 92 19 93 20 94 21 95
REMARK H PARENT 3 5 83 23 49 34 7 78 12 85 12 86
REMARK Flexibility Score: inf
ROOT
ATOM      1  C   UNL A   1      38.438  24.222  26.522  1.00  0.00     0.118 C 
ENDROOT
BRANCH   1   2
ATOM      2  N   UNL A   1      39.836  24.060  26.140  1.00  0.00    -0.352 N 
ATOM      3  O   UNL A   1      41.991  24.657  25.885  1.00  0.00    -0.269 OA
ATOM      4  C   UNL A   1      40.932  24.810  26.491  1.00  0.00     0.251 C 
ATOM      5  H   UNL A   1      40.022  23.301  25.542  1.00  0.00     0.163 HD
BRANCH   4   6
ATOM      6  C   UNL A   1      40.830  25.801  27.583  1.00  0.00     0.039 A 
ATOM      7  C   UNL A   1      39.867  25.647  28.582  1.00  0.00     0.014 A 
ATOM      8  C   UNL A   1      41.718  26.879  27.629  1.00  0.00     0.014 A 
ATOM      9  C   UNL A   1      39.685  26.645  29.526  1.00  0.00     0.010 A 
ATOM     10  C   UNL A   1      41.611  27.824  28.655  1.00  0.00     0.010 A 
ATOM     11  C   UNL A   1      40.581  27.723  29.601  1.00  0.00    -0.014 A 
BRANCH  11  12
ATOM     12  C   UNL A   1      40.471  28.654  30.750  1.00  0.00     0.031 A 
ATOM     13  C   UNL A   1      41.378  28.546  31.940  1.00  0.00     0.074 A 
ATOM     14  C   UNL A   1      39.550  29.637  30.674  1.00  0.00     0.049 A 
ATOM     15  N   UNL A   1      41.423  29.303  33.006  1.00  0.00    -0.248 NA
ATOM     16  C   UNL A   1      42.358  27.448  31.944  1.00  0.00     0.031 C 
ATOM     17  C   UNL A   1      38.605  29.821  29.566  1.00  0.00     0.029 A 
ATOM     18  N   UNL A   1      39.269  30.678  31.518  1.00  0.00    -0.354 N 
ATOM     19  C   UNL A   1      42.420  28.769  33.814  1.00  0.00     0.074 A 
ATOM     20  C   UNL A   1      42.940  27.606  33.127  1.00  0.00     0.031 C 
ATOM     21  C   UNL A   1      37.894  30.937  29.770  1.00  0.00     0.029 A 
ATOM     22  C   UNL A   1      38.271  31.504  31.057  1.00  0.00     0.049 A 
ATOM     23  H   UNL A   1      39.737  30.823  32.372  1.00  0.00     0.167 HD
ATOM     24  C   UNL A   1      42.861  29.219  35.014  1.00  0.00     0.037 A 
ATOM     25  C   UNL A   1      37.699  32.585  31.617  1.00  0.00     0.037 A 
ATOM     26  C   UNL A   1      42.336  30.386  35.679  1.00  0.00     0.049 A 
ATOM     27  C   UNL A   1      38.192  33.040  32.960  1.00  0.00     0.074 A 
ATOM     28  C   UNL A   1      42.729  30.939  36.885  1.00  0.00     0.029 A 
ATOM     29  N   UNL A   1      41.302  31.178  35.198  1.00  0.00    -0.354 N 
ATOM     30  N   UNL A   1      39.155  32.538  33.695  1.00  0.00    -0.248 NA
ATOM     31  C   UNL A   1      37.519  34.202  33.551  1.00  0.00     0.031 C 
ATOM     32  C   UNL A   1      41.901  32.034  37.157  1.00  0.00     0.029 A 
ATOM     33  C   UNL A   1      41.028  32.199  36.095  1.00  0.00     0.049 A 
ATOM     34  H   UNL A   1      40.831  31.034  34.345  1.00  0.00     0.167 HD
ATOM     35  C   UNL A   1      39.213  33.333  34.833  1.00  0.00     0.074 A 
ATOM     36  C   UNL A   1      38.208  34.363  34.673  1.00  0.00     0.031 C 
ATOM     37  C   UNL A   1      40.020  33.216  35.916  1.00  0.00     0.037 A 
BRANCH  24  38
ATOM     38  C   UNL A   1      43.958  28.448  35.700  1.00  0.00     0.058 A 
ATOM     39  C   UNL A   1      45.313  28.750  35.496  1.00  0.00     0.135 A 
ATOM     40  C   UNL A   1      43.646  27.439  36.626  1.00  0.00     0.135 A 
ATOM     41  F   UNL A   1      45.671  29.692  34.611  1.00  0.00    -0.206 F 
ATOM     42  C   UNL A   1      46.321  28.071  36.177  1.00  0.00     0.059 A 
ATOM     43  C   UNL A   1      44.636  26.765  37.338  1.00  0.00     0.059 A 
ATOM     44  F   UNL A   1      42.366  27.107  36.859  1.00  0.00    -0.206 F 
ATOM     45  C   UNL A   1      45.971  27.083  37.099  1.00  0.00     0.060 A 
BRANCH  45  46
ATOM     46  S   UNL A   1      47.292  26.232  37.991  1.00  0.00     0.124 S 
ATOM     47  O   UNL A   1      48.284  27.294  38.127  1.00  0.00    -0.237 OA
ATOM     48  O   UNL A   1      46.624  25.828  39.224  1.00  0.00    -0.237 OA
ATOM     49  O   UNL A   1      47.661  25.141  37.095  1.00  0.00    -0.744 OA
ENDBRANCH  45  46
ENDBRANCH  24  38
BRANCH  25  50
ATOM     50  C   UNL A   1      36.586  33.284  30.922  1.00  0.00     0.058 A 
ATOM     51  C   UNL A   1      36.824  34.114  29.818  1.00  0.00     0.135 A 
ATOM     52  C   UNL A   1      35.256  33.124  31.346  1.00  0.00     0.135 A 
ATOM     53  F   UNL A   1      38.076  34.299  29.375  1.00  0.00    -0.206 F 
ATOM     54  C   UNL A   1      35.788  34.784  29.175  1.00  0.00     0.059 A 
ATOM     55  C   UNL A   1      34.201  33.756  30.699  1.00  0.00     0.059 A 
ATOM     56  F   UNL A   1      34.971  32.322  32.384  1.00  0.00    -0.206 F 
ATOM     57  C   UNL A   1      34.479  34.598  29.624  1.00  0.00     0.060 A 
BRANCH  57  58
ATOM     58  S   UNL A   1      33.138  35.452  28.769  1.00  0.00     0.124 S 
ATOM     59  O   UNL A   1      33.872  36.451  28.001  1.00  0.00    -0.237 OA
ATOM     60  O   UNL A   1      32.528  34.373  28.000  1.00  0.00    -0.237 OA
ATOM     61  O   UNL A   1      32.322  35.971  29.863  1.00  0.00    -0.744 OA
ENDBRANCH  57  58
ENDBRANCH  25  50
BRANCH  37  62
ATOM     62  C   UNL A   1      39.861  34.247  36.996  1.00  0.00     0.058 A 
ATOM     63  C   UNL A   1      40.476  35.507  36.909  1.00  0.00     0.135 A 
ATOM     64  C   UNL A   1      39.068  33.980  38.124  1.00  0.00     0.135 A 
ATOM     65  F   UNL A   1      41.253  35.808  35.857  1.00  0.00    -0.206 F 
ATOM     66  C   UNL A   1      40.339  36.452  37.920  1.00  0.00     0.059 A 
ATOM     67  C   UNL A   1      38.891  34.923  39.130  1.00  0.00     0.059 A 
ATOM     68  F   UNL A   1      38.450  32.795  38.251  1.00  0.00    -0.206 F 
ATOM     69  C   UNL A   1      39.544  36.151  39.028  1.00  0.00     0.060 A 
BRANCH  69  70
ATOM     70  S   UNL A   1      39.360  37.393  40.324  1.00  0.00     0.124 S 
ATOM     71  O   UNL A   1      38.471  38.355  39.683  1.00  0.00    -0.237 OA
ATOM     72  O   UNL A   1      38.778  36.619  41.416  1.00  0.00    -0.237 OA
ATOM     73  O   UNL A   1      40.727  37.854  40.549  1.00  0.00    -0.744 OA
ENDBRANCH  69  70
ENDBRANCH  37  62
ENDBRANCH  11  12
ENDBRANCH   4   6
ENDBRANCH   1   2
BRANCH   1  74
ATOM     74  C   UNL A   1      37.494  23.676  25.466  1.00  0.00     0.042 C 
BRANCH  74  75
ATOM     75  C   UNL A   1      37.266  22.181  25.609  1.00  0.00     0.117 C 
BRANCH  75  76
ATOM     76  N   UNL A   1      36.149  21.868  26.470  1.00  0.00    -0.356 N 
ATOM     77  C   UNL A   1      34.914  21.383  26.192  1.00  0.00     0.229 C 
ATOM     78  H   UNL A   1      36.314  22.037  27.427  1.00  0.00     0.163 HD
ATOM     79  O   UNL A   1      34.159  21.213  27.157  1.00  0.00    -0.275 OA
BRANCH  77  80
ATOM     80  C   UNL A   1      34.418  21.053  24.786  1.00  0.00     0.146 C 
ATOM     81  C   UNL A   1      33.889  19.637  24.625  1.00  0.00     0.274 C 
ATOM     82  C   UNL A   1      33.376  21.960  24.122  1.00  0.00     0.092 C 
ATOM     83  N   UNL A   1      32.528  19.704  24.089  1.00  0.00    -0.345 N 
ATOM     84  C   UNL A   1      32.108  21.106  24.021  1.00  0.00     0.269 C 
ATOM     85  H   UNL A   1      31.894  19.188  24.701  1.00  0.00     0.346 HD
ATOM     86  H   UNL A   1      32.505  19.292  23.156  1.00  0.00     0.346 HD
BRANCH  82  87
ATOM     87  C   UNL A   1      33.298  23.376  24.651  1.00  0.00    -0.038 A 
ATOM     88  C   UNL A   1      34.165  24.405  24.280  1.00  0.00     0.004 A 
ATOM     89  C   UNL A   1      32.292  23.680  25.580  1.00  0.00     0.004 A 
ATOM     90  C   UNL A   1      34.028  25.691  24.828  1.00  0.00     0.004 A 
ATOM     91  C   UNL A   1      32.165  24.962  26.124  1.00  0.00     0.004 A 
ATOM     92  C   UNL A   1      33.032  26.004  25.769  1.00  0.00    -0.045 A 
BRANCH  92  93
ATOM     93  C   UNL A   1      32.952  27.402  26.354  1.00  0.00     0.019 C 
ATOM     94  C   UNL A   1      33.668  28.586  25.748  1.00  0.00     0.009 C 
ATOM     95  C   UNL A   1      32.177  28.471  25.617  1.00  0.00     0.009 C 
ENDBRANCH  92  93
ENDBRANCH  82  87
ENDBRANCH  77  80
ENDBRANCH  75  76
ENDBRANCH  74  75
ENDBRANCH   1  74
TORSDOF 15
ENDMDL
MODEL 2
REMARK VINA RESULT:     -11.9      5.152      9.984
REMARK SMILES O=C(NCCCNC(=O)[C@H]1C[NH2+]C[C@H]1c1ccc(C2CC2)cc1)c1ccc(-c2c3nc(c(-c4c(F)cc(S(=O)(=O)[O-])cc4F)c4ccc([nH]4)c(-c4c(F)cc(S(=O)(=O)[O-])cc4F)c4nc(c(-c5c(F)cc(S(=O)(=O)[O-])cc5F)c5ccc2[nH]5)C=C4)C=C3)cc1
REMARK SMILES IDX 4 1 3 2 1 3 2 4 24 6 25 7 89 8 26 9 88 10 27 11 28 12 29 13
REMARK SMILES IDX 82 14 30 15 87 16 81 17 83 18 31 19 86 20 80 21 79 22 32 24
REMARK SMILES IDX 66 25 45 26 65 27 46 28 49 29 64 30 84 31 47 32 48 33 63 35
REMARK SMILES IDX 85 36 50 37 33 38 34 39 43 40 35 41 36 42 42 43 44 44 37 45
REMARK SMILES IDX 38 46 39 47 40 48 41 49 67 50 68 51 77 52 69 53 70 54 76 55
REMARK SMILES IDX 78 56 71 57 72 58 73 59 74 60 75 61 51 62 52 63 61 64 53 65
REMARK SMILES IDX 54 66 60 67 62 68 55 69 56 70 57 71 58 72 59 73 5 74 6 75
REMARK SMILES IDX 7 76 8 77 9 79 10 80 11 81 14 82 12 83 13 84 15 87 16 88
REMARK SMILES IDX 23 89 17 90 22 91 18 92 19 93 20 94 21 95
REMARK H PARENT 3 5 83 23 49 34 7 78 12 85 12 86
REMARK Flexibility Score: inf
ROOT
ATOM      1  C   UNL A   1      33.972  28.211  26.913  1.00  0.00     0.118 C 
ENDROOT
BRANCH   1   2
ATOM      2  N   UNL A   1      33.770  29.595  27.323  1.00  0.00    -0.352 N 
ATOM      3  O   UNL A   1      34.147  31.480  28.494  1.00  0.00    -0.269 OA
ATOM      4  C   UNL A   1      34.589  30.420  28.053  1.00  0.00     0.251 C 
ATOM      5  H   UNL A   1      32.920  29.998  27.032  1.00  0.00     0.163 HD
BRANCH   4   6
ATOM      6  C   UNL A   1      35.990  30.028  28.315  1.00  0.00     0.039 A 
ATOM      7  C   UNL A   1      36.960  30.191  27.324  1.00  0.00     0.014 A 
ATOM      8  C   UNL A   1      36.347  29.517  29.565  1.00  0.00     0.014 A 
ATOM      9  C   UNL A   1      38.241  29.699  27.523  1.00  0.00     0.010 A 
ATOM     10  C   UNL A   1      37.670  29.133  29.807  1.00  0.00     0.010 A 
ATOM     11  C   UNL A   1      38.623  29.204  28.780  1.00  0.00    -0.014 A 
BRANCH  11  12
ATOM     12  C   UNL A   1      40.052  28.881  29.005  1.00  0.00     0.031 A 
ATOM     13  C   UNL A   1      40.629  27.550  28.618  1.00  0.00     0.074 A 
ATOM     14  C   UNL A   1      40.838  29.842  29.534  1.00  0.00     0.049 A 
ATOM     15  N   UNL A   1      41.863  27.131  28.724  1.00  0.00    -0.248 NA
ATOM     16  C   UNL A   1      39.706  26.557  28.044  1.00  0.00     0.031 C 
ATOM     17  C   UNL A   1      40.372  31.167  29.961  1.00  0.00     0.029 A 
ATOM     18  N   UNL A   1      42.184  29.876  29.779  1.00  0.00    -0.354 N 
ATOM     19  C   UNL A   1      41.868  25.826  28.247  1.00  0.00     0.074 A 
ATOM     20  C   UNL A   1      40.506  25.511  27.873  1.00  0.00     0.031 C 
ATOM     21  C   UNL A   1      41.421  31.899  30.357  1.00  0.00     0.029 A 
ATOM     22  C   UNL A   1      42.619  31.075  30.292  1.00  0.00     0.049 A 
ATOM     23  H   UNL A   1      42.784  29.114  29.604  1.00  0.00     0.167 HD
ATOM     24  C   UNL A   1      42.918  24.978  28.127  1.00  0.00     0.037 A 
ATOM     25  C   UNL A   1      43.843  31.464  30.693  1.00  0.00     0.037 A 
ATOM     26  C   UNL A   1      44.271  25.314  28.497  1.00  0.00     0.049 A 
ATOM     27  C   UNL A   1      44.979  30.491  30.573  1.00  0.00     0.074 A 
ATOM     28  C   UNL A   1      45.410  24.535  28.394  1.00  0.00     0.029 A 
ATOM     29  N   UNL A   1      44.668  26.526  29.045  1.00  0.00    -0.354 N 
ATOM     30  N   UNL A   1      44.967  29.270  30.094  1.00  0.00    -0.248 NA
ATOM     31  C   UNL A   1      46.289  30.943  31.053  1.00  0.00     0.031 C 
ATOM     32  C   UNL A   1      46.485  25.257  28.924  1.00  0.00     0.029 A 
ATOM     33  C   UNL A   1      46.029  26.507  29.308  1.00  0.00     0.049 A 
ATOM     34  H   UNL A   1      44.070  27.288  29.223  1.00  0.00     0.167 HD
ATOM     35  C   UNL A   1      46.274  28.812  30.201  1.00  0.00     0.074 A 
ATOM     36  C   UNL A   1      47.051  29.897  30.764  1.00  0.00     0.031 C 
ATOM     37  C   UNL A   1      46.784  27.599  29.871  1.00  0.00     0.037 A 
BRANCH  24  38
ATOM     38  C   UNL A   1      42.655  23.597  27.585  1.00  0.00     0.058 A 
ATOM     39  C   UNL A   1      42.701  23.321  26.210  1.00  0.00     0.135 A 
ATOM     40  C   UNL A   1      42.423  22.522  28.459  1.00  0.00     0.135 A 
ATOM     41  F   UNL A   1      42.903  24.311  25.327  1.00  0.00    -0.206 F 
ATOM     42  C   UNL A   1      42.514  22.031  25.719  1.00  0.00     0.059 A 
ATOM     43  C   UNL A   1      42.258  21.220  27.993  1.00  0.00     0.059 A 
ATOM     44  F   UNL A   1      42.366  22.729  29.785  1.00  0.00    -0.206 F 
ATOM     45  C   UNL A   1      42.298  20.987  26.620  1.00  0.00     0.060 A 
BRANCH  45  46
ATOM     46  S   UNL A   1      42.083  19.316  25.966  1.00  0.00     0.124 S 
ATOM     47  O   UNL A   1      42.574  18.504  27.076  1.00  0.00    -0.237 OA
ATOM     48  O   UNL A   1      40.645  19.259  25.727  1.00  0.00    -0.237 OA
ATOM     49  O   UNL A   1      42.916  19.309  24.768  1.00  0.00    -0.744 OA
ENDBRANCH  45  46
ENDBRANCH  24  38
BRANCH  25  50
ATOM     50  C   UNL A   1      44.041  32.822  31.267  1.00  0.00     0.058 A 
ATOM     51  C   UNL A   1      43.968  33.046  32.648  1.00  0.00     0.135 A 
ATOM     52  C   UNL A   1      44.318  33.923  30.439  1.00  0.00     0.135 A 
ATOM     53  F   UNL A   1      43.706  32.027  33.481  1.00  0.00    -0.206 F 
ATOM     54  C   UNL A   1      44.135  34.317  33.189  1.00  0.00     0.059 A 
ATOM     55  C   UNL A   1      44.522  35.195  30.958  1.00  0.00     0.059 A 
ATOM     56  F   UNL A   1      44.421  33.757  29.111  1.00  0.00    -0.206 F 
ATOM     57  C   UNL A   1      44.412  35.386  32.334  1.00  0.00     0.060 A 
BRANCH  57  58
ATOM     58  S   UNL A   1      44.650  37.028  33.045  1.00  0.00     0.124 S 
ATOM     59  O   UNL A   1      43.961  36.894  34.324  1.00  0.00    -0.237 OA
ATOM     60  O   UNL A   1      46.104  37.126  33.109  1.00  0.00    -0.237 OA
ATOM     61  O   UNL A   1      44.012  37.909  32.072  1.00  0.00    -0.744 OA
ENDBRANCH  57  58
ENDBRANCH  25  50
BRANCH  37  62
ATOM     62  C   UNL A   1      48.257  27.400  30.089  1.00  0.00     0.058 A 
ATOM     63  C   UNL A   1      49.201  27.759  29.114  1.00  0.00     0.135 A 
ATOM     64  C   UNL A   1      48.731  26.860  31.295  1.00  0.00     0.135 A 
ATOM     65  F   UNL A   1      48.800  28.270  27.939  1.00  0.00    -0.206 F 
ATOM     66  C   UNL A   1      50.563  27.557  29.313  1.00  0.00     0.059 A 
ATOM     67  C   UNL A   1      50.090  26.679  31.528  1.00  0.00     0.059 A 
ATOM     68  F   UNL A   1      47.870  26.509  32.263  1.00  0.00    -0.206 F 
ATOM     69  C   UNL A   1      50.997  27.015  30.526  1.00  0.00     0.060 A 
BRANCH  69  70
ATOM     70  S   UNL A   1      52.767  26.774  30.779  1.00  0.00     0.124 S 
ATOM     71  O   UNL A   1      53.213  26.436  29.431  1.00  0.00    -0.237 OA
ATOM     72  O   UNL A   1      53.191  28.078  31.279  1.00  0.00    -0.237 OA
ATOM     73  O   UNL A   1      52.827  25.687  31.751  1.00  0.00    -0.744 OA
ENDBRANCH  69  70
ENDBRANCH  37  62
ENDBRANCH  11  12
ENDBRANCH   4   6
ENDBRANCH   1   2
BRANCH   1  74
ATOM     74  C   UNL A   1      34.176  28.086  25.414  1.00  0.00     0.042 C 
BRANCH  74  75
ATOM     75  C   UNL A   1      32.888  28.284  24.634  1.00  0.00     0.117 C 
BRANCH  75  76
ATOM     76  N   UNL A   1      32.497  27.104  23.897  1.00  0.00    -0.356 N 
ATOM     77  C   UNL A   1      31.878  25.965  24.297  1.00  0.00     0.229 C 
ATOM     78  H   UNL A   1      32.719  27.132  22.938  1.00  0.00     0.163 HD
ATOM     79  O   UNL A   1      31.670  25.116  23.421  1.00  0.00    -0.275 OA
BRANCH  77  80
ATOM     80  C   UNL A   1      31.445  25.682  25.734  1.00  0.00     0.146 C 
ATOM     81  C   UNL A   1      29.943  25.740  25.957  1.00  0.00     0.274 C 
ATOM     82  C   UNL A   1      31.915  24.396  26.421  1.00  0.00     0.092 C 
ATOM     83  N   UNL A   1      29.510  24.475  26.556  1.00  0.00    -0.345 N 
ATOM     84  C   UNL A   1      30.648  23.554  26.606  1.00  0.00     0.269 C 
ATOM     85  H   UNL A   1      28.766  24.067  25.990  1.00  0.00     0.346 HD
ATOM     86  H   UNL A   1      29.161  24.643  27.499  1.00  0.00     0.346 HD
BRANCH  82  87
ATOM     87  C   UNL A   1      33.171  23.765  25.860  1.00  0.00    -0.038 A 
ATOM     88  C   UNL A   1      33.198  22.573  25.133  1.00  0.00     0.004 A 
ATOM     89  C   UNL A   1      34.394  24.414  26.085  1.00  0.00     0.004 A 
ATOM     90  C   UNL A   1      34.410  22.051  24.657  1.00  0.00     0.004 A 
ATOM     91  C   UNL A   1      35.598  23.884  25.609  1.00  0.00     0.004 A 
ATOM     92  C   UNL A   1      35.644  22.685  24.886  1.00  0.00    -0.045 A 
BRANCH  92  93
ATOM     93  C   UNL A   1      36.928  22.057  24.376  1.00  0.00     0.019 C 
ATOM     94  C   UNL A   1      38.148  21.866  25.245  1.00  0.00     0.009 C 
ATOM     95  C   UNL A   1      37.318  20.677  24.855  1.00  0.00     0.009 C 
ENDBRANCH  92  93
ENDBRANCH  82  87
ENDBRANCH  77  80
ENDBRANCH  75  76
ENDBRANCH  74  75
ENDBRANCH   1  74
TORSDOF 15
ENDMDL
MODEL 3
REMARK VINA RESULT:     -11.9      1.213      2.954
REMARK SMILES O=C(NCCCNC(=O)[C@H]1C[NH2+]C[C@H]1c1ccc(C2CC2)cc1)c1ccc(-c2c3nc(c(-c4c(F)cc(S(=O)(=O)[O-])cc4F)c4ccc([nH]4)c(-c4c(F)cc(S(=O)(=O)[O-])cc4F)c4nc(c(-c5c(F)cc(S(=O)(=O)[O-])cc5F)c5ccc2[nH]5)C=C4)C=C3)cc1
REMARK SMILES IDX 4 1 3 2 1 3 2 4 24 6 25 7 89 8 26 9 88 10 27 11 28 12 29 13
REMARK SMILES IDX 82 14 30 15 87 16 81 17 83 18 31 19 86 20 80 21 79 22 32 24
REMARK SMILES IDX 66 25 45 26 65 27 46 28 49 29 64 30 84 31 47 32 48 33 63 35
REMARK SMILES IDX 85 36 50 37 33 38 34 39 43 40 35 41 36 42 42 43 44 44 37 45
REMARK SMILES IDX 38 46 39 47 40 48 41 49 67 50 68 51 77 52 69 53 70 54 76 55
REMARK SMILES IDX 78 56 71 57 72 58 73 59 74 60 75 61 51 62 52 63 61 64 53 65
REMARK SMILES IDX 54 66 60 67 62 68 55 69 56 70 57 71 58 72 59 73 5 74 6 75
REMARK SMILES IDX 7 76 8 77 9 79 10 80 11 81 14 82 12 83 13 84 15 87 16 88
REMARK SMILES IDX 23 89 17 90 22 91 18 92 19 93 20 94 21 95
REMARK H PARENT 3 5 83 23 49 34 7 78 12 85 12 86
REMARK Flexibility Score: inf
ROOT
ATOM      1  C   UNL A   1      38.312  24.232  26.495  1.00  0.00     0.118 C 
ENDROOT
BRANCH   1   2
ATOM      2  N   UNL A   1      39.710  24.036  26.129  1.00  0.00    -0.352 N 
ATOM      3  O   UNL A   1      41.881  24.583  25.895  1.00  0.00    -0.269 OA
ATOM      4  C   UNL A   1      40.818  24.763  26.487  1.00  0.00     0.251 C 
ATOM      5  H   UNL A   1      39.885  23.269  25.538  1.00  0.00     0.163 HD
BRANCH   4   6
ATOM      6  C   UNL A   1      40.727  25.764  27.572  1.00  0.00     0.039 A 
ATOM      7  C   UNL A   1      39.814  25.587  28.614  1.00  0.00     0.014 A 
ATOM      8  C   UNL A   1      41.575  26.874  27.567  1.00  0.00     0.014 A 
ATOM      9  C   UNL A   1      39.635  26.590  29.554  1.00  0.00     0.010 A 
ATOM     10  C   UNL A   1      41.478  27.827  28.586  1.00  0.00     0.010 A 
ATOM     11  C   UNL A   1      40.494  27.701  29.577  1.00  0.00    -0.014 A 
BRANCH  11  12
ATOM     12  C   UNL A   1      40.398  28.642  30.720  1.00  0.00     0.031 A 
ATOM     13  C   UNL A   1      41.316  28.539  31.903  1.00  0.00     0.074 A 
ATOM     14  C   UNL A   1      39.482  29.629  30.644  1.00  0.00     0.049 A 
ATOM     15  N   UNL A   1      41.374  29.304  32.962  1.00  0.00    -0.248 NA
ATOM     16  C   UNL A   1      42.290  27.436  31.907  1.00  0.00     0.031 C 
ATOM     17  C   UNL A   1      38.528  29.808  29.543  1.00  0.00     0.029 A 
ATOM     18  N   UNL A   1      39.214  30.678  31.482  1.00  0.00    -0.354 N 
ATOM     19  C   UNL A   1      42.376  28.772  33.765  1.00  0.00     0.074 A 
ATOM     20  C   UNL A   1      42.883  27.601  33.083  1.00  0.00     0.031 C 
ATOM     21  C   UNL A   1      37.825  30.930  29.744  1.00  0.00     0.029 A 
ATOM     22  C   UNL A   1      38.215  31.505  31.023  1.00  0.00     0.049 A 
ATOM     23  H   UNL A   1      39.690  30.827  32.331  1.00  0.00     0.167 HD
ATOM     24  C   UNL A   1      42.830  29.230  34.958  1.00  0.00     0.037 A 
ATOM     25  C   UNL A   1      37.654  32.594  31.580  1.00  0.00     0.037 A 
ATOM     26  C   UNL A   1      42.316  30.404  35.617  1.00  0.00     0.049 A 
ATOM     27  C   UNL A   1      38.161  33.057  32.914  1.00  0.00     0.074 A 
ATOM     28  C   UNL A   1      42.723  30.965  36.816  1.00  0.00     0.029 A 
ATOM     29  N   UNL A   1      41.282  31.198  35.139  1.00  0.00    -0.354 N 
ATOM     30  N   UNL A   1      39.128  32.556  33.645  1.00  0.00    -0.248 NA
ATOM     31  C   UNL A   1      37.499  34.227  33.502  1.00  0.00     0.031 C 
ATOM     32  C   UNL A   1      41.903  32.066  37.086  1.00  0.00     0.029 A 
ATOM     33  C   UNL A   1      41.021  32.228  36.030  1.00  0.00     0.049 A 
ATOM     34  H   UNL A   1      40.802  31.049  34.292  1.00  0.00     0.167 HD
ATOM     35  C   UNL A   1      39.200  33.360  34.776  1.00  0.00     0.074 A 
ATOM     36  C   UNL A   1      38.199  34.394  34.616  1.00  0.00     0.031 C 
ATOM     37  C   UNL A   1      40.017  33.248  35.853  1.00  0.00     0.037 A 
BRANCH  24  38
ATOM     38  C   UNL A   1      43.929  28.458  35.640  1.00  0.00     0.058 A 
ATOM     39  C   UNL A   1      43.653  27.423  36.546  1.00  0.00     0.135 A 
ATOM     40  C   UNL A   1      45.275  28.712  35.328  1.00  0.00     0.135 A 
ATOM     41  F   UNL A   1      42.387  27.147  36.894  1.00  0.00    -0.206 F 
ATOM     42  C   UNL A   1      44.673  26.675  37.130  1.00  0.00     0.059 A 
ATOM     43  C   UNL A   1      46.310  27.960  35.880  1.00  0.00     0.059 A 
ATOM     44  F   UNL A   1      45.597  29.692  34.469  1.00  0.00    -0.206 F 
ATOM     45  C   UNL A   1      45.998  26.949  36.786  1.00  0.00     0.060 A 
BRANCH  45  46
ATOM     46  S   UNL A   1      47.306  25.951  37.533  1.00  0.00     0.124 S 
ATOM     47  O   UNL A   1      48.479  26.406  36.792  1.00  0.00    -0.237 OA
ATOM     48  O   UNL A   1      47.244  26.356  38.933  1.00  0.00    -0.237 OA
ATOM     49  O   UNL A   1      46.886  24.580  37.261  1.00  0.00    -0.744 OA
ENDBRANCH  45  46
ENDBRANCH  24  38
BRANCH  25  50
ATOM     50  C   UNL A   1      36.538  33.292  30.889  1.00  0.00     0.058 A 
ATOM     51  C   UNL A   1      36.767  34.090  29.760  1.00  0.00     0.135 A 
ATOM     52  C   UNL A   1      35.214  33.165  31.342  1.00  0.00     0.135 A 
ATOM     53  F   UNL A   1      38.013  34.244  29.288  1.00  0.00    -0.206 F 
ATOM     54  C   UNL A   1      35.729  34.760  29.120  1.00  0.00     0.059 A 
ATOM     55  C   UNL A   1      34.156  33.797  30.700  1.00  0.00     0.059 A 
ATOM     56  F   UNL A   1      34.938  32.394  32.406  1.00  0.00    -0.206 F 
ATOM     57  C   UNL A   1      34.426  34.606  29.599  1.00  0.00     0.060 A 
BRANCH  57  58
ATOM     58  S   UNL A   1      33.082  35.460  28.749  1.00  0.00     0.124 S 
ATOM     59  O   UNL A   1      32.286  35.942  29.873  1.00  0.00    -0.237 OA
ATOM     60  O   UNL A   1      33.798  36.479  27.989  1.00  0.00    -0.237 OA
ATOM     61  O   UNL A   1      32.470  34.405  27.947  1.00  0.00    -0.744 OA
ENDBRANCH  57  58
ENDBRANCH  25  50
BRANCH  37  62
ATOM     62  C   UNL A   1      39.872  34.289  36.926  1.00  0.00     0.058 A 
ATOM     63  C   UNL A   1      40.509  35.536  36.833  1.00  0.00     0.135 A 
ATOM     64  C   UNL A   1      39.071  34.043  38.052  1.00  0.00     0.135 A 
ATOM     65  F   UNL A   1      41.295  35.818  35.780  1.00  0.00    -0.206 F 
ATOM     66  C   UNL A   1      40.386  36.491  37.837  1.00  0.00     0.059 A 
ATOM     67  C   UNL A   1      38.908  34.995  39.052  1.00  0.00     0.059 A 
ATOM     68  F   UNL A   1      38.433  32.870  38.185  1.00  0.00    -0.206 F 
ATOM     69  C   UNL A   1      39.582  36.210  38.944  1.00  0.00     0.060 A 
BRANCH  69  70
ATOM     70  S   UNL A   1      39.417  37.463  40.232  1.00  0.00     0.124 S 
ATOM     71  O   UNL A   1      40.790  37.939  40.356  1.00  0.00    -0.237 OA
ATOM     72  O   UNL A   1      38.473  38.402  39.633  1.00  0.00    -0.237 OA
ATOM     73  O   UNL A   1      38.906  36.712  41.374  1.00  0.00    -0.744 OA
ENDBRANCH  69  70
ENDBRANCH  37  62
ENDBRANCH  11  12
ENDBRANCH   4   6
ENDBRANCH   1   2
BRANCH   1  74
ATOM     74  C   UNL A   1      37.399  23.235  25.803  1.00  0.00     0.042 C 
BRANCH  74  75
ATOM     75  C   UNL A   1      36.008  23.793  25.562  1.00  0.00     0.117 C 
BRANCH  75  76
ATOM     76  N   UNL A   1      35.606  23.708  24.176  1.00  0.00    -0.356 N 
ATOM     77  C   UNL A   1      34.423  23.975  23.571  1.00  0.00     0.229 C 
ATOM     78  H   UNL A   1      36.316  23.403  23.565  1.00  0.00     0.163 HD
ATOM     79  O   UNL A   1      34.381  23.808  22.346  1.00  0.00    -0.275 OA
BRANCH  77  80
ATOM     80  C   UNL A   1      33.171  24.453  24.305  1.00  0.00     0.146 C 
ATOM     81  C   UNL A   1      32.553  25.717  23.731  1.00  0.00     0.274 C 
ATOM     82  C   UNL A   1      32.005  23.481  24.513  1.00  0.00     0.092 C 
ATOM     83  N   UNL A   1      31.146  25.451  23.421  1.00  0.00    -0.345 N 
ATOM     84  C   UNL A   1      30.865  24.030  23.648  1.00  0.00     0.269 C 
ATOM     85  H   UNL A   1      30.962  25.683  22.445  1.00  0.00     0.346 HD
ATOM     86  H   UNL A   1      30.549  26.019  24.021  1.00  0.00     0.346 HD
BRANCH  82  87
ATOM     87  C   UNL A   1      32.352  22.009  24.465  1.00  0.00    -0.038 A 
ATOM     88  C   UNL A   1      32.167  21.190  23.349  1.00  0.00     0.004 A 
ATOM     89  C   UNL A   1      32.892  21.419  25.617  1.00  0.00     0.004 A 
ATOM     90  C   UNL A   1      32.507  19.829  23.393  1.00  0.00     0.004 A 
ATOM     91  C   UNL A   1      33.225  20.061  25.654  1.00  0.00     0.004 A 
ATOM     92  C   UNL A   1      33.037  19.224  24.546  1.00  0.00    -0.045 A 
BRANCH  92  93
ATOM     93  C   UNL A   1      33.355  17.740  24.548  1.00  0.00     0.019 C 
ATOM     94  C   UNL A   1      33.658  16.966  23.287  1.00  0.00     0.009 C 
ATOM     95  C   UNL A   1      34.766  17.284  24.250  1.00  0.00     0.009 C 
ENDBRANCH  92  93
ENDBRANCH  82  87
ENDBRANCH  77  80
ENDBRANCH  75  76
ENDBRANCH  74  75
ENDBRANCH   1  74
TORSDOF 15
ENDMDL
