MODEL 1
REMARK VINA RESULT:     -10.9      0.000      0.000
REMARK SMILES CCCN(CCC)c1cc(C(=O)NCCCNC(=O)c2ccc(-c3c4nc(c(-c5c(F)cc(S(=O)(=O)[O-])cc5F)c5ccc([nH]5)c(-c5c(F)cc(S(=O)(=O)[O-])cc5F)c5nc(c(-c6c(F)cc(S(=O)(=O)[O-])cc6F)c6ccc3[nH]6)C=C5)C=C4)cc2)cc(C(F)(F)F)c1
REMARK SMILES IDX 15 1 14 2 13 3 11 4 12 5 10 7 8 8 9 9 92 10 87 11 86 12 4 13
REMARK SMILES IDX 3 14 2 15 1 16 5 17 6 18 7 19 88 20 89 21 90 22 91 23 16 24
REMARK SMILES IDX 17 25 18 26 19 28 20 29 21 30 85 31 22 32 84 33 23 34 24 35
REMARK SMILES IDX 25 36 78 37 26 38 83 39 77 40 79 41 27 42 82 43 76 44 75 45
REMARK SMILES IDX 28 47 62 48 41 49 61 50 42 51 45 52 60 53 80 54 43 55 44 56
REMARK SMILES IDX 59 58 81 59 46 60 29 61 30 62 39 63 31 64 32 65 38 66 40 67
REMARK SMILES IDX 33 68 34 69 35 70 36 71 37 72 63 73 64 74 73 75 65 76 66 77
REMARK SMILES IDX 72 78 74 79 67 80 68 81 69 82 70 83 71 84 47 85 48 86 57 87
REMARK SMILES IDX 49 88 50 89 56 90 58 91 51 92 52 93 53 94 54 95 55 96
REMARK H PARENT 13 6 17 27 79 46 45 57
REMARK Flexibility Score: inf
ROOT
ATOM      1  C   UNL A   1      37.488  23.358  25.412  1.00  0.00     0.042 C 
ENDROOT
BRANCH   1   2
ATOM      2  C   UNL A   1      36.084  23.909  25.267  1.00  0.00     0.118 C 
BRANCH   2   3
ATOM      3  N   UNL A   1      35.092  23.389  26.202  1.00  0.00    -0.352 N 
ATOM      4  C   UNL A   1      33.749  23.684  26.350  1.00  0.00     0.251 C 
ATOM      5  O   UNL A   1      33.087  23.056  27.172  1.00  0.00    -0.269 OA
ATOM      6  H   UNL A   1      35.436  22.716  26.833  1.00  0.00     0.163 HD
BRANCH   4   7
ATOM      7  C   UNL A   1      33.135  24.829  25.625  1.00  0.00     0.042 A 
ATOM      8  C   UNL A   1      33.109  27.269  25.445  1.00  0.00     0.038 A 
ATOM      9  C   UNL A   1      33.257  26.104  26.201  1.00  0.00     0.039 A 
ATOM     10  C   UNL A   1      32.824  27.082  24.092  1.00  0.00     0.039 A 
ATOM     11  C   UNL A   1      32.584  25.826  23.522  1.00  0.00     0.058 A 
ATOM     12  C   UNL A   1      32.627  24.703  24.340  1.00  0.00     0.027 A 
BRANCH   8  13
ATOM     13  N   UNL A   1      33.309  28.538  25.963  1.00  0.00    -0.372 N 
BRANCH  13  14
ATOM     14  C   UNL A   1      33.793  28.702  27.344  1.00  0.00     0.116 C 
BRANCH  14  15
ATOM     15  C   UNL A   1      35.046  29.584  27.492  1.00  0.00     0.018 C 
ATOM     16  C   UNL A   1      34.794  31.037  27.892  1.00  0.00     0.006 C 
ENDBRANCH  14  15
ENDBRANCH  13  14
BRANCH  13  17
ATOM     17  C   UNL A   1      32.879  29.739  25.220  1.00  0.00     0.116 C 
BRANCH  17  18
ATOM     18  C   UNL A   1      31.467  30.224  25.573  1.00  0.00     0.018 C 
ATOM     19  C   UNL A   1      31.468  31.483  26.442  1.00  0.00     0.006 C 
ENDBRANCH  17  18
ENDBRANCH  13  17
ENDBRANCH   8  13
BRANCH  11  20
ATOM     20  C   UNL A   1      32.500  25.664  22.026  1.00  0.00     0.416 C 
ATOM     21  F   UNL A   1      32.462  24.348  21.674  1.00  0.00    -0.166 F 
ATOM     22  F   UNL A   1      31.381  26.224  21.496  1.00  0.00    -0.166 F 
ATOM     23  F   UNL A   1      33.554  26.203  21.356  1.00  0.00    -0.166 F 
ENDBRANCH  11  20
ENDBRANCH   4   7
ENDBRANCH   2   3
ENDBRANCH   1   2
BRANCH   1  24
ATOM     24  C   UNL A   1      38.337  24.018  26.477  1.00  0.00     0.118 C 
BRANCH  24  25
ATOM     25  N   UNL A   1      39.766  23.940  26.206  1.00  0.00    -0.352 N 
ATOM     26  C   UNL A   1      40.808  24.742  26.607  1.00  0.00     0.251 C 
ATOM     27  H   UNL A   1      40.031  23.180  25.640  1.00  0.00     0.163 HD
ATOM     28  O   UNL A   1      41.921  24.568  26.105  1.00  0.00    -0.269 OA
BRANCH  26  29
ATOM     29  C   UNL A   1      40.608  25.822  27.598  1.00  0.00     0.039 A 
ATOM     30  C   UNL A   1      39.614  25.681  28.571  1.00  0.00     0.014 A 
ATOM     31  C   UNL A   1      41.380  26.983  27.569  1.00  0.00     0.014 A 
ATOM     32  C   UNL A   1      39.458  26.660  29.557  1.00  0.00     0.010 A 
ATOM     33  C   UNL A   1      41.310  27.893  28.619  1.00  0.00     0.010 A 
ATOM     34  C   UNL A   1      40.339  27.752  29.619  1.00  0.00    -0.014 A 
BRANCH  34  35
ATOM     35  C   UNL A   1      40.259  28.766  30.704  1.00  0.00     0.031 A 
ATOM     36  C   UNL A   1      41.134  28.635  31.924  1.00  0.00     0.074 A 
ATOM     37  C   UNL A   1      39.347  29.757  30.628  1.00  0.00     0.049 A 
ATOM     38  N   UNL A   1      41.147  29.358  33.014  1.00  0.00    -0.248 NA
ATOM     39  C   UNL A   1      42.099  27.522  31.937  1.00  0.00     0.031 C 
ATOM     40  C   UNL A   1      38.404  29.959  29.525  1.00  0.00     0.029 A 
ATOM     41  N   UNL A   1      39.055  30.776  31.501  1.00  0.00    -0.354 N 
ATOM     42  C   UNL A   1      42.099  28.777  33.845  1.00  0.00     0.074 A 
ATOM     43  C   UNL A   1      42.596  27.605  33.162  1.00  0.00     0.031 C 
ATOM     44  C   UNL A   1      37.661  31.050  29.773  1.00  0.00     0.029 A 
ATOM     45  C   UNL A   1      38.040  31.599  31.071  1.00  0.00     0.049 A 
ATOM     46  H   UNL A   1      39.528  30.905  32.354  1.00  0.00     0.167 HD
ATOM     47  C   UNL A   1      42.539  29.197  35.054  1.00  0.00     0.037 A 
ATOM     48  C   UNL A   1      37.470  32.669  31.659  1.00  0.00     0.037 A 
ATOM     49  C   UNL A   1      42.063  30.384  35.713  1.00  0.00     0.049 A 
ATOM     50  C   UNL A   1      37.978  33.118  33.004  1.00  0.00     0.074 A 
ATOM     51  C   UNL A   1      42.489  30.935  36.908  1.00  0.00     0.029 A 
ATOM     52  N   UNL A   1      41.051  31.205  35.233  1.00  0.00    -0.354 N 
ATOM     53  N   UNL A   1      38.927  32.595  33.743  1.00  0.00    -0.248 NA
ATOM     54  C   UNL A   1      37.342  34.304  33.592  1.00  0.00     0.031 C 
ATOM     55  C   UNL A   1      41.700  32.058  37.178  1.00  0.00     0.029 A 
ATOM     56  C   UNL A   1      40.822  32.242  36.121  1.00  0.00     0.049 A 
ATOM     57  H   UNL A   1      40.567  31.069  34.387  1.00  0.00     0.167 HD
ATOM     58  C   UNL A   1      39.024  33.407  34.869  1.00  0.00     0.074 A 
ATOM     59  C   UNL A   1      38.044  34.461  34.706  1.00  0.00     0.031 C 
ATOM     60  C   UNL A   1      39.849  33.291  35.939  1.00  0.00     0.037 A 
BRANCH  47  61
ATOM     61  C   UNL A   1      43.596  28.372  35.741  1.00  0.00     0.058 A 
ATOM     62  C   UNL A   1      43.266  27.347  36.643  1.00  0.00     0.135 A 
ATOM     63  C   UNL A   1      44.958  28.584  35.466  1.00  0.00     0.135 A 
ATOM     64  F   UNL A   1      41.982  27.109  36.957  1.00  0.00    -0.206 F 
ATOM     65  C   UNL A   1      44.245  26.585  37.272  1.00  0.00     0.059 A 
ATOM     66  C   UNL A   1      45.954  27.811  36.058  1.00  0.00     0.059 A 
ATOM     67  F   UNL A   1      45.333  29.551  34.614  1.00  0.00    -0.206 F 
ATOM     68  C   UNL A   1      45.587  26.823  36.971  1.00  0.00     0.060 A 
BRANCH  68  69
ATOM     69  S   UNL A   1      46.843  25.817  37.788  1.00  0.00     0.124 S 
ATOM     70  O   UNL A   1      46.071  24.636  38.162  1.00  0.00    -0.237 OA
ATOM     71  O   UNL A   1      47.825  25.623  36.725  1.00  0.00    -0.237 OA
ATOM     72  O   UNL A   1      47.283  26.656  38.898  1.00  0.00    -0.744 OA
ENDBRANCH  68  69
ENDBRANCH  47  61
BRANCH  48  73
ATOM     73  C   UNL A   1      36.374  33.405  30.971  1.00  0.00     0.058 A 
ATOM     74  C   UNL A   1      35.056  33.346  31.448  1.00  0.00     0.135 A 
ATOM     75  C   UNL A   1      36.621  34.187  29.833  1.00  0.00     0.135 A 
ATOM     76  F   UNL A   1      34.766  32.606  32.530  1.00  0.00    -0.206 F 
ATOM     77  C   UNL A   1      34.017  34.019  30.811  1.00  0.00     0.059 A 
ATOM     78  C   UNL A   1      35.604  34.894  29.196  1.00  0.00     0.059 A 
ATOM     79  F   UNL A   1      37.866  34.293  29.345  1.00  0.00    -0.206 F 
ATOM     80  C   UNL A   1      34.304  34.793  29.685  1.00  0.00     0.060 A 
BRANCH  80  81
ATOM     81  S   UNL A   1      32.956  35.697  28.893  1.00  0.00     0.124 S 
ATOM     82  O   UNL A   1      32.353  34.660  28.064  1.00  0.00    -0.237 OA
ATOM     83  O   UNL A   1      32.168  36.137  30.039  1.00  0.00    -0.237 OA
ATOM     84  O   UNL A   1      33.645  36.761  28.170  1.00  0.00    -0.744 OA
ENDBRANCH  80  81
ENDBRANCH  48  73
BRANCH  60  85
ATOM     85  C   UNL A   1      39.761  34.352  37.002  1.00  0.00     0.058 A 
ATOM     86  C   UNL A   1      39.028  34.160  38.183  1.00  0.00     0.135 A 
ATOM     87  C   UNL A   1      40.468  35.557  36.858  1.00  0.00     0.135 A 
ATOM     88  F   UNL A   1      38.330  33.029  38.369  1.00  0.00    -0.206 F 
ATOM     89  C   UNL A   1      38.979  35.135  39.173  1.00  0.00     0.059 A 
ATOM     90  C   UNL A   1      40.460  36.533  37.849  1.00  0.00     0.059 A 
ATOM     91  F   UNL A   1      41.194  35.787  35.752  1.00  0.00    -0.206 F 
ATOM     92  C   UNL A   1      39.702  36.318  38.999  1.00  0.00     0.060 A 
BRANCH  92  93
ATOM     93  S   UNL A   1      39.657  37.559  40.308  1.00  0.00     0.124 S 
ATOM     94  O   UNL A   1      41.077  37.815  40.521  1.00  0.00    -0.237 OA
ATOM     95  O   UNL A   1      38.903  38.642  39.684  1.00  0.00    -0.237 OA
ATOM     96  O   UNL A   1      38.972  36.875  41.402  1.00  0.00    -0.744 OA
ENDBRANCH  92  93
ENDBRANCH  60  85
ENDBRANCH  34  35
ENDBRANCH  26  29
ENDBRANCH  24  25
ENDBRANCH   1  24
TORSDOF 19
ENDMDL
MODEL 2
REMARK VINA RESULT:     -10.7      1.480      2.498
REMARK SMILES CCCN(CCC)c1cc(C(=O)NCCCNC(=O)c2ccc(-c3c4nc(c(-c5c(F)cc(S(=O)(=O)[O-])cc5F)c5ccc([nH]5)c(-c5c(F)cc(S(=O)(=O)[O-])cc5F)c5nc(c(-c6c(F)cc(S(=O)(=O)[O-])cc6F)c6ccc3[nH]6)C=C5)C=C4)cc2)cc(C(F)(F)F)c1
REMARK SMILES IDX 15 1 14 2 13 3 11 4 12 5 10 7 8 8 9 9 92 10 87 11 86 12 4 13
REMARK SMILES IDX 3 14 2 15 1 16 5 17 6 18 7 19 88 20 89 21 90 22 91 23 16 24
REMARK SMILES IDX 17 25 18 26 19 28 20 29 21 30 85 31 22 32 84 33 23 34 24 35
REMARK SMILES IDX 25 36 78 37 26 38 83 39 77 40 79 41 27 42 82 43 76 44 75 45
REMARK SMILES IDX 28 47 62 48 41 49 61 50 42 51 45 52 60 53 80 54 43 55 44 56
REMARK SMILES IDX 59 58 81 59 46 60 29 61 30 62 39 63 31 64 32 65 38 66 40 67
REMARK SMILES IDX 33 68 34 69 35 70 36 71 37 72 63 73 64 74 73 75 65 76 66 77
REMARK SMILES IDX 72 78 74 79 67 80 68 81 69 82 70 83 71 84 47 85 48 86 57 87
REMARK SMILES IDX 49 88 50 89 56 90 58 91 51 92 52 93 53 94 54 95 55 96
REMARK H PARENT 13 6 17 27 79 46 45 57
REMARK Flexibility Score: inf
ROOT
ATOM      1  C   UNL A   1      39.099  22.414  26.677  1.00  0.00     0.042 C 
ENDROOT
BRANCH   1   2
ATOM      2  C   UNL A   1      38.085  23.340  26.038  1.00  0.00     0.118 C 
BRANCH   2   3
ATOM      3  N   UNL A   1      37.779  23.084  24.634  1.00  0.00    -0.352 N 
ATOM      4  C   UNL A   1      36.592  23.191  23.935  1.00  0.00     0.251 C 
ATOM      5  O   UNL A   1      36.592  22.990  22.723  1.00  0.00    -0.269 OA
ATOM      6  H   UNL A   1      38.547  22.785  24.095  1.00  0.00     0.163 HD
BRANCH   4   7
ATOM      7  C   UNL A   1      35.305  23.417  24.647  1.00  0.00     0.042 A 
ATOM      8  C   UNL A   1      33.489  25.021  24.987  1.00  0.00     0.038 A 
ATOM      9  C   UNL A   1      34.833  24.736  24.735  1.00  0.00     0.039 A 
ATOM     10  C   UNL A   1      32.655  23.914  25.153  1.00  0.00     0.039 A 
ATOM     11  C   UNL A   1      33.124  22.595  25.185  1.00  0.00     0.058 A 
ATOM     12  C   UNL A   1      34.488  22.369  25.047  1.00  0.00     0.027 A 
BRANCH   8  13
ATOM     13  N   UNL A   1      32.976  26.307  24.992  1.00  0.00    -0.372 N 
BRANCH  13  14
ATOM     14  C   UNL A   1      32.893  27.063  26.254  1.00  0.00     0.116 C 
BRANCH  14  15
ATOM     15  C   UNL A   1      34.037  28.068  26.485  1.00  0.00     0.018 C 
ATOM     16  C   UNL A   1      33.611  29.506  26.771  1.00  0.00     0.006 C 
ENDBRANCH  14  15
ENDBRANCH  13  14
BRANCH  13  17
ATOM     17  C   UNL A   1      32.343  26.879  23.787  1.00  0.00     0.116 C 
BRANCH  17  18
ATOM     18  C   UNL A   1      33.328  27.217  22.661  1.00  0.00     0.018 C 
ATOM     19  C   UNL A   1      33.967  28.597  22.821  1.00  0.00     0.006 C 
ENDBRANCH  17  18
ENDBRANCH  13  17
ENDBRANCH   8  13
BRANCH  11  20
ATOM     20  C   UNL A   1      32.161  21.437  25.148  1.00  0.00     0.416 C 
ATOM     21  F   UNL A   1      31.910  21.045  23.867  1.00  0.00    -0.166 F 
ATOM     22  F   UNL A   1      32.634  20.336  25.788  1.00  0.00    -0.166 F 
ATOM     23  F   UNL A   1      30.950  21.713  25.701  1.00  0.00    -0.166 F 
ENDBRANCH  11  20
ENDBRANCH   4   7
ENDBRANCH   2   3
ENDBRANCH   1   2
BRANCH   1  24
ATOM     24  C   UNL A   1      40.379  23.075  27.142  1.00  0.00     0.118 C 
BRANCH  24  25
ATOM     25  N   UNL A   1      41.024  23.873  26.107  1.00  0.00    -0.352 N 
ATOM     26  C   UNL A   1      41.393  25.196  26.083  1.00  0.00     0.251 C 
ATOM     27  H   UNL A   1      41.232  23.378  25.283  1.00  0.00     0.163 HD
ATOM     28  O   UNL A   1      41.775  25.690  25.020  1.00  0.00    -0.269 OA
BRANCH  26  29
ATOM     29  C   UNL A   1      41.310  26.038  27.298  1.00  0.00     0.039 A 
ATOM     30  C   UNL A   1      42.355  26.919  27.593  1.00  0.00     0.014 A 
ATOM     31  C   UNL A   1      40.216  25.957  28.160  1.00  0.00     0.014 A 
ATOM     32  C   UNL A   1      42.259  27.770  28.697  1.00  0.00     0.010 A 
ATOM     33  C   UNL A   1      40.064  26.888  29.182  1.00  0.00     0.010 A 
ATOM     34  C   UNL A   1      41.089  27.798  29.474  1.00  0.00    -0.014 A 
BRANCH  34  35
ATOM     35  C   UNL A   1      40.918  28.750  30.603  1.00  0.00     0.031 A 
ATOM     36  C   UNL A   1      41.774  28.617  31.837  1.00  0.00     0.074 A 
ATOM     37  C   UNL A   1      39.943  29.680  30.553  1.00  0.00     0.049 A 
ATOM     38  N   UNL A   1      41.715  29.285  32.960  1.00  0.00    -0.248 NA
ATOM     39  C   UNL A   1      42.812  27.572  31.820  1.00  0.00     0.031 C 
ATOM     40  C   UNL A   1      39.011  29.873  29.439  1.00  0.00     0.029 A 
ATOM     41  N   UNL A   1      39.564  30.633  31.466  1.00  0.00    -0.354 N 
ATOM     42  C   UNL A   1      42.687  28.729  33.785  1.00  0.00     0.074 A 
ATOM     43  C   UNL A   1      43.277  27.628  33.059  1.00  0.00     0.031 C 
ATOM     44  C   UNL A   1      38.191  30.898  29.720  1.00  0.00     0.029 A 
ATOM     45  C   UNL A   1      38.505  31.407  31.052  1.00  0.00     0.049 A 
ATOM     46  H   UNL A   1      40.009  30.752  32.336  1.00  0.00     0.167 HD
ATOM     47  C   UNL A   1      43.073  29.118  35.023  1.00  0.00     0.037 A 
ATOM     48  C   UNL A   1      37.852  32.406  31.676  1.00  0.00     0.037 A 
ATOM     49  C   UNL A   1      42.503  30.236  35.726  1.00  0.00     0.049 A 
ATOM     50  C   UNL A   1      38.300  32.821  33.053  1.00  0.00     0.074 A 
ATOM     51  C   UNL A   1      42.866  30.755  36.956  1.00  0.00     0.029 A 
ATOM     52  N   UNL A   1      41.448  31.010  35.262  1.00  0.00    -0.354 N 
ATOM     53  N   UNL A   1      39.266  32.327  33.789  1.00  0.00    -0.248 NA
ATOM     54  C   UNL A   1      37.572  33.932  33.682  1.00  0.00     0.031 C 
ATOM     55  C   UNL A   1      41.997  31.808  37.260  1.00  0.00     0.029 A 
ATOM     56  C   UNL A   1      41.131  31.985  36.193  1.00  0.00     0.049 A 
ATOM     57  H   UNL A   1      40.992  30.884  34.398  1.00  0.00     0.167 HD
ATOM     58  C   UNL A   1      39.284  33.088  34.954  1.00  0.00     0.074 A 
ATOM     59  C   UNL A   1      38.239  34.081  34.818  1.00  0.00     0.031 C 
ATOM     60  C   UNL A   1      40.093  32.974  36.037  1.00  0.00     0.037 A 
BRANCH  47  61
ATOM     61  C   UNL A   1      44.169  28.332  35.695  1.00  0.00     0.058 A 
ATOM     62  C   UNL A   1      43.890  27.252  36.548  1.00  0.00     0.135 A 
ATOM     63  C   UNL A   1      45.519  28.639  35.454  1.00  0.00     0.135 A 
ATOM     64  F   UNL A   1      42.619  26.922  36.828  1.00  0.00    -0.206 F 
ATOM     65  C   UNL A   1      44.905  26.526  37.163  1.00  0.00     0.059 A 
ATOM     66  C   UNL A   1      46.552  27.907  36.032  1.00  0.00     0.059 A 
ATOM     67  F   UNL A   1      45.845  29.663  34.649  1.00  0.00    -0.206 F 
ATOM     68  C   UNL A   1      46.233  26.860  36.897  1.00  0.00     0.060 A 
BRANCH  68  69
ATOM     69  S   UNL A   1      47.538  25.902  37.695  1.00  0.00     0.124 S 
ATOM     70  O   UNL A   1      46.875  24.615  37.889  1.00  0.00    -0.237 OA
ATOM     71  O   UNL A   1      48.597  25.924  36.692  1.00  0.00    -0.237 OA
ATOM     72  O   UNL A   1      47.817  26.653  38.914  1.00  0.00    -0.744 OA
ENDBRANCH  68  69
ENDBRANCH  47  61
BRANCH  48  73
ATOM     73  C   UNL A   1      36.723  33.100  30.998  1.00  0.00     0.058 A 
ATOM     74  C   UNL A   1      36.955  33.992  29.940  1.00  0.00     0.135 A 
ATOM     75  C   UNL A   1      35.392  32.880  31.385  1.00  0.00     0.135 A 
ATOM     76  F   UNL A   1      38.211  34.241  29.537  1.00  0.00    -0.206 F 
ATOM     77  C   UNL A   1      35.912  34.657  29.302  1.00  0.00     0.059 A 
ATOM     78  C   UNL A   1      34.329  33.511  30.742  1.00  0.00     0.059 A 
ATOM     79  F   UNL A   1      35.111  32.024  32.379  1.00  0.00    -0.206 F 
ATOM     80  C   UNL A   1      34.601  34.407  29.710  1.00  0.00     0.060 A 
BRANCH  80  81
ATOM     81  S   UNL A   1      33.253  35.242  28.846  1.00  0.00     0.124 S 
ATOM     82  O   UNL A   1      32.472  35.769  29.960  1.00  0.00    -0.237 OA
ATOM     83  O   UNL A   1      33.969  36.229  28.045  1.00  0.00    -0.237 OA
ATOM     84  O   UNL A   1      32.623  34.166  28.087  1.00  0.00    -0.744 OA
ENDBRANCH  80  81
ENDBRANCH  48  73
BRANCH  60  85
ATOM     85  C   UNL A   1      39.912  33.974  37.147  1.00  0.00     0.058 A 
ATOM     86  C   UNL A   1      40.556  35.220  37.135  1.00  0.00     0.135 A 
ATOM     87  C   UNL A   1      39.035  33.699  38.209  1.00  0.00     0.135 A 
ATOM     88  F   UNL A   1      41.409  35.531  36.146  1.00  0.00    -0.206 F 
ATOM     89  C   UNL A   1      40.357  36.149  38.150  1.00  0.00     0.059 A 
ATOM     90  C   UNL A   1      38.795  34.626  39.218  1.00  0.00     0.059 A 
ATOM     91  F   UNL A   1      38.384  32.526  38.263  1.00  0.00    -0.206 F 
ATOM     92  C   UNL A   1      39.471  35.845  39.186  1.00  0.00     0.060 A 
BRANCH  92  93
ATOM     93  S   UNL A   1      39.196  37.075  40.477  1.00  0.00     0.124 S 
ATOM     94  O   UNL A   1      38.266  37.988  39.822  1.00  0.00    -0.237 OA
ATOM     95  O   UNL A   1      38.638  36.271  41.560  1.00  0.00    -0.237 OA
ATOM     96  O   UNL A   1      40.531  37.611  40.727  1.00  0.00    -0.744 OA
ENDBRANCH  92  93
ENDBRANCH  60  85
ENDBRANCH  34  35
ENDBRANCH  26  29
ENDBRANCH  24  25
ENDBRANCH   1  24
TORSDOF 19
ENDMDL
MODEL 3
REMARK VINA RESULT:     -10.6      6.553     12.048
REMARK SMILES CCCN(CCC)c1cc(C(=O)NCCCNC(=O)c2ccc(-c3c4nc(c(-c5c(F)cc(S(=O)(=O)[O-])cc5F)c5ccc([nH]5)c(-c5c(F)cc(S(=O)(=O)[O-])cc5F)c5nc(c(-c6c(F)cc(S(=O)(=O)[O-])cc6F)c6ccc3[nH]6)C=C5)C=C4)cc2)cc(C(F)(F)F)c1
REMARK SMILES IDX 15 1 14 2 13 3 11 4 12 5 10 7 8 8 9 9 92 10 87 11 86 12 4 13
REMARK SMILES IDX 3 14 2 15 1 16 5 17 6 18 7 19 88 20 89 21 90 22 91 23 16 24
REMARK SMILES IDX 17 25 18 26 19 28 20 29 21 30 85 31 22 32 84 33 23 34 24 35
REMARK SMILES IDX 25 36 78 37 26 38 83 39 77 40 79 41 27 42 82 43 76 44 75 45
REMARK SMILES IDX 28 47 62 48 41 49 61 50 42 51 45 52 60 53 80 54 43 55 44 56
REMARK SMILES IDX 59 58 81 59 46 60 29 61 30 62 39 63 31 64 32 65 38 66 40 67
REMARK SMILES IDX 33 68 34 69 35 70 36 71 37 72 63 73 64 74 73 75 65 76 66 77
REMARK SMILES IDX 72 78 74 79 67 80 68 81 69 82 70 83 71 84 47 85 48 86 57 87
REMARK SMILES IDX 49 88 50 89 56 90 58 91 51 92 52 93 53 94 54 95 55 96
REMARK H PARENT 13 6 17 27 79 46 45 57
REMARK Flexibility Score: inf
ROOT
ATOM      1  C   UNL A   1      34.480  31.207  27.382  1.00  0.00     0.042 C 
ENDROOT
BRANCH   1   2
ATOM      2  C   UNL A   1      34.259  29.710  27.301  1.00  0.00     0.118 C 
BRANCH   2   3
ATOM      3  N   UNL A   1      33.046  29.206  27.934  1.00  0.00    -0.352 N 
ATOM      4  C   UNL A   1      32.156  28.228  27.531  1.00  0.00     0.251 C 
ATOM      5  O   UNL A   1      31.230  27.918  28.277  1.00  0.00    -0.269 OA
ATOM      6  H   UNL A   1      32.823  29.635  28.792  1.00  0.00     0.163 HD
BRANCH   4   7
ATOM      7  C   UNL A   1      32.231  27.645  26.165  1.00  0.00     0.042 A 
ATOM      8  C   UNL A   1      32.639  25.580  24.916  1.00  0.00     0.038 A 
ATOM      9  C   UNL A   1      32.869  26.402  26.022  1.00  0.00     0.039 A 
ATOM     10  C   UNL A   1      31.746  26.078  23.966  1.00  0.00     0.039 A 
ATOM     11  C   UNL A   1      31.190  27.361  24.030  1.00  0.00     0.058 A 
ATOM     12  C   UNL A   1      31.541  28.188  25.090  1.00  0.00     0.027 A 
BRANCH   8  13
ATOM     13  N   UNL A   1      33.183  24.313  24.788  1.00  0.00    -0.372 N 
BRANCH  13  14
ATOM     14  C   UNL A   1      33.598  23.819  23.465  1.00  0.00     0.116 C 
BRANCH  14  15
ATOM     15  C   UNL A   1      33.481  22.295  23.274  1.00  0.00     0.018 C 
ATOM     16  C   UNL A   1      32.162  21.798  22.686  1.00  0.00     0.006 C 
ENDBRANCH  14  15
ENDBRANCH  13  14
BRANCH  13  17
ATOM     17  C   UNL A   1      33.195  23.373  25.926  1.00  0.00     0.116 C 
BRANCH  17  18
ATOM     18  C   UNL A   1      31.886  23.336  26.725  1.00  0.00     0.018 C 
ATOM     19  C   UNL A   1      30.755  22.622  25.984  1.00  0.00     0.006 C 
ENDBRANCH  17  18
ENDBRANCH  13  17
ENDBRANCH   8  13
BRANCH  11  20
ATOM     20  C   UNL A   1      30.072  27.761  23.103  1.00  0.00     0.416 C 
ATOM     21  F   UNL A   1      28.988  26.950  23.258  1.00  0.00    -0.166 F 
ATOM     22  F   UNL A   1      29.626  29.025  23.326  1.00  0.00    -0.166 F 
ATOM     23  F   UNL A   1      30.404  27.697  21.785  1.00  0.00    -0.166 F 
ENDBRANCH  11  20
ENDBRANCH   4   7
ENDBRANCH   2   3
ENDBRANCH   1   2
BRANCH   1  24
ATOM     24  C   UNL A   1      35.682  31.641  28.193  1.00  0.00     0.118 C 
BRANCH  24  25
ATOM     25  N   UNL A   1      35.545  31.372  29.617  1.00  0.00    -0.352 N 
ATOM     26  C   UNL A   1      36.327  30.641  30.480  1.00  0.00     0.251 C 
ATOM     27  H   UNL A   1      34.756  31.785  30.035  1.00  0.00     0.163 HD
ATOM     28  O   UNL A   1      35.910  30.415  31.618  1.00  0.00    -0.269 OA
BRANCH  26  29
ATOM     29  C   UNL A   1      37.636  30.098  30.055  1.00  0.00     0.039 A 
ATOM     30  C   UNL A   1      37.961  30.084  28.694  1.00  0.00     0.014 A 
ATOM     31  C   UNL A   1      38.543  29.585  30.982  1.00  0.00     0.014 A 
ATOM     32  C   UNL A   1      39.221  29.640  28.283  1.00  0.00     0.010 A 
ATOM     33  C   UNL A   1      39.837  29.263  30.587  1.00  0.00     0.010 A 
ATOM     34  C   UNL A   1      40.190  29.272  29.231  1.00  0.00    -0.014 A 
BRANCH  34  35
ATOM     35  C   UNL A   1      41.567  28.876  28.835  1.00  0.00     0.031 A 
ATOM     36  C   UNL A   1      42.664  29.911  28.789  1.00  0.00     0.074 A 
ATOM     37  C   UNL A   1      41.815  27.610  28.442  1.00  0.00     0.049 A 
ATOM     38  N   UNL A   1      43.901  29.787  28.381  1.00  0.00    -0.248 NA
ATOM     39  C   UNL A   1      42.314  31.274  29.224  1.00  0.00     0.031 C 
ATOM     40  C   UNL A   1      40.826  26.531  28.388  1.00  0.00     0.029 A 
ATOM     41  N   UNL A   1      42.972  27.017  28.002  1.00  0.00    -0.354 N 
ATOM     42  C   UNL A   1      44.465  31.053  28.491  1.00  0.00     0.074 A 
ATOM     43  C   UNL A   1      43.421  31.944  28.941  1.00  0.00     0.031 C 
ATOM     44  C   UNL A   1      41.424  25.403  27.972  1.00  0.00     0.029 A 
ATOM     45  C   UNL A   1      42.826  25.687  27.684  1.00  0.00     0.049 A 
ATOM     46  H   UNL A   1      43.827  27.499  27.923  1.00  0.00     0.167 HD
ATOM     47  C   UNL A   1      45.745  31.433  28.266  1.00  0.00     0.037 A 
ATOM     48  C   UNL A   1      43.717  24.798  27.203  1.00  0.00     0.037 A 
ATOM     49  C   UNL A   1      46.788  30.533  27.850  1.00  0.00     0.049 A 
ATOM     50  C   UNL A   1      45.135  25.244  26.961  1.00  0.00     0.074 A 
ATOM     51  C   UNL A   1      48.131  30.802  27.658  1.00  0.00     0.029 A 
ATOM     52  N   UNL A   1      46.604  29.188  27.561  1.00  0.00    -0.354 N 
ATOM     53  N   UNL A   1      45.667  26.431  27.136  1.00  0.00    -0.248 NA
ATOM     54  C   UNL A   1      46.074  24.232  26.460  1.00  0.00     0.031 C 
ATOM     55  C   UNL A   1      48.750  29.634  27.201  1.00  0.00     0.029 A 
ATOM     56  C   UNL A   1      47.805  28.621  27.167  1.00  0.00     0.049 A 
ATOM     57  H   UNL A   1      45.748  28.708  27.626  1.00  0.00     0.167 HD
ATOM     58  C   UNL A   1      47.010  26.299  26.799  1.00  0.00     0.074 A 
ATOM     59  C   UNL A   1      47.210  24.915  26.420  1.00  0.00     0.031 C 
ATOM     60  C   UNL A   1      47.989  27.238  26.803  1.00  0.00     0.037 A 
BRANCH  47  61
ATOM     61  C   UNL A   1      46.092  32.885  28.472  1.00  0.00     0.058 A 
ATOM     62  C   UNL A   1      46.526  33.374  29.714  1.00  0.00     0.135 A 
ATOM     63  C   UNL A   1      46.024  33.794  27.402  1.00  0.00     0.135 A 
ATOM     64  F   UNL A   1      46.596  32.556  30.777  1.00  0.00    -0.206 F 
ATOM     65  C   UNL A   1      46.850  34.715  29.898  1.00  0.00     0.059 A 
ATOM     66  C   UNL A   1      46.374  35.133  27.555  1.00  0.00     0.059 A 
ATOM     67  F   UNL A   1      45.614  33.383  26.192  1.00  0.00    -0.206 F 
ATOM     68  C   UNL A   1      46.772  35.586  28.811  1.00  0.00     0.060 A 
BRANCH  68  69
ATOM     69  S   UNL A   1      47.205  37.319  29.066  1.00  0.00     0.124 S 
ATOM     70  O   UNL A   1      46.368  37.978  28.067  1.00  0.00    -0.237 OA
ATOM     71  O   UNL A   1      46.820  37.535  30.457  1.00  0.00    -0.237 OA
ATOM     72  O   UNL A   1      48.640  37.355  28.803  1.00  0.00    -0.744 OA
ENDBRANCH  68  69
ENDBRANCH  47  61
BRANCH  48  73
ATOM     73  C   UNL A   1      43.303  23.391  26.943  1.00  0.00     0.058 A 
ATOM     74  C   UNL A   1      43.030  22.949  25.639  1.00  0.00     0.135 A 
ATOM     75  C   UNL A   1      43.183  22.460  27.985  1.00  0.00     0.135 A 
ATOM     76  F   UNL A   1      43.124  23.803  24.608  1.00  0.00    -0.206 F 
ATOM     77  C   UNL A   1      42.632  21.642  25.379  1.00  0.00     0.059 A 
ATOM     78  C   UNL A   1      42.816  21.138  27.747  1.00  0.00     0.059 A 
ATOM     79  F   UNL A   1      43.451  22.825  29.248  1.00  0.00    -0.206 F 
ATOM     80  C   UNL A   1      42.530  20.742  26.442  1.00  0.00     0.060 A 
BRANCH  80  81
ATOM     81  S   UNL A   1      42.056  19.036  26.088  1.00  0.00     0.124 S 
ATOM     82  O   UNL A   1      42.915  18.721  24.952  1.00  0.00    -0.237 OA
ATOM     83  O   UNL A   1      42.381  18.362  27.341  1.00  0.00    -0.237 OA
ATOM     84  O   UNL A   1      40.631  19.139  25.791  1.00  0.00    -0.744 OA
ENDBRANCH  80  81
ENDBRANCH  48  73
BRANCH  60  85
ATOM     85  C   UNL A   1      49.377  26.795  26.426  1.00  0.00     0.058 A 
ATOM     86  C   UNL A   1      50.268  26.263  27.371  1.00  0.00     0.135 A 
ATOM     87  C   UNL A   1      49.799  26.854  25.088  1.00  0.00     0.135 A 
ATOM     88  F   UNL A   1      49.917  26.190  28.665  1.00  0.00    -0.206 F 
ATOM     89  C   UNL A   1      51.537  25.828  27.007  1.00  0.00     0.059 A 
ATOM     90  C   UNL A   1      51.052  26.394  24.695  1.00  0.00     0.059 A 
ATOM     91  F   UNL A   1      48.982  27.343  24.142  1.00  0.00    -0.206 F 
ATOM     92  C   UNL A   1      51.919  25.894  25.665  1.00  0.00     0.060 A 
BRANCH  92  93
ATOM     93  S   UNL A   1      53.556  25.293  25.202  1.00  0.00     0.124 S 
ATOM     94  O   UNL A   1      54.393  25.890  26.236  1.00  0.00    -0.237 OA
ATOM     95  O   UNL A   1      53.389  23.845  25.278  1.00  0.00    -0.237 OA
ATOM     96  O   UNL A   1      53.746  25.826  23.856  1.00  0.00    -0.744 OA
ENDBRANCH  92  93
ENDBRANCH  60  85
ENDBRANCH  34  35
ENDBRANCH  26  29
ENDBRANCH  24  25
ENDBRANCH   1  24
TORSDOF 19
ENDMDL
