MODEL 1
REMARK VINA RESULT:     -12.6      0.000      0.000
REMARK SMILES CCCn1ncc(C(=O)N2CCC(C(=O)NCCCNC(=O)c3ccc(-c4c5nc(c(-c6c(F)cc(S(=O)(=O)[O-])cc6F)c6ccc([nH]6)c(-c6c(F)cc(S(=O)(=O)[O-])cc6F)c6nc(c(-c7c(F)cc(S(=O)(=O)[O-])cc7F)c7ccc4[nH]7)C=C6)C=C5)cc3)CC2)c1C
REMARK SMILES IDX 18 1 17 2 16 3 14 4 15 5 13 7 8 8 9 9 10 10 11 11 90 12
REMARK SMILES IDX 12 13 89 14 7 15 4 16 5 17 91 18 6 19 92 20 3 21 2 22 1 23
REMARK SMILES IDX 19 24 20 25 21 26 22 28 23 29 24 30 88 31 25 32 87 33 26 34
REMARK SMILES IDX 27 35 28 36 81 37 29 38 86 39 80 40 82 41 30 42 85 43 79 44
REMARK SMILES IDX 78 45 31 47 65 48 44 49 64 50 45 51 48 52 63 53 83 54 46 55
REMARK SMILES IDX 47 56 62 58 84 59 49 60 32 61 33 62 42 63 34 64 35 65 41 66
REMARK SMILES IDX 43 67 36 68 37 69 38 70 39 71 40 72 66 73 67 74 76 75 68 76
REMARK SMILES IDX 69 77 75 78 77 79 70 80 71 81 72 82 73 83 74 84 50 85 51 86
REMARK SMILES IDX 60 87 52 88 53 89 59 90 61 91 54 92 55 93 56 94 57 95 58 96
REMARK H PARENT 16 6 20 27 82 46 48 57
REMARK Flexibility Score: inf
ROOT
ATOM      1  C   UNL A   1      38.573  22.211  26.078  1.00  0.00     0.042 C 
ENDROOT
BRANCH   1   2
ATOM      2  C   UNL A   1      37.519  23.282  25.799  1.00  0.00     0.117 C 
BRANCH   2   3
ATOM      3  N   UNL A   1      36.210  23.006  26.383  1.00  0.00    -0.356 N 
ATOM      4  C   UNL A   1      34.978  23.518  26.097  1.00  0.00     0.223 C 
ATOM      5  O   UNL A   1      33.996  23.022  26.652  1.00  0.00    -0.275 OA
ATOM      6  H   UNL A   1      36.218  22.337  27.105  1.00  0.00     0.163 HD
BRANCH   4   7
ATOM      7  C   UNL A   1      34.802  24.668  25.115  1.00  0.00     0.082 C 
ATOM      8  C   UNL A   1      31.453  25.911  23.242  1.00  0.00     0.257 C 
ATOM      9  O   UNL A   1      30.925  24.836  22.962  1.00  0.00    -0.269 OA
ATOM     10  N   UNL A   1      32.799  25.999  23.570  1.00  0.00    -0.338 N 
ATOM     11  C   UNL A   1      33.756  25.181  22.854  1.00  0.00     0.120 C 
ATOM     12  C   UNL A   1      33.318  26.733  24.713  1.00  0.00     0.120 C 
ATOM     13  C   UNL A   1      34.353  24.125  23.752  1.00  0.00     0.035 C 
ATOM     14  C   UNL A   1      33.953  25.795  25.734  1.00  0.00     0.035 C 
BRANCH   8  15
ATOM     15  C   UNL A   1      30.750  27.181  23.090  1.00  0.00     0.080 A 
ATOM     16  N   UNL A   1      29.193  28.745  22.931  1.00  0.00    -0.269 N 
ATOM     17  N   UNL A   1      30.290  29.308  22.398  1.00  0.00    -0.180 NA
ATOM     18  C   UNL A   1      29.409  27.451  23.357  1.00  0.00     0.048 A 
ATOM     19  C   UNL A   1      31.221  28.366  22.489  1.00  0.00     0.149 A 
ATOM     20  C   UNL A   1      28.368  26.546  23.918  1.00  0.00     0.067 C 
BRANCH  16  21
ATOM     21  C   UNL A   1      27.946  29.486  22.846  1.00  0.00     0.144 C 
BRANCH  21  22
ATOM     22  C   UNL A   1      27.973  30.899  23.447  1.00  0.00     0.020 C 
ATOM     23  C   UNL A   1      27.965  32.025  22.420  1.00  0.00     0.006 C 
ENDBRANCH  21  22
ENDBRANCH  16  21
ENDBRANCH   8  15
ENDBRANCH   4   7
ENDBRANCH   2   3
ENDBRANCH   1   2
BRANCH   1  24
ATOM     24  C   UNL A   1      39.837  22.770  26.696  1.00  0.00     0.118 C 
BRANCH  24  25
ATOM     25  N   UNL A   1      41.057  22.303  26.034  1.00  0.00    -0.352 N 
ATOM     26  C   UNL A   1      42.133  23.072  25.614  1.00  0.00     0.251 C 
ATOM     27  H   UNL A   1      41.121  21.335  25.868  1.00  0.00     0.163 HD
ATOM     28  O   UNL A   1      42.940  22.652  24.812  1.00  0.00    -0.269 OA
BRANCH  26  29
ATOM     29  C   UNL A   1      42.246  24.432  26.176  1.00  0.00     0.039 A 
ATOM     30  C   UNL A   1      41.584  25.517  25.599  1.00  0.00     0.014 A 
ATOM     31  C   UNL A   1      42.928  24.562  27.380  1.00  0.00     0.014 A 
ATOM     32  C   UNL A   1      41.533  26.719  26.302  1.00  0.00     0.010 A 
ATOM     33  C   UNL A   1      42.714  25.676  28.146  1.00  0.00     0.010 A 
ATOM     34  C   UNL A   1      42.077  26.785  27.592  1.00  0.00    -0.014 A 
BRANCH  34  35
ATOM     35  C   UNL A   1      41.932  27.983  28.415  1.00  0.00     0.031 A 
ATOM     36  C   UNL A   1      42.990  29.025  28.259  1.00  0.00     0.074 A 
ATOM     37  C   UNL A   1      40.788  28.254  29.082  1.00  0.00     0.049 A 
ATOM     38  N   UNL A   1      43.835  29.442  29.144  1.00  0.00    -0.248 NA
ATOM     39  C   UNL A   1      43.205  29.606  26.924  1.00  0.00     0.031 C 
ATOM     40  C   UNL A   1      39.520  27.511  29.070  1.00  0.00     0.029 A 
ATOM     41  N   UNL A   1      40.472  29.355  29.809  1.00  0.00    -0.354 N 
ATOM     42  C   UNL A   1      44.542  30.488  28.551  1.00  0.00     0.074 A 
ATOM     43  C   UNL A   1      44.240  30.421  27.145  1.00  0.00     0.031 C 
ATOM     44  C   UNL A   1      38.526  28.312  29.506  1.00  0.00     0.029 A 
ATOM     45  C   UNL A   1      39.110  29.539  30.006  1.00  0.00     0.049 A 
ATOM     46  H   UNL A   1      41.150  29.972  30.167  1.00  0.00     0.167 HD
ATOM     47  C   UNL A   1      45.147  31.461  29.294  1.00  0.00     0.037 A 
ATOM     48  C   UNL A   1      38.505  30.647  30.500  1.00  0.00     0.037 A 
ATOM     49  C   UNL A   1      45.248  31.073  30.679  1.00  0.00     0.049 A 
ATOM     50  C   UNL A   1      39.543  31.398  31.257  1.00  0.00     0.074 A 
ATOM     51  C   UNL A   1      45.807  29.996  31.343  1.00  0.00     0.029 A 
ATOM     52  N   UNL A   1      44.378  31.644  31.579  1.00  0.00    -0.354 N 
ATOM     53  N   UNL A   1      40.126  30.944  32.337  1.00  0.00    -0.248 NA
ATOM     54  C   UNL A   1      40.278  32.436  30.547  1.00  0.00     0.031 C 
ATOM     55  C   UNL A   1      44.865  29.671  32.364  1.00  0.00     0.029 A 
ATOM     56  C   UNL A   1      43.837  30.615  32.308  1.00  0.00     0.049 A 
ATOM     57  H   UNL A   1      44.183  32.604  31.679  1.00  0.00     0.167 HD
ATOM     58  C   UNL A   1      41.458  31.317  32.210  1.00  0.00     0.074 A 
ATOM     59  C   UNL A   1      41.471  32.306  31.132  1.00  0.00     0.031 C 
ATOM     60  C   UNL A   1      42.468  30.590  32.780  1.00  0.00     0.037 A 
BRANCH  47  61
ATOM     61  C   UNL A   1      45.341  32.897  28.857  1.00  0.00     0.058 A 
ATOM     62  C   UNL A   1      46.621  33.485  28.950  1.00  0.00     0.135 A 
ATOM     63  C   UNL A   1      44.279  33.798  28.621  1.00  0.00     0.135 A 
ATOM     64  F   UNL A   1      47.707  32.728  29.174  1.00  0.00    -0.206 F 
ATOM     65  C   UNL A   1      46.819  34.867  28.902  1.00  0.00     0.059 A 
ATOM     66  C   UNL A   1      44.461  35.174  28.513  1.00  0.00     0.059 A 
ATOM     67  F   UNL A   1      43.001  33.403  28.588  1.00  0.00    -0.206 F 
ATOM     68  C   UNL A   1      45.726  35.704  28.703  1.00  0.00     0.060 A 
BRANCH  68  69
ATOM     69  S   UNL A   1      45.953  37.490  28.767  1.00  0.00     0.124 S 
ATOM     70  O   UNL A   1      44.620  37.936  29.154  1.00  0.00    -0.237 OA
ATOM     71  O   UNL A   1      46.993  37.628  29.782  1.00  0.00    -0.237 OA
ATOM     72  O   UNL A   1      46.364  37.824  27.407  1.00  0.00    -0.744 OA
ENDBRANCH  68  69
ENDBRANCH  47  61
BRANCH  48  73
ATOM     73  C   UNL A   1      37.218  31.234  30.038  1.00  0.00     0.058 A 
ATOM     74  C   UNL A   1      36.323  31.833  30.938  1.00  0.00     0.135 A 
ATOM     75  C   UNL A   1      36.949  31.445  28.667  1.00  0.00     0.135 A 
ATOM     76  F   UNL A   1      36.515  31.707  32.260  1.00  0.00    -0.206 F 
ATOM     77  C   UNL A   1      35.250  32.626  30.510  1.00  0.00     0.059 A 
ATOM     78  C   UNL A   1      35.879  32.216  28.215  1.00  0.00     0.059 A 
ATOM     79  F   UNL A   1      37.772  30.978  27.717  1.00  0.00    -0.206 F 
ATOM     80  C   UNL A   1      35.047  32.826  29.144  1.00  0.00     0.060 A 
BRANCH  80  81
ATOM     81  S   UNL A   1      33.769  33.980  28.591  1.00  0.00     0.124 S 
ATOM     82  O   UNL A   1      34.555  34.986  27.885  1.00  0.00    -0.237 OA
ATOM     83  O   UNL A   1      32.927  33.130  27.757  1.00  0.00    -0.237 OA
ATOM     84  O   UNL A   1      33.154  34.431  29.837  1.00  0.00    -0.744 OA
ENDBRANCH  80  81
ENDBRANCH  48  73
BRANCH  60  85
ATOM     85  C   UNL A   1      42.129  29.511  33.781  1.00  0.00     0.058 A 
ATOM     86  C   UNL A   1      41.923  28.159  33.457  1.00  0.00     0.135 A 
ATOM     87  C   UNL A   1      42.211  29.828  35.147  1.00  0.00     0.135 A 
ATOM     88  F   UNL A   1      41.941  27.743  32.184  1.00  0.00    -0.206 F 
ATOM     89  C   UNL A   1      41.772  27.176  34.437  1.00  0.00     0.059 A 
ATOM     90  C   UNL A   1      42.094  28.860  36.143  1.00  0.00     0.059 A 
ATOM     91  F   UNL A   1      42.471  31.089  35.530  1.00  0.00    -0.206 F 
ATOM     92  C   UNL A   1      41.864  27.536  35.781  1.00  0.00     0.060 A 
BRANCH  92  93
ATOM     93  S   UNL A   1      41.755  26.250  37.044  1.00  0.00     0.124 S 
ATOM     94  O   UNL A   1      42.935  26.518  37.858  1.00  0.00    -0.237 OA
ATOM     95  O   UNL A   1      40.470  26.533  37.677  1.00  0.00    -0.237 OA
ATOM     96  O   UNL A   1      41.798  25.009  36.274  1.00  0.00    -0.744 OA
ENDBRANCH  92  93
ENDBRANCH  60  85
ENDBRANCH  34  35
ENDBRANCH  26  29
ENDBRANCH  24  25
ENDBRANCH   1  24
TORSDOF 16
ENDMDL
MODEL 2
REMARK VINA RESULT:     -12.3      3.110      9.457
REMARK SMILES CCCn1ncc(C(=O)N2CCC(C(=O)NCCCNC(=O)c3ccc(-c4c5nc(c(-c6c(F)cc(S(=O)(=O)[O-])cc6F)c6ccc([nH]6)c(-c6c(F)cc(S(=O)(=O)[O-])cc6F)c6nc(c(-c7c(F)cc(S(=O)(=O)[O-])cc7F)c7ccc4[nH]7)C=C6)C=C5)cc3)CC2)c1C
REMARK SMILES IDX 18 1 17 2 16 3 14 4 15 5 13 7 8 8 9 9 10 10 11 11 90 12
REMARK SMILES IDX 12 13 89 14 7 15 4 16 5 17 91 18 6 19 92 20 3 21 2 22 1 23
REMARK SMILES IDX 19 24 20 25 21 26 22 28 23 29 24 30 88 31 25 32 87 33 26 34
REMARK SMILES IDX 27 35 28 36 81 37 29 38 86 39 80 40 82 41 30 42 85 43 79 44
REMARK SMILES IDX 78 45 31 47 65 48 44 49 64 50 45 51 48 52 63 53 83 54 46 55
REMARK SMILES IDX 47 56 62 58 84 59 49 60 32 61 33 62 42 63 34 64 35 65 41 66
REMARK SMILES IDX 43 67 36 68 37 69 38 70 39 71 40 72 66 73 67 74 76 75 68 76
REMARK SMILES IDX 69 77 75 78 77 79 70 80 71 81 72 82 73 83 74 84 50 85 51 86
REMARK SMILES IDX 60 87 52 88 53 89 59 90 61 91 54 92 55 93 56 94 57 95 58 96
REMARK H PARENT 16 6 20 27 82 46 48 57
REMARK Flexibility Score: inf
ROOT
ATOM      1  C   UNL A   1      32.444  29.356  27.031  1.00  0.00     0.042 C 
ENDROOT
BRANCH   1   2
ATOM      2  C   UNL A   1      32.092  29.955  25.668  1.00  0.00     0.117 C 
BRANCH   2   3
ATOM      3  N   UNL A   1      33.079  29.698  24.625  1.00  0.00    -0.356 N 
ATOM      4  C   UNL A   1      33.193  28.670  23.735  1.00  0.00     0.223 C 
ATOM      5  O   UNL A   1      34.053  28.748  22.857  1.00  0.00    -0.275 OA
ATOM      6  H   UNL A   1      33.782  30.383  24.550  1.00  0.00     0.163 HD
BRANCH   4   7
ATOM      7  C   UNL A   1      32.282  27.451  23.806  1.00  0.00     0.082 C 
ATOM      8  C   UNL A   1      32.966  23.696  22.504  1.00  0.00     0.257 C 
ATOM      9  O   UNL A   1      33.544  23.914  21.440  1.00  0.00    -0.269 OA
ATOM     10  N   UNL A   1      32.212  24.673  23.139  1.00  0.00    -0.338 N 
ATOM     11  C   UNL A   1      31.399  25.568  22.341  1.00  0.00     0.120 C 
ATOM     12  C   UNL A   1      32.304  24.989  24.555  1.00  0.00     0.120 C 
ATOM     13  C   UNL A   1      31.933  26.979  22.388  1.00  0.00     0.035 C 
ATOM     14  C   UNL A   1      32.847  26.398  24.776  1.00  0.00     0.035 C 
BRANCH   8  15
ATOM     15  C   UNL A   1      32.895  22.358  23.085  1.00  0.00     0.080 A 
ATOM     16  N   UNL A   1      33.365  20.466  24.131  1.00  0.00    -0.269 N 
ATOM     17  N   UNL A   1      32.293  20.175  23.373  1.00  0.00    -0.180 NA
ATOM     18  C   UNL A   1      33.781  21.773  23.988  1.00  0.00     0.048 A 
ATOM     19  C   UNL A   1      32.017  21.310  22.744  1.00  0.00     0.149 A 
ATOM     20  C   UNL A   1      34.983  22.367  24.636  1.00  0.00     0.067 C 
BRANCH  16  21
ATOM     21  C   UNL A   1      34.003  19.372  24.843  1.00  0.00     0.144 C 
BRANCH  21  22
ATOM     22  C   UNL A   1      33.443  17.974  24.550  1.00  0.00     0.020 C 
ATOM     23  C   UNL A   1      34.139  17.237  23.411  1.00  0.00     0.006 C 
ENDBRANCH  21  22
ENDBRANCH  16  21
ENDBRANCH   8  15
ENDBRANCH   4   7
ENDBRANCH   2   3
ENDBRANCH   1   2
BRANCH   1  24
ATOM     24  C   UNL A   1      33.819  29.759  27.517  1.00  0.00     0.118 C 
BRANCH  24  25
ATOM     25  N   UNL A   1      34.142  31.159  27.236  1.00  0.00    -0.352 N 
ATOM     26  C   UNL A   1      35.256  31.867  27.666  1.00  0.00     0.251 C 
ATOM     27  H   UNL A   1      33.498  31.653  26.681  1.00  0.00     0.163 HD
ATOM     28  O   UNL A   1      35.283  33.080  27.648  1.00  0.00    -0.269 OA
BRANCH  26  29
ATOM     29  C   UNL A   1      36.403  31.081  28.159  1.00  0.00     0.039 A 
ATOM     30  C   UNL A   1      36.748  29.856  27.586  1.00  0.00     0.014 A 
ATOM     31  C   UNL A   1      37.204  31.674  29.127  1.00  0.00     0.014 A 
ATOM     32  C   UNL A   1      37.968  29.278  27.928  1.00  0.00     0.010 A 
ATOM     33  C   UNL A   1      38.476  31.202  29.314  1.00  0.00     0.010 A 
ATOM     34  C   UNL A   1      38.844  29.972  28.775  1.00  0.00    -0.014 A 
BRANCH  34  35
ATOM     35  C   UNL A   1      40.185  29.466  29.056  1.00  0.00     0.031 A 
ATOM     36  C   UNL A   1      40.516  29.234  30.494  1.00  0.00     0.074 A 
ATOM     37  C   UNL A   1      40.988  28.992  28.078  1.00  0.00     0.049 A 
ATOM     38  N   UNL A   1      41.413  29.826  31.211  1.00  0.00    -0.248 NA
ATOM     39  C   UNL A   1      39.677  28.296  31.260  1.00  0.00     0.031 C 
ATOM     40  C   UNL A   1      40.691  28.823  26.649  1.00  0.00     0.029 A 
ATOM     41  N   UNL A   1      42.211  28.414  28.190  1.00  0.00    -0.354 N 
ATOM     42  C   UNL A   1      41.406  29.191  32.453  1.00  0.00     0.074 A 
ATOM     43  C   UNL A   1      40.208  28.393  32.482  1.00  0.00     0.031 C 
ATOM     44  C   UNL A   1      41.566  27.950  26.107  1.00  0.00     0.029 A 
ATOM     45  C   UNL A   1      42.588  27.656  27.090  1.00  0.00     0.049 A 
ATOM     46  H   UNL A   1      42.782  28.524  28.983  1.00  0.00     0.167 HD
ATOM     47  C   UNL A   1      42.497  29.202  33.274  1.00  0.00     0.037 A 
ATOM     48  C   UNL A   1      43.642  26.807  27.014  1.00  0.00     0.037 A 
ATOM     49  C   UNL A   1      43.453  30.198  32.858  1.00  0.00     0.049 A 
ATOM     50  C   UNL A   1      44.592  27.209  28.088  1.00  0.00     0.074 A 
ATOM     51  C   UNL A   1      43.398  31.564  32.650  1.00  0.00     0.029 A 
ATOM     52  N   UNL A   1      44.588  29.776  32.205  1.00  0.00    -0.354 N 
ATOM     53  N   UNL A   1      45.215  28.359  28.113  1.00  0.00    -0.248 NA
ATOM     54  C   UNL A   1      44.480  26.538  29.375  1.00  0.00     0.031 C 
ATOM     55  C   UNL A   1      44.167  31.782  31.468  1.00  0.00     0.029 A 
ATOM     56  C   UNL A   1      44.705  30.554  31.080  1.00  0.00     0.049 A 
ATOM     57  H   UNL A   1      45.197  29.057  32.490  1.00  0.00     0.167 HD
ATOM     58  C   UNL A   1      45.193  28.751  29.445  1.00  0.00     0.074 A 
ATOM     59  C   UNL A   1      44.805  27.550  30.184  1.00  0.00     0.031 C 
ATOM     60  C   UNL A   1      45.205  30.070  29.810  1.00  0.00     0.037 A 
BRANCH  47  61
ATOM     61  C   UNL A   1      42.871  28.099  34.241  1.00  0.00     0.058 A 
ATOM     62  C   UNL A   1      43.070  28.409  35.605  1.00  0.00     0.135 A 
ATOM     63  C   UNL A   1      43.317  26.820  33.842  1.00  0.00     0.135 A 
ATOM     64  F   UNL A   1      42.688  29.597  36.100  1.00  0.00    -0.206 F 
ATOM     65  C   UNL A   1      43.738  27.550  36.481  1.00  0.00     0.059 A 
ATOM     66  C   UNL A   1      43.934  25.926  34.712  1.00  0.00     0.059 A 
ATOM     67  F   UNL A   1      43.271  26.413  32.568  1.00  0.00    -0.206 F 
ATOM     68  C   UNL A   1      44.184  26.317  36.016  1.00  0.00     0.060 A 
BRANCH  68  69
ATOM     69  S   UNL A   1      45.157  25.259  37.102  1.00  0.00     0.124 S 
ATOM     70  O   UNL A   1      46.331  26.091  37.339  1.00  0.00    -0.237 OA
ATOM     71  O   UNL A   1      44.259  25.083  38.239  1.00  0.00    -0.237 OA
ATOM     72  O   UNL A   1      45.379  24.064  36.295  1.00  0.00    -0.744 OA
ENDBRANCH  68  69
ENDBRANCH  47  61
BRANCH  48  73
ATOM     73  C   UNL A   1      43.670  25.489  26.324  1.00  0.00     0.058 A 
ATOM     74  C   UNL A   1      44.562  25.235  25.270  1.00  0.00     0.135 A 
ATOM     75  C   UNL A   1      42.994  24.363  26.845  1.00  0.00     0.135 A 
ATOM     76  F   UNL A   1      45.267  26.240  24.729  1.00  0.00    -0.206 F 
ATOM     77  C   UNL A   1      44.802  23.941  24.789  1.00  0.00     0.059 A 
ATOM     78  C   UNL A   1      43.203  23.069  26.373  1.00  0.00     0.059 A 
ATOM     79  F   UNL A   1      42.168  24.474  27.897  1.00  0.00    -0.206 F 
ATOM     80  C   UNL A   1      44.129  22.861  25.360  1.00  0.00     0.060 A 
BRANCH  80  81
ATOM     81  S   UNL A   1      44.556  21.176  24.859  1.00  0.00     0.124 S 
ATOM     82  O   UNL A   1      44.544  21.280  23.404  1.00  0.00    -0.237 OA
ATOM     83  O   UNL A   1      45.866  20.995  25.475  1.00  0.00    -0.237 OA
ATOM     84  O   UNL A   1      43.484  20.367  25.435  1.00  0.00    -0.744 OA
ENDBRANCH  80  81
ENDBRANCH  48  73
BRANCH  60  85
ATOM     85  C   UNL A   1      45.508  31.122  28.770  1.00  0.00     0.058 A 
ATOM     86  C   UNL A   1      44.565  31.651  27.872  1.00  0.00     0.135 A 
ATOM     87  C   UNL A   1      46.759  31.759  28.820  1.00  0.00     0.135 A 
ATOM     88  F   UNL A   1      43.311  31.182  27.832  1.00  0.00    -0.206 F 
ATOM     89  C   UNL A   1      44.858  32.735  27.041  1.00  0.00     0.059 A 
ATOM     90  C   UNL A   1      47.065  32.861  28.023  1.00  0.00     0.059 A 
ATOM     91  F   UNL A   1      47.688  31.349  29.700  1.00  0.00    -0.206 F 
ATOM     92  C   UNL A   1      46.112  33.338  27.127  1.00  0.00     0.060 A 
BRANCH  92  93
ATOM     93  S   UNL A   1      46.458  34.792  26.114  1.00  0.00     0.124 S 
ATOM     94  O   UNL A   1      47.701  34.415  25.450  1.00  0.00    -0.237 OA
ATOM     95  O   UNL A   1      45.280  34.872  25.257  1.00  0.00    -0.237 OA
ATOM     96  O   UNL A   1      46.578  35.869  27.094  1.00  0.00    -0.744 OA
ENDBRANCH  92  93
ENDBRANCH  60  85
ENDBRANCH  34  35
ENDBRANCH  26  29
ENDBRANCH  24  25
ENDBRANCH   1  24
TORSDOF 16
ENDMDL
MODEL 3
REMARK VINA RESULT:     -12.3      1.853      2.487
REMARK SMILES CCCn1ncc(C(=O)N2CCC(C(=O)NCCCNC(=O)c3ccc(-c4c5nc(c(-c6c(F)cc(S(=O)(=O)[O-])cc6F)c6ccc([nH]6)c(-c6c(F)cc(S(=O)(=O)[O-])cc6F)c6nc(c(-c7c(F)cc(S(=O)(=O)[O-])cc7F)c7ccc4[nH]7)C=C6)C=C5)cc3)CC2)c1C
REMARK SMILES IDX 18 1 17 2 16 3 14 4 15 5 13 7 8 8 9 9 10 10 11 11 90 12
REMARK SMILES IDX 12 13 89 14 7 15 4 16 5 17 91 18 6 19 92 20 3 21 2 22 1 23
REMARK SMILES IDX 19 24 20 25 21 26 22 28 23 29 24 30 88 31 25 32 87 33 26 34
REMARK SMILES IDX 27 35 28 36 81 37 29 38 86 39 80 40 82 41 30 42 85 43 79 44
REMARK SMILES IDX 78 45 31 47 65 48 44 49 64 50 45 51 48 52 63 53 83 54 46 55
REMARK SMILES IDX 47 56 62 58 84 59 49 60 32 61 33 62 42 63 34 64 35 65 41 66
REMARK SMILES IDX 43 67 36 68 37 69 38 70 39 71 40 72 66 73 67 74 76 75 68 76
REMARK SMILES IDX 69 77 75 78 77 79 70 80 71 81 72 82 73 83 74 84 50 85 51 86
REMARK SMILES IDX 60 87 52 88 53 89 59 90 61 91 54 92 55 93 56 94 57 95 58 96
REMARK H PARENT 16 6 20 27 82 46 48 57
REMARK Flexibility Score: inf
ROOT
ATOM      1  C   UNL A   1      36.521  22.406  24.595  1.00  0.00     0.042 C 
ENDROOT
BRANCH   1   2
ATOM      2  C   UNL A   1      35.340  21.947  25.451  1.00  0.00     0.117 C 
BRANCH   2   3
ATOM      3  N   UNL A   1      34.866  20.599  25.151  1.00  0.00    -0.356 N 
ATOM      4  C   UNL A   1      33.709  20.166  24.573  1.00  0.00     0.223 C 
ATOM      5  O   UNL A   1      33.599  18.968  24.309  1.00  0.00    -0.275 OA
ATOM      6  H   UNL A   1      35.489  19.881  25.408  1.00  0.00     0.163 HD
BRANCH   4   7
ATOM      7  C   UNL A   1      32.572  21.127  24.250  1.00  0.00     0.082 C 
ATOM      8  C   UNL A   1      32.287  25.072  25.039  1.00  0.00     0.257 C 
ATOM      9  O   UNL A   1      32.776  25.125  26.167  1.00  0.00    -0.269 OA
ATOM     10  N   UNL A   1      31.836  23.878  24.494  1.00  0.00    -0.338 N 
ATOM     11  C   UNL A   1      31.149  22.928  25.345  1.00  0.00     0.120 C 
ATOM     12  C   UNL A   1      32.153  23.417  23.152  1.00  0.00     0.120 C 
ATOM     13  C   UNL A   1      31.974  21.681  25.550  1.00  0.00     0.035 C 
ATOM     14  C   UNL A   1      33.005  22.152  23.185  1.00  0.00     0.035 C 
BRANCH   8  15
ATOM     15  C   UNL A   1      31.998  26.275  24.264  1.00  0.00     0.080 A 
ATOM     16  N   UNL A   1      31.001  27.844  23.064  1.00  0.00    -0.269 N 
ATOM     17  N   UNL A   1      32.314  28.052  22.866  1.00  0.00    -0.180 NA
ATOM     18  C   UNL A   1      30.749  26.772  23.895  1.00  0.00     0.048 A 
ATOM     19  C   UNL A   1      32.909  27.107  23.582  1.00  0.00     0.149 A 
ATOM     20  C   UNL A   1      29.397  26.250  24.238  1.00  0.00     0.067 C 
BRANCH  16  21
ATOM     21  C   UNL A   1      30.067  28.642  22.287  1.00  0.00     0.144 C 
BRANCH  21  22
ATOM     22  C   UNL A   1      29.246  29.664  23.085  1.00  0.00     0.020 C 
ATOM     23  C   UNL A   1      27.736  29.460  23.012  1.00  0.00     0.006 C 
ENDBRANCH  21  22
ENDBRANCH  16  21
ENDBRANCH   8  15
ENDBRANCH   4   7
ENDBRANCH   2   3
ENDBRANCH   1   2
BRANCH   1  24
ATOM     24  C   UNL A   1      37.623  23.054  25.406  1.00  0.00     0.118 C 
BRANCH  24  25
ATOM     25  N   UNL A   1      38.453  22.088  26.126  1.00  0.00    -0.352 N 
ATOM     26  C   UNL A   1      39.632  22.339  26.814  1.00  0.00     0.251 C 
ATOM     27  H   UNL A   1      38.140  21.155  26.123  1.00  0.00     0.163 HD
ATOM     28  O   UNL A   1      40.399  21.446  27.107  1.00  0.00    -0.269 OA
BRANCH  26  29
ATOM     29  C   UNL A   1      39.921  23.744  27.160  1.00  0.00     0.039 A 
ATOM     30  C   UNL A   1      38.905  24.699  27.240  1.00  0.00     0.014 A 
ATOM     31  C   UNL A   1      41.225  24.046  27.534  1.00  0.00     0.014 A 
ATOM     32  C   UNL A   1      39.199  25.941  27.799  1.00  0.00     0.010 A 
ATOM     33  C   UNL A   1      41.460  25.189  28.250  1.00  0.00     0.010 A 
ATOM     34  C   UNL A   1      40.476  26.171  28.330  1.00  0.00    -0.014 A 
BRANCH  34  35
ATOM     35  C   UNL A   1      40.789  27.409  29.041  1.00  0.00     0.031 A 
ATOM     36  C   UNL A   1      41.835  28.278  28.425  1.00  0.00     0.074 A 
ATOM     37  C   UNL A   1      40.010  27.870  30.045  1.00  0.00     0.049 A 
ATOM     38  N   UNL A   1      42.989  28.602  28.910  1.00  0.00    -0.248 NA
ATOM     39  C   UNL A   1      41.616  28.770  27.054  1.00  0.00     0.031 C 
ATOM     40  C   UNL A   1      38.745  27.320  30.552  1.00  0.00     0.029 A 
ATOM     41  N   UNL A   1      40.118  29.033  30.735  1.00  0.00    -0.354 N 
ATOM     42  C   UNL A   1      43.552  29.510  28.012  1.00  0.00     0.074 A 
ATOM     43  C   UNL A   1      42.751  29.433  26.818  1.00  0.00     0.031 C 
ATOM     44  C   UNL A   1      38.084  28.274  31.240  1.00  0.00     0.029 A 
ATOM     45  C   UNL A   1      38.956  29.421  31.388  1.00  0.00     0.049 A 
ATOM     46  H   UNL A   1      40.950  29.558  30.771  1.00  0.00     0.167 HD
ATOM     47  C   UNL A   1      44.500  30.412  28.400  1.00  0.00     0.037 A 
ATOM     48  C   UNL A   1      38.713  30.624  31.964  1.00  0.00     0.037 A 
ATOM     49  C   UNL A   1      45.053  30.067  29.687  1.00  0.00     0.049 A 
ATOM     50  C   UNL A   1      40.039  31.245  32.230  1.00  0.00     0.074 A 
ATOM     51  C   UNL A   1      45.680  28.948  30.202  1.00  0.00     0.029 A 
ATOM     52  N   UNL A   1      44.649  30.795  30.783  1.00  0.00    -0.354 N 
ATOM     53  N   UNL A   1      40.916  30.753  33.067  1.00  0.00    -0.248 NA
ATOM     54  C   UNL A   1      40.584  32.136  31.216  1.00  0.00     0.031 C 
ATOM     55  C   UNL A   1      45.144  28.804  31.516  1.00  0.00     0.029 A 
ATOM     56  C   UNL A   1      44.290  29.885  31.747  1.00  0.00     0.049 A 
ATOM     57  H   UNL A   1      44.622  31.776  30.861  1.00  0.00     0.167 HD
ATOM     58  C   UNL A   1      42.145  30.922  32.441  1.00  0.00     0.074 A 
ATOM     59  C   UNL A   1      41.883  31.855  31.345  1.00  0.00     0.031 C 
ATOM     60  C   UNL A   1      43.196  30.078  32.676  1.00  0.00     0.037 A 
BRANCH  47  61
ATOM     61  C   UNL A   1      44.694  31.787  27.796  1.00  0.00     0.058 A 
ATOM     62  C   UNL A   1      45.860  32.058  27.048  1.00  0.00     0.135 A 
ATOM     63  C   UNL A   1      43.931  32.919  28.156  1.00  0.00     0.135 A 
ATOM     64  F   UNL A   1      46.666  31.061  26.651  1.00  0.00    -0.206 F 
ATOM     65  C   UNL A   1      46.280  33.358  26.756  1.00  0.00     0.059 A 
ATOM     66  C   UNL A   1      44.301  34.219  27.827  1.00  0.00     0.059 A 
ATOM     67  F   UNL A   1      42.844  32.831  28.932  1.00  0.00    -0.206 F 
ATOM     68  C   UNL A   1      45.501  34.433  27.170  1.00  0.00     0.060 A 
BRANCH  68  69
ATOM     69  S   UNL A   1      46.098  36.113  26.910  1.00  0.00     0.124 S 
ATOM     70  O   UNL A   1      44.850  36.832  26.687  1.00  0.00    -0.237 OA
ATOM     71  O   UNL A   1      46.780  36.392  28.171  1.00  0.00    -0.237 OA
ATOM     72  O   UNL A   1      46.972  35.982  25.748  1.00  0.00    -0.744 OA
ENDBRANCH  68  69
ENDBRANCH  47  61
BRANCH  48  73
ATOM     73  C   UNL A   1      37.428  31.374  31.940  1.00  0.00     0.058 A 
ATOM     74  C   UNL A   1      36.804  31.792  33.126  1.00  0.00     0.135 A 
ATOM     75  C   UNL A   1      36.907  31.917  30.744  1.00  0.00     0.135 A 
ATOM     76  F   UNL A   1      37.248  31.347  34.312  1.00  0.00    -0.206 F 
ATOM     77  C   UNL A   1      35.757  32.722  33.133  1.00  0.00     0.059 A 
ATOM     78  C   UNL A   1      35.855  32.831  30.723  1.00  0.00     0.059 A 
ATOM     79  F   UNL A   1      37.465  31.643  29.556  1.00  0.00    -0.206 F 
ATOM     80  C   UNL A   1      35.300  33.249  31.924  1.00  0.00     0.060 A 
BRANCH  80  81
ATOM     81  S   UNL A   1      34.065  34.571  31.936  1.00  0.00     0.124 S 
ATOM     82  O   UNL A   1      34.853  35.719  32.370  1.00  0.00    -0.237 OA
ATOM     83  O   UNL A   1      33.622  34.590  30.546  1.00  0.00    -0.237 OA
ATOM     84  O   UNL A   1      33.070  34.099  32.897  1.00  0.00    -0.744 OA
ENDBRANCH  80  81
ENDBRANCH  48  73
BRANCH  60  85
ATOM     85  C   UNL A   1      43.118  29.100  33.824  1.00  0.00     0.058 A 
ATOM     86  C   UNL A   1      43.360  29.429  35.169  1.00  0.00     0.135 A 
ATOM     87  C   UNL A   1      42.583  27.826  33.571  1.00  0.00     0.135 A 
ATOM     88  F   UNL A   1      43.765  30.656  35.518  1.00  0.00    -0.206 F 
ATOM     89  C   UNL A   1      43.118  28.527  36.208  1.00  0.00     0.059 A 
ATOM     90  C   UNL A   1      42.304  26.921  34.593  1.00  0.00     0.059 A 
ATOM     91  F   UNL A   1      42.265  27.467  32.315  1.00  0.00    -0.206 F 
ATOM     92  C   UNL A   1      42.584  27.274  35.910  1.00  0.00     0.060 A 
BRANCH  92  93
ATOM     93  S   UNL A   1      42.190  26.143  37.262  1.00  0.00     0.124 S 
ATOM     94  O   UNL A   1      40.835  26.551  37.618  1.00  0.00    -0.237 OA
ATOM     95  O   UNL A   1      42.313  24.834  36.628  1.00  0.00    -0.237 OA
ATOM     96  O   UNL A   1      43.212  26.438  38.263  1.00  0.00    -0.744 OA
ENDBRANCH  92  93
ENDBRANCH  60  85
ENDBRANCH  34  35
ENDBRANCH  26  29
ENDBRANCH  24  25
ENDBRANCH   1  24
TORSDOF 16
ENDMDL
