MODEL 1
REMARK VINA RESULT:     -12.4      0.000      0.000
REMARK SMILES CCc1c(C(=O)NCC(=O)NCCCNC(=O)c2ccc(-c3c4nc(c(-c5c(F)cc(S(=O)(=O)[O-])cc5F)c5ccc([nH]5)c(-c5c(F)cc(S(=O)(=O)[O-])cc5F)c5nc(c(-c6c(F)cc(S(=O)(=O)[O-])cc6F)c6ccc3[nH]6)C=C5)C=C4)cc2)nnn1-c1ccc(Cl)cc1
REMARK SMILES IDX 13 1 12 2 11 3 9 4 10 5 8 7 7 8 5 9 6 10 4 12 3 13 86 14
REMARK SMILES IDX 84 15 85 16 2 17 1 18 87 19 88 20 93 21 89 22 92 23 90 24
REMARK SMILES IDX 91 25 14 26 15 27 16 28 17 30 18 31 19 32 83 33 20 34 82 35
REMARK SMILES IDX 21 36 22 37 23 38 76 39 24 40 81 41 75 42 77 43 25 44 80 45
REMARK SMILES IDX 74 46 73 47 26 49 60 50 39 51 59 52 40 53 43 54 58 55 78 56
REMARK SMILES IDX 41 57 42 58 57 60 79 61 44 62 27 63 28 64 37 65 29 66 30 67
REMARK SMILES IDX 36 68 38 69 31 70 32 71 33 72 34 73 35 74 61 75 62 76 71 77
REMARK SMILES IDX 63 78 64 79 70 80 72 81 65 82 66 83 67 84 68 85 69 86 45 87
REMARK SMILES IDX 46 88 55 89 47 90 48 91 54 92 56 93 49 94 50 95 51 96 52 97
REMARK SMILES IDX 53 98
REMARK H PARENT 11 6 7 11 15 29 77 48 43 59
REMARK Flexibility Score: inf
ROOT
ATOM      1  C   UNL A   1      32.486  29.058  26.632  1.00  0.00     0.042 C 
ENDROOT
BRANCH   1   2
ATOM      2  C   UNL A   1      32.795  28.898  25.146  1.00  0.00     0.117 C 
BRANCH   2   3
ATOM      3  N   UNL A   1      31.740  29.370  24.275  1.00  0.00    -0.355 N 
ATOM      4  C   UNL A   1      30.745  28.704  23.635  1.00  0.00     0.239 C 
ATOM      5  O   UNL A   1      29.851  29.393  23.131  1.00  0.00    -0.273 OA
ATOM      6  H   UNL A   1      31.744  30.342  24.119  1.00  0.00     0.163 HD
BRANCH   4   7
ATOM      7  C   UNL A   1      30.583  27.181  23.662  1.00  0.00     0.216 C 
BRANCH   7   8
ATOM      8  N   UNL A   1      29.855  26.499  24.702  1.00  0.00    -0.342 N 
ATOM      9  C   UNL A   1      30.145  25.637  25.722  1.00  0.00     0.274 C 
ATOM     10  O   UNL A   1      29.198  25.481  26.503  1.00  0.00    -0.267 OA
ATOM     11  H   UNL A   1      28.894  26.709  24.670  1.00  0.00     0.164 HD
BRANCH   9  12
ATOM     12  C   UNL A   1      31.366  24.832  25.900  1.00  0.00     0.174 A 
ATOM     13  C   UNL A   1      32.511  24.465  25.181  1.00  0.00     0.077 A 
ATOM     14  N   UNL A   1      33.223  23.669  26.088  1.00  0.00    -0.217 N 
ATOM     15  N   UNL A   1      31.401  24.147  27.108  1.00  0.00    -0.124 NA
ATOM     16  N   UNL A   1      32.455  23.365  27.145  1.00  0.00    -0.061 NA
BRANCH  13  17
ATOM     17  C   UNL A   1      33.018  24.639  23.783  1.00  0.00     0.055 C 
ATOM     18  C   UNL A   1      32.558  23.517  22.852  1.00  0.00     0.011 C 
ENDBRANCH  13  17
BRANCH  14  19
ATOM     19  C   UNL A   1      34.520  23.107  25.982  1.00  0.00     0.067 A 
ATOM     20  C   UNL A   1      34.651  21.720  25.836  1.00  0.00     0.030 A 
ATOM     21  C   UNL A   1      35.658  23.921  25.999  1.00  0.00     0.030 A 
ATOM     22  C   UNL A   1      35.913  21.166  25.606  1.00  0.00     0.023 A 
ATOM     23  C   UNL A   1      36.917  23.363  25.776  1.00  0.00     0.023 A 
ATOM     24  C   UNL A   1      37.037  21.992  25.561  1.00  0.00     0.041 A 
ATOM     25  Cl  UNL A   1      38.586  21.314  25.247  1.00  0.00    -0.084 Cl
ENDBRANCH  14  19
ENDBRANCH   9  12
ENDBRANCH   7   8
ENDBRANCH   4   7
ENDBRANCH   2   3
ENDBRANCH   1   2
BRANCH   1  26
ATOM     26  C   UNL A   1      33.700  29.532  27.414  1.00  0.00     0.118 C 
BRANCH  26  27
ATOM     27  N   UNL A   1      34.027  30.935  27.141  1.00  0.00    -0.352 N 
ATOM     28  C   UNL A   1      35.091  31.679  27.625  1.00  0.00     0.251 C 
ATOM     29  H   UNL A   1      33.410  31.409  26.538  1.00  0.00     0.163 HD
ATOM     30  O   UNL A   1      35.064  32.895  27.607  1.00  0.00    -0.269 OA
BRANCH  28  31
ATOM     31  C   UNL A   1      36.255  30.953  28.163  1.00  0.00     0.039 A 
ATOM     32  C   UNL A   1      36.472  29.608  27.859  1.00  0.00     0.014 A 
ATOM     33  C   UNL A   1      37.169  31.674  28.926  1.00  0.00     0.014 A 
ATOM     34  C   UNL A   1      37.674  29.021  28.246  1.00  0.00     0.010 A 
ATOM     35  C   UNL A   1      38.411  31.143  29.166  1.00  0.00     0.010 A 
ATOM     36  C   UNL A   1      38.656  29.805  28.874  1.00  0.00    -0.014 A 
BRANCH  36  37
ATOM     37  C   UNL A   1      39.998  29.277  29.108  1.00  0.00     0.031 A 
ATOM     38  C   UNL A   1      40.336  29.071  30.544  1.00  0.00     0.074 A 
ATOM     39  C   UNL A   1      40.779  28.789  28.117  1.00  0.00     0.049 A 
ATOM     40  N   UNL A   1      41.186  29.728  31.261  1.00  0.00    -0.248 NA
ATOM     41  C   UNL A   1      39.515  28.127  31.324  1.00  0.00     0.031 C 
ATOM     42  C   UNL A   1      40.446  28.622  26.697  1.00  0.00     0.029 A 
ATOM     43  N   UNL A   1      42.014  28.222  28.194  1.00  0.00    -0.354 N 
ATOM     44  C   UNL A   1      41.195  29.106  32.508  1.00  0.00     0.074 A 
ATOM     45  C   UNL A   1      40.008  28.296  32.554  1.00  0.00     0.031 C 
ATOM     46  C   UNL A   1      41.334  27.786  26.115  1.00  0.00     0.029 A 
ATOM     47  C   UNL A   1      42.396  27.508  27.062  1.00  0.00     0.049 A 
ATOM     48  H   UNL A   1      42.591  28.312  28.987  1.00  0.00     0.167 HD
ATOM     49  C   UNL A   1      42.319  29.098  33.281  1.00  0.00     0.037 A 
ATOM     50  C   UNL A   1      43.497  26.725  26.920  1.00  0.00     0.037 A 
ATOM     51  C   UNL A   1      43.266  30.086  32.819  1.00  0.00     0.049 A 
ATOM     52  C   UNL A   1      44.459  27.143  27.972  1.00  0.00     0.074 A 
ATOM     53  C   UNL A   1      43.232  31.453  32.623  1.00  0.00     0.029 A 
ATOM     54  N   UNL A   1      44.351  29.637  32.105  1.00  0.00    -0.354 N 
ATOM     55  N   UNL A   1      45.034  28.314  28.006  1.00  0.00    -0.248 NA
ATOM     56  C   UNL A   1      44.424  26.431  29.239  1.00  0.00     0.031 C 
ATOM     57  C   UNL A   1      43.975  31.673  31.425  1.00  0.00     0.029 A 
ATOM     58  C   UNL A   1      44.488  30.444  31.006  1.00  0.00     0.049 A 
ATOM     59  H   UNL A   1      44.926  28.873  32.340  1.00  0.00     0.167 HD
ATOM     60  C   UNL A   1      45.029  28.672  29.345  1.00  0.00     0.074 A 
ATOM     61  C   UNL A   1      44.730  27.434  30.064  1.00  0.00     0.031 C 
ATOM     62  C   UNL A   1      44.983  29.984  29.726  1.00  0.00     0.037 A 
BRANCH  49  63
ATOM     63  C   UNL A   1      42.739  27.949  34.178  1.00  0.00     0.058 A 
ATOM     64  C   UNL A   1      42.824  28.166  35.571  1.00  0.00     0.135 A 
ATOM     65  C   UNL A   1      43.334  26.754  33.717  1.00  0.00     0.135 A 
ATOM     66  F   UNL A   1      42.293  29.267  36.127  1.00  0.00    -0.206 F 
ATOM     67  C   UNL A   1      43.528  27.312  36.422  1.00  0.00     0.059 A 
ATOM     68  C   UNL A   1      43.993  25.861  34.556  1.00  0.00     0.059 A 
ATOM     69  F   UNL A   1      43.397  26.432  32.421  1.00  0.00    -0.206 F 
ATOM     70  C   UNL A   1      44.125  26.170  35.899  1.00  0.00     0.060 A 
BRANCH  70  71
ATOM     71  S   UNL A   1      45.123  25.121  36.969  1.00  0.00     0.124 S 
ATOM     72  O   UNL A   1      44.845  23.799  36.420  1.00  0.00    -0.237 OA
ATOM     73  O   UNL A   1      46.465  25.644  36.734  1.00  0.00    -0.237 OA
ATOM     74  O   UNL A   1      44.578  25.383  38.297  1.00  0.00    -0.744 OA
ENDBRANCH  70  71
ENDBRANCH  49  63
BRANCH  50  75
ATOM     75  C   UNL A   1      43.640  25.450  26.166  1.00  0.00     0.058 A 
ATOM     76  C   UNL A   1      44.737  25.229  25.313  1.00  0.00     0.135 A 
ATOM     77  C   UNL A   1      42.870  24.314  26.490  1.00  0.00     0.135 A 
ATOM     78  F   UNL A   1      45.534  26.251  24.962  1.00  0.00    -0.206 F 
ATOM     79  C   UNL A   1      45.089  23.952  24.861  1.00  0.00     0.059 A 
ATOM     80  C   UNL A   1      43.196  23.033  26.045  1.00  0.00     0.059 A 
ATOM     81  F   UNL A   1      41.831  24.401  27.333  1.00  0.00    -0.206 F 
ATOM     82  C   UNL A   1      44.325  22.854  25.253  1.00  0.00     0.060 A 
BRANCH  82  83
ATOM     83  S   UNL A   1      44.883  21.185  24.833  1.00  0.00     0.124 S 
ATOM     84  O   UNL A   1      46.285  21.225  25.233  1.00  0.00    -0.237 OA
ATOM     85  O   UNL A   1      44.009  20.350  25.651  1.00  0.00    -0.237 OA
ATOM     86  O   UNL A   1      44.648  21.102  23.393  1.00  0.00    -0.744 OA
ENDBRANCH  82  83
ENDBRANCH  50  75
BRANCH  62  87
ATOM     87  C   UNL A   1      45.273  31.041  28.688  1.00  0.00     0.058 A 
ATOM     88  C   UNL A   1      44.346  31.527  27.746  1.00  0.00     0.135 A 
ATOM     89  C   UNL A   1      46.520  31.682  28.741  1.00  0.00     0.135 A 
ATOM     90  F   UNL A   1      43.096  31.049  27.695  1.00  0.00    -0.206 F 
ATOM     91  C   UNL A   1      44.667  32.563  26.865  1.00  0.00     0.059 A 
ATOM     92  C   UNL A   1      46.849  32.738  27.897  1.00  0.00     0.059 A 
ATOM     93  F   UNL A   1      47.428  31.310  29.658  1.00  0.00    -0.206 F 
ATOM     94  C   UNL A   1      45.923  33.162  26.947  1.00  0.00     0.060 A 
BRANCH  94  95
ATOM     95  S   UNL A   1      46.324  34.531  25.840  1.00  0.00     0.124 S 
ATOM     96  O   UNL A   1      47.709  34.242  25.481  1.00  0.00    -0.237 OA
ATOM     97  O   UNL A   1      45.345  34.372  24.769  1.00  0.00    -0.237 OA
ATOM     98  O   UNL A   1      46.132  35.714  26.676  1.00  0.00    -0.744 OA
ENDBRANCH  94  95
ENDBRANCH  62  87
ENDBRANCH  36  37
ENDBRANCH  28  31
ENDBRANCH  26  27
ENDBRANCH   1  26
TORSDOF 17
ENDMDL
MODEL 2
REMARK VINA RESULT:     -12.4      1.440      2.197
REMARK SMILES CCc1c(C(=O)NCC(=O)NCCCNC(=O)c2ccc(-c3c4nc(c(-c5c(F)cc(S(=O)(=O)[O-])cc5F)c5ccc([nH]5)c(-c5c(F)cc(S(=O)(=O)[O-])cc5F)c5nc(c(-c6c(F)cc(S(=O)(=O)[O-])cc6F)c6ccc3[nH]6)C=C5)C=C4)cc2)nnn1-c1ccc(Cl)cc1
REMARK SMILES IDX 13 1 12 2 11 3 9 4 10 5 8 7 7 8 5 9 6 10 4 12 3 13 86 14
REMARK SMILES IDX 84 15 85 16 2 17 1 18 87 19 88 20 93 21 89 22 92 23 90 24
REMARK SMILES IDX 91 25 14 26 15 27 16 28 17 30 18 31 19 32 83 33 20 34 82 35
REMARK SMILES IDX 21 36 22 37 23 38 76 39 24 40 81 41 75 42 77 43 25 44 80 45
REMARK SMILES IDX 74 46 73 47 26 49 60 50 39 51 59 52 40 53 43 54 58 55 78 56
REMARK SMILES IDX 41 57 42 58 57 60 79 61 44 62 27 63 28 64 37 65 29 66 30 67
REMARK SMILES IDX 36 68 38 69 31 70 32 71 33 72 34 73 35 74 61 75 62 76 71 77
REMARK SMILES IDX 63 78 64 79 70 80 72 81 65 82 66 83 67 84 68 85 69 86 45 87
REMARK SMILES IDX 46 88 55 89 47 90 48 91 54 92 56 93 49 94 50 95 51 96 52 97
REMARK SMILES IDX 53 98
REMARK H PARENT 11 6 7 11 15 29 77 48 43 59
REMARK Flexibility Score: inf
ROOT
ATOM      1  C   UNL A   1      33.324  28.857  25.678  1.00  0.00     0.042 C 
ENDROOT
BRANCH   1   2
ATOM      2  C   UNL A   1      31.861  28.931  26.107  1.00  0.00     0.117 C 
BRANCH   2   3
ATOM      3  N   UNL A   1      31.082  27.772  25.729  1.00  0.00    -0.355 N 
ATOM      4  C   UNL A   1      30.673  27.327  24.514  1.00  0.00     0.239 C 
ATOM      5  O   UNL A   1      30.203  26.184  24.471  1.00  0.00    -0.273 OA
ATOM      6  H   UNL A   1      30.798  27.208  26.485  1.00  0.00     0.163 HD
BRANCH   4   7
ATOM      7  C   UNL A   1      30.925  28.077  23.202  1.00  0.00     0.216 C 
BRANCH   7   8
ATOM      8  N   UNL A   1      32.230  28.159  22.595  1.00  0.00    -0.342 N 
ATOM      9  C   UNL A   1      33.176  27.283  22.144  1.00  0.00     0.274 C 
ATOM     10  O   UNL A   1      34.072  27.837  21.494  1.00  0.00    -0.267 OA
ATOM     11  H   UNL A   1      32.515  29.093  22.474  1.00  0.00     0.164 HD
BRANCH   9  12
ATOM     12  C   UNL A   1      33.286  25.844  22.442  1.00  0.00     0.174 A 
ATOM     13  C   UNL A   1      33.369  24.992  23.551  1.00  0.00     0.077 A 
ATOM     14  N   UNL A   1      33.430  23.715  22.975  1.00  0.00    -0.217 N 
ATOM     15  N   UNL A   1      33.430  25.058  21.306  1.00  0.00    -0.124 NA
ATOM     16  N   UNL A   1      33.639  23.809  21.654  1.00  0.00    -0.061 NA
BRANCH  13  17
ATOM     17  C   UNL A   1      33.495  25.149  25.034  1.00  0.00     0.055 C 
ATOM     18  C   UNL A   1      34.952  25.175  25.496  1.00  0.00     0.011 C 
ENDBRANCH  13  17
BRANCH  14  19
ATOM     19  C   UNL A   1      33.403  22.439  23.590  1.00  0.00     0.067 A 
ATOM     20  C   UNL A   1      32.216  21.694  23.559  1.00  0.00     0.030 A 
ATOM     21  C   UNL A   1      34.546  21.912  24.203  1.00  0.00     0.030 A 
ATOM     22  C   UNL A   1      32.210  20.386  24.051  1.00  0.00     0.023 A 
ATOM     23  C   UNL A   1      34.531  20.609  24.699  1.00  0.00     0.023 A 
ATOM     24  C   UNL A   1      33.370  19.845  24.604  1.00  0.00     0.041 A 
ATOM     25  Cl  UNL A   1      33.371  18.225  25.180  1.00  0.00    -0.084 Cl
ENDBRANCH  14  19
ENDBRANCH   9  12
ENDBRANCH   7   8
ENDBRANCH   4   7
ENDBRANCH   2   3
ENDBRANCH   1   2
BRANCH   1  26
ATOM     26  C   UNL A   1      34.262  29.310  26.786  1.00  0.00     0.118 C 
BRANCH  26  27
ATOM     27  N   UNL A   1      34.155  30.746  27.056  1.00  0.00    -0.352 N 
ATOM     28  C   UNL A   1      34.828  31.493  28.009  1.00  0.00     0.251 C 
ATOM     29  H   UNL A   1      33.523  31.244  26.487  1.00  0.00     0.163 HD
ATOM     30  O   UNL A   1      34.411  32.581  28.360  1.00  0.00    -0.269 OA
BRANCH  28  31
ATOM     31  C   UNL A   1      36.061  30.930  28.585  1.00  0.00     0.039 A 
ATOM     32  C   UNL A   1      36.198  29.557  28.800  1.00  0.00     0.014 A 
ATOM     33  C   UNL A   1      37.113  31.806  28.840  1.00  0.00     0.014 A 
ATOM     34  C   UNL A   1      37.443  29.061  29.179  1.00  0.00     0.010 A 
ATOM     35  C   UNL A   1      38.370  31.302  29.058  1.00  0.00     0.010 A 
ATOM     36  C   UNL A   1      38.536  29.938  29.276  1.00  0.00    -0.014 A 
BRANCH  36  37
ATOM     37  C   UNL A   1      39.891  29.424  29.470  1.00  0.00     0.031 A 
ATOM     38  C   UNL A   1      40.257  29.179  30.893  1.00  0.00     0.074 A 
ATOM     39  C   UNL A   1      40.661  28.980  28.452  1.00  0.00     0.049 A 
ATOM     40  N   UNL A   1      41.110  29.828  31.616  1.00  0.00    -0.248 NA
ATOM     41  C   UNL A   1      39.465  28.199  31.657  1.00  0.00     0.031 C 
ATOM     42  C   UNL A   1      40.306  28.851  27.032  1.00  0.00     0.029 A 
ATOM     43  N   UNL A   1      41.907  28.431  28.489  1.00  0.00    -0.354 N 
ATOM     44  C   UNL A   1      41.151  29.168  32.842  1.00  0.00     0.074 A 
ATOM     45  C   UNL A   1      39.977  28.337  32.883  1.00  0.00     0.031 C 
ATOM     46  C   UNL A   1      41.197  28.049  26.410  1.00  0.00     0.029 A 
ATOM     47  C   UNL A   1      42.279  27.758  27.329  1.00  0.00     0.049 A 
ATOM     48  H   UNL A   1      42.496  28.506  29.274  1.00  0.00     0.167 HD
ATOM     49  C   UNL A   1      42.287  29.154  33.595  1.00  0.00     0.037 A 
ATOM     50  C   UNL A   1      43.390  26.998  27.143  1.00  0.00     0.037 A 
ATOM     51  C   UNL A   1      43.211  30.170  33.148  1.00  0.00     0.049 A 
ATOM     52  C   UNL A   1      44.363  27.399  28.191  1.00  0.00     0.074 A 
ATOM     53  C   UNL A   1      43.152  31.543  32.996  1.00  0.00     0.029 A 
ATOM     54  N   UNL A   1      44.290  29.762  32.402  1.00  0.00    -0.354 N 
ATOM     55  N   UNL A   1      44.921  28.578  28.252  1.00  0.00    -0.248 NA
ATOM     56  C   UNL A   1      44.362  26.647  29.436  1.00  0.00     0.031 C 
ATOM     57  C   UNL A   1      43.870  31.811  31.792  1.00  0.00     0.029 A 
ATOM     58  C   UNL A   1      44.394  30.605  31.326  1.00  0.00     0.049 A 
ATOM     59  H   UNL A   1      44.881  29.001  32.603  1.00  0.00     0.167 HD
ATOM     60  C   UNL A   1      44.934  28.894  29.602  1.00  0.00     0.074 A 
ATOM     61  C   UNL A   1      44.667  27.630  30.287  1.00  0.00     0.031 C 
ATOM     62  C   UNL A   1      44.874  30.193  30.024  1.00  0.00     0.037 A 
BRANCH  49  63
ATOM     63  C   UNL A   1      42.741  27.985  34.449  1.00  0.00     0.058 A 
ATOM     64  C   UNL A   1      42.950  28.188  35.830  1.00  0.00     0.135 A 
ATOM     65  C   UNL A   1      43.254  26.773  33.933  1.00  0.00     0.135 A 
ATOM     66  F   UNL A   1      42.506  29.302  36.434  1.00  0.00    -0.206 F 
ATOM     67  C   UNL A   1      43.693  27.304  36.615  1.00  0.00     0.059 A 
ATOM     68  C   UNL A   1      43.950  25.852  34.710  1.00  0.00     0.059 A 
ATOM     69  F   UNL A   1      43.198  26.459  32.636  1.00  0.00    -0.206 F 
ATOM     70  C   UNL A   1      44.204  26.146  36.039  1.00  0.00     0.060 A 
BRANCH  70  71
ATOM     71  S   UNL A   1      45.252  25.056  37.016  1.00  0.00     0.124 S 
ATOM     72  O   UNL A   1      45.422  23.928  36.108  1.00  0.00    -0.237 OA
ATOM     73  O   UNL A   1      46.431  25.888  37.234  1.00  0.00    -0.237 OA
ATOM     74  O   UNL A   1      44.446  24.796  38.205  1.00  0.00    -0.744 OA
ENDBRANCH  70  71
ENDBRANCH  49  63
BRANCH  50  75
ATOM     75  C   UNL A   1      43.539  25.750  26.348  1.00  0.00     0.058 A 
ATOM     76  C   UNL A   1      44.590  25.599  25.423  1.00  0.00     0.135 A 
ATOM     77  C   UNL A   1      42.840  24.574  26.687  1.00  0.00     0.135 A 
ATOM     78  F   UNL A   1      45.320  26.662  25.053  1.00  0.00    -0.206 F 
ATOM     79  C   UNL A   1      44.967  24.350  24.917  1.00  0.00     0.059 A 
ATOM     80  C   UNL A   1      43.191  23.320  26.187  1.00  0.00     0.059 A 
ATOM     81  F   UNL A   1      41.852  24.594  27.593  1.00  0.00    -0.206 F 
ATOM     82  C   UNL A   1      44.275  23.210  25.325  1.00  0.00     0.060 A 
BRANCH  82  83
ATOM     83  S   UNL A   1      44.876  21.577  24.825  1.00  0.00     0.124 S 
ATOM     84  O   UNL A   1      44.032  20.689  25.617  1.00  0.00    -0.237 OA
ATOM     85  O   UNL A   1      44.627  21.581  23.388  1.00  0.00    -0.237 OA
ATOM     86  O   UNL A   1      46.286  21.603  25.209  1.00  0.00    -0.744 OA
ENDBRANCH  82  83
ENDBRANCH  50  75
BRANCH  62  87
ATOM     87  C   UNL A   1      45.129  31.286  29.015  1.00  0.00     0.058 A 
ATOM     88  C   UNL A   1      46.395  31.803  28.683  1.00  0.00     0.135 A 
ATOM     89  C   UNL A   1      44.039  31.738  28.255  1.00  0.00     0.135 A 
ATOM     90  F   UNL A   1      47.506  31.352  29.280  1.00  0.00    -0.206 F 
ATOM     91  C   UNL A   1      46.558  32.763  27.680  1.00  0.00     0.059 A 
ATOM     92  C   UNL A   1      44.182  32.667  27.230  1.00  0.00     0.059 A 
ATOM     93  F   UNL A   1      42.812  31.239  28.478  1.00  0.00    -0.206 F 
ATOM     94  C   UNL A   1      45.444  33.191  26.960  1.00  0.00     0.060 A 
BRANCH  94  95
ATOM     95  S   UNL A   1      45.657  34.398  25.634  1.00  0.00     0.124 S 
ATOM     96  O   UNL A   1      47.081  34.279  25.336  1.00  0.00    -0.237 OA
ATOM     97  O   UNL A   1      44.751  33.901  24.602  1.00  0.00    -0.237 OA
ATOM     98  O   UNL A   1      45.253  35.659  26.250  1.00  0.00    -0.744 OA
ENDBRANCH  94  95
ENDBRANCH  62  87
ENDBRANCH  36  37
ENDBRANCH  28  31
ENDBRANCH  26  27
ENDBRANCH   1  26
TORSDOF 17
ENDMDL
MODEL 3
REMARK VINA RESULT:     -12.3      3.273      9.189
REMARK SMILES CCc1c(C(=O)NCC(=O)NCCCNC(=O)c2ccc(-c3c4nc(c(-c5c(F)cc(S(=O)(=O)[O-])cc5F)c5ccc([nH]5)c(-c5c(F)cc(S(=O)(=O)[O-])cc5F)c5nc(c(-c6c(F)cc(S(=O)(=O)[O-])cc6F)c6ccc3[nH]6)C=C5)C=C4)cc2)nnn1-c1ccc(Cl)cc1
REMARK SMILES IDX 13 1 12 2 11 3 9 4 10 5 8 7 7 8 5 9 6 10 4 12 3 13 86 14
REMARK SMILES IDX 84 15 85 16 2 17 1 18 87 19 88 20 93 21 89 22 92 23 90 24
REMARK SMILES IDX 91 25 14 26 15 27 16 28 17 30 18 31 19 32 83 33 20 34 82 35
REMARK SMILES IDX 21 36 22 37 23 38 76 39 24 40 81 41 75 42 77 43 25 44 80 45
REMARK SMILES IDX 74 46 73 47 26 49 60 50 39 51 59 52 40 53 43 54 58 55 78 56
REMARK SMILES IDX 41 57 42 58 57 60 79 61 44 62 27 63 28 64 37 65 29 66 30 67
REMARK SMILES IDX 36 68 38 69 31 70 32 71 33 72 34 73 35 74 61 75 62 76 71 77
REMARK SMILES IDX 63 78 64 79 70 80 72 81 65 82 66 83 67 84 68 85 69 86 45 87
REMARK SMILES IDX 46 88 55 89 47 90 48 91 54 92 56 93 49 94 50 95 51 96 52 97
REMARK SMILES IDX 53 98
REMARK H PARENT 11 6 7 11 15 29 77 48 43 59
REMARK Flexibility Score: inf
ROOT
ATOM      1  C   UNL A   1      35.840  23.085  25.038  1.00  0.00     0.042 C 
ENDROOT
BRANCH   1   2
ATOM      2  C   UNL A   1      34.843  22.139  25.701  1.00  0.00     0.117 C 
BRANCH   2   3
ATOM      3  N   UNL A   1      35.072  20.743  25.402  1.00  0.00    -0.355 N 
ATOM      4  C   UNL A   1      34.240  19.782  24.925  1.00  0.00     0.239 C 
ATOM      5  O   UNL A   1      34.765  18.726  24.556  1.00  0.00    -0.273 OA
ATOM      6  H   UNL A   1      35.992  20.434  25.573  1.00  0.00     0.163 HD
BRANCH   4   7
ATOM      7  C   UNL A   1      32.748  20.003  24.658  1.00  0.00     0.216 C 
BRANCH   7   8
ATOM      8  N   UNL A   1      32.237  20.348  23.355  1.00  0.00    -0.342 N 
ATOM      9  C   UNL A   1      32.272  21.432  22.526  1.00  0.00     0.274 C 
ATOM     10  O   UNL A   1      31.855  21.181  21.388  1.00  0.00    -0.267 OA
ATOM     11  H   UNL A   1      31.728  19.605  22.958  1.00  0.00     0.164 HD
BRANCH   9  12
ATOM     12  C   UNL A   1      32.627  22.820  22.873  1.00  0.00     0.174 A 
ATOM     13  C   UNL A   1      32.169  23.861  23.691  1.00  0.00     0.077 A 
ATOM     14  N   UNL A   1      33.097  24.886  23.461  1.00  0.00    -0.217 N 
ATOM     15  N   UNL A   1      33.691  23.317  22.130  1.00  0.00    -0.124 NA
ATOM     16  N   UNL A   1      33.871  24.587  22.409  1.00  0.00    -0.061 NA
BRANCH  13  17
ATOM     17  C   UNL A   1      30.983  24.110  24.570  1.00  0.00     0.055 C 
ATOM     18  C   UNL A   1      30.940  23.168  25.772  1.00  0.00     0.011 C 
ENDBRANCH  13  17
BRANCH  14  19
ATOM     19  C   UNL A   1      33.234  26.146  24.095  1.00  0.00     0.067 A 
ATOM     20  C   UNL A   1      32.741  27.290  23.452  1.00  0.00     0.030 A 
ATOM     21  C   UNL A   1      33.831  26.254  25.357  1.00  0.00     0.030 A 
ATOM     22  C   UNL A   1      32.758  28.518  24.118  1.00  0.00     0.023 A 
ATOM     23  C   UNL A   1      33.852  27.484  26.014  1.00  0.00     0.023 A 
ATOM     24  C   UNL A   1      33.298  28.606  25.401  1.00  0.00     0.041 A 
ATOM     25  Cl  UNL A   1      33.290  30.111  26.233  1.00  0.00    -0.084 Cl
ENDBRANCH  14  19
ENDBRANCH   9  12
ENDBRANCH   7   8
ENDBRANCH   4   7
ENDBRANCH   2   3
ENDBRANCH   1   2
BRANCH   1  26
ATOM     26  C   UNL A   1      37.010  23.407  25.954  1.00  0.00     0.118 C 
BRANCH  26  27
ATOM     27  N   UNL A   1      38.052  22.377  25.911  1.00  0.00    -0.352 N 
ATOM     28  C   UNL A   1      39.379  22.483  26.294  1.00  0.00     0.251 C 
ATOM     29  H   UNL A   1      37.774  21.499  25.565  1.00  0.00     0.163 HD
ATOM     30  O   UNL A   1      40.210  21.687  25.897  1.00  0.00    -0.269 OA
BRANCH  28  31
ATOM     31  C   UNL A   1      39.755  23.588  27.193  1.00  0.00     0.039 A 
ATOM     32  C   UNL A   1      40.921  23.531  27.959  1.00  0.00     0.014 A 
ATOM     33  C   UNL A   1      38.947  24.721  27.197  1.00  0.00     0.014 A 
ATOM     34  C   UNL A   1      41.320  24.671  28.654  1.00  0.00     0.010 A 
ATOM     35  C   UNL A   1      39.421  25.883  27.749  1.00  0.00     0.010 A 
ATOM     36  C   UNL A   1      40.579  25.857  28.519  1.00  0.00    -0.014 A 
BRANCH  36  37
ATOM     37  C   UNL A   1      41.080  27.117  29.066  1.00  0.00     0.031 A 
ATOM     38  C   UNL A   1      42.245  27.685  28.331  1.00  0.00     0.074 A 
ATOM     39  C   UNL A   1      40.410  27.832  29.997  1.00  0.00     0.049 A 
ATOM     40  N   UNL A   1      43.467  27.785  28.738  1.00  0.00    -0.248 NA
ATOM     41  C   UNL A   1      42.068  28.036  26.911  1.00  0.00     0.031 C 
ATOM     42  C   UNL A   1      39.086  27.562  30.572  1.00  0.00     0.029 A 
ATOM     43  N   UNL A   1      40.727  29.035  30.551  1.00  0.00    -0.354 N 
ATOM     44  C   UNL A   1      44.153  28.453  27.726  1.00  0.00     0.074 A 
ATOM     45  C   UNL A   1      43.312  28.376  26.561  1.00  0.00     0.031 C 
ATOM     46  C   UNL A   1      38.618  28.672  31.183  1.00  0.00     0.029 A 
ATOM     47  C   UNL A   1      39.673  29.666  31.207  1.00  0.00     0.049 A 
ATOM     48  H   UNL A   1      41.628  29.425  30.493  1.00  0.00     0.167 HD
ATOM     49  C   UNL A   1      45.224  29.248  28.009  1.00  0.00     0.037 A 
ATOM     50  C   UNL A   1      39.662  30.926  31.715  1.00  0.00     0.037 A 
ATOM     51  C   UNL A   1      45.722  28.983  29.338  1.00  0.00     0.049 A 
ATOM     52  C   UNL A   1      41.080  31.329  31.894  1.00  0.00     0.074 A 
ATOM     53  C   UNL A   1      46.191  27.864  29.998  1.00  0.00     0.029 A 
ATOM     54  N   UNL A   1      45.414  29.891  30.323  1.00  0.00    -0.354 N 
ATOM     55  N   UNL A   1      41.894  30.764  32.745  1.00  0.00    -0.248 NA
ATOM     56  C   UNL A   1      41.721  32.044  30.802  1.00  0.00     0.031 C 
ATOM     57  C   UNL A   1      45.673  27.973  31.323  1.00  0.00     0.029 A 
ATOM     58  C   UNL A   1      44.991  29.186  31.420  1.00  0.00     0.049 A 
ATOM     59  H   UNL A   1      45.484  30.870  30.253  1.00  0.00     0.167 HD
ATOM     60  C   UNL A   1      43.101  30.669  32.070  1.00  0.00     0.074 A 
ATOM     61  C   UNL A   1      42.960  31.559  30.918  1.00  0.00     0.031 C 
ATOM     62  C   UNL A   1      43.989  29.667  32.347  1.00  0.00     0.037 A 
BRANCH  49  63
ATOM     63  C   UNL A   1      45.565  30.529  27.271  1.00  0.00     0.058 A 
ATOM     64  C   UNL A   1      46.907  30.770  26.904  1.00  0.00     0.135 A 
ATOM     65  C   UNL A   1      44.704  31.645  27.169  1.00  0.00     0.135 A 
ATOM     66  F   UNL A   1      47.819  29.784  26.957  1.00  0.00    -0.206 F 
ATOM     67  C   UNL A   1      47.376  32.038  26.557  1.00  0.00     0.059 A 
ATOM     68  C   UNL A   1      45.139  32.905  26.773  1.00  0.00     0.059 A 
ATOM     69  F   UNL A   1      43.421  31.602  27.540  1.00  0.00    -0.206 F 
ATOM     70  C   UNL A   1      46.484  33.104  26.513  1.00  0.00     0.060 A 
BRANCH  70  71
ATOM     71  S   UNL A   1      47.098  34.762  26.172  1.00  0.00     0.124 S 
ATOM     72  O   UNL A   1      45.860  35.477  25.889  1.00  0.00    -0.237 OA
ATOM     73  O   UNL A   1      47.763  35.099  27.426  1.00  0.00    -0.237 OA
ATOM     74  O   UNL A   1      47.987  34.561  25.031  1.00  0.00    -0.744 OA
ENDBRANCH  70  71
ENDBRANCH  49  63
BRANCH  50  75
ATOM     75  C   UNL A   1      38.542  31.905  31.747  1.00  0.00     0.058 A 
ATOM     76  C   UNL A   1      38.004  32.433  30.557  1.00  0.00     0.135 A 
ATOM     77  C   UNL A   1      37.784  32.117  32.916  1.00  0.00     0.135 A 
ATOM     78  F   UNL A   1      38.651  32.267  29.393  1.00  0.00    -0.206 F 
ATOM     79  C   UNL A   1      36.760  33.074  30.519  1.00  0.00     0.059 A 
ATOM     80  C   UNL A   1      36.546  32.761  32.903  1.00  0.00     0.059 A 
ATOM     81  F   UNL A   1      38.179  31.617  34.096  1.00  0.00    -0.206 F 
ATOM     82  C   UNL A   1      36.026  33.212  31.696  1.00  0.00     0.060 A 
BRANCH  82  83
ATOM     83  S   UNL A   1      34.339  33.864  31.622  1.00  0.00     0.124 S 
ATOM     84  O   UNL A   1      33.667  33.083  32.654  1.00  0.00    -0.237 OA
ATOM     85  O   UNL A   1      34.541  35.278  31.921  1.00  0.00    -0.237 OA
ATOM     86  O   UNL A   1      33.924  33.575  30.251  1.00  0.00    -0.744 OA
ENDBRANCH  82  83
ENDBRANCH  50  75
BRANCH  62  87
ATOM     87  C   UNL A   1      43.794  28.868  33.613  1.00  0.00     0.058 A 
ATOM     88  C   UNL A   1      42.988  27.720  33.730  1.00  0.00     0.135 A 
ATOM     89  C   UNL A   1      44.569  29.216  34.730  1.00  0.00     0.135 A 
ATOM     90  F   UNL A   1      42.297  27.250  32.683  1.00  0.00    -0.206 F 
ATOM     91  C   UNL A   1      42.917  26.988  34.919  1.00  0.00     0.059 A 
ATOM     92  C   UNL A   1      44.541  28.483  35.911  1.00  0.00     0.059 A 
ATOM     93  F   UNL A   1      45.406  30.265  34.665  1.00  0.00    -0.206 F 
ATOM     94  C   UNL A   1      43.697  27.380  36.006  1.00  0.00     0.060 A 
BRANCH  94  95
ATOM     95  S   UNL A   1      43.643  26.410  37.528  1.00  0.00     0.124 S 
ATOM     96  O   UNL A   1      44.396  27.248  38.455  1.00  0.00    -0.237 OA
ATOM     97  O   UNL A   1      42.210  26.306  37.789  1.00  0.00    -0.237 OA
ATOM     98  O   UNL A   1      44.291  25.154  37.157  1.00  0.00    -0.744 OA
ENDBRANCH  94  95
ENDBRANCH  62  87
ENDBRANCH  36  37
ENDBRANCH  28  31
ENDBRANCH  26  27
ENDBRANCH   1  26
TORSDOF 17
ENDMDL
