MODEL 1
REMARK VINA RESULT:     -10.1      0.000      0.000
REMARK SMILES COc1cccc([C@H]2CC(c3ccc(S(C)(=O)=O)cc3)=NN2c2ccc(C(=O)NCCCNC(=O)c3ccc(-c4c5nc(c(-c6c(F)cc(S(=O)(=O)[O-])cc6F)c6ccc([nH]6)c(-c6c(F)cc(S(=O)(=O)[O-])cc6F)c6nc(c(-c7c(F)cc(S(=O)(=O)[O-])cc7F)c7ccc4[nH]7)C=C6)C=C5)cc3)cc2)c1
REMARK SMILES IDX 31 1 30 2 29 3 27 4 28 5 26 7 23 8 24 9 103 10 25 11 102 12
REMARK SMILES IDX 22 13 8 14 9 15 10 16 21 17 7 18 3 19 4 20 104 21 5 22 6 23
REMARK SMILES IDX 2 24 1 25 11 26 12 27 20 28 13 29 19 30 14 31 15 32 16 33
REMARK SMILES IDX 17 34 18 35 32 36 33 37 34 38 35 40 36 41 37 42 101 43 38 44
REMARK SMILES IDX 100 45 39 46 40 47 41 48 94 49 42 50 99 51 93 52 95 53 43 54
REMARK SMILES IDX 98 55 92 56 91 57 44 59 78 60 57 61 77 62 58 63 61 64 76 65
REMARK SMILES IDX 96 66 59 67 60 68 75 70 97 71 62 72 45 73 46 74 55 75 47 76
REMARK SMILES IDX 48 77 54 78 56 79 49 80 50 81 51 82 52 83 53 84 79 85 80 86
REMARK SMILES IDX 89 87 81 88 82 89 88 90 90 91 83 92 84 93 85 94 86 95 87 96
REMARK SMILES IDX 63 97 64 98 73 99 65 100 66 101 72 102 74 103 67 104 68 105
REMARK SMILES IDX 69 106 70 107 71 108
REMARK H PARENT 29 6 33 39 95 58 61 69
REMARK Flexibility Score: inf
ROOT
ATOM      1  C   UNL A   1      41.806  21.223  26.082  1.00  0.00     0.042 C 
ENDROOT
BRANCH   1   2
ATOM      2  C   UNL A   1      42.966  20.841  27.000  1.00  0.00     0.118 C 
BRANCH   2   3
ATOM      3  N   UNL A   1      42.797  21.421  28.319  1.00  0.00    -0.352 N 
ATOM      4  C   UNL A   1      43.220  22.603  28.871  1.00  0.00     0.251 C 
ATOM      5  O   UNL A   1      42.874  22.840  30.029  1.00  0.00    -0.269 OA
ATOM      6  H   UNL A   1      42.279  20.858  28.938  1.00  0.00     0.163 HD
BRANCH   4   7
ATOM      7  C   UNL A   1      44.009  23.622  28.126  1.00  0.00     0.039 A 
ATOM      8  C   UNL A   1      45.379  25.508  26.524  1.00  0.00     0.060 A 
ATOM      9  C   UNL A   1      44.052  25.167  26.250  1.00  0.00     0.029 A 
ATOM     10  C   UNL A   1      45.989  24.945  27.646  1.00  0.00     0.029 A 
ATOM     11  C   UNL A   1      43.379  24.220  27.025  1.00  0.00     0.016 A 
ATOM     12  C   UNL A   1      45.298  24.041  28.462  1.00  0.00     0.016 A 
BRANCH   8  13
ATOM     13  N   UNL A   1      46.052  26.382  25.691  1.00  0.00    -0.257 N 
ATOM     14  C   UNL A   1      45.436  27.512  25.001  1.00  0.00     0.144 C 
ATOM     15  C   UNL A   1      46.601  28.070  24.171  1.00  0.00     0.091 C 
ATOM     16  C   UNL A   1      47.650  27.034  24.468  1.00  0.00     0.071 C 
ATOM     17  N   UNL A   1      47.327  26.118  25.325  1.00  0.00    -0.176 NA
BRANCH  14  18
ATOM     18  C   UNL A   1      44.864  28.510  25.997  1.00  0.00    -0.019 A 
ATOM     19  C   UNL A   1      45.177  30.132  27.796  1.00  0.00     0.119 A 
ATOM     20  C   UNL A   1      43.794  30.211  27.953  1.00  0.00     0.046 A 
ATOM     21  C   UNL A   1      45.707  29.280  26.826  1.00  0.00     0.052 A 
ATOM     22  C   UNL A   1      42.944  29.466  27.136  1.00  0.00     0.004 A 
ATOM     23  C   UNL A   1      43.475  28.620  26.162  1.00  0.00     0.006 A 
BRANCH  19  24
ATOM     24  O   UNL A   1      45.901  30.901  28.666  1.00  0.00    -0.497 OA
ATOM     25  C   UNL A   1      45.192  31.933  29.339  1.00  0.00     0.278 C 
ENDBRANCH  19  24
ENDBRANCH  14  18
BRANCH  16  26
ATOM     26  C   UNL A   1      48.954  27.044  23.803  1.00  0.00    -0.002 A 
ATOM     27  C   UNL A   1      50.104  27.011  24.600  1.00  0.00     0.011 A 
ATOM     28  C   UNL A   1      49.042  27.157  22.415  1.00  0.00     0.011 A 
ATOM     29  C   UNL A   1      51.360  27.085  24.003  1.00  0.00     0.021 A 
ATOM     30  C   UNL A   1      50.299  27.260  21.817  1.00  0.00     0.021 A 
ATOM     31  C   UNL A   1      51.449  27.232  22.616  1.00  0.00     0.067 A 
BRANCH  31  32
ATOM     32  S   UNL A   1      53.053  27.401  21.868  1.00  0.00     0.175 S 
ATOM     33  C   UNL A   1      52.768  27.078  20.146  1.00  0.00     0.163 C 
ATOM     34  O   UNL A   1      53.446  28.786  22.023  1.00  0.00    -0.224 OA
ATOM     35  O   UNL A   1      53.887  26.327  22.377  1.00  0.00    -0.224 OA
ENDBRANCH  31  32
ENDBRANCH  16  26
ENDBRANCH   8  13
ENDBRANCH   4   7
ENDBRANCH   2   3
ENDBRANCH   1   2
BRANCH   1  36
ATOM     36  C   UNL A   1      40.534  21.589  26.842  1.00  0.00     0.118 C 
BRANCH  36  37
ATOM     37  N   UNL A   1      39.463  21.989  25.940  1.00  0.00    -0.352 N 
ATOM     38  C   UNL A   1      38.730  23.148  25.907  1.00  0.00     0.251 C 
ATOM     39  H   UNL A   1      39.232  21.329  25.247  1.00  0.00     0.163 HD
ATOM     40  O   UNL A   1      37.713  23.194  25.220  1.00  0.00    -0.269 OA
BRANCH  38  41
ATOM     41  C   UNL A   1      39.148  24.330  26.694  1.00  0.00     0.039 A 
ATOM     42  C   UNL A   1      38.646  24.487  27.990  1.00  0.00     0.014 A 
ATOM     43  C   UNL A   1      39.985  25.305  26.146  1.00  0.00     0.014 A 
ATOM     44  C   UNL A   1      39.021  25.595  28.751  1.00  0.00     0.010 A 
ATOM     45  C   UNL A   1      40.410  26.377  26.929  1.00  0.00     0.010 A 
ATOM     46  C   UNL A   1      39.926  26.537  28.236  1.00  0.00    -0.014 A 
BRANCH  46  47
ATOM     47  C   UNL A   1      40.373  27.699  29.046  1.00  0.00     0.031 A 
ATOM     48  C   UNL A   1      41.693  27.654  29.767  1.00  0.00     0.074 A 
ATOM     49  C   UNL A   1      39.561  28.766  29.181  1.00  0.00     0.049 A 
ATOM     50  N   UNL A   1      42.215  28.529  30.589  1.00  0.00    -0.248 NA
ATOM     51  C   UNL A   1      42.522  26.457  29.560  1.00  0.00     0.031 C 
ATOM     52  C   UNL A   1      38.241  28.908  28.564  1.00  0.00     0.029 A 
ATOM     53  N   UNL A   1      39.719  29.928  29.894  1.00  0.00    -0.354 N 
ATOM     54  C   UNL A   1      43.422  27.982  31.008  1.00  0.00     0.074 A 
ATOM     55  C   UNL A   1      43.534  26.681  30.385  1.00  0.00     0.031 C 
ATOM     56  C   UNL A   1      37.716  30.093  28.913  1.00  0.00     0.029 A 
ATOM     57  C   UNL A   1      38.644  30.781  29.807  1.00  0.00     0.049 A 
ATOM     58  H   UNL A   1      40.528  30.133  30.418  1.00  0.00     0.167 HD
ATOM     59  C   UNL A   1      44.360  28.524  31.822  1.00  0.00     0.037 A 
ATOM     60  C   UNL A   1      38.425  31.975  30.390  1.00  0.00     0.037 A 
ATOM     61  C   UNL A   1      44.254  29.831  32.415  1.00  0.00     0.049 A 
ATOM     62  C   UNL A   1      39.484  32.559  31.283  1.00  0.00     0.074 A 
ATOM     63  C   UNL A   1      45.173  30.495  33.209  1.00  0.00     0.029 A 
ATOM     64  N   UNL A   1      43.162  30.676  32.278  1.00  0.00    -0.354 N 
ATOM     65  N   UNL A   1      40.644  32.051  31.626  1.00  0.00    -0.248 NA
ATOM     66  C   UNL A   1      39.210  33.880  31.866  1.00  0.00     0.031 C 
ATOM     67  C   UNL A   1      44.622  31.725  33.582  1.00  0.00     0.029 A 
ATOM     68  C   UNL A   1      43.378  31.848  32.985  1.00  0.00     0.049 A 
ATOM     69  H   UNL A   1      42.352  30.474  31.756  1.00  0.00     0.167 HD
ATOM     70  C   UNL A   1      41.249  33.002  32.441  1.00  0.00     0.074 A 
ATOM     71  C   UNL A   1      40.330  34.119  32.532  1.00  0.00     0.031 C 
ATOM     72  C   UNL A   1      42.456  32.954  33.057  1.00  0.00     0.037 A 
BRANCH  59  73
ATOM     73  C   UNL A   1      45.588  27.705  32.116  1.00  0.00     0.058 A 
ATOM     74  C   UNL A   1      46.733  27.779  31.306  1.00  0.00     0.135 A 
ATOM     75  C   UNL A   1      45.634  26.861  33.237  1.00  0.00     0.135 A 
ATOM     76  F   UNL A   1      46.739  28.558  30.213  1.00  0.00    -0.206 F 
ATOM     77  C   UNL A   1      47.869  27.025  31.582  1.00  0.00     0.059 A 
ATOM     78  C   UNL A   1      46.770  26.118  33.547  1.00  0.00     0.059 A 
ATOM     79  F   UNL A   1      44.567  26.752  34.045  1.00  0.00    -0.206 F 
ATOM     80  C   UNL A   1      47.877  26.196  32.705  1.00  0.00     0.060 A 
BRANCH  80  81
ATOM     81  S   UNL A   1      49.361  25.227  33.051  1.00  0.00     0.124 S 
ATOM     82  O   UNL A   1      49.768  24.830  31.706  1.00  0.00    -0.237 OA
ATOM     83  O   UNL A   1      50.224  26.201  33.711  1.00  0.00    -0.237 OA
ATOM     84  O   UNL A   1      48.871  24.148  33.903  1.00  0.00    -0.744 OA
ENDBRANCH  80  81
ENDBRANCH  59  73
BRANCH  60  85
ATOM     85  C   UNL A   1      37.156  32.706  30.127  1.00  0.00     0.058 A 
ATOM     86  C   UNL A   1      36.008  32.453  30.892  1.00  0.00     0.135 A 
ATOM     87  C   UNL A   1      37.072  33.682  29.123  1.00  0.00     0.135 A 
ATOM     88  F   UNL A   1      36.039  31.525  31.861  1.00  0.00    -0.206 F 
ATOM     89  C   UNL A   1      34.815  33.130  30.662  1.00  0.00     0.059 A 
ATOM     90  C   UNL A   1      35.897  34.390  28.889  1.00  0.00     0.059 A 
ATOM     91  F   UNL A   1      38.148  33.974  28.376  1.00  0.00    -0.206 F 
ATOM     92  C   UNL A   1      34.771  34.100  29.658  1.00  0.00     0.060 A 
BRANCH  92  93
ATOM     93  S   UNL A   1      33.233  35.011  29.402  1.00  0.00     0.124 S 
ATOM     94  O   UNL A   1      32.660  35.004  30.743  1.00  0.00    -0.237 OA
ATOM     95  O   UNL A   1      33.716  36.302  28.921  1.00  0.00    -0.237 OA
ATOM     96  O   UNL A   1      32.530  34.206  28.408  1.00  0.00    -0.744 OA
ENDBRANCH  92  93
ENDBRANCH  60  85
BRANCH  72  97
ATOM     97  C   UNL A   1      42.872  34.157  33.855  1.00  0.00     0.058 A 
ATOM     98  C   UNL A   1      42.663  34.232  35.240  1.00  0.00     0.135 A 
ATOM     99  C   UNL A   1      43.539  35.225  33.232  1.00  0.00     0.135 A 
ATOM    100  F   UNL A   1      42.024  33.241  35.881  1.00  0.00    -0.206 F 
ATOM    101  C   UNL A   1      43.083  35.333  35.979  1.00  0.00     0.059 A 
ATOM    102  C   UNL A   1      43.991  36.324  33.956  1.00  0.00     0.059 A 
ATOM    103  F   UNL A   1      43.773  35.198  31.911  1.00  0.00    -0.206 F 
ATOM    104  C   UNL A   1      43.749  36.374  35.328  1.00  0.00     0.060 A 
BRANCH 104 105
ATOM    105  S   UNL A   1      44.324  37.779  36.304  1.00  0.00     0.124 S 
ATOM    106  O   UNL A   1      43.407  37.744  37.438  1.00  0.00    -0.237 OA
ATOM    107  O   UNL A   1      45.707  37.415  36.594  1.00  0.00    -0.237 OA
ATOM    108  O   UNL A   1      44.158  38.912  35.398  1.00  0.00    -0.744 OA
ENDBRANCH 104 105
ENDBRANCH  72  97
ENDBRANCH  46  47
ENDBRANCH  38  41
ENDBRANCH  36  37
ENDBRANCH   1  36
TORSDOF 18
ENDMDL
MODEL 2
REMARK VINA RESULT:      -9.9      3.838     12.212
REMARK SMILES COc1cccc([C@H]2CC(c3ccc(S(C)(=O)=O)cc3)=NN2c2ccc(C(=O)NCCCNC(=O)c3ccc(-c4c5nc(c(-c6c(F)cc(S(=O)(=O)[O-])cc6F)c6ccc([nH]6)c(-c6c(F)cc(S(=O)(=O)[O-])cc6F)c6nc(c(-c7c(F)cc(S(=O)(=O)[O-])cc7F)c7ccc4[nH]7)C=C6)C=C5)cc3)cc2)c1
REMARK SMILES IDX 31 1 30 2 29 3 27 4 28 5 26 7 23 8 24 9 103 10 25 11 102 12
REMARK SMILES IDX 22 13 8 14 9 15 10 16 21 17 7 18 3 19 4 20 104 21 5 22 6 23
REMARK SMILES IDX 2 24 1 25 11 26 12 27 20 28 13 29 19 30 14 31 15 32 16 33
REMARK SMILES IDX 17 34 18 35 32 36 33 37 34 38 35 40 36 41 37 42 101 43 38 44
REMARK SMILES IDX 100 45 39 46 40 47 41 48 94 49 42 50 99 51 93 52 95 53 43 54
REMARK SMILES IDX 98 55 92 56 91 57 44 59 78 60 57 61 77 62 58 63 61 64 76 65
REMARK SMILES IDX 96 66 59 67 60 68 75 70 97 71 62 72 45 73 46 74 55 75 47 76
REMARK SMILES IDX 48 77 54 78 56 79 49 80 50 81 51 82 52 83 53 84 79 85 80 86
REMARK SMILES IDX 89 87 81 88 82 89 88 90 90 91 83 92 84 93 85 94 86 95 87 96
REMARK SMILES IDX 63 97 64 98 73 99 65 100 66 101 72 102 74 103 67 104 68 105
REMARK SMILES IDX 69 106 70 107 71 108
REMARK H PARENT 29 6 33 39 95 58 61 69
REMARK Flexibility Score: inf
ROOT
ATOM      1  C   UNL A   1      35.774  33.835  29.259  1.00  0.00     0.042 C 
ENDROOT
BRANCH   1   2
ATOM      2  C   UNL A   1      34.354  33.565  29.753  1.00  0.00     0.118 C 
BRANCH   2   3
ATOM      3  N   UNL A   1      33.958  34.539  30.752  1.00  0.00    -0.352 N 
ATOM      4  C   UNL A   1      34.441  34.833  32.001  1.00  0.00     0.251 C 
ATOM      5  O   UNL A   1      33.911  35.765  32.606  1.00  0.00    -0.269 OA
ATOM      6  H   UNL A   1      33.192  35.096  30.482  1.00  0.00     0.163 HD
BRANCH   4   7
ATOM      7  C   UNL A   1      35.601  34.132  32.619  1.00  0.00     0.039 A 
ATOM      8  C   UNL A   1      37.940  32.932  33.661  1.00  0.00     0.060 A 
ATOM      9  C   UNL A   1      37.962  34.245  33.181  1.00  0.00     0.029 A 
ATOM     10  C   UNL A   1      36.720  32.253  33.675  1.00  0.00     0.029 A 
ATOM     11  C   UNL A   1      36.815  34.833  32.646  1.00  0.00     0.016 A 
ATOM     12  C   UNL A   1      35.555  32.861  33.195  1.00  0.00     0.016 A 
BRANCH   8  13
ATOM     13  N   UNL A   1      39.107  32.340  34.106  1.00  0.00    -0.257 N 
ATOM     14  C   UNL A   1      39.957  32.876  35.166  1.00  0.00     0.144 C 
ATOM     15  C   UNL A   1      41.129  31.884  35.185  1.00  0.00     0.091 C 
ATOM     16  C   UNL A   1      40.761  31.025  34.006  1.00  0.00     0.071 C 
ATOM     17  N   UNL A   1      39.629  31.289  33.435  1.00  0.00    -0.176 NA
BRANCH  14  18
ATOM     18  C   UNL A   1      39.200  32.949  36.484  1.00  0.00    -0.019 A 
ATOM     19  C   UNL A   1      37.709  31.943  38.136  1.00  0.00     0.119 A 
ATOM     20  C   UNL A   1      37.662  33.157  38.820  1.00  0.00     0.046 A 
ATOM     21  C   UNL A   1      38.471  31.845  36.971  1.00  0.00     0.052 A 
ATOM     22  C   UNL A   1      38.383  34.259  38.360  1.00  0.00     0.004 A 
ATOM     23  C   UNL A   1      39.150  34.156  37.199  1.00  0.00     0.006 A 
BRANCH  19  24
ATOM     24  O   UNL A   1      36.948  30.945  38.681  1.00  0.00    -0.497 OA
ATOM     25  C   UNL A   1      36.340  31.225  39.935  1.00  0.00     0.278 C 
ENDBRANCH  19  24
ENDBRANCH  14  18
BRANCH  16  26
ATOM     26  C   UNL A   1      41.648  29.969  33.514  1.00  0.00    -0.002 A 
ATOM     27  C   UNL A   1      41.398  28.654  33.920  1.00  0.00     0.011 A 
ATOM     28  C   UNL A   1      42.752  30.282  32.721  1.00  0.00     0.011 A 
ATOM     29  C   UNL A   1      42.260  27.634  33.525  1.00  0.00     0.021 A 
ATOM     30  C   UNL A   1      43.633  29.266  32.346  1.00  0.00     0.021 A 
ATOM     31  C   UNL A   1      43.386  27.950  32.758  1.00  0.00     0.067 A 
BRANCH  31  32
ATOM     32  S   UNL A   1      44.521  26.655  32.318  1.00  0.00     0.175 S 
ATOM     33  C   UNL A   1      44.216  25.382  33.516  1.00  0.00     0.163 C 
ATOM     34  O   UNL A   1      44.121  26.171  31.013  1.00  0.00    -0.224 OA
ATOM     35  O   UNL A   1      45.865  27.154  32.549  1.00  0.00    -0.224 OA
ENDBRANCH  31  32
ENDBRANCH  16  26
ENDBRANCH   8  13
ENDBRANCH   4   7
ENDBRANCH   2   3
ENDBRANCH   1   2
BRANCH   1  36
ATOM     36  C   UNL A   1      36.712  32.645  29.448  1.00  0.00     0.118 C 
BRANCH  36  37
ATOM     37  N   UNL A   1      36.063  31.556  30.164  1.00  0.00    -0.352 N 
ATOM     38  C   UNL A   1      36.450  30.248  30.313  1.00  0.00     0.251 C 
ATOM     39  H   UNL A   1      35.219  31.795  30.611  1.00  0.00     0.163 HD
ATOM     40  O   UNL A   1      35.646  29.431  30.752  1.00  0.00    -0.269 OA
BRANCH  38  41
ATOM     41  C   UNL A   1      37.817  29.818  29.942  1.00  0.00     0.039 A 
ATOM     42  C   UNL A   1      38.179  29.816  28.592  1.00  0.00     0.014 A 
ATOM     43  C   UNL A   1      38.722  29.370  30.909  1.00  0.00     0.014 A 
ATOM     44  C   UNL A   1      39.460  29.409  28.216  1.00  0.00     0.010 A 
ATOM     45  C   UNL A   1      40.021  29.027  30.539  1.00  0.00     0.010 A 
ATOM     46  C   UNL A   1      40.400  29.035  29.188  1.00  0.00    -0.014 A 
BRANCH  46  47
ATOM     47  C   UNL A   1      41.783  28.643  28.814  1.00  0.00     0.031 A 
ATOM     48  C   UNL A   1      42.878  29.674  28.780  1.00  0.00     0.074 A 
ATOM     49  C   UNL A   1      42.036  27.372  28.443  1.00  0.00     0.049 A 
ATOM     50  N   UNL A   1      44.122  29.546  28.396  1.00  0.00    -0.248 NA
ATOM     51  C   UNL A   1      42.521  31.036  29.207  1.00  0.00     0.031 C 
ATOM     52  C   UNL A   1      41.047  26.292  28.396  1.00  0.00     0.029 A 
ATOM     53  N   UNL A   1      43.198  26.776  28.021  1.00  0.00    -0.354 N 
ATOM     54  C   UNL A   1      44.690  30.809  28.520  1.00  0.00     0.074 A 
ATOM     55  C   UNL A   1      43.643  31.699  28.971  1.00  0.00     0.031 C 
ATOM     56  C   UNL A   1      41.646  25.164  27.982  1.00  0.00     0.029 A 
ATOM     57  C   UNL A   1      43.051  25.446  27.700  1.00  0.00     0.049 A 
ATOM     58  H   UNL A   1      44.056  27.255  27.954  1.00  0.00     0.167 HD
ATOM     59  C   UNL A   1      45.972  31.186  28.296  1.00  0.00     0.037 A 
ATOM     60  C   UNL A   1      43.944  24.559  27.222  1.00  0.00     0.037 A 
ATOM     61  C   UNL A   1      47.015  30.287  27.874  1.00  0.00     0.049 A 
ATOM     62  C   UNL A   1      45.363  25.000  26.989  1.00  0.00     0.074 A 
ATOM     63  C   UNL A   1      48.357  30.559  27.673  1.00  0.00     0.029 A 
ATOM     64  N   UNL A   1      46.833  28.942  27.589  1.00  0.00    -0.354 N 
ATOM     65  N   UNL A   1      45.895  26.186  27.162  1.00  0.00    -0.248 NA
ATOM     66  C   UNL A   1      46.304  23.983  26.501  1.00  0.00     0.031 C 
ATOM     67  C   UNL A   1      48.979  29.386  27.231  1.00  0.00     0.029 A 
ATOM     68  C   UNL A   1      48.034  28.373  27.199  1.00  0.00     0.049 A 
ATOM     69  H   UNL A   1      45.976  28.461  27.653  1.00  0.00     0.167 HD
ATOM     70  C   UNL A   1      47.239  26.051  26.831  1.00  0.00     0.074 A 
ATOM     71  C   UNL A   1      47.440  24.666  26.456  1.00  0.00     0.031 C 
ATOM     72  C   UNL A   1      48.218  26.990  26.838  1.00  0.00     0.037 A 
BRANCH  59  73
ATOM     73  C   UNL A   1      46.321  32.635  28.508  1.00  0.00     0.058 A 
ATOM     74  C   UNL A   1      46.254  33.568  27.461  1.00  0.00     0.135 A 
ATOM     75  C   UNL A   1      46.693  33.102  29.778  1.00  0.00     0.135 A 
ATOM     76  F   UNL A   1      45.917  33.174  26.223  1.00  0.00    -0.206 F 
ATOM     77  C   UNL A   1      46.572  34.908  27.660  1.00  0.00     0.059 A 
ATOM     78  C   UNL A   1      46.989  34.444  30.006  1.00  0.00     0.059 A 
ATOM     79  F   UNL A   1      46.774  32.253  30.815  1.00  0.00    -0.206 F 
ATOM     80  C   UNL A   1      46.940  35.336  28.936  1.00  0.00     0.060 A 
BRANCH  80  81
ATOM     81  S   UNL A   1      47.346  37.079  29.178  1.00  0.00     0.124 S 
ATOM     82  O   UNL A   1      48.194  37.017  30.365  1.00  0.00    -0.237 OA
ATOM     83  O   UNL A   1      48.026  37.417  27.933  1.00  0.00    -0.237 OA
ATOM     84  O   UNL A   1      46.043  37.708  29.369  1.00  0.00    -0.744 OA
ENDBRANCH  80  81
ENDBRANCH  59  73
BRANCH  60  85
ATOM     85  C   UNL A   1      43.525  23.157  26.954  1.00  0.00     0.058 A 
ATOM     86  C   UNL A   1      43.439  22.670  25.641  1.00  0.00     0.135 A 
ATOM     87  C   UNL A   1      43.220  22.274  28.001  1.00  0.00     0.135 A 
ATOM     88  F   UNL A   1      43.717  23.479  24.607  1.00  0.00    -0.206 F 
ATOM     89  C   UNL A   1      43.052  21.362  25.373  1.00  0.00     0.059 A 
ATOM     90  C   UNL A   1      42.854  20.954  27.759  1.00  0.00     0.059 A 
ATOM     91  F   UNL A   1      43.305  22.686  29.275  1.00  0.00    -0.206 F 
ATOM     92  C   UNL A   1      42.763  20.509  26.441  1.00  0.00     0.060 A 
BRANCH  92  93
ATOM     93  S   UNL A   1      42.312  18.797  26.085  1.00  0.00     0.124 S 
ATOM     94  O   UNL A   1      40.886  18.921  25.808  1.00  0.00    -0.237 OA
ATOM     95  O   UNL A   1      43.161  18.487  24.939  1.00  0.00    -0.237 OA
ATOM     96  O   UNL A   1      42.659  18.097  27.318  1.00  0.00    -0.744 OA
ENDBRANCH  92  93
ENDBRANCH  60  85
BRANCH  72  97
ATOM     97  C   UNL A   1      49.604  26.545  26.464  1.00  0.00     0.058 A 
ATOM     98  C   UNL A   1      50.485  26.004  27.412  1.00  0.00     0.135 A 
ATOM     99  C   UNL A   1      50.034  26.612  25.129  1.00  0.00     0.135 A 
ATOM    100  F   UNL A   1      50.125  25.925  28.703  1.00  0.00    -0.206 F 
ATOM    101  C   UNL A   1      51.754  25.561  27.053  1.00  0.00     0.059 A 
ATOM    102  C   UNL A   1      51.289  26.151  24.743  1.00  0.00     0.059 A 
ATOM    103  F   UNL A   1      49.225  27.112  24.182  1.00  0.00    -0.206 F 
ATOM    104  C   UNL A   1      52.146  25.637  25.714  1.00  0.00     0.060 A 
BRANCH 104 105
ATOM    105  S   UNL A   1      53.780  25.023  25.254  1.00  0.00     0.124 S 
ATOM    106  O   UNL A   1      54.570  25.383  26.426  1.00  0.00    -0.237 OA
ATOM    107  O   UNL A   1      53.538  23.596  25.066  1.00  0.00    -0.237 OA
ATOM    108  O   UNL A   1      54.090  25.765  24.035  1.00  0.00    -0.744 OA
ENDBRANCH 104 105
ENDBRANCH  72  97
ENDBRANCH  46  47
ENDBRANCH  38  41
ENDBRANCH  36  37
ENDBRANCH   1  36
TORSDOF 18
ENDMDL
MODEL 3
REMARK VINA RESULT:      -9.8      5.601     11.960
REMARK SMILES COc1cccc([C@H]2CC(c3ccc(S(C)(=O)=O)cc3)=NN2c2ccc(C(=O)NCCCNC(=O)c3ccc(-c4c5nc(c(-c6c(F)cc(S(=O)(=O)[O-])cc6F)c6ccc([nH]6)c(-c6c(F)cc(S(=O)(=O)[O-])cc6F)c6nc(c(-c7c(F)cc(S(=O)(=O)[O-])cc7F)c7ccc4[nH]7)C=C6)C=C5)cc3)cc2)c1
REMARK SMILES IDX 31 1 30 2 29 3 27 4 28 5 26 7 23 8 24 9 103 10 25 11 102 12
REMARK SMILES IDX 22 13 8 14 9 15 10 16 21 17 7 18 3 19 4 20 104 21 5 22 6 23
REMARK SMILES IDX 2 24 1 25 11 26 12 27 20 28 13 29 19 30 14 31 15 32 16 33
REMARK SMILES IDX 17 34 18 35 32 36 33 37 34 38 35 40 36 41 37 42 101 43 38 44
REMARK SMILES IDX 100 45 39 46 40 47 41 48 94 49 42 50 99 51 93 52 95 53 43 54
REMARK SMILES IDX 98 55 92 56 91 57 44 59 78 60 57 61 77 62 58 63 61 64 76 65
REMARK SMILES IDX 96 66 59 67 60 68 75 70 97 71 62 72 45 73 46 74 55 75 47 76
REMARK SMILES IDX 48 77 54 78 56 79 49 80 50 81 51 82 52 83 53 84 79 85 80 86
REMARK SMILES IDX 89 87 81 88 82 89 88 90 90 91 83 92 84 93 85 94 86 95 87 96
REMARK SMILES IDX 63 97 64 98 73 99 65 100 66 101 72 102 74 103 67 104 68 105
REMARK SMILES IDX 69 106 70 107 71 108
REMARK H PARENT 29 6 33 39 95 58 61 69
REMARK Flexibility Score: inf
ROOT
ATOM      1  C   UNL A   1      32.128  33.109  27.278  1.00  0.00     0.042 C 
ENDROOT
BRANCH   1   2
ATOM      2  C   UNL A   1      32.525  31.708  26.817  1.00  0.00     0.118 C 
BRANCH   2   3
ATOM      3  N   UNL A   1      33.710  31.248  27.516  1.00  0.00    -0.352 N 
ATOM      4  C   UNL A   1      34.286  30.010  27.644  1.00  0.00     0.251 C 
ATOM      5  O   UNL A   1      35.339  29.942  28.281  1.00  0.00    -0.269 OA
ATOM      6  H   UNL A   1      34.194  31.961  27.991  1.00  0.00     0.163 HD
BRANCH   4   7
ATOM      7  C   UNL A   1      33.742  28.780  27.006  1.00  0.00     0.039 A 
ATOM      8  C   UNL A   1      32.592  26.405  25.989  1.00  0.00     0.060 A 
ATOM      9  C   UNL A   1      31.929  27.162  26.958  1.00  0.00     0.029 A 
ATOM     10  C   UNL A   1      33.803  26.885  25.487  1.00  0.00     0.029 A 
ATOM     11  C   UNL A   1      32.504  28.324  27.478  1.00  0.00     0.016 A 
ATOM     12  C   UNL A   1      34.354  28.081  25.963  1.00  0.00     0.016 A 
BRANCH   8  13
ATOM     13  N   UNL A   1      32.045  25.213  25.551  1.00  0.00    -0.257 N 
ATOM     14  C   UNL A   1      30.613  24.926  25.501  1.00  0.00     0.144 C 
ATOM     15  C   UNL A   1      30.584  23.466  25.028  1.00  0.00     0.091 C 
ATOM     16  C   UNL A   1      32.058  23.164  25.026  1.00  0.00     0.071 C 
ATOM     17  N   UNL A   1      32.847  24.153  25.304  1.00  0.00    -0.176 NA
BRANCH  14  18
ATOM     18  C   UNL A   1      29.900  25.886  24.559  1.00  0.00    -0.019 A 
ATOM     19  C   UNL A   1      29.969  27.660  22.883  1.00  0.00     0.119 A 
ATOM     20  C   UNL A   1      28.582  27.777  22.963  1.00  0.00     0.046 A 
ATOM     21  C   UNL A   1      30.623  26.723  23.684  1.00  0.00     0.052 A 
ATOM     22  C   UNL A   1      27.849  26.952  23.815  1.00  0.00     0.004 A 
ATOM     23  C   UNL A   1      28.503  26.010  24.609  1.00  0.00     0.006 A 
BRANCH  19  24
ATOM     24  O   UNL A   1      30.572  28.535  22.021  1.00  0.00    -0.497 OA
ATOM     25  C   UNL A   1      30.000  29.833  21.932  1.00  0.00     0.278 C 
ENDBRANCH  19  24
ENDBRANCH  14  18
BRANCH  16  26
ATOM     26  C   UNL A   1      32.569  21.820  24.753  1.00  0.00    -0.002 A 
ATOM     27  C   UNL A   1      32.082  21.143  23.629  1.00  0.00     0.011 A 
ATOM     28  C   UNL A   1      33.464  21.209  25.632  1.00  0.00     0.011 A 
ATOM     29  C   UNL A   1      32.498  19.838  23.376  1.00  0.00     0.021 A 
ATOM     30  C   UNL A   1      33.860  19.891  25.395  1.00  0.00     0.021 A 
ATOM     31  C   UNL A   1      33.368  19.212  24.274  1.00  0.00     0.067 A 
BRANCH  31  32
ATOM     32  S   UNL A   1      33.837  17.522  23.984  1.00  0.00     0.175 S 
ATOM     33  C   UNL A   1      32.767  16.584  25.045  1.00  0.00     0.163 C 
ATOM     34  O   UNL A   1      33.504  17.224  22.606  1.00  0.00    -0.224 OA
ATOM     35  O   UNL A   1      35.192  17.353  24.478  1.00  0.00    -0.224 OA
ENDBRANCH  31  32
ENDBRANCH  16  26
ENDBRANCH   8  13
ENDBRANCH   4   7
ENDBRANCH   2   3
ENDBRANCH   1   2
BRANCH   1  36
ATOM     36  C   UNL A   1      33.319  33.958  27.715  1.00  0.00     0.118 C 
BRANCH  36  37
ATOM     37  N   UNL A   1      32.907  35.064  28.568  1.00  0.00    -0.352 N 
ATOM     38  C   UNL A   1      33.272  35.363  29.857  1.00  0.00     0.251 C 
ATOM     39  H   UNL A   1      32.273  35.695  28.157  1.00  0.00     0.163 HD
ATOM     40  O   UNL A   1      32.631  36.204  30.481  1.00  0.00    -0.269 OA
BRANCH  38  41
ATOM     41  C   UNL A   1      34.416  34.676  30.497  1.00  0.00     0.039 A 
ATOM     42  C   UNL A   1      35.696  34.867  29.970  1.00  0.00     0.014 A 
ATOM     43  C   UNL A   1      34.227  33.807  31.576  1.00  0.00     0.014 A 
ATOM     44  C   UNL A   1      36.791  34.226  30.552  1.00  0.00     0.010 A 
ATOM     45  C   UNL A   1      35.327  33.220  32.196  1.00  0.00     0.010 A 
ATOM     46  C   UNL A   1      36.619  33.416  31.686  1.00  0.00    -0.014 A 
BRANCH  46  47
ATOM     47  C   UNL A   1      37.776  32.761  32.348  1.00  0.00     0.031 A 
ATOM     48  C   UNL A   1      38.446  31.579  31.702  1.00  0.00     0.074 A 
ATOM     49  C   UNL A   1      38.179  33.191  33.560  1.00  0.00     0.049 A 
ATOM     50  N   UNL A   1      39.409  30.822  32.162  1.00  0.00    -0.248 NA
ATOM     51  C   UNL A   1      37.951  31.178  30.375  1.00  0.00     0.031 C 
ATOM     52  C   UNL A   1      37.581  34.301  34.305  1.00  0.00     0.029 A 
ATOM     53  N   UNL A   1      39.177  32.738  34.386  1.00  0.00    -0.354 N 
ATOM     54  C   UNL A   1      39.623  29.848  31.193  1.00  0.00     0.074 A 
ATOM     55  C   UNL A   1      38.660  30.084  30.140  1.00  0.00     0.031 C 
ATOM     56  C   UNL A   1      38.231  34.451  35.470  1.00  0.00     0.029 A 
ATOM     57  C   UNL A   1      39.268  33.427  35.572  1.00  0.00     0.049 A 
ATOM     58  H   UNL A   1      39.772  31.989  34.151  1.00  0.00     0.167 HD
ATOM     59  C   UNL A   1      40.551  28.861  31.175  1.00  0.00     0.037 A 
ATOM     60  C   UNL A   1      40.085  33.247  36.628  1.00  0.00     0.037 A 
ATOM     61  C   UNL A   1      41.525  28.652  32.214  1.00  0.00     0.049 A 
ATOM     62  C   UNL A   1      41.111  32.150  36.581  1.00  0.00     0.074 A 
ATOM     63  C   UNL A   1      42.543  27.715  32.265  1.00  0.00     0.029 A 
ATOM     64  N   UNL A   1      41.603  29.390  33.387  1.00  0.00    -0.354 N 
ATOM     65  N   UNL A   1      41.335  31.271  35.632  1.00  0.00    -0.248 NA
ATOM     66  C   UNL A   1      42.000  32.019  37.743  1.00  0.00     0.031 C 
ATOM     67  C   UNL A   1      43.213  27.863  33.484  1.00  0.00     0.029 A 
ATOM     68  C   UNL A   1      42.642  28.921  34.174  1.00  0.00     0.049 A 
ATOM     69  H   UNL A   1      41.008  30.137  33.625  1.00  0.00     0.167 HD
ATOM     70  C   UNL A   1      42.408  30.503  36.071  1.00  0.00     0.074 A 
ATOM     71  C   UNL A   1      42.793  31.026  37.366  1.00  0.00     0.031 C 
ATOM     72  C   UNL A   1      43.018  29.460  35.457  1.00  0.00     0.037 A 
BRANCH  59  73
ATOM     73  C   UNL A   1      40.561  27.934  29.990  1.00  0.00     0.058 A 
ATOM     74  C   UNL A   1      39.612  26.908  29.850  1.00  0.00     0.135 A 
ATOM     75  C   UNL A   1      41.508  28.092  28.965  1.00  0.00     0.135 A 
ATOM     76  F   UNL A   1      38.693  26.702  30.806  1.00  0.00    -0.206 F 
ATOM     77  C   UNL A   1      39.620  26.054  28.752  1.00  0.00     0.059 A 
ATOM     78  C   UNL A   1      41.517  27.267  27.844  1.00  0.00     0.059 A 
ATOM     79  F   UNL A   1      42.438  29.057  29.048  1.00  0.00    -0.206 F 
ATOM     80  C   UNL A   1      40.578  26.241  27.754  1.00  0.00     0.060 A 
BRANCH  80  81
ATOM     81  S   UNL A   1      40.572  25.127  26.333  1.00  0.00     0.124 S 
ATOM     82  O   UNL A   1      41.426  24.043  26.810  1.00  0.00    -0.237 OA
ATOM     83  O   UNL A   1      39.156  24.802  26.196  1.00  0.00    -0.237 OA
ATOM     84  O   UNL A   1      41.132  25.942  25.259  1.00  0.00    -0.744 OA
ENDBRANCH  80  81
ENDBRANCH  59  73
BRANCH  60  85
ATOM     85  C   UNL A   1      39.977  34.145  37.809  1.00  0.00     0.058 A 
ATOM     86  C   UNL A   1      39.096  33.849  38.860  1.00  0.00     0.135 A 
ATOM     87  C   UNL A   1      40.764  35.301  37.920  1.00  0.00     0.135 A 
ATOM     88  F   UNL A   1      38.320  32.756  38.796  1.00  0.00    -0.206 F 
ATOM     89  C   UNL A   1      38.986  34.675  39.973  1.00  0.00     0.059 A 
ATOM     90  C   UNL A   1      40.689  36.131  39.035  1.00  0.00     0.059 A 
ATOM     91  F   UNL A   1      41.636  35.618  36.950  1.00  0.00    -0.206 F 
ATOM     92  C   UNL A   1      39.790  35.814  40.052  1.00  0.00     0.060 A 
BRANCH  92  93
ATOM     93  S   UNL A   1      39.678  36.853  41.525  1.00  0.00     0.124 S 
ATOM     94  O   UNL A   1      39.212  38.114  40.960  1.00  0.00    -0.237 OA
ATOM     95  O   UNL A   1      38.713  36.124  42.343  1.00  0.00    -0.237 OA
ATOM     96  O   UNL A   1      41.045  36.855  42.037  1.00  0.00    -0.744 OA
ENDBRANCH  92  93
ENDBRANCH  60  85
BRANCH  72  97
ATOM     97  C   UNL A   1      44.192  28.835  36.158  1.00  0.00     0.058 A 
ATOM     98  C   UNL A   1      45.483  29.372  36.054  1.00  0.00     0.135 A 
ATOM     99  C   UNL A   1      44.009  27.717  36.988  1.00  0.00     0.135 A 
ATOM    100  F   UNL A   1      45.712  30.436  35.267  1.00  0.00    -0.206 F 
ATOM    101  C   UNL A   1      46.559  28.811  36.734  1.00  0.00     0.059 A 
ATOM    102  C   UNL A   1      45.066  27.156  37.698  1.00  0.00     0.059 A 
ATOM    103  F   UNL A   1      42.791  27.172  37.130  1.00  0.00    -0.206 F 
ATOM    104  C   UNL A   1      46.340  27.703  37.556  1.00  0.00     0.060 A 
BRANCH 104 105
ATOM    105  S   UNL A   1      47.736  27.008  38.464  1.00  0.00     0.124 S 
ATOM    106  O   UNL A   1      48.679  28.120  38.450  1.00  0.00    -0.237 OA
ATOM    107  O   UNL A   1      47.143  26.695  39.760  1.00  0.00    -0.237 OA
ATOM    108  O   UNL A   1      48.120  25.850  37.662  1.00  0.00    -0.744 OA
ENDBRANCH 104 105
ENDBRANCH  72  97
ENDBRANCH  46  47
ENDBRANCH  38  41
ENDBRANCH  36  37
ENDBRANCH   1  36
TORSDOF 18
ENDMDL
