MODEL 1
REMARK VINA RESULT:      -9.9      0.000      0.000
REMARK SMILES COc1ccc(-c2ccc(C(=O)NCc3ccc(C(=O)NCCCNC(=O)c4ccc(-c5c6nc(c(-c7c(F)cc(S(=O)(=O)[O-])cc7F)c7ccc([nH]7)c(-c7c(F)cc(S(=O)(=O)[O-])cc7F)c7nc(c(-c8c(F)cc(S(=O)(=O)[O-])cc8F)c8ccc5[nH]8)C=C7)C=C6)cc4)cc3)o2)c([N+](=O)[O-])c1
REMARK SMILES IDX 22 1 21 2 19 3 20 4 18 6 15 7 16 8 95 9 17 10 94 11 14 12
REMARK SMILES IDX 13 13 11 14 12 15 10 17 7 18 8 19 96 20 9 21 6 22 3 23 4 24
REMARK SMILES IDX 101 25 5 26 97 27 2 28 1 29 98 30 99 31 100 32 23 33 24 34
REMARK SMILES IDX 25 35 26 36 27 38 28 39 29 40 93 41 30 42 92 43 31 44 32 45
REMARK SMILES IDX 33 46 86 47 34 48 91 49 85 50 87 51 35 52 90 53 84 54 83 55
REMARK SMILES IDX 36 57 70 58 49 59 69 60 50 61 53 62 68 63 88 64 51 65 52 66
REMARK SMILES IDX 67 68 89 69 54 70 37 71 38 72 47 73 39 74 40 75 46 76 48 77
REMARK SMILES IDX 41 78 42 79 43 80 44 81 45 82 71 83 72 84 81 85 73 86 74 87
REMARK SMILES IDX 80 88 82 89 75 90 76 91 77 92 78 93 79 94 55 95 56 96 65 97
REMARK SMILES IDX 57 98 58 99 64 100 66 101 59 102 60 103 61 104 62 105 63 106
REMARK H PARENT 21 5 13 16 25 37 87 56 53 67
REMARK Flexibility Score: inf
ROOT
ATOM      1  C   UNL A   1      35.390  32.528  30.550  1.00  0.00     0.118 C 
ENDROOT
BRANCH   1   2
ATOM      2  N   UNL A   1      35.044  32.904  31.908  1.00  0.00    -0.352 N 
ATOM      3  C   UNL A   1      35.623  32.643  33.122  1.00  0.00     0.251 C 
ATOM      4  O   UNL A   1      35.116  33.170  34.114  1.00  0.00    -0.269 OA
ATOM      5  H   UNL A   1      34.232  33.458  31.968  1.00  0.00     0.163 HD
BRANCH   3   6
ATOM      6  C   UNL A   1      36.847  31.812  33.296  1.00  0.00     0.039 A 
ATOM      7  C   UNL A   1      39.266  30.391  33.725  1.00  0.00    -0.029 A 
ATOM      8  C   UNL A   1      39.129  31.718  34.152  1.00  0.00     0.006 A 
ATOM      9  C   UNL A   1      38.172  29.785  33.093  1.00  0.00     0.006 A 
ATOM     10  C   UNL A   1      37.935  32.416  33.943  1.00  0.00     0.014 A 
ATOM     11  C   UNL A   1      36.967  30.478  32.908  1.00  0.00     0.014 A 
BRANCH   7  12
ATOM     12  C   UNL A   1      40.581  29.675  33.929  1.00  0.00     0.152 C 
BRANCH  12  13
ATOM     13  N   UNL A   1      40.669  29.011  35.210  1.00  0.00    -0.345 N 
ATOM     14  C   UNL A   1      41.516  28.044  35.688  1.00  0.00     0.287 C 
ATOM     15  O   UNL A   1      41.386  27.779  36.891  1.00  0.00    -0.266 OA
ATOM     16  H   UNL A   1      39.994  29.307  35.862  1.00  0.00     0.164 HD
BRANCH  14  17
ATOM     17  C   UNL A   1      42.486  27.373  34.843  1.00  0.00     0.192 A 
ATOM     18  C   UNL A   1      43.844  25.684  34.377  1.00  0.00     0.142 A 
ATOM     19  C   UNL A   1      43.955  26.564  33.325  1.00  0.00     0.052 A 
ATOM     20  O   UNL A   1      42.953  26.154  35.287  1.00  0.00    -0.451 OA
ATOM     21  C   UNL A   1      43.067  27.631  33.610  1.00  0.00     0.057 A 
BRANCH  18  22
ATOM     22  C   UNL A   1      44.442  24.392  34.663  1.00  0.00     0.095 A 
ATOM     23  C   UNL A   1      45.743  21.882  34.876  1.00  0.00     0.125 A 
ATOM     24  C   UNL A   1      44.626  22.040  34.055  1.00  0.00     0.047 A 
ATOM     25  C   UNL A   1      46.193  22.963  35.627  1.00  0.00     0.132 A 
ATOM     26  C   UNL A   1      43.973  23.275  33.957  1.00  0.00     0.023 A 
ATOM     27  C   UNL A   1      45.539  24.208  35.518  1.00  0.00     0.284 A 
BRANCH  23  28
ATOM     28  O   UNL A   1      46.317  20.643  34.827  1.00  0.00    -0.497 OA
ATOM     29  C   UNL A   1      47.646  20.558  34.327  1.00  0.00     0.278 C 
ENDBRANCH  23  28
BRANCH  27  30
ATOM     30  N   UNL A   1      46.062  25.307  36.324  1.00  0.00     0.063 N 
ATOM     31  O   UNL A   1      45.454  25.623  37.355  1.00  0.00    -0.258 OA
ATOM     32  O   UNL A   1      47.116  25.834  35.938  1.00  0.00    -0.258 OA
ENDBRANCH  27  30
ENDBRANCH  18  22
ENDBRANCH  14  17
ENDBRANCH  12  13
ENDBRANCH   7  12
ENDBRANCH   3   6
ENDBRANCH   1   2
BRANCH   1  33
ATOM     33  C   UNL A   1      34.422  33.148  29.542  1.00  0.00     0.042 C 
BRANCH  33  34
ATOM     34  C   UNL A   1      34.643  32.660  28.110  1.00  0.00     0.118 C 
BRANCH  34  35
ATOM     35  N   UNL A   1      33.972  31.391  27.859  1.00  0.00    -0.352 N 
ATOM     36  C   UNL A   1      34.494  30.131  27.710  1.00  0.00     0.251 C 
ATOM     37  H   UNL A   1      32.993  31.447  27.783  1.00  0.00     0.163 HD
ATOM     38  O   UNL A   1      33.780  29.238  27.260  1.00  0.00    -0.269 OA
BRANCH  36  39
ATOM     39  C   UNL A   1      35.896  29.842  28.081  1.00  0.00     0.039 A 
ATOM     40  C   UNL A   1      36.167  29.347  29.360  1.00  0.00     0.014 A 
ATOM     41  C   UNL A   1      36.947  30.105  27.197  1.00  0.00     0.014 A 
ATOM     42  C   UNL A   1      37.484  29.066  29.732  1.00  0.00     0.010 A 
ATOM     43  C   UNL A   1      38.252  29.759  27.544  1.00  0.00     0.010 A 
ATOM     44  C   UNL A   1      38.536  29.241  28.817  1.00  0.00    -0.014 A 
BRANCH  44  45
ATOM     45  C   UNL A   1      39.932  28.880  29.173  1.00  0.00     0.031 A 
ATOM     46  C   UNL A   1      40.815  29.872  29.885  1.00  0.00     0.074 A 
ATOM     47  C   UNL A   1      40.422  27.682  28.798  1.00  0.00     0.049 A 
ATOM     48  N   UNL A   1      42.074  29.761  30.223  1.00  0.00    -0.248 NA
ATOM     49  C   UNL A   1      40.213  31.168  30.244  1.00  0.00     0.031 C 
ATOM     50  C   UNL A   1      39.677  26.655  28.063  1.00  0.00     0.029 A 
ATOM     51  N   UNL A   1      41.665  27.125  28.970  1.00  0.00    -0.354 N 
ATOM     52  C   UNL A   1      42.421  30.974  30.808  1.00  0.00     0.074 A 
ATOM     53  C   UNL A   1      41.251  31.821  30.747  1.00  0.00     0.031 C 
ATOM     54  C   UNL A   1      40.469  25.589  27.870  1.00  0.00     0.029 A 
ATOM     55  C   UNL A   1      41.789  25.867  28.425  1.00  0.00     0.049 A 
ATOM     56  H   UNL A   1      42.399  27.582  29.441  1.00  0.00     0.167 HD
ATOM     57  C   UNL A   1      43.603  31.339  31.359  1.00  0.00     0.037 A 
ATOM     58  C   UNL A   1      42.849  25.038  28.369  1.00  0.00     0.037 A 
ATOM     59  C   UNL A   1      44.750  30.474  31.450  1.00  0.00     0.049 A 
ATOM     60  C   UNL A   1      44.149  25.472  28.993  1.00  0.00     0.074 A 
ATOM     61  C   UNL A   1      45.964  30.720  32.068  1.00  0.00     0.029 A 
ATOM     62  N   UNL A   1      44.831  29.202  30.903  1.00  0.00    -0.354 N 
ATOM     63  N   UNL A   1      44.431  26.589  29.621  1.00  0.00    -0.248 NA
ATOM     64  C   UNL A   1      45.275  24.532  28.907  1.00  0.00     0.031 C 
ATOM     65  C   UNL A   1      46.798  29.620  31.847  1.00  0.00     0.029 A 
ATOM     66  C   UNL A   1      46.084  28.663  31.142  1.00  0.00     0.049 A 
ATOM     67  H   UNL A   1      44.105  28.748  30.417  1.00  0.00     0.167 HD
ATOM     68  C   UNL A   1      45.754  26.469  30.034  1.00  0.00     0.074 A 
ATOM     69  C   UNL A   1      46.212  25.168  29.596  1.00  0.00     0.031 C 
ATOM     70  C   UNL A   1      46.520  27.357  30.714  1.00  0.00     0.037 A 
BRANCH  57  71
ATOM     71  C   UNL A   1      43.730  32.733  31.911  1.00  0.00     0.058 A 
ATOM     72  C   UNL A   1      44.200  33.801  31.130  1.00  0.00     0.135 A 
ATOM     73  C   UNL A   1      43.301  33.019  33.218  1.00  0.00     0.135 A 
ATOM     74  F   UNL A   1      44.636  33.584  29.881  1.00  0.00    -0.206 F 
ATOM     75  C   UNL A   1      44.253  35.099  31.630  1.00  0.00     0.059 A 
ATOM     76  C   UNL A   1      43.319  34.313  33.729  1.00  0.00     0.059 A 
ATOM     77  F   UNL A   1      42.845  32.035  34.010  1.00  0.00    -0.206 F 
ATOM     78  C   UNL A   1      43.804  35.347  32.929  1.00  0.00     0.060 A 
BRANCH  78  79
ATOM     79  S   UNL A   1      43.845  37.042  33.546  1.00  0.00     0.124 S 
ATOM     80  O   UNL A   1      43.761  37.807  32.305  1.00  0.00    -0.237 OA
ATOM     81  O   UNL A   1      42.662  37.090  34.400  1.00  0.00    -0.237 OA
ATOM     82  O   UNL A   1      45.123  37.120  34.246  1.00  0.00    -0.744 OA
ENDBRANCH  78  79
ENDBRANCH  57  71
BRANCH  58  83
ATOM     83  C   UNL A   1      42.733  23.708  27.710  1.00  0.00     0.058 A 
ATOM     84  C   UNL A   1      42.360  22.571  28.443  1.00  0.00     0.135 A 
ATOM     85  C   UNL A   1      43.017  23.539  26.346  1.00  0.00     0.135 A 
ATOM     86  F   UNL A   1      42.082  22.678  29.752  1.00  0.00    -0.206 F 
ATOM     87  C   UNL A   1      42.308  21.310  27.859  1.00  0.00     0.059 A 
ATOM     88  C   UNL A   1      42.941  22.294  25.732  1.00  0.00     0.059 A 
ATOM     89  F   UNL A   1      43.358  24.597  25.594  1.00  0.00    -0.206 F 
ATOM     90  C   UNL A   1      42.605  21.181  26.502  1.00  0.00     0.060 A 
BRANCH  90  91
ATOM     91  S   UNL A   1      42.526  19.541  25.750  1.00  0.00     0.124 S 
ATOM     92  O   UNL A   1      42.991  18.696  26.843  1.00  0.00    -0.237 OA
ATOM     93  O   UNL A   1      41.111  19.427  25.411  1.00  0.00    -0.237 OA
ATOM     94  O   UNL A   1      43.430  19.652  24.609  1.00  0.00    -0.744 OA
ENDBRANCH  90  91
ENDBRANCH  58  83
BRANCH  70  95
ATOM     95  C   UNL A   1      47.919  26.935  31.072  1.00  0.00     0.058 A 
ATOM     96  C   UNL A   1      48.179  26.062  32.140  1.00  0.00     0.135 A 
ATOM     97  C   UNL A   1      49.008  27.371  30.302  1.00  0.00     0.135 A 
ATOM     98  F   UNL A   1      47.174  25.619  32.912  1.00  0.00    -0.206 F 
ATOM     99  C   UNL A   1      49.474  25.658  32.448  1.00  0.00     0.059 A 
ATOM    100  C   UNL A   1      50.308  26.956  30.572  1.00  0.00     0.059 A 
ATOM    101  F   UNL A   1      48.815  28.199  29.262  1.00  0.00    -0.206 F 
ATOM    102  C   UNL A   1      50.532  26.109  31.656  1.00  0.00     0.060 A 
BRANCH 102 103
ATOM    103  S   UNL A   1      52.204  25.551  32.046  1.00  0.00     0.124 S 
ATOM    104  O   UNL A   1      52.525  26.374  33.207  1.00  0.00    -0.237 OA
ATOM    105  O   UNL A   1      52.004  24.130  32.313  1.00  0.00    -0.237 OA
ATOM    106  O   UNL A   1      52.957  25.856  30.833  1.00  0.00    -0.744 OA
ENDBRANCH 102 103
ENDBRANCH  70  95
ENDBRANCH  44  45
ENDBRANCH  36  39
ENDBRANCH  34  35
ENDBRANCH  33  34
ENDBRANCH   1  33
TORSDOF 19
ENDMDL
MODEL 2
REMARK VINA RESULT:      -9.7      4.834      8.417
REMARK SMILES COc1ccc(-c2ccc(C(=O)NCc3ccc(C(=O)NCCCNC(=O)c4ccc(-c5c6nc(c(-c7c(F)cc(S(=O)(=O)[O-])cc7F)c7ccc([nH]7)c(-c7c(F)cc(S(=O)(=O)[O-])cc7F)c7nc(c(-c8c(F)cc(S(=O)(=O)[O-])cc8F)c8ccc5[nH]8)C=C7)C=C6)cc4)cc3)o2)c([N+](=O)[O-])c1
REMARK SMILES IDX 22 1 21 2 19 3 20 4 18 6 15 7 16 8 95 9 17 10 94 11 14 12
REMARK SMILES IDX 13 13 11 14 12 15 10 17 7 18 8 19 96 20 9 21 6 22 3 23 4 24
REMARK SMILES IDX 101 25 5 26 97 27 2 28 1 29 98 30 99 31 100 32 23 33 24 34
REMARK SMILES IDX 25 35 26 36 27 38 28 39 29 40 93 41 30 42 92 43 31 44 32 45
REMARK SMILES IDX 33 46 86 47 34 48 91 49 85 50 87 51 35 52 90 53 84 54 83 55
REMARK SMILES IDX 36 57 70 58 49 59 69 60 50 61 53 62 68 63 88 64 51 65 52 66
REMARK SMILES IDX 67 68 89 69 54 70 37 71 38 72 47 73 39 74 40 75 46 76 48 77
REMARK SMILES IDX 41 78 42 79 43 80 44 81 45 82 71 83 72 84 81 85 73 86 74 87
REMARK SMILES IDX 80 88 82 89 75 90 76 91 77 92 78 93 79 94 55 95 56 96 65 97
REMARK SMILES IDX 57 98 58 99 64 100 66 101 59 102 60 103 61 104 62 105 63 106
REMARK H PARENT 21 5 13 16 25 37 87 56 53 67
REMARK Flexibility Score: inf
ROOT
ATOM      1  C   UNL A   1      35.000  29.724  27.949  1.00  0.00     0.118 C 
ENDROOT
BRANCH   1   2
ATOM      2  N   UNL A   1      34.056  30.799  27.705  1.00  0.00    -0.352 N 
ATOM      3  C   UNL A   1      32.821  30.836  27.113  1.00  0.00     0.251 C 
ATOM      4  O   UNL A   1      32.226  31.915  27.117  1.00  0.00    -0.269 OA
ATOM      5  H   UNL A   1      34.364  31.675  28.032  1.00  0.00     0.163 HD
BRANCH   3   6
ATOM      6  C   UNL A   1      32.148  29.645  26.523  1.00  0.00     0.039 A 
ATOM      7  C   UNL A   1      30.871  27.289  25.589  1.00  0.00    -0.029 A 
ATOM      8  C   UNL A   1      31.269  27.406  26.927  1.00  0.00     0.006 A 
ATOM      9  C   UNL A   1      31.111  28.372  24.733  1.00  0.00     0.006 A 
ATOM     10  C   UNL A   1      31.895  28.569  27.387  1.00  0.00     0.014 A 
ATOM     11  C   UNL A   1      31.714  29.547  25.202  1.00  0.00     0.014 A 
BRANCH   7  12
ATOM     12  C   UNL A   1      30.233  26.005  25.112  1.00  0.00     0.152 C 
BRANCH  12  13
ATOM     13  N   UNL A   1      30.091  25.021  26.161  1.00  0.00    -0.345 N 
ATOM     14  C   UNL A   1      30.530  23.726  26.273  1.00  0.00     0.287 C 
ATOM     15  O   UNL A   1      30.331  23.197  27.375  1.00  0.00    -0.266 OA
ATOM     16  H   UNL A   1      29.584  25.339  26.942  1.00  0.00     0.164 HD
BRANCH  14  17
ATOM     17  C   UNL A   1      31.170  23.026  25.176  1.00  0.00     0.192 A 
ATOM     18  C   UNL A   1      32.308  21.315  24.340  1.00  0.00     0.142 A 
ATOM     19  C   UNL A   1      32.062  22.163  23.285  1.00  0.00     0.052 A 
ATOM     20  O   UNL A   1      31.764  21.818  25.478  1.00  0.00    -0.451 OA
ATOM     21  C   UNL A   1      31.313  23.243  23.814  1.00  0.00     0.057 A 
BRANCH  18  22
ATOM     22  C   UNL A   1      32.972  20.029  24.452  1.00  0.00     0.095 A 
ATOM     23  C   UNL A   1      34.250  17.503  24.300  1.00  0.00     0.125 A 
ATOM     24  C   UNL A   1      32.894  17.637  23.998  1.00  0.00     0.047 A 
ATOM     25  C   UNL A   1      34.967  18.620  24.720  1.00  0.00     0.132 A 
ATOM     26  C   UNL A   1      32.257  18.881  24.084  1.00  0.00     0.023 A 
ATOM     27  C   UNL A   1      34.323  19.872  24.795  1.00  0.00     0.284 A 
BRANCH  23  28
ATOM     28  O   UNL A   1      34.755  16.247  24.113  1.00  0.00    -0.497 OA
ATOM     29  C   UNL A   1      35.401  15.631  25.220  1.00  0.00     0.278 C 
ENDBRANCH  23  28
BRANCH  27  30
ATOM     30  N   UNL A   1      35.129  21.008  25.233  1.00  0.00     0.063 N 
ATOM     31  O   UNL A   1      35.778  21.633  24.383  1.00  0.00    -0.258 OA
ATOM     32  O   UNL A   1      35.081  21.300  26.437  1.00  0.00    -0.258 OA
ENDBRANCH  27  30
ENDBRANCH  18  22
ENDBRANCH  14  17
ENDBRANCH  12  13
ENDBRANCH   7  12
ENDBRANCH   3   6
ENDBRANCH   1   2
BRANCH   1  33
ATOM     33  C   UNL A   1      35.904  30.043  29.139  1.00  0.00     0.042 C 
BRANCH  33  34
ATOM     34  C   UNL A   1      36.044  31.542  29.409  1.00  0.00     0.118 C 
BRANCH  34  35
ATOM     35  N   UNL A   1      36.218  31.825  30.828  1.00  0.00    -0.352 N 
ATOM     36  C   UNL A   1      37.229  31.465  31.682  1.00  0.00     0.251 C 
ATOM     37  H   UNL A   1      35.498  32.356  31.237  1.00  0.00     0.163 HD
ATOM     38  O   UNL A   1      37.063  31.594  32.893  1.00  0.00    -0.269 OA
BRANCH  36  39
ATOM     39  C   UNL A   1      38.505  30.925  31.163  1.00  0.00     0.039 A 
ATOM     40  C   UNL A   1      38.934  31.314  29.891  1.00  0.00     0.014 A 
ATOM     41  C   UNL A   1      39.251  29.999  31.899  1.00  0.00     0.014 A 
ATOM     42  C   UNL A   1      40.136  30.817  29.381  1.00  0.00     0.010 A 
ATOM     43  C   UNL A   1      40.483  29.558  31.418  1.00  0.00     0.010 A 
ATOM     44  C   UNL A   1      40.936  29.958  30.152  1.00  0.00    -0.014 A 
BRANCH  44  45
ATOM     45  C   UNL A   1      42.250  29.477  29.652  1.00  0.00     0.031 A 
ATOM     46  C   UNL A   1      43.431  30.411  29.599  1.00  0.00     0.074 A 
ATOM     47  C   UNL A   1      42.360  28.216  29.187  1.00  0.00     0.049 A 
ATOM     48  N   UNL A   1      44.636  30.191  29.140  1.00  0.00    -0.248 NA
ATOM     49  C   UNL A   1      43.226  31.778  30.107  1.00  0.00     0.031 C 
ATOM     50  C   UNL A   1      41.274  27.233  29.144  1.00  0.00     0.029 A 
ATOM     51  N   UNL A   1      43.431  27.546  28.651  1.00  0.00    -0.354 N 
ATOM     52  C   UNL A   1      45.322  31.392  29.278  1.00  0.00     0.074 A 
ATOM     53  C   UNL A   1      44.390  32.350  29.831  1.00  0.00     0.031 C 
ATOM     54  C   UNL A   1      41.741  26.082  28.634  1.00  0.00     0.029 A 
ATOM     55  C   UNL A   1      43.143  26.255  28.272  1.00  0.00     0.049 A 
ATOM     56  H   UNL A   1      44.322  27.951  28.548  1.00  0.00     0.167 HD
ATOM     57  C   UNL A   1      46.616  31.665  28.985  1.00  0.00     0.037 A 
ATOM     58  C   UNL A   1      43.920  25.320  27.689  1.00  0.00     0.037 A 
ATOM     59  C   UNL A   1      47.547  30.694  28.473  1.00  0.00     0.049 A 
ATOM     60  C   UNL A   1      45.354  25.653  27.378  1.00  0.00     0.074 A 
ATOM     61  C   UNL A   1      48.900  30.848  28.227  1.00  0.00     0.029 A 
ATOM     62  N   UNL A   1      47.223  29.392  28.119  1.00  0.00    -0.354 N 
ATOM     63  N   UNL A   1      46.009  26.768  27.599  1.00  0.00    -0.248 NA
ATOM     64  C   UNL A   1      46.160  24.600  26.744  1.00  0.00     0.031 C 
ATOM     65  C   UNL A   1      49.383  29.659  27.673  1.00  0.00     0.029 A 
ATOM     66  C   UNL A   1      48.344  28.743  27.628  1.00  0.00     0.049 A 
ATOM     67  H   UNL A   1      46.329  28.989  28.205  1.00  0.00     0.167 HD
ATOM     68  C   UNL A   1      47.310  26.538  27.163  1.00  0.00     0.074 A 
ATOM     69  C   UNL A   1      47.352  25.174  26.678  1.00  0.00     0.031 C 
ATOM     70  C   UNL A   1      48.374  27.379  27.165  1.00  0.00     0.037 A 
BRANCH  57  71
ATOM     71  C   UNL A   1      47.116  33.067  29.209  1.00  0.00     0.058 A 
ATOM     72  C   UNL A   1      47.696  33.463  30.424  1.00  0.00     0.135 A 
ATOM     73  C   UNL A   1      47.085  34.005  28.164  1.00  0.00     0.135 A 
ATOM     74  F   UNL A   1      47.739  32.614  31.462  1.00  0.00    -0.206 F 
ATOM     75  C   UNL A   1      48.214  34.743  30.600  1.00  0.00     0.059 A 
ATOM     76  C   UNL A   1      47.622  35.281  28.307  1.00  0.00     0.059 A 
ATOM     77  F   UNL A   1      46.539  33.680  26.980  1.00  0.00    -0.206 F 
ATOM     78  C   UNL A   1      48.179  35.643  29.533  1.00  0.00     0.060 A 
BRANCH  78  79
ATOM     79  S   UNL A   1      48.890  37.285  29.767  1.00  0.00     0.124 S 
ATOM     80  O   UNL A   1      48.858  37.814  28.407  1.00  0.00    -0.237 OA
ATOM     81  O   UNL A   1      47.955  37.897  30.707  1.00  0.00    -0.237 OA
ATOM     82  O   UNL A   1      50.219  37.009  30.302  1.00  0.00    -0.744 OA
ENDBRANCH  78  79
ENDBRANCH  57  71
BRANCH  58  83
ATOM     83  C   UNL A   1      43.368  23.975  27.368  1.00  0.00     0.058 A 
ATOM     84  C   UNL A   1      42.935  23.666  26.070  1.00  0.00     0.135 A 
ATOM     85  C   UNL A   1      43.234  22.984  28.353  1.00  0.00     0.135 A 
ATOM     86  F   UNL A   1      43.037  24.580  25.093  1.00  0.00    -0.206 F 
ATOM     87  C   UNL A   1      42.358  22.437  25.765  1.00  0.00     0.059 A 
ATOM     88  C   UNL A   1      42.689  21.737  28.066  1.00  0.00     0.059 A 
ATOM     89  F   UNL A   1      43.650  23.221  29.606  1.00  0.00    -0.206 F 
ATOM     90  C   UNL A   1      42.236  21.480  26.773  1.00  0.00     0.060 A 
BRANCH  90  91
ATOM     91  S   UNL A   1      41.494  19.885  26.366  1.00  0.00     0.124 S 
ATOM     92  O   UNL A   1      41.684  19.149  27.611  1.00  0.00    -0.237 OA
ATOM     93  O   UNL A   1      40.120  20.258  26.047  1.00  0.00    -0.237 OA
ATOM     94  O   UNL A   1      42.290  19.424  25.233  1.00  0.00    -0.744 OA
ENDBRANCH  90  91
ENDBRANCH  58  83
BRANCH  70  95
ATOM     95  C   UNL A   1      49.687  26.836  26.671  1.00  0.00     0.058 A 
ATOM     96  C   UNL A   1      50.553  26.114  27.508  1.00  0.00     0.135 A 
ATOM     97  C   UNL A   1      50.060  26.999  25.327  1.00  0.00     0.135 A 
ATOM     98  F   UNL A   1      50.246  25.934  28.803  1.00  0.00    -0.206 F 
ATOM     99  C   UNL A   1      51.754  25.596  27.036  1.00  0.00     0.059 A 
ATOM    100  C   UNL A   1      51.242  26.463  24.826  1.00  0.00     0.059 A 
ATOM    101  F   UNL A   1      49.264  27.672  24.480  1.00  0.00    -0.206 F 
ATOM    102  C   UNL A   1      52.088  25.774  25.692  1.00  0.00     0.060 A 
BRANCH 102 103
ATOM    103  S   UNL A   1      53.635  25.068  25.084  1.00  0.00     0.124 S 
ATOM    104  O   UNL A   1      54.604  25.643  26.011  1.00  0.00    -0.237 OA
ATOM    105  O   UNL A   1      53.399  23.635  25.223  1.00  0.00    -0.237 OA
ATOM    106  O   UNL A   1      53.714  25.554  23.710  1.00  0.00    -0.744 OA
ENDBRANCH 102 103
ENDBRANCH  70  95
ENDBRANCH  44  45
ENDBRANCH  36  39
ENDBRANCH  34  35
ENDBRANCH  33  34
ENDBRANCH   1  33
TORSDOF 19
ENDMDL
MODEL 3
REMARK VINA RESULT:      -9.5      4.606      8.527
REMARK SMILES COc1ccc(-c2ccc(C(=O)NCc3ccc(C(=O)NCCCNC(=O)c4ccc(-c5c6nc(c(-c7c(F)cc(S(=O)(=O)[O-])cc7F)c7ccc([nH]7)c(-c7c(F)cc(S(=O)(=O)[O-])cc7F)c7nc(c(-c8c(F)cc(S(=O)(=O)[O-])cc8F)c8ccc5[nH]8)C=C7)C=C6)cc4)cc3)o2)c([N+](=O)[O-])c1
REMARK SMILES IDX 22 1 21 2 19 3 20 4 18 6 15 7 16 8 95 9 17 10 94 11 14 12
REMARK SMILES IDX 13 13 11 14 12 15 10 17 7 18 8 19 96 20 9 21 6 22 3 23 4 24
REMARK SMILES IDX 101 25 5 26 97 27 2 28 1 29 98 30 99 31 100 32 23 33 24 34
REMARK SMILES IDX 25 35 26 36 27 38 28 39 29 40 93 41 30 42 92 43 31 44 32 45
REMARK SMILES IDX 33 46 86 47 34 48 91 49 85 50 87 51 35 52 90 53 84 54 83 55
REMARK SMILES IDX 36 57 70 58 49 59 69 60 50 61 53 62 68 63 88 64 51 65 52 66
REMARK SMILES IDX 67 68 89 69 54 70 37 71 38 72 47 73 39 74 40 75 46 76 48 77
REMARK SMILES IDX 41 78 42 79 43 80 44 81 45 82 71 83 72 84 81 85 73 86 74 87
REMARK SMILES IDX 80 88 82 89 75 90 76 91 77 92 78 93 79 94 55 95 56 96 65 97
REMARK SMILES IDX 57 98 58 99 64 100 66 101 59 102 60 103 61 104 62 105 63 106
REMARK H PARENT 21 5 13 16 25 37 87 56 53 67
REMARK Flexibility Score: inf
ROOT
ATOM      1  C   UNL A   1      34.877  32.470  28.073  1.00  0.00     0.118 C 
ENDROOT
BRANCH   1   2
ATOM      2  N   UNL A   1      35.755  31.322  27.934  1.00  0.00    -0.352 N 
ATOM      3  C   UNL A   1      35.560  30.055  27.450  1.00  0.00     0.251 C 
ATOM      4  O   UNL A   1      36.541  29.311  27.404  1.00  0.00    -0.269 OA
ATOM      5  H   UNL A   1      36.672  31.487  28.249  1.00  0.00     0.163 HD
BRANCH   3   6
ATOM      6  C   UNL A   1      34.254  29.556  26.935  1.00  0.00     0.039 A 
ATOM      7  C   UNL A   1      31.843  28.410  25.970  1.00  0.00    -0.029 A 
ATOM      8  C   UNL A   1      32.939  27.602  26.300  1.00  0.00     0.006 A 
ATOM      9  C   UNL A   1      31.969  29.795  26.143  1.00  0.00     0.006 A 
ATOM     10  C   UNL A   1      34.125  28.167  26.778  1.00  0.00     0.014 A 
ATOM     11  C   UNL A   1      33.150  30.357  26.647  1.00  0.00     0.014 A 
BRANCH   7  12
ATOM     12  C   UNL A   1      30.589  27.774  25.418  1.00  0.00     0.152 C 
BRANCH  12  13
ATOM     13  N   UNL A   1      30.428  27.981  23.997  1.00  0.00    -0.345 N 
ATOM     14  C   UNL A   1      30.968  27.345  22.908  1.00  0.00     0.287 C 
ATOM     15  O   UNL A   1      30.518  27.707  21.812  1.00  0.00    -0.266 OA
ATOM     16  H   UNL A   1      29.817  28.718  23.766  1.00  0.00     0.164 HD
BRANCH  14  17
ATOM     17  C   UNL A   1      31.997  26.332  23.032  1.00  0.00     0.192 A 
ATOM     18  C   UNL A   1      32.688  24.293  23.564  1.00  0.00     0.142 A 
ATOM     19  C   UNL A   1      33.795  24.961  23.096  1.00  0.00     0.052 A 
ATOM     20  O   UNL A   1      31.599  25.103  23.516  1.00  0.00    -0.451 OA
ATOM     21  C   UNL A   1      33.349  26.255  22.732  1.00  0.00     0.057 A 
BRANCH  18  22
ATOM     22  C   UNL A   1      32.467  22.938  24.038  1.00  0.00     0.095 A 
ATOM     23  C   UNL A   1      32.369  20.215  24.822  1.00  0.00     0.125 A 
ATOM     24  C   UNL A   1      32.284  20.575  23.476  1.00  0.00     0.047 A 
ATOM     25  C   UNL A   1      32.461  21.212  25.787  1.00  0.00     0.132 A 
ATOM     26  C   UNL A   1      32.320  21.919  23.086  1.00  0.00     0.023 A 
ATOM     27  C   UNL A   1      32.507  22.565  25.390  1.00  0.00     0.284 A 
BRANCH  23  28
ATOM     28  O   UNL A   1      32.386  18.868  25.052  1.00  0.00    -0.497 OA
ATOM     29  C   UNL A   1      33.550  18.153  24.659  1.00  0.00     0.278 C 
ENDBRANCH  23  28
BRANCH  27  30
ATOM     30  N   UNL A   1      32.613  23.565  26.448  1.00  0.00     0.063 N 
ATOM     31  O   UNL A   1      31.626  23.769  27.167  1.00  0.00    -0.258 OA
ATOM     32  O   UNL A   1      33.710  24.126  26.583  1.00  0.00    -0.258 OA
ENDBRANCH  27  30
ENDBRANCH  18  22
ENDBRANCH  14  17
ENDBRANCH  12  13
ENDBRANCH   7  12
ENDBRANCH   3   6
ENDBRANCH   1   2
BRANCH   1  33
ATOM     33  C   UNL A   1      35.157  33.223  29.373  1.00  0.00     0.042 C 
BRANCH  33  34
ATOM     34  C   UNL A   1      36.450  32.785  30.061  1.00  0.00     0.118 C 
BRANCH  34  35
ATOM     35  N   UNL A   1      36.194  31.876  31.171  1.00  0.00    -0.352 N 
ATOM     36  C   UNL A   1      36.861  30.740  31.553  1.00  0.00     0.251 C 
ATOM     37  H   UNL A   1      35.423  32.113  31.733  1.00  0.00     0.163 HD
ATOM     38  O   UNL A   1      36.337  29.984  32.368  1.00  0.00    -0.269 OA
BRANCH  36  39
ATOM     39  C   UNL A   1      38.193  30.418  30.994  1.00  0.00     0.039 A 
ATOM     40  C   UNL A   1      39.198  29.976  31.860  1.00  0.00     0.014 A 
ATOM     41  C   UNL A   1      38.471  30.599  29.636  1.00  0.00     0.014 A 
ATOM     42  C   UNL A   1      40.463  29.666  31.355  1.00  0.00     0.010 A 
ATOM     43  C   UNL A   1      39.711  30.223  29.123  1.00  0.00     0.010 A 
ATOM     44  C   UNL A   1      40.723  29.758  29.977  1.00  0.00    -0.014 A 
BRANCH  44  45
ATOM     45  C   UNL A   1      42.040  29.364  29.415  1.00  0.00     0.031 A 
ATOM     46  C   UNL A   1      43.144  30.380  29.283  1.00  0.00     0.074 A 
ATOM     47  C   UNL A   1      42.219  28.105  28.966  1.00  0.00     0.049 A 
ATOM     48  N   UNL A   1      44.336  30.240  28.763  1.00  0.00    -0.248 NA
ATOM     49  C   UNL A   1      42.865  31.740  29.777  1.00  0.00     0.031 C 
ATOM     50  C   UNL A   1      41.208  27.044  28.999  1.00  0.00     0.029 A 
ATOM     51  N   UNL A   1      43.307  27.504  28.385  1.00  0.00    -0.354 N 
ATOM     52  C   UNL A   1      44.938  31.491  28.843  1.00  0.00     0.074 A 
ATOM     53  C   UNL A   1      43.968  32.389  29.429  1.00  0.00     0.031 C 
ATOM     54  C   UNL A   1      41.731  25.920  28.483  1.00  0.00     0.029 A 
ATOM     55  C   UNL A   1      43.096  26.188  28.044  1.00  0.00     0.049 A 
ATOM     56  H   UNL A   1      44.159  27.971  28.227  1.00  0.00     0.167 HD
ATOM     57  C   UNL A   1      46.191  31.852  28.477  1.00  0.00     0.037 A 
ATOM     58  C   UNL A   1      43.908  25.300  27.436  1.00  0.00     0.037 A 
ATOM     59  C   UNL A   1      47.163  30.940  27.931  1.00  0.00     0.049 A 
ATOM     60  C   UNL A   1      45.296  25.731  27.042  1.00  0.00     0.074 A 
ATOM     61  C   UNL A   1      48.486  31.188  27.610  1.00  0.00     0.029 A 
ATOM     62  N   UNL A   1      46.919  29.611  27.617  1.00  0.00    -0.354 N 
ATOM     63  N   UNL A   1      45.877  26.895  27.208  1.00  0.00    -0.248 NA
ATOM     64  C   UNL A   1      46.142  24.727  26.383  1.00  0.00     0.031 C 
ATOM     65  C   UNL A   1      49.026  30.026  27.051  1.00  0.00     0.029 A 
ATOM     66  C   UNL A   1      48.057  29.036  27.078  1.00  0.00     0.049 A 
ATOM     67  H   UNL A   1      46.063  29.145  27.758  1.00  0.00     0.167 HD
ATOM     68  C   UNL A   1      47.167  26.751  26.706  1.00  0.00     0.074 A 
ATOM     69  C   UNL A   1      47.284  25.385  26.243  1.00  0.00     0.031 C 
ATOM     70  C   UNL A   1      48.163  27.668  26.637  1.00  0.00     0.037 A 
BRANCH  57  71
ATOM     71  C   UNL A   1      46.596  33.290  28.649  1.00  0.00     0.058 A 
ATOM     72  C   UNL A   1      47.195  33.756  29.830  1.00  0.00     0.135 A 
ATOM     73  C   UNL A   1      46.454  34.198  27.586  1.00  0.00     0.135 A 
ATOM     74  F   UNL A   1      47.342  32.937  30.882  1.00  0.00    -0.206 F 
ATOM     75  C   UNL A   1      47.626  35.074  29.956  1.00  0.00     0.059 A 
ATOM     76  C   UNL A   1      46.903  35.512  27.680  1.00  0.00     0.059 A 
ATOM     77  F   UNL A   1      45.886  33.807  26.434  1.00  0.00    -0.206 F 
ATOM     78  C   UNL A   1      47.482  35.943  28.873  1.00  0.00     0.060 A 
BRANCH  78  79
ATOM     79  S   UNL A   1      48.081  37.637  29.042  1.00  0.00     0.124 S 
ATOM     80  O   UNL A   1      46.834  38.368  29.246  1.00  0.00    -0.237 OA
ATOM     81  O   UNL A   1      48.957  37.542  30.206  1.00  0.00    -0.237 OA
ATOM     82  O   UNL A   1      48.756  37.889  27.773  1.00  0.00    -0.744 OA
ENDBRANCH  78  79
ENDBRANCH  57  71
BRANCH  58  83
ATOM     83  C   UNL A   1      43.441  23.912  27.168  1.00  0.00     0.058 A 
ATOM     84  C   UNL A   1      43.017  23.530  25.886  1.00  0.00     0.135 A 
ATOM     85  C   UNL A   1      43.382  22.950  28.188  1.00  0.00     0.135 A 
ATOM     86  F   UNL A   1      43.050  24.414  24.877  1.00  0.00    -0.206 F 
ATOM     87  C   UNL A   1      42.518  22.257  25.632  1.00  0.00     0.059 A 
ATOM     88  C   UNL A   1      42.916  21.661  27.951  1.00  0.00     0.059 A 
ATOM     89  F   UNL A   1      43.794  23.257  29.427  1.00  0.00    -0.206 F 
ATOM     90  C   UNL A   1      42.467  21.329  26.673  1.00  0.00     0.060 A 
BRANCH  90  91
ATOM     91  S   UNL A   1      41.826  19.677  26.330  1.00  0.00     0.124 S 
ATOM     92  O   UNL A   1      42.214  18.957  27.538  1.00  0.00    -0.237 OA
ATOM     93  O   UNL A   1      40.398  19.930  26.167  1.00  0.00    -0.237 OA
ATOM     94  O   UNL A   1      42.531  19.290  25.112  1.00  0.00    -0.744 OA
ENDBRANCH  90  91
ENDBRANCH  58  83
BRANCH  70  95
ATOM     95  C   UNL A   1      49.486  27.212  26.082  1.00  0.00     0.058 A 
ATOM     96  C   UNL A   1      50.518  26.750  26.913  1.00  0.00     0.135 A 
ATOM     97  C   UNL A   1      49.702  27.192  24.695  1.00  0.00     0.135 A 
ATOM     98  F   UNL A   1      50.365  26.754  28.247  1.00  0.00    -0.206 F 
ATOM     99  C   UNL A   1      51.729  26.309  26.389  1.00  0.00     0.059 A 
ATOM    100  C   UNL A   1      50.893  26.726  24.147  1.00  0.00     0.059 A 
ATOM    101  F   UNL A   1      48.743  27.614  23.854  1.00  0.00    -0.206 F 
ATOM    102  C   UNL A   1      51.905  26.298  25.004  1.00  0.00     0.060 A 
BRANCH 102 103
ATOM    103  S   UNL A   1      53.469  25.693  24.335  1.00  0.00     0.124 S 
ATOM    104  O   UNL A   1      54.432  26.549  25.018  1.00  0.00    -0.237 OA
ATOM    105  O   UNL A   1      53.462  24.292  24.747  1.00  0.00    -0.237 OA
ATOM    106  O   UNL A   1      53.335  25.918  22.899  1.00  0.00    -0.744 OA
ENDBRANCH 102 103
ENDBRANCH  70  95
ENDBRANCH  44  45
ENDBRANCH  36  39
ENDBRANCH  34  35
ENDBRANCH  33  34
ENDBRANCH   1  33
TORSDOF 19
ENDMDL
