MODEL 1
REMARK VINA RESULT:     -12.8      0.000      0.000
REMARK SMILES Cc1ccc(-c2nn(CCC(=O)NCCCNC(=O)c3ccc(-c4c5nc(c(-c6c(F)cc(S(=O)(=O)[O-])cc6F)c6ccc([nH]6)c(-c6c(F)cc(S(=O)(=O)[O-])cc6F)c6nc(c(-c7c(F)cc(S(=O)(=O)[O-])cc7F)c7ccc4[nH]7)C=C6)C=C5)cc3)c(=O)c3noc(C)c23)cc1C
REMARK SMILES IDX 15 1 14 2 13 3 11 4 12 5 10 7 9 8 8 9 6 10 7 11 93 12 88 13
REMARK SMILES IDX 91 14 86 15 89 16 90 17 92 18 87 19 5 20 1 21 2 22 3 23
REMARK SMILES IDX 95 24 4 25 94 26 96 27 16 28 17 29 18 30 19 32 20 33 21 34
REMARK SMILES IDX 85 35 22 36 84 37 23 38 24 39 25 40 78 41 26 42 83 43 77 44
REMARK SMILES IDX 79 45 27 46 82 47 76 48 75 49 28 51 62 52 41 53 61 54 42 55
REMARK SMILES IDX 45 56 60 57 80 58 43 59 44 60 59 62 81 63 46 64 29 65 30 66
REMARK SMILES IDX 39 67 31 68 32 69 38 70 40 71 33 72 34 73 35 74 36 75 37 76
REMARK SMILES IDX 63 77 64 78 73 79 65 80 66 81 72 82 74 83 67 84 68 85 69 86
REMARK SMILES IDX 70 87 71 88 47 89 48 90 57 91 49 92 50 93 56 94 58 95 51 96
REMARK SMILES IDX 52 97 53 98 54 99 55 100
REMARK H PARENT 13 6 17 31 79 50 45 61
REMARK Flexibility Score: inf
ROOT
ATOM      1  C   UNL A   1      36.792  21.167  24.688  1.00  0.00     0.042 C 
ENDROOT
BRANCH   1   2
ATOM      2  C   UNL A   1      35.515  20.870  25.477  1.00  0.00     0.117 C 
BRANCH   2   3
ATOM      3  N   UNL A   1      34.591  20.066  24.691  1.00  0.00    -0.356 N 
ATOM      4  C   UNL A   1      33.309  20.299  24.297  1.00  0.00     0.221 C 
ATOM      5  O   UNL A   1      32.695  19.381  23.747  1.00  0.00    -0.275 OA
ATOM      6  H   UNL A   1      34.957  19.203  24.392  1.00  0.00     0.163 HD
BRANCH   4   7
ATOM      7  C   UNL A   1      32.658  21.655  24.464  1.00  0.00     0.124 C 
BRANCH   7   8
ATOM      8  C   UNL A   1      33.253  22.723  23.548  1.00  0.00     0.158 C 
BRANCH   8   9
ATOM      9  N   UNL A   1      33.020  24.083  24.036  1.00  0.00    -0.227 N 
ATOM     10  C   UNL A   1      31.867  26.095  23.646  1.00  0.00     0.104 A 
ATOM     11  N   UNL A   1      32.042  24.836  23.342  1.00  0.00    -0.169 NA
ATOM     12  C   UNL A   1      32.743  26.725  24.588  1.00  0.00     0.078 A 
ATOM     13  C   UNL A   1      33.524  25.940  25.443  1.00  0.00     0.183 A 
ATOM     14  C   UNL A   1      33.107  28.019  24.865  1.00  0.00     0.143 A 
ATOM     15  C   UNL A   1      33.657  24.508  25.231  1.00  0.00     0.296 A 
ATOM     16  N   UNL A   1      34.224  26.688  26.302  1.00  0.00    -0.074 NA
ATOM     17  O   UNL A   1      33.970  28.002  25.925  1.00  0.00    -0.360 OA
ATOM     18  C   UNL A   1      32.850  29.347  24.274  1.00  0.00     0.091 C 
ATOM     19  O   UNL A   1      34.331  23.774  25.943  1.00  0.00    -0.265 OA
BRANCH  10  20
ATOM     20  C   UNL A   1      30.645  26.820  23.265  1.00  0.00     0.003 A 
ATOM     21  C   UNL A   1      27.057  29.185  23.104  1.00  0.00     0.044 C 
ATOM     22  C   UNL A   1      28.315  28.359  23.091  1.00  0.00    -0.048 A 
ATOM     23  C   UNL A   1      28.316  27.146  23.795  1.00  0.00     0.004 A 
ATOM     24  C   UNL A   1      29.492  28.781  22.430  1.00  0.00    -0.048 A 
ATOM     25  C   UNL A   1      29.473  26.381  23.886  1.00  0.00     0.011 A 
ATOM     26  C   UNL A   1      30.657  27.991  22.512  1.00  0.00     0.014 A 
ATOM     27  C   UNL A   1      29.586  30.102  21.713  1.00  0.00     0.044 C 
ENDBRANCH  10  20
ENDBRANCH   8   9
ENDBRANCH   7   8
ENDBRANCH   4   7
ENDBRANCH   2   3
ENDBRANCH   1   2
BRANCH   1  28
ATOM     28  C   UNL A   1      37.770  22.188  25.273  1.00  0.00     0.118 C 
BRANCH  28  29
ATOM     29  N   UNL A   1      38.621  21.570  26.277  1.00  0.00    -0.352 N 
ATOM     30  C   UNL A   1      39.715  21.997  26.984  1.00  0.00     0.251 C 
ATOM     31  H   UNL A   1      38.353  20.649  26.497  1.00  0.00     0.163 HD
ATOM     32  O   UNL A   1      40.421  21.094  27.449  1.00  0.00    -0.269 OA
BRANCH  30  33
ATOM     33  C   UNL A   1      40.092  23.419  27.256  1.00  0.00     0.039 A 
ATOM     34  C   UNL A   1      41.400  23.791  26.890  1.00  0.00     0.014 A 
ATOM     35  C   UNL A   1      39.315  24.358  27.939  1.00  0.00     0.014 A 
ATOM     36  C   UNL A   1      41.907  25.063  27.170  1.00  0.00     0.010 A 
ATOM     37  C   UNL A   1      39.814  25.650  28.197  1.00  0.00     0.010 A 
ATOM     38  C   UNL A   1      41.110  26.016  27.807  1.00  0.00    -0.014 A 
BRANCH  38  39
ATOM     39  C   UNL A   1      41.640  27.397  27.915  1.00  0.00     0.031 A 
ATOM     40  C   UNL A   1      40.616  28.483  27.814  1.00  0.00     0.074 A 
ATOM     41  C   UNL A   1      42.804  27.683  28.541  1.00  0.00     0.049 A 
ATOM     42  N   UNL A   1      39.869  28.831  28.820  1.00  0.00    -0.248 NA
ATOM     43  C   UNL A   1      40.192  29.065  26.540  1.00  0.00     0.031 C 
ATOM     44  C   UNL A   1      43.282  26.955  29.724  1.00  0.00     0.029 A 
ATOM     45  N   UNL A   1      43.648  28.771  28.452  1.00  0.00    -0.354 N 
ATOM     46  C   UNL A   1      38.857  29.638  28.330  1.00  0.00     0.074 A 
ATOM     47  C   UNL A   1      39.101  29.759  26.910  1.00  0.00     0.031 C 
ATOM     48  C   UNL A   1      44.218  27.704  30.344  1.00  0.00     0.029 A 
ATOM     49  C   UNL A   1      44.521  28.883  29.536  1.00  0.00     0.049 A 
ATOM     50  H   UNL A   1      43.636  29.405  27.698  1.00  0.00     0.167 HD
ATOM     51  C   UNL A   1      37.886  30.154  29.130  1.00  0.00     0.037 A 
ATOM     52  C   UNL A   1      44.995  30.057  30.045  1.00  0.00     0.037 A 
ATOM     53  C   UNL A   1      38.022  29.841  30.523  1.00  0.00     0.049 A 
ATOM     54  C   UNL A   1      43.745  30.622  30.668  1.00  0.00     0.074 A 
ATOM     55  C   UNL A   1      37.545  28.896  31.404  1.00  0.00     0.029 A 
ATOM     56  N   UNL A   1      38.910  30.592  31.259  1.00  0.00    -0.354 N 
ATOM     57  N   UNL A   1      43.230  30.249  31.811  1.00  0.00    -0.248 NA
ATOM     58  C   UNL A   1      42.826  31.361  29.800  1.00  0.00     0.031 C 
ATOM     59  C   UNL A   1      38.509  28.844  32.462  1.00  0.00     0.029 A 
ATOM     60  C   UNL A   1      39.527  29.738  32.137  1.00  0.00     0.049 A 
ATOM     61  H   UNL A   1      39.070  31.559  31.172  1.00  0.00     0.167 HD
ATOM     62  C   UNL A   1      41.854  30.443  31.678  1.00  0.00     0.074 A 
ATOM     63  C   UNL A   1      41.676  31.153  30.427  1.00  0.00     0.031 C 
ATOM     64  C   UNL A   1      40.926  29.857  32.487  1.00  0.00     0.037 A 
BRANCH  51  65
ATOM     65  C   UNL A   1      36.847  31.124  28.719  1.00  0.00     0.058 A 
ATOM     66  C   UNL A   1      37.151  32.490  28.820  1.00  0.00     0.135 A 
ATOM     67  C   UNL A   1      35.517  30.758  28.485  1.00  0.00     0.135 A 
ATOM     68  F   UNL A   1      38.416  32.881  29.052  1.00  0.00    -0.206 F 
ATOM     69  C   UNL A   1      36.165  33.464  28.753  1.00  0.00     0.059 A 
ATOM     70  C   UNL A   1      34.508  31.721  28.403  1.00  0.00     0.059 A 
ATOM     71  F   UNL A   1      35.174  29.464  28.395  1.00  0.00    -0.206 F 
ATOM     72  C   UNL A   1      34.840  33.068  28.568  1.00  0.00     0.060 A 
BRANCH  72  73
ATOM     73  S   UNL A   1      33.569  34.351  28.599  1.00  0.00     0.124 S 
ATOM     74  O   UNL A   1      34.283  35.497  28.045  1.00  0.00    -0.237 OA
ATOM     75  O   UNL A   1      32.538  33.773  27.743  1.00  0.00    -0.237 OA
ATOM     76  O   UNL A   1      33.221  34.453  30.013  1.00  0.00    -0.744 OA
ENDBRANCH  72  73
ENDBRANCH  51  65
BRANCH  52  77
ATOM     77  C   UNL A   1      45.913  30.833  29.147  1.00  0.00     0.058 A 
ATOM     78  C   UNL A   1      46.294  32.130  29.556  1.00  0.00     0.135 A 
ATOM     79  C   UNL A   1      46.454  30.394  27.928  1.00  0.00     0.135 A 
ATOM     80  F   UNL A   1      45.712  32.700  30.624  1.00  0.00    -0.206 F 
ATOM     81  C   UNL A   1      47.284  32.859  28.907  1.00  0.00     0.059 A 
ATOM     82  C   UNL A   1      47.469  31.095  27.270  1.00  0.00     0.059 A 
ATOM     83  F   UNL A   1      46.033  29.260  27.352  1.00  0.00    -0.206 F 
ATOM     84  C   UNL A   1      47.910  32.304  27.796  1.00  0.00     0.060 A 
BRANCH  84  85
ATOM     85  S   UNL A   1      49.354  33.148  27.117  1.00  0.00     0.124 S 
ATOM     86  O   UNL A   1      49.889  32.152  26.198  1.00  0.00    -0.237 OA
ATOM     87  O   UNL A   1      48.742  34.321  26.499  1.00  0.00    -0.237 OA
ATOM     88  O   UNL A   1      50.171  33.424  28.295  1.00  0.00    -0.744 OA
ENDBRANCH  84  85
ENDBRANCH  52  77
BRANCH  64  89
ATOM     89  C   UNL A   1      41.456  29.120  33.671  1.00  0.00     0.058 A 
ATOM     90  C   UNL A   1      41.902  27.799  33.533  1.00  0.00     0.135 A 
ATOM     91  C   UNL A   1      41.598  29.735  34.926  1.00  0.00     0.135 A 
ATOM     92  F   UNL A   1      41.794  27.166  32.354  1.00  0.00    -0.206 F 
ATOM     93  C   UNL A   1      42.508  27.125  34.588  1.00  0.00     0.059 A 
ATOM     94  C   UNL A   1      42.224  29.088  35.988  1.00  0.00     0.059 A 
ATOM     95  F   UNL A   1      41.168  30.992  35.128  1.00  0.00    -0.206 F 
ATOM     96  C   UNL A   1      42.686  27.786  35.806  1.00  0.00     0.060 A 
BRANCH  96  97
ATOM     97  S   UNL A   1      43.603  26.945  37.113  1.00  0.00     0.124 S 
ATOM     98  O   UNL A   1      44.327  28.047  37.738  1.00  0.00    -0.237 OA
ATOM     99  O   UNL A   1      42.532  26.356  37.912  1.00  0.00    -0.237 OA
ATOM    100  O   UNL A   1      44.430  25.983  36.389  1.00  0.00    -0.744 OA
ENDBRANCH  96  97
ENDBRANCH  64  89
ENDBRANCH  38  39
ENDBRANCH  30  33
ENDBRANCH  28  29
ENDBRANCH   1  28
TORSDOF 16
ENDMDL
MODEL 2
REMARK VINA RESULT:     -12.7      7.208     14.184
REMARK SMILES Cc1ccc(-c2nn(CCC(=O)NCCCNC(=O)c3ccc(-c4c5nc(c(-c6c(F)cc(S(=O)(=O)[O-])cc6F)c6ccc([nH]6)c(-c6c(F)cc(S(=O)(=O)[O-])cc6F)c6nc(c(-c7c(F)cc(S(=O)(=O)[O-])cc7F)c7ccc4[nH]7)C=C6)C=C5)cc3)c(=O)c3noc(C)c23)cc1C
REMARK SMILES IDX 15 1 14 2 13 3 11 4 12 5 10 7 9 8 8 9 6 10 7 11 93 12 88 13
REMARK SMILES IDX 91 14 86 15 89 16 90 17 92 18 87 19 5 20 1 21 2 22 3 23
REMARK SMILES IDX 95 24 4 25 94 26 96 27 16 28 17 29 18 30 19 32 20 33 21 34
REMARK SMILES IDX 85 35 22 36 84 37 23 38 24 39 25 40 78 41 26 42 83 43 77 44
REMARK SMILES IDX 79 45 27 46 82 47 76 48 75 49 28 51 62 52 41 53 61 54 42 55
REMARK SMILES IDX 45 56 60 57 80 58 43 59 44 60 59 62 81 63 46 64 29 65 30 66
REMARK SMILES IDX 39 67 31 68 32 69 38 70 40 71 33 72 34 73 35 74 36 75 37 76
REMARK SMILES IDX 63 77 64 78 73 79 65 80 66 81 72 82 74 83 67 84 68 85 69 86
REMARK SMILES IDX 70 87 71 88 47 89 48 90 57 91 49 92 50 93 56 94 58 95 51 96
REMARK SMILES IDX 52 97 53 98 54 99 55 100
REMARK H PARENT 13 6 17 31 79 50 45 61
REMARK Flexibility Score: inf
ROOT
ATOM      1  C   UNL A   1      45.666  21.472  34.701  1.00  0.00     0.042 C 
ENDROOT
BRANCH   1   2
ATOM      2  C   UNL A   1      46.416  20.142  34.796  1.00  0.00     0.117 C 
BRANCH   2   3
ATOM      3  N   UNL A   1      45.596  19.124  35.435  1.00  0.00    -0.356 N 
ATOM      4  C   UNL A   1      45.475  18.756  36.740  1.00  0.00     0.221 C 
ATOM      5  O   UNL A   1      44.803  17.755  37.001  1.00  0.00    -0.275 OA
ATOM      6  H   UNL A   1      45.029  18.611  34.815  1.00  0.00     0.163 HD
BRANCH   4   7
ATOM      7  C   UNL A   1      46.089  19.572  37.858  1.00  0.00     0.124 C 
BRANCH   7   8
ATOM      8  C   UNL A   1      47.160  18.812  38.637  1.00  0.00     0.158 C 
BRANCH   8   9
ATOM      9  N   UNL A   1      46.766  18.531  40.018  1.00  0.00    -0.227 N 
ATOM     10  C   UNL A   1      45.064  17.673  41.395  1.00  0.00     0.104 A 
ATOM     11  N   UNL A   1      45.536  17.850  40.190  1.00  0.00    -0.169 NA
ATOM     12  C   UNL A   1      45.732  18.269  42.513  1.00  0.00     0.078 A 
ATOM     13  C   UNL A   1      47.052  18.711  42.377  1.00  0.00     0.183 A 
ATOM     14  C   UNL A   1      45.372  18.615  43.792  1.00  0.00     0.143 A 
ATOM     15  C   UNL A   1      47.677  18.812  41.069  1.00  0.00     0.296 A 
ATOM     16  N   UNL A   1      47.543  19.172  43.533  1.00  0.00    -0.074 NA
ATOM     17  O   UNL A   1      46.474  19.124  44.422  1.00  0.00    -0.360 OA
ATOM     18  C   UNL A   1      44.125  18.628  44.580  1.00  0.00     0.091 C 
ATOM     19  O   UNL A   1      48.826  19.198  40.890  1.00  0.00    -0.265 OA
BRANCH  10  20
ATOM     20  C   UNL A   1      44.031  16.665  41.681  1.00  0.00     0.003 A 
ATOM     21  C   UNL A   1      41.386  13.275  41.725  1.00  0.00     0.044 C 
ATOM     22  C   UNL A   1      42.291  14.476  41.774  1.00  0.00    -0.048 A 
ATOM     23  C   UNL A   1      42.201  15.414  40.734  1.00  0.00     0.004 A 
ATOM     24  C   UNL A   1      43.241  14.667  42.803  1.00  0.00    -0.048 A 
ATOM     25  C   UNL A   1      43.066  16.500  40.684  1.00  0.00     0.011 A 
ATOM     26  C   UNL A   1      44.104  15.782  42.755  1.00  0.00     0.014 A 
ATOM     27  C   UNL A   1      43.442  13.670  43.914  1.00  0.00     0.044 C 
ENDBRANCH  10  20
ENDBRANCH   8   9
ENDBRANCH   7   8
ENDBRANCH   4   7
ENDBRANCH   2   3
ENDBRANCH   1   2
BRANCH   1  28
ATOM     28  C   UNL A   1      45.879  22.493  35.821  1.00  0.00     0.118 C 
BRANCH  28  29
ATOM     29  N   UNL A   1      44.655  23.231  36.085  1.00  0.00    -0.352 N 
ATOM     30  C   UNL A   1      44.170  24.442  35.664  1.00  0.00     0.251 C 
ATOM     31  H   UNL A   1      44.043  22.760  36.695  1.00  0.00     0.163 HD
ATOM     32  O   UNL A   1      43.294  24.935  36.385  1.00  0.00    -0.269 OA
BRANCH  30  33
ATOM     33  C   UNL A   1      44.578  25.175  34.424  1.00  0.00     0.039 A 
ATOM     34  C   UNL A   1      44.091  24.651  33.211  1.00  0.00     0.014 A 
ATOM     35  C   UNL A   1      45.481  26.239  34.359  1.00  0.00     0.014 A 
ATOM     36  C   UNL A   1      44.467  25.188  31.976  1.00  0.00     0.010 A 
ATOM     37  C   UNL A   1      45.839  26.799  33.116  1.00  0.00     0.010 A 
ATOM     38  C   UNL A   1      45.330  26.285  31.916  1.00  0.00    -0.014 A 
BRANCH  38  39
ATOM     39  C   UNL A   1      45.549  26.917  30.593  1.00  0.00     0.031 A 
ATOM     40  C   UNL A   1      45.438  25.996  29.420  1.00  0.00     0.074 A 
ATOM     41  C   UNL A   1      45.360  28.239  30.378  1.00  0.00     0.049 A 
ATOM     42  N   UNL A   1      44.292  25.644  28.917  1.00  0.00    -0.248 NA
ATOM     43  C   UNL A   1      46.567  25.221  28.903  1.00  0.00     0.031 C 
ATOM     44  C   UNL A   1      44.318  29.024  31.052  1.00  0.00     0.029 A 
ATOM     45  N   UNL A   1      45.832  29.082  29.393  1.00  0.00    -0.354 N 
ATOM     46  C   UNL A   1      44.520  24.587  28.053  1.00  0.00     0.074 A 
ATOM     47  C   UNL A   1      45.949  24.362  28.074  1.00  0.00     0.031 C 
ATOM     48  C   UNL A   1      44.113  30.162  30.355  1.00  0.00     0.029 A 
ATOM     49  C   UNL A   1      45.100  30.266  29.282  1.00  0.00     0.049 A 
ATOM     50  H   UNL A   1      46.608  28.870  28.824  1.00  0.00     0.167 HD
ATOM     51  C   UNL A   1      43.515  23.969  27.377  1.00  0.00     0.037 A 
ATOM     52  C   UNL A   1      44.901  30.962  28.126  1.00  0.00     0.037 A 
ATOM     53  C   UNL A   1      42.212  24.529  27.588  1.00  0.00     0.049 A 
ATOM     54  C   UNL A   1      43.979  30.026  27.387  1.00  0.00     0.074 A 
ATOM     55  C   UNL A   1      41.127  24.300  28.404  1.00  0.00     0.029 A 
ATOM     56  N   UNL A   1      41.883  25.659  26.874  1.00  0.00    -0.354 N 
ATOM     57  N   UNL A   1      42.698  29.888  27.611  1.00  0.00    -0.248 NA
ATOM     58  C   UNL A   1      44.586  28.930  26.631  1.00  0.00     0.031 C 
ATOM     59  C   UNL A   1      40.431  25.550  28.469  1.00  0.00     0.029 A 
ATOM     60  C   UNL A   1      41.158  26.467  27.713  1.00  0.00     0.049 A 
ATOM     61  H   UNL A   1      42.122  25.849  25.939  1.00  0.00     0.167 HD
ATOM     62  C   UNL A   1      42.408  28.561  27.289  1.00  0.00     0.074 A 
ATOM     63  C   UNL A   1      43.607  28.035  26.669  1.00  0.00     0.031 C 
ATOM     64  C   UNL A   1      41.286  27.908  27.710  1.00  0.00     0.037 A 
BRANCH  51  65
ATOM     65  C   UNL A   1      43.679  22.923  26.343  1.00  0.00     0.058 A 
ATOM     66  C   UNL A   1      43.233  21.627  26.646  1.00  0.00     0.135 A 
ATOM     67  C   UNL A   1      44.474  23.100  25.205  1.00  0.00     0.135 A 
ATOM     68  F   UNL A   1      42.476  21.416  27.736  1.00  0.00    -0.206 F 
ATOM     69  C   UNL A   1      43.608  20.530  25.885  1.00  0.00     0.059 A 
ATOM     70  C   UNL A   1      44.855  22.011  24.416  1.00  0.00     0.059 A 
ATOM     71  F   UNL A   1      44.936  24.317  24.882  1.00  0.00    -0.206 F 
ATOM     72  C   UNL A   1      44.440  20.729  24.783  1.00  0.00     0.060 A 
BRANCH  72  73
ATOM     73  S   UNL A   1      45.002  19.268  23.880  1.00  0.00     0.124 S 
ATOM     74  O   UNL A   1      46.453  19.397  23.971  1.00  0.00    -0.237 OA
ATOM     75  O   UNL A   1      44.411  18.186  24.662  1.00  0.00    -0.237 OA
ATOM     76  O   UNL A   1      44.438  19.454  22.547  1.00  0.00    -0.744 OA
ENDBRANCH  72  73
ENDBRANCH  51  65
BRANCH  52  77
ATOM     77  C   UNL A   1      46.123  31.589  27.524  1.00  0.00     0.058 A 
ATOM     78  C   UNL A   1      46.026  32.926  27.079  1.00  0.00     0.135 A 
ATOM     79  C   UNL A   1      47.378  30.982  27.363  1.00  0.00     0.135 A 
ATOM     80  F   UNL A   1      44.834  33.543  27.046  1.00  0.00    -0.206 F 
ATOM     81  C   UNL A   1      47.136  33.667  26.686  1.00  0.00     0.059 A 
ATOM     82  C   UNL A   1      48.514  31.709  26.995  1.00  0.00     0.059 A 
ATOM     83  F   UNL A   1      47.548  29.671  27.583  1.00  0.00    -0.206 F 
ATOM     84  C   UNL A   1      48.389  33.064  26.706  1.00  0.00     0.060 A 
BRANCH  84  85
ATOM     85  S   UNL A   1      49.841  34.100  26.433  1.00  0.00     0.124 S 
ATOM     86  O   UNL A   1      49.258  35.434  26.359  1.00  0.00    -0.237 OA
ATOM     87  O   UNL A   1      50.631  33.816  27.628  1.00  0.00    -0.237 OA
ATOM     88  O   UNL A   1      50.397  33.585  25.185  1.00  0.00    -0.744 OA
ENDBRANCH  84  85
ENDBRANCH  52  77
BRANCH  64  89
ATOM     89  C   UNL A   1      40.259  28.742  28.398  1.00  0.00     0.058 A 
ATOM     90  C   UNL A   1      39.272  29.398  27.651  1.00  0.00     0.135 A 
ATOM     91  C   UNL A   1      40.194  28.834  29.799  1.00  0.00     0.135 A 
ATOM     92  F   UNL A   1      39.284  29.336  26.309  1.00  0.00    -0.206 F 
ATOM     93  C   UNL A   1      38.232  30.085  28.269  1.00  0.00     0.059 A 
ATOM     94  C   UNL A   1      39.149  29.496  30.438  1.00  0.00     0.059 A 
ATOM     95  F   UNL A   1      41.124  28.247  30.570  1.00  0.00    -0.206 F 
ATOM     96  C   UNL A   1      38.166  30.109  29.664  1.00  0.00     0.060 A 
BRANCH  96  97
ATOM     97  S   UNL A   1      36.733  30.882  30.441  1.00  0.00     0.124 S 
ATOM     98  O   UNL A   1      36.223  29.806  31.285  1.00  0.00    -0.237 OA
ATOM     99  O   UNL A   1      37.334  32.009  31.147  1.00  0.00    -0.237 OA
ATOM    100  O   UNL A   1      35.882  31.247  29.311  1.00  0.00    -0.744 OA
ENDBRANCH  96  97
ENDBRANCH  64  89
ENDBRANCH  38  39
ENDBRANCH  30  33
ENDBRANCH  28  29
ENDBRANCH   1  28
TORSDOF 16
ENDMDL
MODEL 3
REMARK VINA RESULT:     -12.7      2.091      2.914
REMARK SMILES Cc1ccc(-c2nn(CCC(=O)NCCCNC(=O)c3ccc(-c4c5nc(c(-c6c(F)cc(S(=O)(=O)[O-])cc6F)c6ccc([nH]6)c(-c6c(F)cc(S(=O)(=O)[O-])cc6F)c6nc(c(-c7c(F)cc(S(=O)(=O)[O-])cc7F)c7ccc4[nH]7)C=C6)C=C5)cc3)c(=O)c3noc(C)c23)cc1C
REMARK SMILES IDX 15 1 14 2 13 3 11 4 12 5 10 7 9 8 8 9 6 10 7 11 93 12 88 13
REMARK SMILES IDX 91 14 86 15 89 16 90 17 92 18 87 19 5 20 1 21 2 22 3 23
REMARK SMILES IDX 95 24 4 25 94 26 96 27 16 28 17 29 18 30 19 32 20 33 21 34
REMARK SMILES IDX 85 35 22 36 84 37 23 38 24 39 25 40 78 41 26 42 83 43 77 44
REMARK SMILES IDX 79 45 27 46 82 47 76 48 75 49 28 51 62 52 41 53 61 54 42 55
REMARK SMILES IDX 45 56 60 57 80 58 43 59 44 60 59 62 81 63 46 64 29 65 30 66
REMARK SMILES IDX 39 67 31 68 32 69 38 70 40 71 33 72 34 73 35 74 36 75 37 76
REMARK SMILES IDX 63 77 64 78 73 79 65 80 66 81 72 82 74 83 67 84 68 85 69 86
REMARK SMILES IDX 70 87 71 88 47 89 48 90 57 91 49 92 50 93 56 94 58 95 51 96
REMARK SMILES IDX 52 97 53 98 54 99 55 100
REMARK H PARENT 13 6 17 31 79 50 45 61
REMARK Flexibility Score: inf
ROOT
ATOM      1  C   UNL A   1      35.892  22.558  24.462  1.00  0.00     0.042 C 
ENDROOT
BRANCH   1   2
ATOM      2  C   UNL A   1      34.968  22.265  25.646  1.00  0.00     0.117 C 
BRANCH   2   3
ATOM      3  N   UNL A   1      33.962  21.275  25.290  1.00  0.00    -0.356 N 
ATOM      4  C   UNL A   1      32.623  21.230  25.527  1.00  0.00     0.221 C 
ATOM      5  O   UNL A   1      32.015  20.197  25.235  1.00  0.00    -0.275 OA
ATOM      6  H   UNL A   1      34.312  20.503  24.790  1.00  0.00     0.163 HD
BRANCH   4   7
ATOM      7  C   UNL A   1      31.870  22.424  26.076  1.00  0.00     0.124 C 
BRANCH   7   8
ATOM      8  C   UNL A   1      31.129  23.213  24.998  1.00  0.00     0.158 C 
BRANCH   8   9
ATOM      9  N   UNL A   1      31.895  24.360  24.507  1.00  0.00    -0.227 N 
ATOM     10  C   UNL A   1      32.421  26.621  24.877  1.00  0.00     0.104 A 
ATOM     11  N   UNL A   1      31.860  25.525  25.312  1.00  0.00    -0.169 NA
ATOM     12  C   UNL A   1      32.957  26.665  23.549  1.00  0.00     0.078 A 
ATOM     13  C   UNL A   1      33.219  25.472  22.867  1.00  0.00     0.183 A 
ATOM     14  C   UNL A   1      33.258  27.660  22.652  1.00  0.00     0.143 A 
ATOM     15  C   UNL A   1      32.727  24.200  23.368  1.00  0.00     0.296 A 
ATOM     16  N   UNL A   1      33.783  25.696  21.675  1.00  0.00    -0.074 NA
ATOM     17  O   UNL A   1      33.793  27.079  21.536  1.00  0.00    -0.360 OA
ATOM     18  C   UNL A   1      33.085  29.124  22.589  1.00  0.00     0.091 C 
ATOM     19  O   UNL A   1      32.919  23.127  22.810  1.00  0.00    -0.265 OA
BRANCH  10  20
ATOM     20  C   UNL A   1      32.764  27.727  25.785  1.00  0.00     0.003 A 
ATOM     21  C   UNL A   1      34.453  31.152  27.761  1.00  0.00     0.044 C 
ATOM     22  C   UNL A   1      33.808  29.958  27.112  1.00  0.00    -0.048 A 
ATOM     23  C   UNL A   1      34.564  28.782  26.992  1.00  0.00     0.004 A 
ATOM     24  C   UNL A   1      32.492  29.995  26.595  1.00  0.00    -0.048 A 
ATOM     25  C   UNL A   1      34.049  27.674  26.330  1.00  0.00     0.011 A 
ATOM     26  C   UNL A   1      31.970  28.860  25.940  1.00  0.00     0.014 A 
ATOM     27  C   UNL A   1      31.646  31.240  26.627  1.00  0.00     0.044 C 
ENDBRANCH  10  20
ENDBRANCH   8   9
ENDBRANCH   7   8
ENDBRANCH   4   7
ENDBRANCH   2   3
ENDBRANCH   1   2
BRANCH   1  28
ATOM     28  C   UNL A   1      37.241  23.220  24.758  1.00  0.00     0.118 C 
BRANCH  28  29
ATOM     29  N   UNL A   1      38.042  22.385  25.637  1.00  0.00    -0.352 N 
ATOM     30  C   UNL A   1      39.195  22.593  26.348  1.00  0.00     0.251 C 
ATOM     31  H   UNL A   1      37.678  21.477  25.746  1.00  0.00     0.163 HD
ATOM     32  O   UNL A   1      39.808  21.566  26.663  1.00  0.00    -0.269 OA
BRANCH  30  33
ATOM     33  C   UNL A   1      39.736  23.917  26.788  1.00  0.00     0.039 A 
ATOM     34  C   UNL A   1      40.863  24.387  26.086  1.00  0.00     0.014 A 
ATOM     35  C   UNL A   1      39.302  24.656  27.892  1.00  0.00     0.014 A 
ATOM     36  C   UNL A   1      41.517  25.566  26.453  1.00  0.00     0.010 A 
ATOM     37  C   UNL A   1      39.944  25.859  28.246  1.00  0.00     0.010 A 
ATOM     38  C   UNL A   1      41.050  26.329  27.526  1.00  0.00    -0.014 A 
BRANCH  38  39
ATOM     39  C   UNL A   1      41.676  27.654  27.752  1.00  0.00     0.031 A 
ATOM     40  C   UNL A   1      40.743  28.729  28.212  1.00  0.00     0.074 A 
ATOM     41  C   UNL A   1      42.992  27.800  28.027  1.00  0.00     0.049 A 
ATOM     42  N   UNL A   1      40.365  28.841  29.451  1.00  0.00    -0.248 NA
ATOM     43  C   UNL A   1      39.986  29.577  27.291  1.00  0.00     0.031 C 
ATOM     44  C   UNL A   1      43.762  26.830  28.816  1.00  0.00     0.029 A 
ATOM     45  N   UNL A   1      43.836  28.885  27.912  1.00  0.00    -0.354 N 
ATOM     46  C   UNL A   1      39.306  29.730  29.488  1.00  0.00     0.074 A 
ATOM     47  C   UNL A   1      39.108  30.165  28.123  1.00  0.00     0.031 C 
ATOM     48  C   UNL A   1      44.890  27.427  29.256  1.00  0.00     0.029 A 
ATOM     49  C   UNL A   1      45.005  28.759  28.665  1.00  0.00     0.049 A 
ATOM     50  H   UNL A   1      43.634  29.672  27.353  1.00  0.00     0.167 HD
ATOM     51  C   UNL A   1      38.663  30.050  30.643  1.00  0.00     0.037 A 
ATOM     52  C   UNL A   1      45.687  29.793  29.236  1.00  0.00     0.037 A 
ATOM     53  C   UNL A   1      39.200  29.436  31.822  1.00  0.00     0.049 A 
ATOM     54  C   UNL A   1      44.728  30.198  30.326  1.00  0.00     0.074 A 
ATOM     55  C   UNL A   1      38.957  28.316  32.586  1.00  0.00     0.029 A 
ATOM     56  N   UNL A   1      40.317  30.009  32.385  1.00  0.00    -0.354 N 
ATOM     57  N   UNL A   1      44.567  29.577  31.465  1.00  0.00    -0.248 NA
ATOM     58  C   UNL A   1      43.637  31.106  29.968  1.00  0.00     0.031 C 
ATOM     59  C   UNL A   1      40.193  28.035  33.251  1.00  0.00     0.029 A 
ATOM     60  C   UNL A   1      41.119  28.985  32.821  1.00  0.00     0.049 A 
ATOM     61  H   UNL A   1      40.505  30.972  32.460  1.00  0.00     0.167 HD
ATOM     62  C   UNL A   1      43.232  29.789  31.815  1.00  0.00     0.074 A 
ATOM     63  C   UNL A   1      42.724  30.757  30.865  1.00  0.00     0.031 C 
ATOM     64  C   UNL A   1      42.562  29.031  32.731  1.00  0.00     0.037 A 
BRANCH  51  65
ATOM     65  C   UNL A   1      37.612  31.081  30.795  1.00  0.00     0.058 A 
ATOM     66  C   UNL A   1      38.016  32.424  30.844  1.00  0.00     0.135 A 
ATOM     67  C   UNL A   1      36.292  30.774  31.144  1.00  0.00     0.135 A 
ATOM     68  F   UNL A   1      39.278  32.757  30.524  1.00  0.00    -0.206 F 
ATOM     69  C   UNL A   1      37.164  33.427  31.282  1.00  0.00     0.059 A 
ATOM     70  C   UNL A   1      35.412  31.769  31.577  1.00  0.00     0.059 A 
ATOM     71  F   UNL A   1      35.863  29.503  31.126  1.00  0.00    -0.206 F 
ATOM     72  C   UNL A   1      35.868  33.086  31.670  1.00  0.00     0.060 A 
BRANCH  72  73
ATOM     73  S   UNL A   1      34.821  34.396  32.341  1.00  0.00     0.124 S 
ATOM     74  O   UNL A   1      34.445  35.129  31.136  1.00  0.00    -0.237 OA
ATOM     75  O   UNL A   1      33.753  33.631  32.977  1.00  0.00    -0.237 OA
ATOM     76  O   UNL A   1      35.708  35.107  33.256  1.00  0.00    -0.744 OA
ENDBRANCH  72  73
ENDBRANCH  51  65
BRANCH  52  77
ATOM     77  C   UNL A   1      46.333  30.754  28.283  1.00  0.00     0.058 A 
ATOM     78  C   UNL A   1      45.489  31.565  27.492  1.00  0.00     0.135 A 
ATOM     79  C   UNL A   1      47.711  30.946  28.098  1.00  0.00     0.135 A 
ATOM     80  F   UNL A   1      44.163  31.351  27.481  1.00  0.00    -0.206 F 
ATOM     81  C   UNL A   1      45.970  32.618  26.721  1.00  0.00     0.059 A 
ATOM     82  C   UNL A   1      48.220  32.012  27.351  1.00  0.00     0.059 A 
ATOM     83  F   UNL A   1      48.607  30.122  28.658  1.00  0.00    -0.206 F 
ATOM     84  C   UNL A   1      47.337  32.872  26.706  1.00  0.00     0.060 A 
BRANCH  84  85
ATOM     85  S   UNL A   1      47.917  34.382  25.905  1.00  0.00     0.124 S 
ATOM     86  O   UNL A   1      47.913  35.335  27.008  1.00  0.00    -0.237 OA
ATOM     87  O   UNL A   1      49.233  33.970  25.425  1.00  0.00    -0.237 OA
ATOM     88  O   UNL A   1      46.923  34.618  24.864  1.00  0.00    -0.744 OA
ENDBRANCH  84  85
ENDBRANCH  52  77
BRANCH  64  89
ATOM     89  C   UNL A   1      43.380  28.053  33.503  1.00  0.00     0.058 A 
ATOM     90  C   UNL A   1      43.858  28.388  34.777  1.00  0.00     0.135 A 
ATOM     91  C   UNL A   1      43.633  26.755  33.026  1.00  0.00     0.135 A 
ATOM     92  F   UNL A   1      43.639  29.612  35.283  1.00  0.00    -0.206 F 
ATOM     93  C   UNL A   1      44.523  27.458  35.569  1.00  0.00     0.059 A 
ATOM     94  C   UNL A   1      44.275  25.802  33.812  1.00  0.00     0.059 A 
ATOM     95  F   UNL A   1      43.221  26.381  31.803  1.00  0.00    -0.206 F 
ATOM     96  C   UNL A   1      44.707  26.160  35.087  1.00  0.00     0.060 A 
BRANCH  96  97
ATOM     97  S   UNL A   1      45.442  24.932  36.187  1.00  0.00     0.124 S 
ATOM     98  O   UNL A   1      46.532  25.684  36.802  1.00  0.00    -0.237 OA
ATOM     99  O   UNL A   1      44.327  24.598  37.067  1.00  0.00    -0.237 OA
ATOM    100  O   UNL A   1      45.854  23.862  35.281  1.00  0.00    -0.744 OA
ENDBRANCH  96  97
ENDBRANCH  64  89
ENDBRANCH  38  39
ENDBRANCH  30  33
ENDBRANCH  28  29
ENDBRANCH   1  28
TORSDOF 16
ENDMDL
