MODEL 1
REMARK VINA RESULT:      -9.9      0.000      0.000
REMARK SMILES N#C[C@H]1CN(C(=O)[C@H]([NH3+])CC(=O)NCCCNC(=O)c2ccc(-c3c4nc(c(-c5c(F)cc(S(=O)(=O)[O-])cc5F)c5ccc([nH]5)c(-c5c(F)cc(S(=O)(=O)[O-])cc5F)c5nc(c(-c6c(F)cc(S(=O)(=O)[O-])cc6F)c6ccc3[nH]6)C=C5)C=C4)cc2)CCO1
REMARK SMILES IDX 14 1 13 2 11 3 12 4 10 6 8 7 6 8 7 9 5 10 3 11 4 12 88 13
REMARK SMILES IDX 87 14 86 15 2 16 1 17 9 18 15 22 16 23 17 24 18 25 19 27
REMARK SMILES IDX 20 28 21 29 85 30 22 31 84 32 23 33 24 34 25 35 78 36 26 37
REMARK SMILES IDX 83 38 77 39 79 40 27 41 82 42 76 43 75 44 28 46 62 47 41 48
REMARK SMILES IDX 61 49 42 50 45 51 60 52 80 53 43 54 44 55 59 57 81 58 46 59
REMARK SMILES IDX 29 60 30 61 39 62 31 63 32 64 38 65 40 66 33 67 34 68 35 69
REMARK SMILES IDX 36 70 37 71 63 72 64 73 73 74 65 75 66 76 72 77 74 78 67 79
REMARK SMILES IDX 68 80 69 81 70 82 71 83 47 84 48 85 57 86 49 87 50 88 56 89
REMARK SMILES IDX 58 90 51 91 52 92 53 93 54 94 55 95
REMARK H PARENT 13 5 9 19 9 20 9 21 17 26 79 45 45 56
REMARK Flexibility Score: inf
ROOT
ATOM      1  C   UNL A   1      34.462  34.126  30.106  1.00  0.00     0.117 C 
ENDROOT
BRANCH   1   2
ATOM      2  N   UNL A   1      33.989  33.870  31.455  1.00  0.00    -0.356 N 
ATOM      3  C   UNL A   1      34.616  34.065  32.650  1.00  0.00     0.226 C 
ATOM      4  O   UNL A   1      34.072  33.646  33.673  1.00  0.00    -0.275 OA
ATOM      5  H   UNL A   1      33.079  33.499  31.515  1.00  0.00     0.163 HD
BRANCH   3   6
ATOM      6  C   UNL A   1      35.880  34.892  32.723  1.00  0.00     0.175 C 
BRANCH   6   7
ATOM      7  C   UNL A   1      37.202  34.144  32.535  1.00  0.00     0.280 C 
BRANCH   7   8
ATOM      8  C   UNL A   1      38.049  34.173  33.834  1.00  0.00     0.281 C 
ATOM      9  O   UNL A   1      38.255  35.249  34.400  1.00  0.00    -0.268 OA
BRANCH   8  10
ATOM     10  N   UNL A   1      38.527  32.981  34.375  1.00  0.00    -0.332 N 
ATOM     11  C   UNL A   1      38.606  30.797  33.270  1.00  0.00     0.240 C 
ATOM     12  C   UNL A   1      37.891  31.657  34.332  1.00  0.00     0.167 C 
ATOM     13  O   UNL A   1      40.008  30.678  33.610  1.00  0.00    -0.360 OA
ATOM     14  C   UNL A   1      40.644  31.972  33.686  1.00  0.00     0.183 C 
ATOM     15  C   UNL A   1      39.949  32.882  34.708  1.00  0.00     0.148 C 
BRANCH  11  16
ATOM     16  C   UNL A   1      37.968  29.471  33.183  1.00  0.00     0.096 C 
ATOM     17  N   UNL A   1      37.463  28.428  33.169  1.00  0.00    -0.195 NA
ENDBRANCH  11  16
ENDBRANCH   8  10
ENDBRANCH   7   8
BRANCH   7  18
ATOM     18  N   UNL A   1      38.073  34.534  31.415  1.00  0.00    -0.347 N 
ATOM     19  H   UNL A   1      38.069  33.797  30.709  1.00  0.00     0.345 HD
ATOM     20  H   UNL A   1      39.024  34.673  31.756  1.00  0.00     0.345 HD
ATOM     21  H   UNL A   1      37.729  35.401  31.003  1.00  0.00     0.345 HD
ENDBRANCH   7  18
ENDBRANCH   6   7
ENDBRANCH   3   6
ENDBRANCH   1   2
BRANCH   1  22
ATOM     22  C   UNL A   1      35.115  32.890  29.498  1.00  0.00     0.042 C 
BRANCH  22  23
ATOM     23  C   UNL A   1      34.654  32.596  28.082  1.00  0.00     0.118 C 
BRANCH  23  24
ATOM     24  N   UNL A   1      33.959  31.323  27.986  1.00  0.00    -0.352 N 
ATOM     25  C   UNL A   1      34.478  30.052  27.923  1.00  0.00     0.251 C 
ATOM     26  H   UNL A   1      32.977  31.379  27.962  1.00  0.00     0.163 HD
ATOM     27  O   UNL A   1      33.751  29.117  27.603  1.00  0.00    -0.269 OA
BRANCH  25  28
ATOM     28  C   UNL A   1      35.909  29.820  28.219  1.00  0.00     0.039 A 
ATOM     29  C   UNL A   1      36.278  29.363  29.487  1.00  0.00     0.014 A 
ATOM     30  C   UNL A   1      36.889  30.059  27.251  1.00  0.00     0.014 A 
ATOM     31  C   UNL A   1      37.620  29.088  29.760  1.00  0.00     0.010 A 
ATOM     32  C   UNL A   1      38.207  29.690  27.492  1.00  0.00     0.010 A 
ATOM     33  C   UNL A   1      38.591  29.214  28.753  1.00  0.00    -0.014 A 
BRANCH  33  34
ATOM     34  C   UNL A   1      40.017  28.876  28.995  1.00  0.00     0.031 A 
ATOM     35  C   UNL A   1      40.958  29.932  29.512  1.00  0.00     0.074 A 
ATOM     36  C   UNL A   1      40.478  27.648  28.683  1.00  0.00     0.049 A 
ATOM     37  N   UNL A   1      42.252  29.870  29.686  1.00  0.00    -0.248 NA
ATOM     38  C   UNL A   1      40.372  31.240  29.849  1.00  0.00     0.031 C 
ATOM     39  C   UNL A   1      39.670  26.552  28.141  1.00  0.00     0.029 A 
ATOM     40  N   UNL A   1      41.743  27.117  28.759  1.00  0.00    -0.354 N 
ATOM     41  C   UNL A   1      42.634  31.129  30.135  1.00  0.00     0.074 A 
ATOM     42  C   UNL A   1      41.446  31.952  30.153  1.00  0.00     0.031 C 
ATOM     43  C   UNL A   1      40.453  25.478  27.952  1.00  0.00     0.029 A 
ATOM     44  C   UNL A   1      41.828  25.821  28.304  1.00  0.00     0.049 A 
ATOM     45  H   UNL A   1      42.516  27.617  29.105  1.00  0.00     0.167 HD
ATOM     46  C   UNL A   1      43.861  31.553  30.519  1.00  0.00     0.037 A 
ATOM     47  C   UNL A   1      42.893  25.008  28.166  1.00  0.00     0.037 A 
ATOM     48  C   UNL A   1      45.035  30.719  30.514  1.00  0.00     0.049 A 
ATOM     49  C   UNL A   1      44.254  25.515  28.570  1.00  0.00     0.074 A 
ATOM     50  C   UNL A   1      46.314  31.036  30.936  1.00  0.00     0.029 A 
ATOM     51  N   UNL A   1      45.076  29.409  30.061  1.00  0.00    -0.354 N 
ATOM     52  N   UNL A   1      44.586  26.689  29.054  1.00  0.00    -0.248 NA
ATOM     53  C   UNL A   1      45.385  24.589  28.416  1.00  0.00     0.031 C 
ATOM     54  C   UNL A   1      47.143  29.942  30.673  1.00  0.00     0.029 A 
ATOM     55  C   UNL A   1      46.367  28.915  30.162  1.00  0.00     0.049 A 
ATOM     56  H   UNL A   1      44.303  28.905  29.718  1.00  0.00     0.167 HD
ATOM     57  C   UNL A   1      45.954  26.627  29.298  1.00  0.00     0.074 A 
ATOM     58  C   UNL A   1      46.386  25.299  28.915  1.00  0.00     0.031 C 
ATOM     59  C   UNL A   1      46.778  27.582  29.795  1.00  0.00     0.037 A 
BRANCH  46  60
ATOM     60  C   UNL A   1      44.006  32.982  30.973  1.00  0.00     0.058 A 
ATOM     61  C   UNL A   1      44.142  34.041  30.061  1.00  0.00     0.135 A 
ATOM     62  C   UNL A   1      43.946  33.302  32.340  1.00  0.00     0.135 A 
ATOM     63  F   UNL A   1      44.221  33.794  28.744  1.00  0.00    -0.206 F 
ATOM     64  C   UNL A   1      44.238  35.361  30.487  1.00  0.00     0.059 A 
ATOM     65  C   UNL A   1      44.005  34.619  32.787  1.00  0.00     0.059 A 
ATOM     66  F   UNL A   1      43.819  32.330  33.258  1.00  0.00    -0.206 F 
ATOM     67  C   UNL A   1      44.161  35.641  31.852  1.00  0.00     0.060 A 
BRANCH  67  68
ATOM     68  S   UNL A   1      44.258  37.363  32.383  1.00  0.00     0.124 S 
ATOM     69  O   UNL A   1      43.252  37.399  33.442  1.00  0.00    -0.237 OA
ATOM     70  O   UNL A   1      45.645  37.473  32.823  1.00  0.00    -0.237 OA
ATOM     71  O   UNL A   1      43.923  38.113  31.177  1.00  0.00    -0.744 OA
ENDBRANCH  67  68
ENDBRANCH  46  60
BRANCH  47  72
ATOM     72  C   UNL A   1      42.724  23.633  27.619  1.00  0.00     0.058 A 
ATOM     73  C   UNL A   1      42.494  22.539  28.465  1.00  0.00     0.135 A 
ATOM     74  C   UNL A   1      42.792  23.385  26.238  1.00  0.00     0.135 A 
ATOM     75  F   UNL A   1      42.425  22.720  29.793  1.00  0.00    -0.206 F 
ATOM     76  C   UNL A   1      42.369  21.244  27.969  1.00  0.00     0.059 A 
ATOM     77  C   UNL A   1      42.636  22.105  25.714  1.00  0.00     0.059 A 
ATOM     78  F   UNL A   1      42.993  24.397  25.380  1.00  0.00    -0.206 F 
ATOM     79  C   UNL A   1      42.438  21.039  26.590  1.00  0.00     0.060 A 
BRANCH  79  80
ATOM     80  S   UNL A   1      42.239  19.361  25.954  1.00  0.00     0.124 S 
ATOM     81  O   UNL A   1      43.051  19.406  24.743  1.00  0.00    -0.237 OA
ATOM     82  O   UNL A   1      42.771  18.556  27.049  1.00  0.00    -0.237 OA
ATOM     83  O   UNL A   1      40.799  19.249  25.745  1.00  0.00    -0.744 OA
ENDBRANCH  79  80
ENDBRANCH  47  72
BRANCH  59  84
ATOM     84  C   UNL A   1      48.222  27.220  30.018  1.00  0.00     0.058 A 
ATOM     85  C   UNL A   1      49.206  27.455  29.045  1.00  0.00     0.135 A 
ATOM     86  C   UNL A   1      48.636  26.704  31.257  1.00  0.00     0.135 A 
ATOM     87  F   UNL A   1      48.867  27.938  27.840  1.00  0.00    -0.206 F 
ATOM     88  C   UNL A   1      50.548  27.176  29.290  1.00  0.00     0.059 A 
ATOM     89  C   UNL A   1      49.974  26.452  31.536  1.00  0.00     0.059 A 
ATOM     90  F   UNL A   1      47.736  26.469  32.226  1.00  0.00    -0.206 F 
ATOM     91  C   UNL A   1      50.923  26.684  30.541  1.00  0.00     0.060 A 
BRANCH  91  92
ATOM     92  S   UNL A   1      52.674  26.384  30.863  1.00  0.00     0.124 S 
ATOM     93  O   UNL A   1      53.044  27.581  31.612  1.00  0.00    -0.237 OA
ATOM     94  O   UNL A   1      52.638  25.142  31.629  1.00  0.00    -0.237 OA
ATOM     95  O   UNL A   1      53.254  26.274  29.528  1.00  0.00    -0.744 OA
ENDBRANCH  91  92
ENDBRANCH  59  84
ENDBRANCH  33  34
ENDBRANCH  25  28
ENDBRANCH  23  24
ENDBRANCH  22  23
ENDBRANCH   1  22
TORSDOF 18
ENDMDL
MODEL 2
REMARK VINA RESULT:      -9.5      3.545      6.355
REMARK SMILES N#C[C@H]1CN(C(=O)[C@H]([NH3+])CC(=O)NCCCNC(=O)c2ccc(-c3c4nc(c(-c5c(F)cc(S(=O)(=O)[O-])cc5F)c5ccc([nH]5)c(-c5c(F)cc(S(=O)(=O)[O-])cc5F)c5nc(c(-c6c(F)cc(S(=O)(=O)[O-])cc6F)c6ccc3[nH]6)C=C5)C=C4)cc2)CCO1
REMARK SMILES IDX 14 1 13 2 11 3 12 4 10 6 8 7 6 8 7 9 5 10 3 11 4 12 88 13
REMARK SMILES IDX 87 14 86 15 2 16 1 17 9 18 15 22 16 23 17 24 18 25 19 27
REMARK SMILES IDX 20 28 21 29 85 30 22 31 84 32 23 33 24 34 25 35 78 36 26 37
REMARK SMILES IDX 83 38 77 39 79 40 27 41 82 42 76 43 75 44 28 46 62 47 41 48
REMARK SMILES IDX 61 49 42 50 45 51 60 52 80 53 43 54 44 55 59 57 81 58 46 59
REMARK SMILES IDX 29 60 30 61 39 62 31 63 32 64 38 65 40 66 33 67 34 68 35 69
REMARK SMILES IDX 36 70 37 71 63 72 64 73 73 74 65 75 66 76 72 77 74 78 67 79
REMARK SMILES IDX 68 80 69 81 70 82 71 83 47 84 48 85 57 86 49 87 50 88 56 89
REMARK SMILES IDX 58 90 51 91 52 92 53 93 54 94 55 95
REMARK H PARENT 13 5 9 19 9 20 9 21 17 26 79 45 45 56
REMARK Flexibility Score: inf
ROOT
ATOM      1  C   UNL A   1      31.848  27.576  25.381  1.00  0.00     0.117 C 
ENDROOT
BRANCH   1   2
ATOM      2  N   UNL A   1      31.333  27.886  24.058  1.00  0.00    -0.356 N 
ATOM      3  C   UNL A   1      31.010  27.048  23.032  1.00  0.00     0.226 C 
ATOM      4  O   UNL A   1      30.717  27.542  21.942  1.00  0.00    -0.275 OA
ATOM      5  H   UNL A   1      31.196  28.843  23.877  1.00  0.00     0.163 HD
BRANCH   3   6
ATOM      6  C   UNL A   1      30.889  25.559  23.269  1.00  0.00     0.175 C 
BRANCH   6   7
ATOM      7  C   UNL A   1      31.822  24.656  22.458  1.00  0.00     0.280 C 
BRANCH   7   8
ATOM      8  C   UNL A   1      33.122  24.349  23.245  1.00  0.00     0.281 C 
ATOM      9  O   UNL A   1      34.173  24.909  22.922  1.00  0.00    -0.268 OA
BRANCH   8  10
ATOM     10  N   UNL A   1      33.083  23.482  24.335  1.00  0.00    -0.332 N 
ATOM     11  C   UNL A   1      31.084  22.672  25.493  1.00  0.00     0.240 C 
ATOM     12  C   UNL A   1      32.294  23.625  25.566  1.00  0.00     0.167 C 
ATOM     13  O   UNL A   1      31.550  21.310  25.341  1.00  0.00    -0.360 OA
ATOM     14  C   UNL A   1      32.353  21.157  24.151  1.00  0.00     0.183 C 
ATOM     15  C   UNL A   1      33.556  22.109  24.157  1.00  0.00     0.148 C 
BRANCH  11  16
ATOM     16  C   UNL A   1      30.255  22.816  26.704  1.00  0.00     0.096 C 
ATOM     17  N   UNL A   1      29.583  22.974  27.634  1.00  0.00    -0.195 NA
ENDBRANCH  11  16
ENDBRANCH   8  10
ENDBRANCH   7   8
BRANCH   7  18
ATOM     18  N   UNL A   1      32.199  25.081  21.101  1.00  0.00    -0.347 N 
ATOM     19  H   UNL A   1      33.021  25.684  21.150  1.00  0.00     0.345 HD
ATOM     20  H   UNL A   1      31.426  25.595  20.679  1.00  0.00     0.345 HD
ATOM     21  H   UNL A   1      32.413  24.261  20.535  1.00  0.00     0.345 HD
ENDBRANCH   7  18
ENDBRANCH   6   7
ENDBRANCH   3   6
ENDBRANCH   1   2
BRANCH   1  22
ATOM     22  C   UNL A   1      33.362  27.394  25.362  1.00  0.00     0.042 C 
BRANCH  22  23
ATOM     23  C   UNL A   1      34.048  27.900  26.617  1.00  0.00     0.118 C 
BRANCH  23  24
ATOM     24  N   UNL A   1      33.672  29.269  26.932  1.00  0.00    -0.352 N 
ATOM     25  C   UNL A   1      34.342  30.204  27.683  1.00  0.00     0.251 C 
ATOM     26  H   UNL A   1      32.814  29.568  26.554  1.00  0.00     0.163 HD
ATOM     27  O   UNL A   1      33.761  31.224  28.040  1.00  0.00    -0.269 OA
BRANCH  25  28
ATOM     28  C   UNL A   1      35.750  29.969  28.075  1.00  0.00     0.039 A 
ATOM     29  C   UNL A   1      36.034  29.535  29.372  1.00  0.00     0.014 A 
ATOM     30  C   UNL A   1      36.791  30.182  27.166  1.00  0.00     0.014 A 
ATOM     31  C   UNL A   1      37.354  29.257  29.735  1.00  0.00     0.010 A 
ATOM     32  C   UNL A   1      38.088  29.809  27.497  1.00  0.00     0.010 A 
ATOM     33  C   UNL A   1      38.387  29.356  28.790  1.00  0.00    -0.014 A 
BRANCH  33  34
ATOM     34  C   UNL A   1      39.793  29.014  29.129  1.00  0.00     0.031 A 
ATOM     35  C   UNL A   1      40.684  30.052  29.758  1.00  0.00     0.074 A 
ATOM     36  C   UNL A   1      40.285  27.801  28.805  1.00  0.00     0.049 A 
ATOM     37  N   UNL A   1      41.961  29.988  30.029  1.00  0.00    -0.248 NA
ATOM     38  C   UNL A   1      40.064  31.344  30.100  1.00  0.00     0.031 C 
ATOM     39  C   UNL A   1      39.529  26.725  28.160  1.00  0.00     0.029 A 
ATOM     40  N   UNL A   1      41.544  27.273  28.958  1.00  0.00    -0.354 N 
ATOM     41  C   UNL A   1      42.299  31.230  30.556  1.00  0.00     0.074 A 
ATOM     42  C   UNL A   1      41.107  32.047  30.514  1.00  0.00     0.031 C 
ATOM     43  C   UNL A   1      40.331  25.662  27.990  1.00  0.00     0.029 A 
ATOM     44  C   UNL A   1      41.672  25.996  28.461  1.00  0.00     0.049 A 
ATOM     45  H   UNL A   1      42.284  27.762  29.383  1.00  0.00     0.167 HD
ATOM     46  C   UNL A   1      43.489  31.643  31.050  1.00  0.00     0.037 A 
ATOM     47  C   UNL A   1      42.751  25.193  28.374  1.00  0.00     0.037 A 
ATOM     48  C   UNL A   1      44.665  30.814  31.104  1.00  0.00     0.049 A 
ATOM     49  C   UNL A   1      44.073  25.688  28.902  1.00  0.00     0.074 A 
ATOM     50  C   UNL A   1      45.905  31.119  31.636  1.00  0.00     0.029 A 
ATOM     51  N   UNL A   1      44.751  29.523  30.604  1.00  0.00    -0.354 N 
ATOM     52  N   UNL A   1      44.358  26.844  29.457  1.00  0.00    -0.248 NA
ATOM     53  C   UNL A   1      45.218  24.773  28.800  1.00  0.00     0.031 C 
ATOM     54  C   UNL A   1      46.760  30.040  31.396  1.00  0.00     0.029 A 
ATOM     55  C   UNL A   1      46.032  29.031  30.787  1.00  0.00     0.049 A 
ATOM     56  H   UNL A   1      44.010  29.030  30.183  1.00  0.00     0.167 HD
ATOM     57  C   UNL A   1      45.704  26.777  29.803  1.00  0.00     0.074 A 
ATOM     58  C   UNL A   1      46.173  25.467  29.404  1.00  0.00     0.031 C 
ATOM     59  C   UNL A   1      46.480  27.714  30.401  1.00  0.00     0.037 A 
BRANCH  46  60
ATOM     60  C   UNL A   1      43.588  33.054  31.570  1.00  0.00     0.058 A 
ATOM     61  C   UNL A   1      43.332  33.369  32.915  1.00  0.00     0.135 A 
ATOM     62  C   UNL A   1      44.002  34.095  30.724  1.00  0.00     0.135 A 
ATOM     63  F   UNL A   1      42.918  32.417  33.766  1.00  0.00    -0.206 F 
ATOM     64  C   UNL A   1      43.462  34.667  33.395  1.00  0.00     0.059 A 
ATOM     65  C   UNL A   1      44.172  35.395  31.191  1.00  0.00     0.059 A 
ATOM     66  F   UNL A   1      44.258  33.853  29.428  1.00  0.00    -0.206 F 
ATOM     67  C   UNL A   1      43.890  35.673  32.527  1.00  0.00     0.060 A 
BRANCH  67  68
ATOM     68  S   UNL A   1      44.079  37.346  33.177  1.00  0.00     0.124 S 
ATOM     69  O   UNL A   1      44.061  38.138  31.951  1.00  0.00    -0.237 OA
ATOM     70  O   UNL A   1      42.905  37.478  34.035  1.00  0.00    -0.237 OA
ATOM     71  O   UNL A   1      45.360  37.300  33.873  1.00  0.00    -0.744 OA
ENDBRANCH  67  68
ENDBRANCH  46  60
BRANCH  47  72
ATOM     72  C   UNL A   1      42.633  23.840  27.762  1.00  0.00     0.058 A 
ATOM     73  C   UNL A   1      42.407  22.704  28.552  1.00  0.00     0.135 A 
ATOM     74  C   UNL A   1      42.751  23.655  26.375  1.00  0.00     0.135 A 
ATOM     75  F   UNL A   1      42.292  22.823  29.884  1.00  0.00    -0.206 F 
ATOM     76  C   UNL A   1      42.329  21.430  27.995  1.00  0.00     0.059 A 
ATOM     77  C   UNL A   1      42.643  22.397  25.791  1.00  0.00     0.059 A 
ATOM     78  F   UNL A   1      42.951  24.710  25.569  1.00  0.00    -0.206 F 
ATOM     79  C   UNL A   1      42.446  21.288  26.611  1.00  0.00     0.060 A 
BRANCH  79  80
ATOM     80  S   UNL A   1      42.311  19.636  25.897  1.00  0.00     0.124 S 
ATOM     81  O   UNL A   1      43.287  19.701  24.815  1.00  0.00    -0.237 OA
ATOM     82  O   UNL A   1      42.666  18.786  27.028  1.00  0.00    -0.237 OA
ATOM     83  O   UNL A   1      40.913  19.563  25.482  1.00  0.00    -0.744 OA
ENDBRANCH  79  80
ENDBRANCH  47  72
BRANCH  59  84
ATOM     84  C   UNL A   1      47.905  27.349  30.720  1.00  0.00     0.058 A 
ATOM     85  C   UNL A   1      48.260  26.715  31.921  1.00  0.00     0.135 A 
ATOM     86  C   UNL A   1      48.917  27.568  29.771  1.00  0.00     0.135 A 
ATOM     87  F   UNL A   1      47.335  26.489  32.867  1.00  0.00    -0.206 F 
ATOM     88  C   UNL A   1      49.572  26.325  32.174  1.00  0.00     0.059 A 
ATOM     89  C   UNL A   1      50.226  27.154  29.987  1.00  0.00     0.059 A 
ATOM     90  F   UNL A   1      48.630  28.163  28.602  1.00  0.00    -0.206 F 
ATOM     91  C   UNL A   1      50.545  26.540  31.197  1.00  0.00     0.060 A 
BRANCH  91  92
ATOM     92  S   UNL A   1      52.230  25.974  31.516  1.00  0.00     0.124 S 
ATOM     93  O   UNL A   1      52.000  24.601  31.957  1.00  0.00    -0.237 OA
ATOM     94  O   UNL A   1      52.859  26.123  30.208  1.00  0.00    -0.237 OA
ATOM     95  O   UNL A   1      52.710  26.891  32.546  1.00  0.00    -0.744 OA
ENDBRANCH  91  92
ENDBRANCH  59  84
ENDBRANCH  33  34
ENDBRANCH  25  28
ENDBRANCH  23  24
ENDBRANCH  22  23
ENDBRANCH   1  22
TORSDOF 18
ENDMDL
MODEL 3
REMARK VINA RESULT:      -9.4      3.374      5.980
REMARK SMILES N#C[C@H]1CN(C(=O)[C@H]([NH3+])CC(=O)NCCCNC(=O)c2ccc(-c3c4nc(c(-c5c(F)cc(S(=O)(=O)[O-])cc5F)c5ccc([nH]5)c(-c5c(F)cc(S(=O)(=O)[O-])cc5F)c5nc(c(-c6c(F)cc(S(=O)(=O)[O-])cc6F)c6ccc3[nH]6)C=C5)C=C4)cc2)CCO1
REMARK SMILES IDX 14 1 13 2 11 3 12 4 10 6 8 7 6 8 7 9 5 10 3 11 4 12 88 13
REMARK SMILES IDX 87 14 86 15 2 16 1 17 9 18 15 22 16 23 17 24 18 25 19 27
REMARK SMILES IDX 20 28 21 29 85 30 22 31 84 32 23 33 24 34 25 35 78 36 26 37
REMARK SMILES IDX 83 38 77 39 79 40 27 41 82 42 76 43 75 44 28 46 62 47 41 48
REMARK SMILES IDX 61 49 42 50 45 51 60 52 80 53 43 54 44 55 59 57 81 58 46 59
REMARK SMILES IDX 29 60 30 61 39 62 31 63 32 64 38 65 40 66 33 67 34 68 35 69
REMARK SMILES IDX 36 70 37 71 63 72 64 73 73 74 65 75 66 76 72 77 74 78 67 79
REMARK SMILES IDX 68 80 69 81 70 82 71 83 47 84 48 85 57 86 49 87 50 88 56 89
REMARK SMILES IDX 58 90 51 91 52 92 53 93 54 94 55 95
REMARK H PARENT 13 5 9 19 9 20 9 21 17 26 79 45 45 56
REMARK Flexibility Score: inf
ROOT
ATOM      1  C   UNL A   1      34.999  31.512  27.710  1.00  0.00     0.117 C 
ENDROOT
BRANCH   1   2
ATOM      2  N   UNL A   1      33.551  31.493  27.589  1.00  0.00    -0.356 N 
ATOM      3  C   UNL A   1      32.742  30.596  26.957  1.00  0.00     0.226 C 
ATOM      4  O   UNL A   1      31.541  30.853  26.865  1.00  0.00    -0.275 OA
ATOM      5  H   UNL A   1      33.086  32.241  28.029  1.00  0.00     0.163 HD
BRANCH   3   6
ATOM      6  C   UNL A   1      33.289  29.261  26.501  1.00  0.00     0.175 C 
BRANCH   6   7
ATOM      7  C   UNL A   1      32.407  28.036  26.754  1.00  0.00     0.280 C 
BRANCH   7   8
ATOM      8  C   UNL A   1      31.657  27.614  25.463  1.00  0.00     0.281 C 
ATOM      9  O   UNL A   1      30.833  28.383  24.962  1.00  0.00    -0.268 OA
BRANCH   8  10
ATOM     10  N   UNL A   1      31.953  26.395  24.858  1.00  0.00    -0.332 N 
ATOM     11  C   UNL A   1      33.156  26.056  22.752  1.00  0.00     0.240 C 
ATOM     12  C   UNL A   1      31.779  26.028  23.446  1.00  0.00     0.167 C 
ATOM     13  O   UNL A   1      34.048  25.128  23.413  1.00  0.00    -0.360 OA
ATOM     14  C   UNL A   1      34.209  25.455  24.810  1.00  0.00     0.183 C 
ATOM     15  C   UNL A   1      32.861  25.473  25.543  1.00  0.00     0.148 C 
BRANCH  11  16
ATOM     16  C   UNL A   1      33.007  25.722  21.324  1.00  0.00     0.096 C 
ATOM     17  N   UNL A   1      32.920  25.504  20.190  1.00  0.00    -0.195 NA
ENDBRANCH  11  16
ENDBRANCH   8  10
ENDBRANCH   7   8
BRANCH   7  18
ATOM     18  N   UNL A   1      31.430  28.093  27.852  1.00  0.00    -0.347 N 
ATOM     19  H   UNL A   1      31.450  29.020  28.277  1.00  0.00     0.345 HD
ATOM     20  H   UNL A   1      31.666  27.392  28.554  1.00  0.00     0.345 HD
ATOM     21  H   UNL A   1      30.496  27.908  27.486  1.00  0.00     0.345 HD
ENDBRANCH   7  18
ENDBRANCH   6   7
ENDBRANCH   3   6
ENDBRANCH   1   2
BRANCH   1  22
ATOM     22  C   UNL A   1      35.515  32.911  28.029  1.00  0.00     0.042 C 
BRANCH  22  23
ATOM     23  C   UNL A   1      36.402  32.964  29.258  1.00  0.00     0.118 C 
BRANCH  23  24
ATOM     24  N   UNL A   1      35.962  32.038  30.290  1.00  0.00    -0.352 N 
ATOM     25  C   UNL A   1      36.544  30.868  30.714  1.00  0.00     0.251 C 
ATOM     26  H   UNL A   1      35.127  32.285  30.750  1.00  0.00     0.163 HD
ATOM     27  O   UNL A   1      35.907  30.098  31.426  1.00  0.00    -0.269 OA
BRANCH  25  28
ATOM     28  C   UNL A   1      37.924  30.533  30.296  1.00  0.00     0.039 A 
ATOM     29  C   UNL A   1      38.933  30.472  31.260  1.00  0.00     0.014 A 
ATOM     30  C   UNL A   1      38.225  30.286  28.954  1.00  0.00     0.014 A 
ATOM     31  C   UNL A   1      40.227  30.103  30.885  1.00  0.00     0.010 A 
ATOM     32  C   UNL A   1      39.486  29.822  28.599  1.00  0.00     0.010 A 
ATOM     33  C   UNL A   1      40.506  29.738  29.558  1.00  0.00    -0.014 A 
BRANCH  33  34
ATOM     34  C   UNL A   1      41.858  29.287  29.138  1.00  0.00     0.031 A 
ATOM     35  C   UNL A   1      42.986  30.281  29.058  1.00  0.00     0.074 A 
ATOM     36  C   UNL A   1      42.052  28.007  28.761  1.00  0.00     0.049 A 
ATOM     37  N   UNL A   1      44.204  30.113  28.615  1.00  0.00    -0.248 NA
ATOM     38  C   UNL A   1      42.699  31.654  29.508  1.00  0.00     0.031 C 
ATOM     39  C   UNL A   1      41.027  26.960  28.761  1.00  0.00     0.029 A 
ATOM     40  N   UNL A   1      43.172  27.370  28.288  1.00  0.00    -0.354 N 
ATOM     41  C   UNL A   1      44.820  31.356  28.717  1.00  0.00     0.074 A 
ATOM     42  C   UNL A   1      43.826  32.282  29.210  1.00  0.00     0.031 C 
ATOM     43  C   UNL A   1      41.569  25.811  28.329  1.00  0.00     0.029 A 
ATOM     44  C   UNL A   1      42.964  26.048  27.968  1.00  0.00     0.049 A 
ATOM     45  H   UNL A   1      44.043  27.817  28.187  1.00  0.00     0.167 HD
ATOM     46  C   UNL A   1      46.103  31.688  28.445  1.00  0.00     0.037 A 
ATOM     47  C   UNL A   1      43.794  25.136  27.425  1.00  0.00     0.037 A 
ATOM     48  C   UNL A   1      47.090  30.753  27.971  1.00  0.00     0.049 A 
ATOM     49  C   UNL A   1      45.209  25.539  27.100  1.00  0.00     0.074 A 
ATOM     50  C   UNL A   1      48.431  30.976  27.718  1.00  0.00     0.029 A 
ATOM     51  N   UNL A   1      46.843  29.420  27.673  1.00  0.00    -0.354 N 
ATOM     52  N   UNL A   1      45.792  26.704  27.264  1.00  0.00    -0.248 NA
ATOM     53  C   UNL A   1      46.082  24.508  26.523  1.00  0.00     0.031 C 
ATOM     54  C   UNL A   1      48.979  29.799  27.201  1.00  0.00     0.029 A 
ATOM     55  C   UNL A   1      48.000  28.819  27.207  1.00  0.00     0.049 A 
ATOM     56  H   UNL A   1      45.974  28.970  27.777  1.00  0.00     0.167 HD
ATOM     57  C   UNL A   1      47.108  26.533  26.848  1.00  0.00     0.074 A 
ATOM     58  C   UNL A   1      47.237  25.152  26.432  1.00  0.00     0.031 C 
ATOM     59  C   UNL A   1      48.118  27.436  26.815  1.00  0.00     0.037 A 
BRANCH  46  60
ATOM     60  C   UNL A   1      46.521  33.121  28.647  1.00  0.00     0.058 A 
ATOM     61  C   UNL A   1      47.044  33.577  29.867  1.00  0.00     0.135 A 
ATOM     62  C   UNL A   1      46.450  34.038  27.584  1.00  0.00     0.135 A 
ATOM     63  F   UNL A   1      47.120  32.750  30.922  1.00  0.00    -0.206 F 
ATOM     64  C   UNL A   1      47.462  34.893  30.034  1.00  0.00     0.059 A 
ATOM     65  C   UNL A   1      46.894  35.350  27.719  1.00  0.00     0.059 A 
ATOM     66  F   UNL A   1      45.955  33.659  26.395  1.00  0.00    -0.206 F 
ATOM     67  C   UNL A   1      47.389  35.770  28.951  1.00  0.00     0.060 A 
BRANCH  67  68
ATOM     68  S   UNL A   1      47.963  37.467  29.180  1.00  0.00     0.124 S 
ATOM     69  O   UNL A   1      49.112  37.510  28.280  1.00  0.00    -0.237 OA
ATOM     70  O   UNL A   1      46.801  38.244  28.762  1.00  0.00    -0.237 OA
ATOM     71  O   UNL A   1      48.280  37.532  30.603  1.00  0.00    -0.744 OA
ENDBRANCH  67  68
ENDBRANCH  46  60
BRANCH  47  72
ATOM     72  C   UNL A   1      43.313  23.753  27.148  1.00  0.00     0.058 A 
ATOM     73  C   UNL A   1      43.194  22.807  28.176  1.00  0.00     0.135 A 
ATOM     74  C   UNL A   1      42.968  23.348  25.848  1.00  0.00     0.135 A 
ATOM     75  F   UNL A   1      43.516  23.140  29.436  1.00  0.00    -0.206 F 
ATOM     76  C   UNL A   1      42.779  21.502  27.925  1.00  0.00     0.059 A 
ATOM     77  C   UNL A   1      42.518  22.060  25.577  1.00  0.00     0.059 A 
ATOM     78  F   UNL A   1      43.046  24.217  24.828  1.00  0.00    -0.206 F 
ATOM     79  C   UNL A   1      42.440  21.139  26.620  1.00  0.00     0.060 A 
BRANCH  79  80
ATOM     80  S   UNL A   1      41.871  19.454  26.312  1.00  0.00     0.124 S 
ATOM     81  O   UNL A   1      40.434  19.652  26.156  1.00  0.00    -0.237 OA
ATOM     82  O   UNL A   1      42.602  19.104  25.099  1.00  0.00    -0.237 OA
ATOM     83  O   UNL A   1      42.283  18.735  27.513  1.00  0.00    -0.744 OA
ENDBRANCH  79  80
ENDBRANCH  47  72
BRANCH  59  84
ATOM     84  C   UNL A   1      49.476  26.958  26.372  1.00  0.00     0.058 A 
ATOM     85  C   UNL A   1      50.356  26.301  27.245  1.00  0.00     0.135 A 
ATOM     86  C   UNL A   1      49.865  27.092  25.028  1.00  0.00     0.135 A 
ATOM     87  F   UNL A   1      50.039  26.152  28.541  1.00  0.00    -0.206 F 
ATOM     88  C   UNL A   1      51.580  25.807  26.804  1.00  0.00     0.059 A 
ATOM     89  C   UNL A   1      51.066  26.575  24.559  1.00  0.00     0.059 A 
ATOM     90  F   UNL A   1      49.056  27.705  24.149  1.00  0.00    -0.206 F 
ATOM     91  C   UNL A   1      51.922  25.940  25.458  1.00  0.00     0.060 A 
BRANCH  91  92
ATOM     92  S   UNL A   1      53.487  25.241  24.889  1.00  0.00     0.124 S 
ATOM     93  O   UNL A   1      53.440  25.539  23.462  1.00  0.00    -0.237 OA
ATOM     94  O   UNL A   1      54.463  26.000  25.665  1.00  0.00    -0.237 OA
ATOM     95  O   UNL A   1      53.377  23.828  25.240  1.00  0.00    -0.744 OA
ENDBRANCH  91  92
ENDBRANCH  59  84
ENDBRANCH  33  34
ENDBRANCH  25  28
ENDBRANCH  23  24
ENDBRANCH  22  23
ENDBRANCH   1  22
TORSDOF 18
ENDMDL
