MODEL 1
REMARK VINA RESULT:      -9.9      0.000      0.000
REMARK SMILES Cc1cc(C)cc(C(=O)N2CC[C@H](C(=O)NCCCNC(=O)c3ccc(-c4c5nc(c(-c6c(F)cc(S(=O)(=O)[O-])cc6F)c6ccc([nH]6)c(-c6c(F)cc(S(=O)(=O)[O-])cc6F)c6nc(c(-c7c(F)cc(S(=O)(=O)[O-])cc7F)c7ccc4[nH]7)C=C6)C=C5)cc3)[C@@H]2C)c1
REMARK SMILES IDX 18 1 17 2 16 3 14 4 15 5 13 7 10 8 11 9 89 10 12 11 90 12
REMARK SMILES IDX 8 13 9 14 7 15 1 16 2 17 3 18 91 19 4 20 5 21 6 22 19 23
REMARK SMILES IDX 20 24 21 25 22 27 23 28 24 29 88 30 25 31 87 32 26 33 27 34
REMARK SMILES IDX 28 35 81 36 29 37 86 38 80 39 82 40 30 41 85 42 79 43 78 44
REMARK SMILES IDX 31 46 65 47 44 48 64 49 45 50 48 51 63 52 83 53 46 54 47 55
REMARK SMILES IDX 62 57 84 58 49 59 32 60 33 61 42 62 34 63 35 64 41 65 43 66
REMARK SMILES IDX 36 67 37 68 38 69 39 70 40 71 66 72 67 73 76 74 68 75 69 76
REMARK SMILES IDX 75 77 77 78 70 79 71 80 72 81 73 82 74 83 50 84 51 85 60 86
REMARK SMILES IDX 52 87 53 88 59 89 61 90 54 91 55 92 56 93 57 94 58 95
REMARK H PARENT 16 6 20 26 82 45 48 56
REMARK Flexibility Score: inf
ROOT
ATOM      1  C   UNL A   1      34.514  33.076  29.578  1.00  0.00     0.042 C 
ENDROOT
BRANCH   1   2
ATOM      2  C   UNL A   1      35.478  34.215  29.887  1.00  0.00     0.117 C 
BRANCH   2   3
ATOM      3  N   UNL A   1      35.262  34.786  31.204  1.00  0.00    -0.356 N 
ATOM      4  C   UNL A   1      36.048  34.798  32.314  1.00  0.00     0.225 C 
ATOM      5  O   UNL A   1      35.640  35.421  33.295  1.00  0.00    -0.275 OA
ATOM      6  H   UNL A   1      34.396  35.242  31.312  1.00  0.00     0.163 HD
BRANCH   4   7
ATOM      7  C   UNL A   1      37.383  34.073  32.322  1.00  0.00     0.102 C 
ATOM      8  N   UNL A   1      38.102  32.479  33.946  1.00  0.00    -0.335 N 
ATOM      9  C   UNL A   1      38.160  33.777  34.580  1.00  0.00     0.121 C 
ATOM     10  C   UNL A   1      37.326  32.567  32.697  1.00  0.00     0.094 C 
ATOM     11  C   UNL A   1      38.298  34.703  33.390  1.00  0.00     0.037 C 
ATOM     12  C   UNL A   1      35.924  31.987  32.890  1.00  0.00     0.032 C 
BRANCH   8  13
ATOM     13  C   UNL A   1      38.682  31.397  34.584  1.00  0.00     0.254 C 
ATOM     14  O   UNL A   1      38.681  31.303  35.813  1.00  0.00    -0.269 OA
BRANCH  13  15
ATOM     15  C   UNL A   1      39.459  30.381  33.819  1.00  0.00     0.040 A 
ATOM     16  C   UNL A   1      43.011  29.019  33.545  1.00  0.00     0.044 C 
ATOM     17  C   UNL A   1      41.527  29.169  33.380  1.00  0.00    -0.050 A 
ATOM     18  C   UNL A   1      40.800  28.196  32.683  1.00  0.00     0.006 A 
ATOM     19  C   UNL A   1      40.843  30.236  33.979  1.00  0.00     0.017 A 
ATOM     20  C   UNL A   1      39.408  28.292  32.562  1.00  0.00    -0.050 A 
ATOM     21  C   UNL A   1      38.637  27.176  31.918  1.00  0.00     0.044 C 
ATOM     22  C   UNL A   1      38.749  29.397  33.116  1.00  0.00     0.017 A 
ENDBRANCH  13  15
ENDBRANCH   8  13
ENDBRANCH   4   7
ENDBRANCH   2   3
ENDBRANCH   1   2
BRANCH   1  23
ATOM     23  C   UNL A   1      34.381  32.727  28.097  1.00  0.00     0.118 C 
BRANCH  23  24
ATOM     24  N   UNL A   1      33.704  31.461  27.865  1.00  0.00    -0.352 N 
ATOM     25  C   UNL A   1      34.191  30.178  27.807  1.00  0.00     0.251 C 
ATOM     26  H   UNL A   1      32.732  31.536  27.726  1.00  0.00     0.163 HD
ATOM     27  O   UNL A   1      33.431  29.279  27.450  1.00  0.00    -0.269 OA
BRANCH  25  28
ATOM     28  C   UNL A   1      35.601  29.862  28.136  1.00  0.00     0.039 A 
ATOM     29  C   UNL A   1      36.540  29.872  27.099  1.00  0.00     0.014 A 
ATOM     30  C   UNL A   1      36.006  29.506  29.426  1.00  0.00     0.014 A 
ATOM     31  C   UNL A   1      37.881  29.582  27.363  1.00  0.00     0.010 A 
ATOM     32  C   UNL A   1      37.358  29.290  29.703  1.00  0.00     0.010 A 
ATOM     33  C   UNL A   1      38.310  29.320  28.674  1.00  0.00    -0.014 A 
BRANCH  33  34
ATOM     34  C   UNL A   1      39.750  29.088  28.966  1.00  0.00     0.031 A 
ATOM     35  C   UNL A   1      40.406  27.774  28.633  1.00  0.00     0.074 A 
ATOM     36  C   UNL A   1      40.466  30.063  29.562  1.00  0.00     0.049 A 
ATOM     37  N   UNL A   1      41.652  27.409  28.799  1.00  0.00    -0.248 NA
ATOM     38  C   UNL A   1      39.547  26.725  28.063  1.00  0.00     0.031 C 
ATOM     39  C   UNL A   1      39.935  31.357  29.996  1.00  0.00     0.029 A 
ATOM     40  N   UNL A   1      41.794  30.119  29.906  1.00  0.00    -0.354 N 
ATOM     41  C   UNL A   1      41.726  26.092  28.362  1.00  0.00     0.074 A 
ATOM     42  C   UNL A   1      40.388  25.704  27.974  1.00  0.00     0.031 C 
ATOM     43  C   UNL A   1      40.932  32.091  30.515  1.00  0.00     0.029 A 
ATOM     44  C   UNL A   1      42.166  31.314  30.475  1.00  0.00     0.049 A 
ATOM     45  H   UNL A   1      42.421  29.375  29.757  1.00  0.00     0.167 HD
ATOM     46  C   UNL A   1      42.813  25.286  28.270  1.00  0.00     0.037 A 
ATOM     47  C   UNL A   1      43.368  31.741  30.910  1.00  0.00     0.037 A 
ATOM     48  C   UNL A   1      44.149  25.683  28.635  1.00  0.00     0.049 A 
ATOM     49  C   UNL A   1      44.565  30.843  30.763  1.00  0.00     0.074 A 
ATOM     50  C   UNL A   1      45.324  24.959  28.521  1.00  0.00     0.029 A 
ATOM     51  N   UNL A   1      44.491  26.911  29.183  1.00  0.00    -0.354 N 
ATOM     52  N   UNL A   1      44.627  29.625  30.280  1.00  0.00    -0.248 NA
ATOM     53  C   UNL A   1      45.857  31.384  31.206  1.00  0.00     0.031 C 
ATOM     54  C   UNL A   1      46.370  25.736  29.033  1.00  0.00     0.029 A 
ATOM     55  C   UNL A   1      45.853  26.960  29.426  1.00  0.00     0.049 A 
ATOM     56  H   UNL A   1      43.856  27.640  29.371  1.00  0.00     0.167 HD
ATOM     57  C   UNL A   1      45.967  29.262  30.342  1.00  0.00     0.074 A 
ATOM     58  C   UNL A   1      46.683  30.396  30.890  1.00  0.00     0.031 C 
ATOM     59  C   UNL A   1      46.553  28.094  29.977  1.00  0.00     0.037 A 
BRANCH  46  60
ATOM     60  C   UNL A   1      42.602  23.893  27.742  1.00  0.00     0.058 A 
ATOM     61  C   UNL A   1      42.467  22.792  28.603  1.00  0.00     0.135 A 
ATOM     62  C   UNL A   1      42.500  23.658  26.361  1.00  0.00     0.135 A 
ATOM     63  F   UNL A   1      42.570  22.957  29.931  1.00  0.00    -0.206 F 
ATOM     64  C   UNL A   1      42.269  21.505  28.115  1.00  0.00     0.059 A 
ATOM     65  C   UNL A   1      42.275  22.382  25.851  1.00  0.00     0.059 A 
ATOM     66  F   UNL A   1      42.620  24.674  25.491  1.00  0.00    -0.206 F 
ATOM     67  C   UNL A   1      42.177  21.309  26.736  1.00  0.00     0.060 A 
BRANCH  67  68
ATOM     68  S   UNL A   1      41.917  19.633  26.115  1.00  0.00     0.124 S 
ATOM     69  O   UNL A   1      42.312  18.832  27.271  1.00  0.00    -0.237 OA
ATOM     70  O   UNL A   1      40.488  19.633  25.805  1.00  0.00    -0.237 OA
ATOM     71  O   UNL A   1      42.805  19.555  24.963  1.00  0.00    -0.744 OA
ENDBRANCH  67  68
ENDBRANCH  46  60
BRANCH  47  72
ATOM     72  C   UNL A   1      43.503  33.105  31.486  1.00  0.00     0.058 A 
ATOM     73  C   UNL A   1      43.629  34.229  30.657  1.00  0.00     0.135 A 
ATOM     74  C   UNL A   1      43.493  33.313  32.874  1.00  0.00     0.135 A 
ATOM     75  F   UNL A   1      43.649  34.079  29.323  1.00  0.00    -0.206 F 
ATOM     76  C   UNL A   1      43.752  35.511  31.181  1.00  0.00     0.059 A 
ATOM     77  C   UNL A   1      43.591  34.588  33.422  1.00  0.00     0.059 A 
ATOM     78  F   UNL A   1      43.355  32.271  33.709  1.00  0.00    -0.206 F 
ATOM     79  C   UNL A   1      43.729  35.681  32.566  1.00  0.00     0.060 A 
BRANCH  79  80
ATOM     80  S   UNL A   1      43.831  37.354  33.238  1.00  0.00     0.124 S 
ATOM     81  O   UNL A   1      45.111  37.312  33.936  1.00  0.00    -0.237 OA
ATOM     82  O   UNL A   1      43.787  38.175  32.031  1.00  0.00    -0.237 OA
ATOM     83  O   UNL A   1      42.649  37.445  34.089  1.00  0.00    -0.744 OA
ENDBRANCH  79  80
ENDBRANCH  47  72
BRANCH  59  84
ATOM     84  C   UNL A   1      48.045  27.998  30.138  1.00  0.00     0.058 A 
ATOM     85  C   UNL A   1      48.922  28.349  29.100  1.00  0.00     0.135 A 
ATOM     86  C   UNL A   1      48.604  27.560  31.350  1.00  0.00     0.135 A 
ATOM     87  F   UNL A   1      48.439  28.770  27.921  1.00  0.00    -0.206 F 
ATOM     88  C   UNL A   1      50.301  28.230  29.243  1.00  0.00     0.059 A 
ATOM     89  C   UNL A   1      49.980  27.458  31.523  1.00  0.00     0.059 A 
ATOM     90  F   UNL A   1      47.810  27.225  32.379  1.00  0.00    -0.206 F 
ATOM     91  C   UNL A   1      50.821  27.775  30.457  1.00  0.00     0.060 A 
BRANCH  91  92
ATOM     92  S   UNL A   1      52.611  27.618  30.631  1.00  0.00     0.124 S 
ATOM     93  O   UNL A   1      52.755  26.187  30.878  1.00  0.00    -0.237 OA
ATOM     94  O   UNL A   1      53.096  28.091  29.339  1.00  0.00    -0.237 OA
ATOM     95  O   UNL A   1      52.917  28.486  31.765  1.00  0.00    -0.744 OA
ENDBRANCH  91  92
ENDBRANCH  59  84
ENDBRANCH  33  34
ENDBRANCH  25  28
ENDBRANCH  23  24
ENDBRANCH   1  23
TORSDOF 15
ENDMDL
MODEL 2
REMARK VINA RESULT:      -9.7      4.674     10.045
REMARK SMILES Cc1cc(C)cc(C(=O)N2CC[C@H](C(=O)NCCCNC(=O)c3ccc(-c4c5nc(c(-c6c(F)cc(S(=O)(=O)[O-])cc6F)c6ccc([nH]6)c(-c6c(F)cc(S(=O)(=O)[O-])cc6F)c6nc(c(-c7c(F)cc(S(=O)(=O)[O-])cc7F)c7ccc4[nH]7)C=C6)C=C5)cc3)[C@@H]2C)c1
REMARK SMILES IDX 18 1 17 2 16 3 14 4 15 5 13 7 10 8 11 9 89 10 12 11 90 12
REMARK SMILES IDX 8 13 9 14 7 15 1 16 2 17 3 18 91 19 4 20 5 21 6 22 19 23
REMARK SMILES IDX 20 24 21 25 22 27 23 28 24 29 88 30 25 31 87 32 26 33 27 34
REMARK SMILES IDX 28 35 81 36 29 37 86 38 80 39 82 40 30 41 85 42 79 43 78 44
REMARK SMILES IDX 31 46 65 47 44 48 64 49 45 50 48 51 63 52 83 53 46 54 47 55
REMARK SMILES IDX 62 57 84 58 49 59 32 60 33 61 42 62 34 63 35 64 41 65 43 66
REMARK SMILES IDX 36 67 37 68 38 69 39 70 40 71 66 72 67 73 76 74 68 75 69 76
REMARK SMILES IDX 75 77 77 78 70 79 71 80 72 81 73 82 74 83 50 84 51 85 60 86
REMARK SMILES IDX 52 87 53 88 59 89 61 90 54 91 55 92 56 93 57 94 58 95
REMARK H PARENT 16 6 20 26 82 45 48 56
REMARK Flexibility Score: inf
ROOT
ATOM      1  C   UNL A   1      38.165  19.901  24.944  1.00  0.00     0.042 C 
ENDROOT
BRANCH   1   2
ATOM      2  C   UNL A   1      36.884  20.719  25.061  1.00  0.00     0.117 C 
BRANCH   2   3
ATOM      3  N   UNL A   1      35.690  19.893  25.011  1.00  0.00    -0.356 N 
ATOM      4  C   UNL A   1      34.387  20.218  24.795  1.00  0.00     0.225 C 
ATOM      5  O   UNL A   1      33.571  19.295  24.740  1.00  0.00    -0.275 OA
ATOM      6  H   UNL A   1      35.853  18.934  25.159  1.00  0.00     0.163 HD
BRANCH   4   7
ATOM      7  C   UNL A   1      33.971  21.669  24.622  1.00  0.00     0.102 C 
ATOM      8  N   UNL A   1      32.288  22.803  25.878  1.00  0.00    -0.335 N 
ATOM      9  C   UNL A   1      31.602  21.907  24.974  1.00  0.00     0.121 C 
ATOM     10  C   UNL A   1      33.719  22.455  25.937  1.00  0.00     0.094 C 
ATOM     11  C   UNL A   1      32.626  21.726  23.873  1.00  0.00     0.037 C 
ATOM     12  C   UNL A   1      34.038  21.702  27.229  1.00  0.00     0.032 C 
BRANCH   8  13
ATOM     13  C   UNL A   1      31.553  23.752  26.565  1.00  0.00     0.254 C 
ATOM     14  O   UNL A   1      30.857  23.443  27.536  1.00  0.00    -0.269 OA
BRANCH  13  15
ATOM     15  C   UNL A   1      31.454  25.154  26.070  1.00  0.00     0.040 A 
ATOM     16  C   UNL A   1      33.634  28.246  25.593  1.00  0.00     0.044 C 
ATOM     17  C   UNL A   1      32.476  27.295  25.515  1.00  0.00    -0.050 A 
ATOM     18  C   UNL A   1      31.349  27.627  24.754  1.00  0.00     0.006 A 
ATOM     19  C   UNL A   1      32.536  26.039  26.136  1.00  0.00     0.017 A 
ATOM     20  C   UNL A   1      30.279  26.732  24.627  1.00  0.00    -0.050 A 
ATOM     21  C   UNL A   1      29.138  27.058  23.709  1.00  0.00     0.044 C 
ATOM     22  C   UNL A   1      30.332  25.507  25.304  1.00  0.00     0.017 A 
ENDBRANCH  13  15
ENDBRANCH   8  13
ENDBRANCH   4   7
ENDBRANCH   2   3
ENDBRANCH   1   2
BRANCH   1  23
ATOM     23  C   UNL A   1      39.260  20.273  25.942  1.00  0.00     0.118 C 
BRANCH  23  24
ATOM     24  N   UNL A   1      40.351  19.313  25.979  1.00  0.00    -0.352 N 
ATOM     25  C   UNL A   1      41.703  19.493  26.143  1.00  0.00     0.251 C 
ATOM     26  H   UNL A   1      40.074  18.374  25.869  1.00  0.00     0.163 HD
ATOM     27  O   UNL A   1      42.445  18.522  25.993  1.00  0.00    -0.269 OA
BRANCH  25  28
ATOM     28  C   UNL A   1      42.281  20.818  26.466  1.00  0.00     0.039 A 
ATOM     29  C   UNL A   1      42.603  21.675  25.409  1.00  0.00     0.014 A 
ATOM     30  C   UNL A   1      42.562  21.212  27.778  1.00  0.00     0.014 A 
ATOM     31  C   UNL A   1      43.148  22.935  25.666  1.00  0.00     0.010 A 
ATOM     32  C   UNL A   1      43.037  22.499  28.040  1.00  0.00     0.010 A 
ATOM     33  C   UNL A   1      43.340  23.373  26.986  1.00  0.00    -0.014 A 
BRANCH  33  34
ATOM     34  C   UNL A   1      43.848  24.744  27.262  1.00  0.00     0.031 A 
ATOM     35  C   UNL A   1      45.299  25.089  27.054  1.00  0.00     0.074 A 
ATOM     36  C   UNL A   1      42.997  25.680  27.730  1.00  0.00     0.049 A 
ATOM     37  N   UNL A   1      45.906  26.236  27.223  1.00  0.00    -0.248 NA
ATOM     38  C   UNL A   1      46.188  24.000  26.624  1.00  0.00     0.031 C 
ATOM     39  C   UNL A   1      41.582  25.458  28.036  1.00  0.00     0.029 A 
ATOM     40  N   UNL A   1      43.195  27.005  28.028  1.00  0.00    -0.354 N 
ATOM     41  C   UNL A   1      47.245  26.007  26.929  1.00  0.00     0.074 A 
ATOM     42  C   UNL A   1      47.371  24.599  26.622  1.00  0.00     0.031 C 
ATOM     43  C   UNL A   1      41.033  26.613  28.445  1.00  0.00     0.029 A 
ATOM     44  C   UNL A   1      42.059  27.651  28.455  1.00  0.00     0.049 A 
ATOM     45  H   UNL A   1      44.068  27.452  27.942  1.00  0.00     0.167 HD
ATOM     46  C   UNL A   1      48.272  26.891  26.894  1.00  0.00     0.037 A 
ATOM     47  C   UNL A   1      41.861  28.936  28.808  1.00  0.00     0.037 A 
ATOM     48  C   UNL A   1      48.140  28.299  27.177  1.00  0.00     0.049 A 
ATOM     49  C   UNL A   1      43.006  29.906  28.725  1.00  0.00     0.074 A 
ATOM     50  C   UNL A   1      49.108  29.286  27.109  1.00  0.00     0.029 A 
ATOM     51  N   UNL A   1      46.967  28.920  27.580  1.00  0.00    -0.354 N 
ATOM     52  N   UNL A   1      44.251  29.684  28.375  1.00  0.00    -0.248 NA
ATOM     53  C   UNL A   1      42.717  31.304  29.071  1.00  0.00     0.031 C 
ATOM     54  C   UNL A   1      48.529  30.497  27.505  1.00  0.00     0.029 A 
ATOM     55  C   UNL A   1      47.190  30.272  27.778  1.00  0.00     0.049 A 
ATOM     56  H   UNL A   1      46.103  28.465  27.706  1.00  0.00     0.167 HD
ATOM     57  C   UNL A   1      44.887  30.918  28.438  1.00  0.00     0.074 A 
ATOM     58  C   UNL A   1      43.887  31.884  28.840  1.00  0.00     0.031 C 
ATOM     59  C   UNL A   1      46.185  31.223  28.184  1.00  0.00     0.037 A 
BRANCH  46  60
ATOM     60  C   UNL A   1      49.632  26.364  26.524  1.00  0.00     0.058 A 
ATOM     61  C   UNL A   1      50.075  26.342  25.192  1.00  0.00     0.135 A 
ATOM     62  C   UNL A   1      50.516  25.907  27.514  1.00  0.00     0.135 A 
ATOM     63  F   UNL A   1      49.265  26.754  24.204  1.00  0.00    -0.206 F 
ATOM     64  C   UNL A   1      51.333  25.858  24.850  1.00  0.00     0.059 A 
ATOM     65  C   UNL A   1      51.791  25.442  27.198  1.00  0.00     0.059 A 
ATOM     66  F   UNL A   1      50.146  25.907  28.805  1.00  0.00    -0.206 F 
ATOM     67  C   UNL A   1      52.184  25.407  25.861  1.00  0.00     0.060 A 
BRANCH  67  68
ATOM     68  S   UNL A   1      53.816  24.782  25.405  1.00  0.00     0.124 S 
ATOM     69  O   UNL A   1      54.557  24.976  26.649  1.00  0.00    -0.237 OA
ATOM     70  O   UNL A   1      53.531  23.393  25.050  1.00  0.00    -0.237 OA
ATOM     71  O   UNL A   1      54.212  25.640  24.297  1.00  0.00    -0.744 OA
ENDBRANCH  67  68
ENDBRANCH  46  60
BRANCH  47  72
ATOM     72  C   UNL A   1      40.508  29.386  29.230  1.00  0.00     0.058 A 
ATOM     73  C   UNL A   1      40.211  29.609  30.582  1.00  0.00     0.135 A 
ATOM     74  C   UNL A   1      39.493  29.620  28.289  1.00  0.00     0.135 A 
ATOM     75  F   UNL A   1      41.149  29.394  31.518  1.00  0.00    -0.206 F 
ATOM     76  C   UNL A   1      38.952  30.035  30.991  1.00  0.00     0.059 A 
ATOM     77  C   UNL A   1      38.233  30.069  28.671  1.00  0.00     0.059 A 
ATOM     78  F   UNL A   1      39.734  29.440  26.981  1.00  0.00    -0.206 F 
ATOM     79  C   UNL A   1      37.969  30.264  30.027  1.00  0.00     0.060 A 
BRANCH  79  80
ATOM     80  S   UNL A   1      36.355  30.873  30.560  1.00  0.00     0.124 S 
ATOM     81  O   UNL A   1      35.537  30.603  29.383  1.00  0.00    -0.237 OA
ATOM     82  O   UNL A   1      36.084  30.044  31.732  1.00  0.00    -0.237 OA
ATOM     83  O   UNL A   1      36.607  32.282  30.846  1.00  0.00    -0.744 OA
ENDBRANCH  79  80
ENDBRANCH  47  72
BRANCH  59  84
ATOM     84  C   UNL A   1      46.584  32.667  28.313  1.00  0.00     0.058 A 
ATOM     85  C   UNL A   1      46.448  33.568  27.245  1.00  0.00     0.135 A 
ATOM     86  C   UNL A   1      47.100  33.158  29.524  1.00  0.00     0.135 A 
ATOM     87  F   UNL A   1      45.964  33.148  26.066  1.00  0.00    -0.206 F 
ATOM     88  C   UNL A   1      46.848  34.896  27.359  1.00  0.00     0.059 A 
ATOM     89  C   UNL A   1      47.482  34.488  29.668  1.00  0.00     0.059 A 
ATOM     90  F   UNL A   1      47.239  32.342  30.580  1.00  0.00    -0.206 F 
ATOM     91  C   UNL A   1      47.371  35.345  28.573  1.00  0.00     0.060 A 
BRANCH  91  92
ATOM     92  S   UNL A   1      47.893  37.068  28.711  1.00  0.00     0.124 S 
ATOM     93  O   UNL A   1      49.307  36.973  28.360  1.00  0.00    -0.237 OA
ATOM     94  O   UNL A   1      47.041  37.734  27.731  1.00  0.00    -0.237 OA
ATOM     95  O   UNL A   1      47.610  37.396  30.104  1.00  0.00    -0.744 OA
ENDBRANCH  91  92
ENDBRANCH  59  84
ENDBRANCH  33  34
ENDBRANCH  25  28
ENDBRANCH  23  24
ENDBRANCH   1  23
TORSDOF 15
ENDMDL
MODEL 3
REMARK VINA RESULT:      -9.7      4.873     11.269
REMARK SMILES Cc1cc(C)cc(C(=O)N2CC[C@H](C(=O)NCCCNC(=O)c3ccc(-c4c5nc(c(-c6c(F)cc(S(=O)(=O)[O-])cc6F)c6ccc([nH]6)c(-c6c(F)cc(S(=O)(=O)[O-])cc6F)c6nc(c(-c7c(F)cc(S(=O)(=O)[O-])cc7F)c7ccc4[nH]7)C=C6)C=C5)cc3)[C@@H]2C)c1
REMARK SMILES IDX 18 1 17 2 16 3 14 4 15 5 13 7 10 8 11 9 89 10 12 11 90 12
REMARK SMILES IDX 8 13 9 14 7 15 1 16 2 17 3 18 91 19 4 20 5 21 6 22 19 23
REMARK SMILES IDX 20 24 21 25 22 27 23 28 24 29 88 30 25 31 87 32 26 33 27 34
REMARK SMILES IDX 28 35 81 36 29 37 86 38 80 39 82 40 30 41 85 42 79 43 78 44
REMARK SMILES IDX 31 46 65 47 44 48 64 49 45 50 48 51 63 52 83 53 46 54 47 55
REMARK SMILES IDX 62 57 84 58 49 59 32 60 33 61 42 62 34 63 35 64 41 65 43 66
REMARK SMILES IDX 36 67 37 68 38 69 39 70 40 71 66 72 67 73 76 74 68 75 69 76
REMARK SMILES IDX 75 77 77 78 70 79 71 80 72 81 73 82 74 83 50 84 51 85 60 86
REMARK SMILES IDX 52 87 53 88 59 89 61 90 54 91 55 92 56 93 57 94 58 95
REMARK H PARENT 16 6 20 26 82 45 48 56
REMARK Flexibility Score: inf
ROOT
ATOM      1  C   UNL A   1      40.486  22.229  27.337  1.00  0.00     0.042 C 
ENDROOT
BRANCH   1   2
ATOM      2  C   UNL A   1      39.288  22.850  26.627  1.00  0.00     0.117 C 
BRANCH   2   3
ATOM      3  N   UNL A   1      38.332  21.855  26.176  1.00  0.00    -0.356 N 
ATOM      4  C   UNL A   1      37.359  21.915  25.226  1.00  0.00     0.225 C 
ATOM      5  O   UNL A   1      36.722  20.886  24.997  1.00  0.00    -0.275 OA
ATOM      6  H   UNL A   1      38.398  20.989  26.638  1.00  0.00     0.163 HD
BRANCH   4   7
ATOM      7  C   UNL A   1      37.090  23.210  24.478  1.00  0.00     0.102 C 
ATOM      8  N   UNL A   1      34.940  24.094  23.940  1.00  0.00    -0.335 N 
ATOM      9  C   UNL A   1      35.161  22.969  23.060  1.00  0.00     0.121 C 
ATOM     10  C   UNL A   1      35.926  24.075  25.033  1.00  0.00     0.094 C 
ATOM     11  C   UNL A   1      36.673  22.884  23.031  1.00  0.00     0.037 C 
ATOM     12  C   UNL A   1      35.287  23.571  26.328  1.00  0.00     0.032 C 
BRANCH   8  13
ATOM     13  C   UNL A   1      33.871  24.937  23.692  1.00  0.00     0.254 C 
ATOM     14  O   UNL A   1      33.567  25.264  22.542  1.00  0.00    -0.269 OA
BRANCH  13  15
ATOM     15  C   UNL A   1      33.141  25.601  24.809  1.00  0.00     0.040 A 
ATOM     16  C   UNL A   1      33.409  28.667  27.061  1.00  0.00     0.044 C 
ATOM     17  C   UNL A   1      32.867  27.449  26.374  1.00  0.00    -0.050 A 
ATOM     18  C   UNL A   1      31.545  27.047  26.604  1.00  0.00     0.006 A 
ATOM     19  C   UNL A   1      33.644  26.743  25.445  1.00  0.00     0.017 A 
ATOM     20  C   UNL A   1      31.004  25.942  25.934  1.00  0.00    -0.050 A 
ATOM     21  C   UNL A   1      29.551  25.605  26.103  1.00  0.00     0.044 C 
ATOM     22  C   UNL A   1      31.815  25.214  25.054  1.00  0.00     0.017 A 
ENDBRANCH  13  15
ENDBRANCH   8  13
ENDBRANCH   4   7
ENDBRANCH   2   3
ENDBRANCH   1   2
BRANCH   1  23
ATOM     23  C   UNL A   1      41.752  23.084  27.332  1.00  0.00     0.118 C 
BRANCH  23  24
ATOM     24  N   UNL A   1      41.825  23.991  26.198  1.00  0.00    -0.352 N 
ATOM     25  C   UNL A   1      41.620  25.347  26.116  1.00  0.00     0.251 C 
ATOM     26  H   UNL A   1      42.063  23.561  25.344  1.00  0.00     0.163 HD
ATOM     27  O   UNL A   1      41.601  25.870  25.002  1.00  0.00    -0.269 OA
BRANCH  25  28
ATOM     28  C   UNL A   1      41.397  26.178  27.322  1.00  0.00     0.039 A 
ATOM     29  C   UNL A   1      42.327  27.180  27.615  1.00  0.00     0.014 A 
ATOM     30  C   UNL A   1      40.327  25.958  28.195  1.00  0.00     0.014 A 
ATOM     31  C   UNL A   1      42.157  27.990  28.740  1.00  0.00     0.010 A 
ATOM     32  C   UNL A   1      40.116  26.814  29.277  1.00  0.00     0.010 A 
ATOM     33  C   UNL A   1      41.032  27.837  29.566  1.00  0.00    -0.014 A 
BRANCH  33  34
ATOM     34  C   UNL A   1      40.810  28.749  30.720  1.00  0.00     0.031 A 
ATOM     35  C   UNL A   1      41.650  28.641  31.965  1.00  0.00     0.074 A 
ATOM     36  C   UNL A   1      39.824  29.667  30.654  1.00  0.00     0.049 A 
ATOM     37  N   UNL A   1      41.607  29.366  33.054  1.00  0.00    -0.248 NA
ATOM     38  C   UNL A   1      42.650  27.563  32.004  1.00  0.00     0.031 C 
ATOM     39  C   UNL A   1      38.897  29.832  29.532  1.00  0.00     0.029 A 
ATOM     40  N   UNL A   1      39.437  30.634  31.547  1.00  0.00    -0.354 N 
ATOM     41  C   UNL A   1      42.565  28.832  33.907  1.00  0.00     0.074 A 
ATOM     42  C   UNL A   1      43.136  27.687  33.231  1.00  0.00     0.031 C 
ATOM     43  C   UNL A   1      38.074  30.861  29.789  1.00  0.00     0.029 A 
ATOM     44  C   UNL A   1      38.394  31.412  31.101  1.00  0.00     0.049 A 
ATOM     45  H   UNL A   1      39.867  30.762  32.424  1.00  0.00     0.167 HD
ATOM     46  C   UNL A   1      42.952  29.267  35.132  1.00  0.00     0.037 A 
ATOM     47  C   UNL A   1      37.770  32.457  31.679  1.00  0.00     0.037 A 
ATOM     48  C   UNL A   1      42.399  30.422  35.793  1.00  0.00     0.049 A 
ATOM     49  C   UNL A   1      38.242  32.944  33.021  1.00  0.00     0.074 A 
ATOM     50  C   UNL A   1      42.766  30.977  37.007  1.00  0.00     0.029 A 
ATOM     51  N   UNL A   1      41.363  31.200  35.298  1.00  0.00    -0.354 N 
ATOM     52  N   UNL A   1      39.199  32.468  33.781  1.00  0.00    -0.248 NA
ATOM     53  C   UNL A   1      37.558  34.120  33.576  1.00  0.00     0.031 C 
ATOM     54  C   UNL A   1      41.928  32.069  37.261  1.00  0.00     0.029 A 
ATOM     55  C   UNL A   1      41.067  32.220  36.186  1.00  0.00     0.049 A 
ATOM     56  H   UNL A   1      40.904  31.047  34.439  1.00  0.00     0.167 HD
ATOM     57  C   UNL A   1      39.246  33.299  34.894  1.00  0.00     0.074 A 
ATOM     58  C   UNL A   1      38.235  34.318  34.699  1.00  0.00     0.031 C 
ATOM     59  C   UNL A   1      40.054  33.225  35.981  1.00  0.00     0.037 A 
BRANCH  46  60
ATOM     60  C   UNL A   1      44.037  28.496  35.833  1.00  0.00     0.058 A 
ATOM     61  C   UNL A   1      43.739  27.435  36.705  1.00  0.00     0.135 A 
ATOM     62  C   UNL A   1      45.389  28.795  35.608  1.00  0.00     0.135 A 
ATOM     63  F   UNL A   1      42.462  27.115  36.968  1.00  0.00    -0.206 F 
ATOM     64  C   UNL A   1      44.741  26.719  37.351  1.00  0.00     0.059 A 
ATOM     65  C   UNL A   1      46.411  28.074  36.223  1.00  0.00     0.059 A 
ATOM     66  F   UNL A   1      45.732  29.797  34.783  1.00  0.00    -0.206 F 
ATOM     67  C   UNL A   1      46.075  27.049  37.105  1.00  0.00     0.060 A 
BRANCH  67  68
ATOM     68  S   UNL A   1      47.368  26.110  37.949  1.00  0.00     0.124 S 
ATOM     69  O   UNL A   1      48.459  27.082  37.975  1.00  0.00    -0.237 OA
ATOM     70  O   UNL A   1      46.750  25.820  39.242  1.00  0.00    -0.237 OA
ATOM     71  O   UNL A   1      47.573  24.958  37.083  1.00  0.00    -0.744 OA
ENDBRANCH  67  68
ENDBRANCH  46  60
BRANCH  47  72
ATOM     72  C   UNL A   1      36.659  33.140  30.966  1.00  0.00     0.058 A 
ATOM     73  C   UNL A   1      35.328  32.976  31.379  1.00  0.00     0.135 A 
ATOM     74  C   UNL A   1      36.905  33.982  29.871  1.00  0.00     0.135 A 
ATOM     75  F   UNL A   1      35.043  32.176  32.419  1.00  0.00    -0.206 F 
ATOM     76  C   UNL A   1      34.278  33.611  30.726  1.00  0.00     0.059 A 
ATOM     77  C   UNL A   1      35.874  34.648  29.216  1.00  0.00     0.059 A 
ATOM     78  F   UNL A   1      38.163  34.187  29.450  1.00  0.00    -0.206 F 
ATOM     79  C   UNL A   1      34.562  34.448  29.645  1.00  0.00     0.060 A 
BRANCH  79  80
ATOM     80  S   UNL A   1      33.200  35.316  28.837  1.00  0.00     0.124 S 
ATOM     81  O   UNL A   1      32.455  35.825  29.984  1.00  0.00    -0.237 OA
ATOM     82  O   UNL A   1      33.903  36.315  28.036  1.00  0.00    -0.237 OA
ATOM     83  O   UNL A   1      32.541  34.263  28.071  1.00  0.00    -0.744 OA
ENDBRANCH  79  80
ENDBRANCH  47  72
BRANCH  59  84
ATOM     84  C   UNL A   1      39.890  34.292  37.028  1.00  0.00     0.058 A 
ATOM     85  C   UNL A   1      39.044  34.115  38.134  1.00  0.00     0.135 A 
ATOM     86  C   UNL A   1      40.596  35.502  36.929  1.00  0.00     0.135 A 
ATOM     87  F   UNL A   1      38.344  32.979  38.274  1.00  0.00    -0.206 F 
ATOM     88  C   UNL A   1      38.871  35.117  39.084  1.00  0.00     0.059 A 
ATOM     89  C   UNL A   1      40.458  36.507  37.881  1.00  0.00     0.059 A 
ATOM     90  F   UNL A   1      41.429  35.717  35.898  1.00  0.00    -0.206 F 
ATOM     91  C   UNL A   1      39.577  36.314  38.944  1.00  0.00     0.060 A 
BRANCH  91  92
ATOM     92  S   UNL A   1      39.343  37.611  40.178  1.00  0.00     0.124 S 
ATOM     93  O   UNL A   1      38.242  38.372  39.595  1.00  0.00    -0.237 OA
ATOM     94  O   UNL A   1      39.020  36.848  41.380  1.00  0.00    -0.237 OA
ATOM     95  O   UNL A   1      40.634  38.291  40.203  1.00  0.00    -0.744 OA
ENDBRANCH  91  92
ENDBRANCH  59  84
ENDBRANCH  33  34
ENDBRANCH  25  28
ENDBRANCH  23  24
ENDBRANCH   1  23
TORSDOF 15
ENDMDL
