MODEL 1
REMARK VINA RESULT:     -10.4      0.000      0.000
REMARK SMILES O=C(NCCCNC(=O)c1ccc(-c2c3nc(c(-c4c(F)cc(S(=O)(=O)[O-])cc4F)c4ccc([nH]4)c(-c4c(F)cc(S(=O)(=O)[O-])cc4F)c4nc(c(-c5c(F)cc(S(=O)(=O)[O-])cc5F)c5ccc2[nH]5)C=C4)C=C3)cc1)C1=Cc2cc(C(F)(F)F)ccc2O[C@@H]1C(F)(F)F
REMARK SMILES IDX 6 1 5 2 4 3 3 4 1 5 2 6 76 8 77 9 89 10 78 11 88 12 79 13
REMARK SMILES IDX 87 14 80 15 86 16 85 17 90 18 91 19 92 20 93 21 81 22 82 23
REMARK SMILES IDX 83 24 84 25 7 26 8 27 9 29 10 30 11 31 75 32 12 33 74 34
REMARK SMILES IDX 13 35 14 36 15 37 68 38 16 39 73 40 67 41 69 42 17 43 72 44
REMARK SMILES IDX 66 45 65 46 18 48 52 49 31 50 51 51 32 52 35 53 50 54 70 55
REMARK SMILES IDX 33 56 34 57 49 59 71 60 36 61 19 62 20 63 29 64 21 65 22 66
REMARK SMILES IDX 28 67 30 68 23 69 24 70 25 71 26 72 27 73 53 74 54 75 63 76
REMARK SMILES IDX 55 77 56 78 62 79 64 80 57 81 58 82 59 83 60 84 61 85 37 86
REMARK SMILES IDX 38 87 47 88 39 89 40 90 46 91 48 92 41 93 42 94 43 95 44 96
REMARK SMILES IDX 45 97
REMARK H PARENT 3 7 7 28 69 47 35 58
REMARK Flexibility Score: inf
ROOT
ATOM      1  C   UNL A   1      34.423  32.451  28.607  1.00  0.00     0.118 C 
ENDROOT
BRANCH   1   2
ATOM      2  C   UNL A   1      34.451  32.596  30.123  1.00  0.00     0.042 C 
BRANCH   2   3
ATOM      3  C   UNL A   1      34.836  34.005  30.566  1.00  0.00     0.118 C 
BRANCH   3   4
ATOM      4  N   UNL A   1      36.228  34.346  30.257  1.00  0.00    -0.352 N 
ATOM      5  O   UNL A   1      38.488  34.142  30.366  1.00  0.00    -0.270 OA
ATOM      6  C   UNL A   1      37.391  33.952  30.874  1.00  0.00     0.251 C 
ATOM      7  H   UNL A   1      36.348  34.952  29.489  1.00  0.00     0.163 HD
BRANCH   6   8
ATOM      8  C   UNL A   1      37.251  33.239  32.153  1.00  0.00     0.067 C 
ATOM      9  C   UNL A   1      37.454  31.917  32.113  1.00  0.00     0.025 C 
ATOM     10  C   UNL A   1      37.316  34.051  33.408  1.00  0.00     0.314 C 
ATOM     11  C   UNL A   1      38.311  31.427  33.194  1.00  0.00     0.018 A 
ATOM     12  O   UNL A   1      38.372  33.614  34.302  1.00  0.00    -0.475 OA
ATOM     13  C   UNL A   1      38.933  30.189  33.000  1.00  0.00     0.025 A 
ATOM     14  C   UNL A   1      38.832  32.331  34.136  1.00  0.00     0.128 A 
ATOM     15  C   UNL A   1      40.154  29.909  33.628  1.00  0.00     0.056 A 
ATOM     16  C   UNL A   1      40.006  32.023  34.821  1.00  0.00     0.048 A 
ATOM     17  C   UNL A   1      40.682  30.834  34.542  1.00  0.00     0.017 A 
BRANCH  10  18
ATOM     18  C   UNL A   1      35.967  34.080  34.140  1.00  0.00     0.429 C 
ATOM     19  F   UNL A   1      36.140  33.953  35.480  1.00  0.00    -0.167 F 
ATOM     20  F   UNL A   1      35.307  35.245  33.946  1.00  0.00    -0.167 F 
ATOM     21  F   UNL A   1      35.143  33.080  33.749  1.00  0.00    -0.167 F 
ENDBRANCH  10  18
BRANCH  15  22
ATOM     22  C   UNL A   1      40.915  28.662  33.244  1.00  0.00     0.416 C 
ATOM     23  F   UNL A   1      40.294  27.962  32.259  1.00  0.00    -0.166 F 
ATOM     24  F   UNL A   1      42.165  28.945  32.782  1.00  0.00    -0.166 F 
ATOM     25  F   UNL A   1      41.088  27.799  34.281  1.00  0.00    -0.166 F 
ENDBRANCH  15  22
ENDBRANCH   6   8
ENDBRANCH   3   4
ENDBRANCH   2   3
ENDBRANCH   1   2
BRANCH   1  26
ATOM     26  N   UNL A   1      33.879  31.184  28.133  1.00  0.00    -0.352 N 
ATOM     27  C   UNL A   1      34.506  29.968  27.956  1.00  0.00     0.251 C 
ATOM     28  H   UNL A   1      32.921  31.199  27.905  1.00  0.00     0.163 HD
ATOM     29  O   UNL A   1      33.865  29.027  27.489  1.00  0.00    -0.269 OA
BRANCH  27  30
ATOM     30  C   UNL A   1      35.943  29.801  28.279  1.00  0.00     0.039 A 
ATOM     31  C   UNL A   1      36.308  29.336  29.547  1.00  0.00     0.014 A 
ATOM     32  C   UNL A   1      36.935  30.071  27.337  1.00  0.00     0.014 A 
ATOM     33  C   UNL A   1      37.652  29.066  29.831  1.00  0.00     0.010 A 
ATOM     34  C   UNL A   1      38.247  29.682  27.576  1.00  0.00     0.010 A 
ATOM     35  C   UNL A   1      38.630  29.191  28.831  1.00  0.00    -0.014 A 
BRANCH  35  36
ATOM     36  C   UNL A   1      40.058  28.852  29.074  1.00  0.00     0.031 A 
ATOM     37  C   UNL A   1      40.987  29.890  29.656  1.00  0.00     0.074 A 
ATOM     38  C   UNL A   1      40.542  27.653  28.689  1.00  0.00     0.049 A 
ATOM     39  N   UNL A   1      42.282  29.836  29.835  1.00  0.00    -0.248 NA
ATOM     40  C   UNL A   1      40.388  31.181  30.035  1.00  0.00     0.031 C 
ATOM     41  C   UNL A   1      39.769  26.594  28.034  1.00  0.00     0.029 A 
ATOM     42  N   UNL A   1      41.807  27.126  28.783  1.00  0.00    -0.354 N 
ATOM     43  C   UNL A   1      42.652  31.094  30.302  1.00  0.00     0.074 A 
ATOM     44  C   UNL A   1      41.458  31.908  30.313  1.00  0.00     0.031 C 
ATOM     45  C   UNL A   1      40.566  25.534  27.819  1.00  0.00     0.029 A 
ATOM     46  C   UNL A   1      41.911  25.846  28.288  1.00  0.00     0.049 A 
ATOM     47  H   UNL A   1      42.568  27.618  29.169  1.00  0.00     0.167 HD
ATOM     48  C   UNL A   1      43.867  31.522  30.720  1.00  0.00     0.037 A 
ATOM     49  C   UNL A   1      42.973  25.018  28.224  1.00  0.00     0.037 A 
ATOM     50  C   UNL A   1      45.032  30.680  30.779  1.00  0.00     0.049 A 
ATOM     51  C   UNL A   1      44.292  25.483  28.777  1.00  0.00     0.074 A 
ATOM     52  C   UNL A   1      46.288  30.981  31.275  1.00  0.00     0.029 A 
ATOM     53  N   UNL A   1      45.076  29.365  30.343  1.00  0.00    -0.354 N 
ATOM     54  N   UNL A   1      44.608  26.652  29.283  1.00  0.00    -0.248 NA
ATOM     55  C   UNL A   1      45.396  24.514  28.765  1.00  0.00     0.031 C 
ATOM     56  C   UNL A   1      47.101  29.854  31.112  1.00  0.00     0.029 A 
ATOM     57  C   UNL A   1      46.340  28.840  30.552  1.00  0.00     0.049 A 
ATOM     58  H   UNL A   1      44.321  28.876  29.942  1.00  0.00     0.167 HD
ATOM     59  C   UNL A   1      45.938  26.552  29.671  1.00  0.00     0.074 A 
ATOM     60  C   UNL A   1      46.363  25.203  29.355  1.00  0.00     0.031 C 
ATOM     61  C   UNL A   1      46.737  27.490  30.237  1.00  0.00     0.037 A 
BRANCH  48  62
ATOM     62  C   UNL A   1      43.984  32.955  31.167  1.00  0.00     0.058 A 
ATOM     63  C   UNL A   1      43.741  33.337  32.497  1.00  0.00     0.135 A 
ATOM     64  C   UNL A   1      44.352  33.960  30.257  1.00  0.00     0.135 A 
ATOM     65  F   UNL A   1      43.371  32.421  33.407  1.00  0.00    -0.206 F 
ATOM     66  C   UNL A   1      43.812  34.666  32.899  1.00  0.00     0.059 A 
ATOM     67  C   UNL A   1      44.461  35.293  30.645  1.00  0.00     0.059 A 
ATOM     68  F   UNL A   1      44.598  33.654  28.974  1.00  0.00    -0.206 F 
ATOM     69  C   UNL A   1      44.170  35.638  31.964  1.00  0.00     0.060 A 
BRANCH  69  70
ATOM     70  S   UNL A   1      44.249  37.361  32.499  1.00  0.00     0.124 S 
ATOM     71  O   UNL A   1      43.987  38.064  31.247  1.00  0.00    -0.237 OA
ATOM     72  O   UNL A   1      43.188  37.429  33.497  1.00  0.00    -0.237 OA
ATOM     73  O   UNL A   1      45.606  37.492  33.020  1.00  0.00    -0.744 OA
ENDBRANCH  69  70
ENDBRANCH  48  62
BRANCH  49  74
ATOM     74  C   UNL A   1      42.813  23.649  27.664  1.00  0.00     0.058 A 
ATOM     75  C   UNL A   1      42.529  22.559  28.500  1.00  0.00     0.135 A 
ATOM     76  C   UNL A   1      42.911  23.406  26.285  1.00  0.00     0.135 A 
ATOM     77  F   UNL A   1      42.429  22.740  29.826  1.00  0.00    -0.206 F 
ATOM     78  C   UNL A   1      42.362  21.274  27.993  1.00  0.00     0.059 A 
ATOM     79  C   UNL A   1      42.726  22.133  25.752  1.00  0.00     0.059 A 
ATOM     80  F   UNL A   1      43.162  24.418  25.441  1.00  0.00    -0.206 F 
ATOM     81  C   UNL A   1      42.460  21.072  26.616  1.00  0.00     0.060 A 
BRANCH  81  82
ATOM     82  S   UNL A   1      42.184  19.409  25.963  1.00  0.00     0.124 S 
ATOM     83  O   UNL A   1      43.012  19.425  24.762  1.00  0.00    -0.237 OA
ATOM     84  O   UNL A   1      42.660  18.566  27.055  1.00  0.00    -0.237 OA
ATOM     85  O   UNL A   1      40.743  19.375  25.737  1.00  0.00    -0.744 OA
ENDBRANCH  81  82
ENDBRANCH  49  74
BRANCH  61  86
ATOM     86  C   UNL A   1      48.140  27.080  30.583  1.00  0.00     0.058 A 
ATOM     87  C   UNL A   1      49.206  27.282  29.695  1.00  0.00     0.135 A 
ATOM     88  C   UNL A   1      48.425  26.519  31.839  1.00  0.00     0.135 A 
ATOM     89  F   UNL A   1      48.985  27.812  28.481  1.00  0.00    -0.206 F 
ATOM     90  C   UNL A   1      50.506  26.915  30.028  1.00  0.00     0.059 A 
ATOM     91  C   UNL A   1      49.721  26.168  32.202  1.00  0.00     0.059 A 
ATOM     92  F   UNL A   1      47.440  26.318  32.730  1.00  0.00    -0.206 F 
ATOM     93  C   UNL A   1      50.752  26.357  31.284  1.00  0.00     0.060 A 
BRANCH  93  94
ATOM     94  S   UNL A   1      52.445  25.903  31.714  1.00  0.00     0.124 S 
ATOM     95  O   UNL A   1      52.751  26.869  32.763  1.00  0.00    -0.237 OA
ATOM     96  O   UNL A   1      52.298  24.518  32.150  1.00  0.00    -0.237 OA
ATOM     97  O   UNL A   1      53.172  26.083  30.461  1.00  0.00    -0.744 OA
ENDBRANCH  93  94
ENDBRANCH  61  86
ENDBRANCH  35  36
ENDBRANCH  27  30
ENDBRANCH   1  26
TORSDOF 15
ENDMDL
MODEL 2
REMARK VINA RESULT:     -10.1      3.956      6.972
REMARK SMILES O=C(NCCCNC(=O)c1ccc(-c2c3nc(c(-c4c(F)cc(S(=O)(=O)[O-])cc4F)c4ccc([nH]4)c(-c4c(F)cc(S(=O)(=O)[O-])cc4F)c4nc(c(-c5c(F)cc(S(=O)(=O)[O-])cc5F)c5ccc2[nH]5)C=C4)C=C3)cc1)C1=Cc2cc(C(F)(F)F)ccc2O[C@@H]1C(F)(F)F
REMARK SMILES IDX 6 1 5 2 4 3 3 4 1 5 2 6 76 8 77 9 89 10 78 11 88 12 79 13
REMARK SMILES IDX 87 14 80 15 86 16 85 17 90 18 91 19 92 20 93 21 81 22 82 23
REMARK SMILES IDX 83 24 84 25 7 26 8 27 9 29 10 30 11 31 75 32 12 33 74 34
REMARK SMILES IDX 13 35 14 36 15 37 68 38 16 39 73 40 67 41 69 42 17 43 72 44
REMARK SMILES IDX 66 45 65 46 18 48 52 49 31 50 51 51 32 52 35 53 50 54 70 55
REMARK SMILES IDX 33 56 34 57 49 59 71 60 36 61 19 62 20 63 29 64 21 65 22 66
REMARK SMILES IDX 28 67 30 68 23 69 24 70 25 71 26 72 27 73 53 74 54 75 63 76
REMARK SMILES IDX 55 77 56 78 62 79 64 80 57 81 58 82 59 83 60 84 61 85 37 86
REMARK SMILES IDX 38 87 47 88 39 89 40 90 46 91 48 92 41 93 42 94 43 95 44 96
REMARK SMILES IDX 45 97
REMARK H PARENT 3 7 7 28 69 47 35 58
REMARK Flexibility Score: inf
ROOT
ATOM      1  C   UNL A   1      33.822  28.672  26.033  1.00  0.00     0.118 C 
ENDROOT
BRANCH   1   2
ATOM      2  C   UNL A   1      32.992  27.644  26.793  1.00  0.00     0.042 C 
BRANCH   2   3
ATOM      3  C   UNL A   1      32.258  26.684  25.862  1.00  0.00     0.118 C 
BRANCH   3   4
ATOM      4  N   UNL A   1      32.039  25.361  26.453  1.00  0.00    -0.352 N 
ATOM      5  O   UNL A   1      32.579  23.231  27.027  1.00  0.00    -0.270 OA
ATOM      6  C   UNL A   1      32.752  24.197  26.297  1.00  0.00     0.251 C 
ATOM      7  H   UNL A   1      31.261  25.296  27.053  1.00  0.00     0.163 HD
BRANCH   6   8
ATOM      8  C   UNL A   1      33.777  24.186  25.241  1.00  0.00     0.067 C 
ATOM      9  C   UNL A   1      34.977  24.667  25.584  1.00  0.00     0.025 C 
ATOM     10  C   UNL A   1      33.546  23.294  24.062  1.00  0.00     0.314 C 
ATOM     11  C   UNL A   1      36.090  23.823  25.144  1.00  0.00     0.018 A 
ATOM     12  O   UNL A   1      34.616  22.332  23.872  1.00  0.00    -0.475 OA
ATOM     13  C   UNL A   1      37.310  23.984  25.808  1.00  0.00     0.025 A 
ATOM     14  C   UNL A   1      35.828  22.635  24.441  1.00  0.00     0.128 A 
ATOM     15  C   UNL A   1      38.208  22.912  25.902  1.00  0.00     0.056 A 
ATOM     16  C   UNL A   1      36.753  21.593  24.466  1.00  0.00     0.048 A 
ATOM     17  C   UNL A   1      37.920  21.717  25.222  1.00  0.00     0.017 A 
BRANCH  10  18
ATOM     18  C   UNL A   1      33.307  24.097  22.776  1.00  0.00     0.429 C 
ATOM     19  F   UNL A   1      33.337  23.288  21.687  1.00  0.00    -0.167 F 
ATOM     20  F   UNL A   1      32.097  24.704  22.771  1.00  0.00    -0.167 F 
ATOM     21  F   UNL A   1      34.240  25.058  22.583  1.00  0.00    -0.167 F 
ENDBRANCH  10  18
BRANCH  15  22
ATOM     22  C   UNL A   1      39.417  23.034  26.798  1.00  0.00     0.416 C 
ATOM     23  F   UNL A   1      39.163  23.776  27.906  1.00  0.00    -0.166 F 
ATOM     24  F   UNL A   1      39.853  21.822  27.240  1.00  0.00    -0.166 F 
ATOM     25  F   UNL A   1      40.483  23.611  26.182  1.00  0.00    -0.166 F 
ENDBRANCH  15  22
ENDBRANCH   6   8
ENDBRANCH   3   4
ENDBRANCH   2   3
ENDBRANCH   1   2
BRANCH   1  26
ATOM     26  N   UNL A   1      33.640  30.046  26.486  1.00  0.00    -0.352 N 
ATOM     27  C   UNL A   1      34.414  30.799  27.344  1.00  0.00     0.251 C 
ATOM     28  H   UNL A   1      32.848  30.504  26.124  1.00  0.00     0.163 HD
ATOM     29  O   UNL A   1      34.047  31.937  27.638  1.00  0.00    -0.269 OA
BRANCH  27  30
ATOM     30  C   UNL A   1      35.647  30.237  27.946  1.00  0.00     0.039 A 
ATOM     31  C   UNL A   1      36.860  30.369  27.263  1.00  0.00     0.014 A 
ATOM     32  C   UNL A   1      35.625  29.607  29.189  1.00  0.00     0.014 A 
ATOM     33  C   UNL A   1      38.051  29.944  27.866  1.00  0.00     0.010 A 
ATOM     34  C   UNL A   1      36.817  29.305  29.838  1.00  0.00     0.010 A 
ATOM     35  C   UNL A   1      38.045  29.452  29.181  1.00  0.00    -0.014 A 
BRANCH  35  36
ATOM     36  C   UNL A   1      39.296  29.052  29.881  1.00  0.00     0.031 A 
ATOM     37  C   UNL A   1      39.723  29.782  31.131  1.00  0.00     0.074 A 
ATOM     38  C   UNL A   1      40.092  28.101  29.350  1.00  0.00     0.049 A 
ATOM     39  N   UNL A   1      40.828  29.669  31.821  1.00  0.00    -0.248 NA
ATOM     40  C   UNL A   1      38.809  30.819  31.641  1.00  0.00     0.031 C 
ATOM     41  C   UNL A   1      39.838  27.380  28.099  1.00  0.00     0.029 A 
ATOM     42  N   UNL A   1      41.286  27.586  29.790  1.00  0.00    -0.354 N 
ATOM     43  C   UNL A   1      40.759  30.644  32.811  1.00  0.00     0.074 A 
ATOM     44  C   UNL A   1      39.538  31.384  32.590  1.00  0.00     0.031 C 
ATOM     45  C   UNL A   1      40.825  26.493  27.893  1.00  0.00     0.029 A 
ATOM     46  C   UNL A   1      41.798  26.602  28.974  1.00  0.00     0.049 A 
ATOM     47  H   UNL A   1      41.734  27.890  30.612  1.00  0.00     0.167 HD
ATOM     48  C   UNL A   1      41.614  30.880  33.834  1.00  0.00     0.037 A 
ATOM     49  C   UNL A   1      42.924  25.870  29.089  1.00  0.00     0.037 A 
ATOM     50  C   UNL A   1      42.787  30.088  34.092  1.00  0.00     0.049 A 
ATOM     51  C   UNL A   1      43.814  26.087  30.282  1.00  0.00     0.074 A 
ATOM     52  C   UNL A   1      43.671  30.176  35.153  1.00  0.00     0.029 A 
ATOM     53  N   UNL A   1      43.228  29.049  33.286  1.00  0.00    -0.354 N 
ATOM     54  N   UNL A   1      43.695  26.966  31.250  1.00  0.00    -0.248 NA
ATOM     55  C   UNL A   1      44.981  25.205  30.410  1.00  0.00     0.031 C 
ATOM     56  C   UNL A   1      44.663  29.206  34.973  1.00  0.00     0.029 A 
ATOM     57  C   UNL A   1      44.375  28.489  33.822  1.00  0.00     0.049 A 
ATOM     58  H   UNL A   1      42.791  28.752  32.455  1.00  0.00     0.167 HD
ATOM     59  C   UNL A   1      44.758  26.727  32.112  1.00  0.00     0.074 A 
ATOM     60  C   UNL A   1      45.500  25.612  31.560  1.00  0.00     0.031 C 
ATOM     61  C   UNL A   1      45.091  27.372  33.258  1.00  0.00     0.037 A 
BRANCH  48  62
ATOM     62  C   UNL A   1      41.294  32.024  34.760  1.00  0.00     0.058 A 
ATOM     63  C   UNL A   1      40.419  31.872  35.848  1.00  0.00     0.135 A 
ATOM     64  C   UNL A   1      41.877  33.287  34.563  1.00  0.00     0.135 A 
ATOM     65  F   UNL A   1      39.821  30.692  36.075  1.00  0.00    -0.206 F 
ATOM     66  C   UNL A   1      40.095  32.939  36.678  1.00  0.00     0.059 A 
ATOM     67  C   UNL A   1      41.592  34.362  35.402  1.00  0.00     0.059 A 
ATOM     68  F   UNL A   1      42.722  33.491  33.541  1.00  0.00    -0.206 F 
ATOM     69  C   UNL A   1      40.685  34.182  36.445  1.00  0.00     0.060 A 
BRANCH  69  70
ATOM     70  S   UNL A   1      40.247  35.561  37.526  1.00  0.00     0.124 S 
ATOM     71  O   UNL A   1      41.495  35.763  38.255  1.00  0.00    -0.237 OA
ATOM     72  O   UNL A   1      39.894  36.608  36.573  1.00  0.00    -0.237 OA
ATOM     73  O   UNL A   1      39.137  35.035  38.314  1.00  0.00    -0.744 OA
ENDBRANCH  69  70
ENDBRANCH  48  62
BRANCH  49  74
ATOM     74  C   UNL A   1      43.239  24.829  28.074  1.00  0.00     0.058 A 
ATOM     75  C   UNL A   1      43.941  25.155  26.905  1.00  0.00     0.135 A 
ATOM     76  C   UNL A   1      42.873  23.487  28.263  1.00  0.00     0.135 A 
ATOM     77  F   UNL A   1      44.310  26.425  26.676  1.00  0.00    -0.206 F 
ATOM     78  C   UNL A   1      44.257  24.193  25.950  1.00  0.00     0.059 A 
ATOM     79  C   UNL A   1      43.198  22.503  27.334  1.00  0.00     0.059 A 
ATOM     80  F   UNL A   1      42.217  23.120  29.375  1.00  0.00    -0.206 F 
ATOM     81  C   UNL A   1      43.882  22.867  26.176  1.00  0.00     0.060 A 
BRANCH  81  82
ATOM     82  S   UNL A   1      44.349  21.616  24.958  1.00  0.00     0.124 S 
ATOM     83  O   UNL A   1      45.730  21.339  25.339  1.00  0.00    -0.237 OA
ATOM     84  O   UNL A   1      43.387  20.552  25.225  1.00  0.00    -0.237 OA
ATOM     85  O   UNL A   1      44.171  22.307  23.685  1.00  0.00    -0.744 OA
ENDBRANCH  81  82
ENDBRANCH  49  74
BRANCH  61  86
ATOM     86  C   UNL A   1      46.290  26.865  34.008  1.00  0.00     0.058 A 
ATOM     87  C   UNL A   1      47.574  27.380  33.778  1.00  0.00     0.135 A 
ATOM     88  C   UNL A   1      46.142  25.885  35.002  1.00  0.00     0.135 A 
ATOM     89  F   UNL A   1      47.769  28.317  32.836  1.00  0.00    -0.206 F 
ATOM     90  C   UNL A   1      48.678  26.918  34.487  1.00  0.00     0.059 A 
ATOM     91  C   UNL A   1      47.227  25.427  35.741  1.00  0.00     0.059 A 
ATOM     92  F   UNL A   1      44.930  25.371  35.270  1.00  0.00    -0.206 F 
ATOM     93  C   UNL A   1      48.493  25.940  35.466  1.00  0.00     0.060 A 
BRANCH  93  94
ATOM     94  S   UNL A   1      49.929  25.362  36.395  1.00  0.00     0.124 S 
ATOM     95  O   UNL A   1      50.908  26.402  36.099  1.00  0.00    -0.237 OA
ATOM     96  O   UNL A   1      49.426  25.334  37.765  1.00  0.00    -0.237 OA
ATOM     97  O   UNL A   1      50.205  24.053  35.811  1.00  0.00    -0.744 OA
ENDBRANCH  93  94
ENDBRANCH  61  86
ENDBRANCH  35  36
ENDBRANCH  27  30
ENDBRANCH   1  26
TORSDOF 15
ENDMDL
MODEL 3
REMARK VINA RESULT:     -10.1      4.091     10.274
REMARK SMILES O=C(NCCCNC(=O)c1ccc(-c2c3nc(c(-c4c(F)cc(S(=O)(=O)[O-])cc4F)c4ccc([nH]4)c(-c4c(F)cc(S(=O)(=O)[O-])cc4F)c4nc(c(-c5c(F)cc(S(=O)(=O)[O-])cc5F)c5ccc2[nH]5)C=C4)C=C3)cc1)C1=Cc2cc(C(F)(F)F)ccc2O[C@@H]1C(F)(F)F
REMARK SMILES IDX 6 1 5 2 4 3 3 4 1 5 2 6 76 8 77 9 89 10 78 11 88 12 79 13
REMARK SMILES IDX 87 14 80 15 86 16 85 17 90 18 91 19 92 20 93 21 81 22 82 23
REMARK SMILES IDX 83 24 84 25 7 26 8 27 9 29 10 30 11 31 75 32 12 33 74 34
REMARK SMILES IDX 13 35 14 36 15 37 68 38 16 39 73 40 67 41 69 42 17 43 72 44
REMARK SMILES IDX 66 45 65 46 18 48 52 49 31 50 51 51 32 52 35 53 50 54 70 55
REMARK SMILES IDX 33 56 34 57 49 59 71 60 36 61 19 62 20 63 29 64 21 65 22 66
REMARK SMILES IDX 28 67 30 68 23 69 24 70 25 71 26 72 27 73 53 74 54 75 63 76
REMARK SMILES IDX 55 77 56 78 62 79 64 80 57 81 58 82 59 83 60 84 61 85 37 86
REMARK SMILES IDX 38 87 47 88 39 89 40 90 46 91 48 92 41 93 42 94 43 95 44 96
REMARK SMILES IDX 45 97
REMARK H PARENT 3 7 7 28 69 47 35 58
REMARK Flexibility Score: inf
ROOT
ATOM      1  C   UNL A   1      36.350  23.323  25.958  1.00  0.00     0.118 C 
ENDROOT
BRANCH   1   2
ATOM      2  C   UNL A   1      36.025  23.701  24.518  1.00  0.00     0.042 C 
BRANCH   2   3
ATOM      3  C   UNL A   1      34.524  23.818  24.271  1.00  0.00     0.118 C 
BRANCH   3   4
ATOM      4  N   UNL A   1      34.181  24.841  23.278  1.00  0.00    -0.352 N 
ATOM      5  O   UNL A   1      33.560  26.902  22.554  1.00  0.00    -0.270 OA
ATOM      6  C   UNL A   1      33.580  26.065  23.445  1.00  0.00     0.251 C 
ATOM      7  H   UNL A   1      34.417  24.616  22.349  1.00  0.00     0.163 HD
BRANCH   6   8
ATOM      8  C   UNL A   1      33.007  26.345  24.772  1.00  0.00     0.067 C 
ATOM      9  C   UNL A   1      33.862  26.797  25.696  1.00  0.00     0.025 C 
ATOM     10  C   UNL A   1      31.523  26.508  24.864  1.00  0.00     0.314 C 
ATOM     11  C   UNL A   1      33.351  27.944  26.451  1.00  0.00     0.018 A 
ATOM     12  O   UNL A   1      31.135  27.794  25.411  1.00  0.00    -0.475 OA
ATOM     13  C   UNL A   1      34.293  28.747  27.101  1.00  0.00     0.025 A 
ATOM     14  C   UNL A   1      32.076  28.457  26.159  1.00  0.00     0.128 A 
ATOM     15  C   UNL A   1      34.025  30.104  27.327  1.00  0.00     0.056 A 
ATOM     16  C   UNL A   1      31.778  29.787  26.453  1.00  0.00     0.048 A 
ATOM     17  C   UNL A   1      32.759  30.615  27.001  1.00  0.00     0.017 A 
BRANCH  10  18
ATOM     18  C   UNL A   1      30.871  25.365  25.656  1.00  0.00     0.429 C 
ATOM     19  F   UNL A   1      31.453  25.227  26.875  1.00  0.00    -0.167 F 
ATOM     20  F   UNL A   1      29.555  25.586  25.880  1.00  0.00    -0.167 F 
ATOM     21  F   UNL A   1      30.978  24.171  25.027  1.00  0.00    -0.167 F 
ENDBRANCH  10  18
BRANCH  15  22
ATOM     22  C   UNL A   1      35.128  31.002  27.834  1.00  0.00     0.416 C 
ATOM     23  F   UNL A   1      34.860  32.316  27.621  1.00  0.00    -0.166 F 
ATOM     24  F   UNL A   1      35.327  30.865  29.175  1.00  0.00    -0.166 F 
ATOM     25  F   UNL A   1      36.331  30.754  27.251  1.00  0.00    -0.166 F 
ENDBRANCH  15  22
ENDBRANCH   6   8
ENDBRANCH   3   4
ENDBRANCH   2   3
ENDBRANCH   1   2
BRANCH   1  26
ATOM     26  N   UNL A   1      37.449  22.376  26.099  1.00  0.00    -0.352 N 
ATOM     27  C   UNL A   1      38.751  22.592  26.500  1.00  0.00     0.251 C 
ATOM     28  H   UNL A   1      37.229  21.443  25.876  1.00  0.00     0.163 HD
ATOM     29  O   UNL A   1      39.542  21.649  26.498  1.00  0.00    -0.269 OA
BRANCH  27  30
ATOM     30  C   UNL A   1      39.212  23.948  26.884  1.00  0.00     0.039 A 
ATOM     31  C   UNL A   1      39.119  24.347  28.222  1.00  0.00     0.014 A 
ATOM     32  C   UNL A   1      39.760  24.821  25.946  1.00  0.00     0.014 A 
ATOM     33  C   UNL A   1      39.651  25.579  28.622  1.00  0.00     0.010 A 
ATOM     34  C   UNL A   1      40.401  25.982  26.364  1.00  0.00     0.010 A 
ATOM     35  C   UNL A   1      40.341  26.387  27.704  1.00  0.00    -0.014 A 
BRANCH  35  36
ATOM     36  C   UNL A   1      40.977  27.672  28.103  1.00  0.00     0.031 A 
ATOM     37  C   UNL A   1      42.471  27.842  27.972  1.00  0.00     0.074 A 
ATOM     38  C   UNL A   1      40.234  28.647  28.666  1.00  0.00     0.049 A 
ATOM     39  N   UNL A   1      43.231  28.830  28.369  1.00  0.00    -0.248 NA
ATOM     40  C   UNL A   1      43.217  26.726  27.365  1.00  0.00     0.031 C 
ATOM     41  C   UNL A   1      38.794  28.574  28.929  1.00  0.00     0.029 A 
ATOM     42  N   UNL A   1      40.590  29.889  29.129  1.00  0.00    -0.354 N 
ATOM     43  C   UNL A   1      44.538  28.434  28.100  1.00  0.00     0.074 A 
ATOM     44  C   UNL A   1      44.472  27.091  27.572  1.00  0.00     0.031 C 
ATOM     45  C   UNL A   1      38.385  29.733  29.472  1.00  0.00     0.029 A 
ATOM     46  C   UNL A   1      39.534  30.618  29.627  1.00  0.00     0.049 A 
ATOM     47  H   UNL A   1      41.514  30.228  29.106  1.00  0.00     0.167 HD
ATOM     48  C   UNL A   1      45.686  29.137  28.244  1.00  0.00     0.037 A 
ATOM     49  C   UNL A   1      39.498  31.861  30.148  1.00  0.00     0.037 A 
ATOM     50  C   UNL A   1      45.734  30.502  28.698  1.00  0.00     0.049 A 
ATOM     51  C   UNL A   1      40.771  32.658  30.215  1.00  0.00     0.074 A 
ATOM     52  C   UNL A   1      46.830  31.342  28.790  1.00  0.00     0.029 A 
ATOM     53  N   UNL A   1      44.632  31.231  29.119  1.00  0.00    -0.354 N 
ATOM     54  N   UNL A   1      41.990  32.294  29.888  1.00  0.00    -0.248 NA
ATOM     55  C   UNL A   1      40.667  34.038  30.707  1.00  0.00     0.031 C 
ATOM     56  C   UNL A   1      46.392  32.572  29.294  1.00  0.00     0.029 A 
ATOM     57  C   UNL A   1      45.020  32.510  29.477  1.00  0.00     0.049 A 
ATOM     58  H   UNL A   1      43.709  30.890  29.157  1.00  0.00     0.167 HD
ATOM     59  C   UNL A   1      42.791  33.407  30.112  1.00  0.00     0.074 A 
ATOM     60  C   UNL A   1      41.918  34.460  30.587  1.00  0.00     0.031 C 
ATOM     61  C   UNL A   1      44.130  33.546  29.940  1.00  0.00     0.037 A 
BRANCH  48  62
ATOM     62  C   UNL A   1      46.975  28.448  27.883  1.00  0.00     0.058 A 
ATOM     63  C   UNL A   1      47.495  28.487  26.578  1.00  0.00     0.135 A 
ATOM     64  C   UNL A   1      47.707  27.745  28.855  1.00  0.00     0.135 A 
ATOM     65  F   UNL A   1      46.830  29.131  25.606  1.00  0.00    -0.206 F 
ATOM     66  C   UNL A   1      48.665  27.818  26.239  1.00  0.00     0.059 A 
ATOM     67  C   UNL A   1      48.898  27.095  28.545  1.00  0.00     0.059 A 
ATOM     68  F   UNL A   1      47.260  27.675  30.119  1.00  0.00    -0.206 F 
ATOM     69  C   UNL A   1      49.358  27.120  27.229  1.00  0.00     0.060 A 
BRANCH  69  70
ATOM     70  S   UNL A   1      50.871  26.249  26.770  1.00  0.00     0.124 S 
ATOM     71  O   UNL A   1      51.878  27.013  27.500  1.00  0.00    -0.237 OA
ATOM     72  O   UNL A   1      50.619  24.900  27.266  1.00  0.00    -0.237 OA
ATOM     73  O   UNL A   1      50.913  26.382  25.317  1.00  0.00    -0.744 OA
ENDBRANCH  69  70
ENDBRANCH  48  62
BRANCH  49  74
ATOM     74  C   UNL A   1      38.203  32.442  30.592  1.00  0.00     0.058 A 
ATOM     75  C   UNL A   1      37.739  32.249  31.901  1.00  0.00     0.135 A 
ATOM     76  C   UNL A   1      37.417  33.224  29.730  1.00  0.00     0.135 A 
ATOM     77  F   UNL A   1      38.454  31.507  32.762  1.00  0.00    -0.206 F 
ATOM     78  C   UNL A   1      36.537  32.797  32.339  1.00  0.00     0.059 A 
ATOM     79  C   UNL A   1      36.222  33.800  30.152  1.00  0.00     0.059 A 
ATOM     80  F   UNL A   1      37.825  33.454  28.473  1.00  0.00    -0.206 F 
ATOM     81  C   UNL A   1      35.786  33.574  31.456  1.00  0.00     0.060 A 
BRANCH  81  82
ATOM     82  S   UNL A   1      34.256  34.328  32.053  1.00  0.00     0.124 S 
ATOM     83  O   UNL A   1      33.541  34.567  30.804  1.00  0.00    -0.237 OA
ATOM     84  O   UNL A   1      33.710  33.281  32.911  1.00  0.00    -0.237 OA
ATOM     85  O   UNL A   1      34.723  35.520  32.753  1.00  0.00    -0.744 OA
ENDBRANCH  81  82
ENDBRANCH  49  74
BRANCH  61  86
ATOM     86  C   UNL A   1      44.724  34.893  30.234  1.00  0.00     0.058 A 
ATOM     87  C   UNL A   1      45.233  35.212  31.502  1.00  0.00     0.135 A 
ATOM     88  C   UNL A   1      44.827  35.860  29.222  1.00  0.00     0.135 A 
ATOM     89  F   UNL A   1      45.155  34.323  32.506  1.00  0.00    -0.206 F 
ATOM     90  C   UNL A   1      45.797  36.456  31.765  1.00  0.00     0.059 A 
ATOM     91  C   UNL A   1      45.411  37.100  29.454  1.00  0.00     0.059 A 
ATOM     92  F   UNL A   1      44.368  35.597  27.987  1.00  0.00    -0.206 F 
ATOM     93  C   UNL A   1      45.880  37.393  30.734  1.00  0.00     0.060 A 
BRANCH  93  94
ATOM     94  S   UNL A   1      46.632  38.997  31.079  1.00  0.00     0.124 S 
ATOM     95  O   UNL A   1      47.784  38.613  31.888  1.00  0.00    -0.237 OA
ATOM     96  O   UNL A   1      46.935  39.498  29.742  1.00  0.00    -0.237 OA
ATOM     97  O   UNL A   1      45.580  39.719  31.787  1.00  0.00    -0.744 OA
ENDBRANCH  93  94
ENDBRANCH  61  86
ENDBRANCH  35  36
ENDBRANCH  27  30
ENDBRANCH   1  26
TORSDOF 15
ENDMDL
