MODEL 1
REMARK VINA RESULT:     -11.5      0.000      0.000
REMARK SMILES N#Cc1cc([N+](=O)[O-])cnc1Oc1csc(C(=O)NCCCNC(=O)c2ccc(-c3c4nc(c(-c5c(F)cc(S(=O)(=O)[O-])cc5F)c5ccc([nH]5)c(-c5c(F)cc(S(=O)(=O)[O-])cc5F)c5nc(c(-c6c(F)cc(S(=O)(=O)[O-])cc6F)c6ccc3[nH]6)C=C5)C=C4)cc2)c1
REMARK SMILES IDX 21 1 20 2 19 3 17 4 18 5 16 7 13 8 14 9 92 10 15 11 12 12
REMARK SMILES IDX 11 13 3 14 4 15 5 16 10 17 9 18 2 19 1 20 6 21 7 22 8 23
REMARK SMILES IDX 22 24 23 25 24 26 25 28 26 29 27 30 91 31 28 32 90 33 29 34
REMARK SMILES IDX 30 35 31 36 84 37 32 38 89 39 83 40 85 41 33 42 88 43 82 44
REMARK SMILES IDX 81 45 34 47 68 48 47 49 67 50 48 51 51 52 66 53 86 54 49 55
REMARK SMILES IDX 50 56 65 58 87 59 52 60 35 61 36 62 45 63 37 64 38 65 44 66
REMARK SMILES IDX 46 67 39 68 40 69 41 70 42 71 43 72 69 73 70 74 79 75 71 76
REMARK SMILES IDX 72 77 78 78 80 79 73 80 74 81 75 82 76 83 77 84 53 85 54 86
REMARK SMILES IDX 63 87 55 88 56 89 62 90 64 91 57 92 58 93 59 94 60 95 61 96
REMARK H PARENT 19 6 23 27 85 46 51 57
REMARK Flexibility Score: inf
ROOT
ATOM      1  C   UNL A   1      32.201  28.025  26.623  1.00  0.00     0.042 C 
ENDROOT
BRANCH   1   2
ATOM      2  C   UNL A   1      32.326  27.679  25.142  1.00  0.00     0.118 C 
BRANCH   2   3
ATOM      3  N   UNL A   1      31.049  27.281  24.583  1.00  0.00    -0.351 N 
ATOM      4  C   UNL A   1      30.531  26.052  24.252  1.00  0.00     0.261 C 
ATOM      5  O   UNL A   1      29.345  26.057  23.913  1.00  0.00    -0.268 OA
ATOM      6  H   UNL A   1      30.438  28.033  24.406  1.00  0.00     0.163 HD
BRANCH   4   7
ATOM      7  C   UNL A   1      31.337  24.844  24.341  1.00  0.00     0.096 A 
ATOM      8  C   UNL A   1      32.414  22.886  25.003  1.00  0.00     0.141 A 
ATOM      9  C   UNL A   1      32.802  22.942  23.688  1.00  0.00     0.112 A 
ATOM     10  C   UNL A   1      31.595  23.979  25.389  1.00  0.00     0.072 A 
ATOM     11  S   UNL A   1      32.195  24.346  22.925  1.00  0.00    -0.135 S 
BRANCH   8  12
ATOM     12  O   UNL A   1      32.699  21.844  25.803  1.00  0.00    -0.437 OA
BRANCH  12  13
ATOM     13  C   UNL A   1      33.180  20.638  25.369  1.00  0.00     0.237 A 
ATOM     14  C   UNL A   1      34.511  20.261  25.179  1.00  0.00     0.121 A 
ATOM     15  C   UNL A   1      34.770  18.998  24.622  1.00  0.00     0.112 A 
ATOM     16  C   UNL A   1      33.708  18.151  24.306  1.00  0.00     0.289 A 
ATOM     17  N   UNL A   1      32.149  19.791  25.090  1.00  0.00    -0.213 NA
ATOM     18  C   UNL A   1      32.423  18.567  24.581  1.00  0.00     0.200 A 
BRANCH  14  19
ATOM     19  C   UNL A   1      35.643  21.069  25.502  1.00  0.00     0.105 C 
ATOM     20  N   UNL A   1      36.591  21.707  25.714  1.00  0.00    -0.192 NA
ENDBRANCH  14  19
BRANCH  16  21
ATOM     21  N   UNL A   1      33.936  16.876  23.643  1.00  0.00     0.064 N 
ATOM     22  O   UNL A   1      33.969  16.870  22.406  1.00  0.00    -0.258 OA
ATOM     23  O   UNL A   1      34.130  15.889  24.363  1.00  0.00    -0.258 OA
ENDBRANCH  16  21
ENDBRANCH  12  13
ENDBRANCH   8  12
ENDBRANCH   4   7
ENDBRANCH   2   3
ENDBRANCH   1   2
BRANCH   1  24
ATOM     24  C   UNL A   1      33.525  28.471  27.242  1.00  0.00     0.118 C 
BRANCH  24  25
ATOM     25  N   UNL A   1      33.508  29.885  27.600  1.00  0.00    -0.352 N 
ATOM     26  C   UNL A   1      34.438  30.643  28.267  1.00  0.00     0.251 C 
ATOM     27  H   UNL A   1      32.702  30.374  27.317  1.00  0.00     0.163 HD
ATOM     28  O   UNL A   1      34.115  31.745  28.705  1.00  0.00    -0.269 OA
BRANCH  26  29
ATOM     29  C   UNL A   1      35.810  30.138  28.461  1.00  0.00     0.039 A 
ATOM     30  C   UNL A   1      36.684  30.107  27.372  1.00  0.00     0.014 A 
ATOM     31  C   UNL A   1      36.228  29.675  29.712  1.00  0.00     0.014 A 
ATOM     32  C   UNL A   1      38.002  29.684  27.557  1.00  0.00     0.010 A 
ATOM     33  C   UNL A   1      37.561  29.332  29.911  1.00  0.00     0.010 A 
ATOM     34  C   UNL A   1      38.462  29.340  28.838  1.00  0.00    -0.014 A 
BRANCH  34  35
ATOM     35  C   UNL A   1      39.890  29.016  29.087  1.00  0.00     0.031 A 
ATOM     36  C   UNL A   1      40.831  30.076  29.587  1.00  0.00     0.074 A 
ATOM     37  C   UNL A   1      40.349  27.786  28.780  1.00  0.00     0.049 A 
ATOM     38  N   UNL A   1      42.126  30.016  29.756  1.00  0.00    -0.248 NA
ATOM     39  C   UNL A   1      40.243  31.384  29.920  1.00  0.00     0.031 C 
ATOM     40  C   UNL A   1      39.535  26.685  28.259  1.00  0.00     0.029 A 
ATOM     41  N   UNL A   1      41.614  27.257  28.847  1.00  0.00    -0.354 N 
ATOM     42  C   UNL A   1      42.509  31.272  30.208  1.00  0.00     0.074 A 
ATOM     43  C   UNL A   1      41.318  32.093  30.233  1.00  0.00     0.031 C 
ATOM     44  C   UNL A   1      40.315  25.609  28.072  1.00  0.00     0.029 A 
ATOM     45  C   UNL A   1      41.693  25.958  28.402  1.00  0.00     0.049 A 
ATOM     46  H   UNL A   1      42.391  27.760  29.181  1.00  0.00     0.167 HD
ATOM     47  C   UNL A   1      43.739  31.695  30.587  1.00  0.00     0.037 A 
ATOM     48  C   UNL A   1      42.758  25.146  28.251  1.00  0.00     0.037 A 
ATOM     49  C   UNL A   1      44.917  30.866  30.559  1.00  0.00     0.049 A 
ATOM     50  C   UNL A   1      44.123  25.662  28.623  1.00  0.00     0.074 A 
ATOM     51  C   UNL A   1      46.202  31.186  30.960  1.00  0.00     0.029 A 
ATOM     52  N   UNL A   1      44.958  29.558  30.096  1.00  0.00    -0.354 N 
ATOM     53  N   UNL A   1      44.459  26.833  29.111  1.00  0.00    -0.248 NA
ATOM     54  C   UNL A   1      45.256  24.748  28.423  1.00  0.00     0.031 C 
ATOM     55  C   UNL A   1      47.032  30.098  30.677  1.00  0.00     0.029 A 
ATOM     56  C   UNL A   1      46.254  29.072  30.167  1.00  0.00     0.049 A 
ATOM     57  H   UNL A   1      44.182  29.051  29.767  1.00  0.00     0.167 HD
ATOM     58  C   UNL A   1      45.835  26.785  29.302  1.00  0.00     0.074 A 
ATOM     59  C   UNL A   1      46.266  25.464  28.897  1.00  0.00     0.031 C 
ATOM     60  C   UNL A   1      46.668  27.750  29.765  1.00  0.00     0.037 A 
BRANCH  47  61
ATOM     61  C   UNL A   1      43.879  33.117  31.061  1.00  0.00     0.058 A 
ATOM     62  C   UNL A   1      44.135  34.171  30.169  1.00  0.00     0.135 A 
ATOM     63  C   UNL A   1      43.699  33.441  32.417  1.00  0.00     0.135 A 
ATOM     64  F   UNL A   1      44.331  33.921  28.865  1.00  0.00    -0.206 F 
ATOM     65  C   UNL A   1      44.231  35.488  30.605  1.00  0.00     0.059 A 
ATOM     66  C   UNL A   1      43.757  34.755  32.870  1.00  0.00     0.059 A 
ATOM     67  F   UNL A   1      43.455  32.474  33.315  1.00  0.00    -0.206 F 
ATOM     68  C   UNL A   1      44.034  35.771  31.958  1.00  0.00     0.060 A 
BRANCH  68  69
ATOM     69  S   UNL A   1      44.141  37.490  32.499  1.00  0.00     0.124 S 
ATOM     70  O   UNL A   1      43.153  37.519  33.573  1.00  0.00    -0.237 OA
ATOM     71  O   UNL A   1      45.536  37.595  32.917  1.00  0.00    -0.237 OA
ATOM     72  O   UNL A   1      43.788  38.247  31.302  1.00  0.00    -0.744 OA
ENDBRANCH  68  69
ENDBRANCH  47  61
BRANCH  48  73
ATOM     73  C   UNL A   1      42.582  23.767  27.719  1.00  0.00     0.058 A 
ATOM     74  C   UNL A   1      42.552  23.524  26.338  1.00  0.00     0.135 A 
ATOM     75  C   UNL A   1      42.430  22.666  28.578  1.00  0.00     0.135 A 
ATOM     76  F   UNL A   1      42.685  24.543  25.475  1.00  0.00    -0.206 F 
ATOM     77  C   UNL A   1      42.354  22.246  25.826  1.00  0.00     0.059 A 
ATOM     78  C   UNL A   1      42.265  21.374  28.090  1.00  0.00     0.059 A 
ATOM     79  F   UNL A   1      42.466  22.838  29.908  1.00  0.00    -0.206 F 
ATOM     80  C   UNL A   1      42.215  21.176  26.711  1.00  0.00     0.060 A 
BRANCH  80  81
ATOM     81  S   UNL A   1      41.996  19.517  26.034  1.00  0.00     0.124 S 
ATOM     82  O   UNL A   1      40.579  19.522  25.694  1.00  0.00    -0.237 OA
ATOM     83  O   UNL A   1      42.924  19.524  24.908  1.00  0.00    -0.237 OA
ATOM     84  O   UNL A   1      42.378  18.649  27.145  1.00  0.00    -0.744 OA
ENDBRANCH  80  81
ENDBRANCH  48  73
BRANCH  60  85
ATOM     85  C   UNL A   1      48.129  27.408  29.888  1.00  0.00     0.058 A 
ATOM     86  C   UNL A   1      49.045  27.704  28.866  1.00  0.00     0.135 A 
ATOM     87  C   UNL A   1      48.630  26.838  31.070  1.00  0.00     0.135 A 
ATOM     88  F   UNL A   1      48.620  28.241  27.711  1.00  0.00    -0.206 F 
ATOM     89  C   UNL A   1      50.401  27.430  29.004  1.00  0.00     0.059 A 
ATOM     90  C   UNL A   1      49.988  26.589  31.244  1.00  0.00     0.059 A 
ATOM     91  F   UNL A   1      47.801  26.541  32.083  1.00  0.00    -0.206 F 
ATOM     92  C   UNL A   1      50.865  26.880  30.201  1.00  0.00     0.060 A 
BRANCH  92  93
ATOM     93  S   UNL A   1      52.636  26.584  30.383  1.00  0.00     0.124 S 
ATOM     94  O   UNL A   1      52.654  25.483  31.341  1.00  0.00    -0.237 OA
ATOM     95  O   UNL A   1      53.035  26.246  29.021  1.00  0.00    -0.237 OA
ATOM     96  O   UNL A   1      53.145  27.858  30.883  1.00  0.00    -0.744 OA
ENDBRANCH  92  93
ENDBRANCH  60  85
ENDBRANCH  34  35
ENDBRANCH  26  29
ENDBRANCH  24  25
ENDBRANCH   1  24
TORSDOF 17
ENDMDL
MODEL 2
REMARK VINA RESULT:     -11.5      1.445      2.311
REMARK SMILES N#Cc1cc([N+](=O)[O-])cnc1Oc1csc(C(=O)NCCCNC(=O)c2ccc(-c3c4nc(c(-c5c(F)cc(S(=O)(=O)[O-])cc5F)c5ccc([nH]5)c(-c5c(F)cc(S(=O)(=O)[O-])cc5F)c5nc(c(-c6c(F)cc(S(=O)(=O)[O-])cc6F)c6ccc3[nH]6)C=C5)C=C4)cc2)c1
REMARK SMILES IDX 21 1 20 2 19 3 17 4 18 5 16 7 13 8 14 9 92 10 15 11 12 12
REMARK SMILES IDX 11 13 3 14 4 15 5 16 10 17 9 18 2 19 1 20 6 21 7 22 8 23
REMARK SMILES IDX 22 24 23 25 24 26 25 28 26 29 27 30 91 31 28 32 90 33 29 34
REMARK SMILES IDX 30 35 31 36 84 37 32 38 89 39 83 40 85 41 33 42 88 43 82 44
REMARK SMILES IDX 81 45 34 47 68 48 47 49 67 50 48 51 51 52 66 53 86 54 49 55
REMARK SMILES IDX 50 56 65 58 87 59 52 60 35 61 36 62 45 63 37 64 38 65 44 66
REMARK SMILES IDX 46 67 39 68 40 69 41 70 42 71 43 72 69 73 70 74 79 75 71 76
REMARK SMILES IDX 72 77 78 78 80 79 73 80 74 81 75 82 76 83 77 84 53 85 54 86
REMARK SMILES IDX 63 87 55 88 56 89 62 90 64 91 57 92 58 93 59 94 60 95 61 96
REMARK H PARENT 19 6 23 27 85 46 51 57
REMARK Flexibility Score: inf
ROOT
ATOM      1  C   UNL A   1      32.690  28.420  25.509  1.00  0.00     0.042 C 
ENDROOT
BRANCH   1   2
ATOM      2  C   UNL A   1      33.131  28.496  24.050  1.00  0.00     0.118 C 
BRANCH   2   3
ATOM      3  N   UNL A   1      31.995  28.663  23.164  1.00  0.00    -0.351 N 
ATOM      4  C   UNL A   1      31.114  27.761  22.615  1.00  0.00     0.261 C 
ATOM      5  O   UNL A   1      30.171  28.260  21.997  1.00  0.00    -0.268 OA
ATOM      6  H   UNL A   1      31.821  29.597  22.907  1.00  0.00     0.163 HD
BRANCH   4   7
ATOM      7  C   UNL A   1      31.290  26.329  22.796  1.00  0.00     0.096 A 
ATOM      8  C   UNL A   1      32.006  24.111  22.738  1.00  0.00     0.141 A 
ATOM      9  C   UNL A   1      31.010  24.018  23.677  1.00  0.00     0.112 A 
ATOM     10  C   UNL A   1      32.159  25.422  22.216  1.00  0.00     0.072 A 
ATOM     11  S   UNL A   1      30.233  25.524  23.903  1.00  0.00    -0.135 S 
BRANCH   8  12
ATOM     12  O   UNL A   1      32.817  23.084  22.432  1.00  0.00    -0.437 OA
BRANCH  12  13
ATOM     13  C   UNL A   1      33.909  22.708  23.167  1.00  0.00     0.237 A 
ATOM     14  C   UNL A   1      33.961  21.798  24.224  1.00  0.00     0.121 A 
ATOM     15  C   UNL A   1      35.179  21.643  24.908  1.00  0.00     0.112 A 
ATOM     16  C   UNL A   1      36.298  22.368  24.499  1.00  0.00     0.289 A 
ATOM     17  N   UNL A   1      35.015  23.388  22.752  1.00  0.00    -0.213 NA
ATOM     18  C   UNL A   1      36.185  23.202  23.406  1.00  0.00     0.200 A 
BRANCH  14  19
ATOM     19  C   UNL A   1      32.861  21.007  24.678  1.00  0.00     0.105 C 
ATOM     20  N   UNL A   1      32.005  20.316  25.050  1.00  0.00    -0.192 NA
ENDBRANCH  14  19
BRANCH  16  21
ATOM     21  N   UNL A   1      37.548  22.303  25.240  1.00  0.00     0.064 N 
ATOM     22  O   UNL A   1      37.920  23.325  25.830  1.00  0.00    -0.258 OA
ATOM     23  O   UNL A   1      38.132  21.212  25.272  1.00  0.00    -0.258 OA
ENDBRANCH  16  21
ENDBRANCH  12  13
ENDBRANCH   8  12
ENDBRANCH   4   7
ENDBRANCH   2   3
ENDBRANCH   1   2
BRANCH   1  24
ATOM     24  C   UNL A   1      33.835  28.681  26.488  1.00  0.00     0.118 C 
BRANCH  24  25
ATOM     25  N   UNL A   1      33.743  30.008  27.088  1.00  0.00    -0.352 N 
ATOM     26  C   UNL A   1      34.572  30.635  27.985  1.00  0.00     0.251 C 
ATOM     27  H   UNL A   1      32.964  30.537  26.805  1.00  0.00     0.163 HD
ATOM     28  O   UNL A   1      34.175  31.639  28.572  1.00  0.00    -0.269 OA
BRANCH  26  29
ATOM     29  C   UNL A   1      35.925  30.107  28.245  1.00  0.00     0.039 A 
ATOM     30  C   UNL A   1      36.869  30.117  27.217  1.00  0.00     0.014 A 
ATOM     31  C   UNL A   1      36.254  29.581  29.498  1.00  0.00     0.014 A 
ATOM     32  C   UNL A   1      38.168  29.671  27.467  1.00  0.00     0.010 A 
ATOM     33  C   UNL A   1      37.569  29.215  29.768  1.00  0.00     0.010 A 
ATOM     34  C   UNL A   1      38.539  29.263  28.759  1.00  0.00    -0.014 A 
BRANCH  34  35
ATOM     35  C   UNL A   1      39.945  28.912  29.086  1.00  0.00     0.031 A 
ATOM     36  C   UNL A   1      40.865  29.945  29.675  1.00  0.00     0.074 A 
ATOM     37  C   UNL A   1      40.407  27.686  28.772  1.00  0.00     0.049 A 
ATOM     38  N   UNL A   1      42.146  29.861  29.922  1.00  0.00    -0.248 NA
ATOM     39  C   UNL A   1      40.273  31.250  30.010  1.00  0.00     0.031 C 
ATOM     40  C   UNL A   1      39.614  26.612  28.169  1.00  0.00     0.029 A 
ATOM     41  N   UNL A   1      41.659  27.138  28.901  1.00  0.00    -0.354 N 
ATOM     42  C   UNL A   1      42.515  31.099  30.434  1.00  0.00     0.074 A 
ATOM     43  C   UNL A   1      41.335  31.935  30.410  1.00  0.00     0.031 C 
ATOM     44  C   UNL A   1      40.392  25.531  27.999  1.00  0.00     0.029 A 
ATOM     45  C   UNL A   1      41.750  25.851  28.424  1.00  0.00     0.049 A 
ATOM     46  H   UNL A   1      42.420  27.620  29.298  1.00  0.00     0.167 HD
ATOM     47  C   UNL A   1      43.724  31.494  30.902  1.00  0.00     0.037 A 
ATOM     48  C   UNL A   1      42.813  25.030  28.316  1.00  0.00     0.037 A 
ATOM     49  C   UNL A   1      44.891  30.650  30.922  1.00  0.00     0.049 A 
ATOM     50  C   UNL A   1      44.158  25.515  28.786  1.00  0.00     0.074 A 
ATOM     51  C   UNL A   1      46.152  30.940  31.412  1.00  0.00     0.029 A 
ATOM     52  N   UNL A   1      44.946  29.356  30.424  1.00  0.00    -0.354 N 
ATOM     53  N   UNL A   1      44.476  26.667  29.329  1.00  0.00    -0.248 NA
ATOM     54  C   UNL A   1      45.290  24.592  28.630  1.00  0.00     0.031 C 
ATOM     55  C   UNL A   1      46.985  29.850  31.149  1.00  0.00     0.029 A 
ATOM     56  C   UNL A   1      46.229  28.849  30.560  1.00  0.00     0.049 A 
ATOM     57  H   UNL A   1      44.186  28.868  30.032  1.00  0.00     0.167 HD
ATOM     58  C   UNL A   1      45.837  26.595  29.603  1.00  0.00     0.074 A 
ATOM     59  C   UNL A   1      46.277  25.280  29.187  1.00  0.00     0.031 C 
ATOM     60  C   UNL A   1      46.651  27.534  30.146  1.00  0.00     0.037 A 
BRANCH  47  61
ATOM     61  C   UNL A   1      43.851  32.900  31.426  1.00  0.00     0.058 A 
ATOM     62  C   UNL A   1      44.198  33.971  30.588  1.00  0.00     0.135 A 
ATOM     63  C   UNL A   1      43.567  33.190  32.771  1.00  0.00     0.135 A 
ATOM     64  F   UNL A   1      44.496  33.752  29.297  1.00  0.00    -0.206 F 
ATOM     65  C   UNL A   1      44.282  35.274  31.067  1.00  0.00     0.059 A 
ATOM     66  C   UNL A   1      43.612  34.490  33.265  1.00  0.00     0.059 A 
ATOM     67  F   UNL A   1      43.232  32.205  33.619  1.00  0.00    -0.206 F 
ATOM     68  C   UNL A   1      43.982  35.524  32.407  1.00  0.00     0.060 A 
BRANCH  68  69
ATOM     69  S   UNL A   1      44.075  37.225  33.004  1.00  0.00     0.124 S 
ATOM     70  O   UNL A   1      43.912  37.979  31.764  1.00  0.00    -0.237 OA
ATOM     71  O   UNL A   1      42.954  37.287  33.936  1.00  0.00    -0.237 OA
ATOM     72  O   UNL A   1      45.400  37.301  33.613  1.00  0.00    -0.744 OA
ENDBRANCH  68  69
ENDBRANCH  47  61
BRANCH  48  73
ATOM     73  C   UNL A   1      42.654  23.669  27.733  1.00  0.00     0.058 A 
ATOM     74  C   UNL A   1      42.440  22.552  28.554  1.00  0.00     0.135 A 
ATOM     75  C   UNL A   1      42.721  23.455  26.347  1.00  0.00     0.135 A 
ATOM     76  F   UNL A   1      42.375  22.701  29.886  1.00  0.00    -0.206 F 
ATOM     77  C   UNL A   1      42.323  21.270  28.026  1.00  0.00     0.059 A 
ATOM     78  C   UNL A   1      42.573  22.188  25.793  1.00  0.00     0.059 A 
ATOM     79  F   UNL A   1      42.908  24.489  25.512  1.00  0.00    -0.206 F 
ATOM     80  C   UNL A   1      42.387  21.098  26.643  1.00  0.00     0.060 A 
BRANCH  80  81
ATOM     81  S   UNL A   1      42.197  19.435  25.968  1.00  0.00     0.124 S 
ATOM     82  O   UNL A   1      42.694  18.614  27.065  1.00  0.00    -0.237 OA
ATOM     83  O   UNL A   1      40.760  19.371  25.721  1.00  0.00    -0.237 OA
ATOM     84  O   UNL A   1      43.031  19.463  24.769  1.00  0.00    -0.744 OA
ENDBRANCH  80  81
ENDBRANCH  48  73
BRANCH  60  85
ATOM     85  C   UNL A   1      48.098  27.169  30.349  1.00  0.00     0.058 A 
ATOM     86  C   UNL A   1      49.073  27.444  29.376  1.00  0.00     0.135 A 
ATOM     87  C   UNL A   1      48.525  26.597  31.559  1.00  0.00     0.135 A 
ATOM     88  F   UNL A   1      48.719  27.981  28.198  1.00  0.00    -0.206 F 
ATOM     89  C   UNL A   1      50.414  27.148  29.589  1.00  0.00     0.059 A 
ATOM     90  C   UNL A   1      49.867  26.326  31.807  1.00  0.00     0.059 A 
ATOM     91  F   UNL A   1      47.637  26.320  32.527  1.00  0.00    -0.206 F 
ATOM     92  C   UNL A   1      50.803  26.598  30.812  1.00  0.00     0.060 A 
BRANCH  92  93
ATOM     93  S   UNL A   1      52.557  26.273  31.091  1.00  0.00     0.124 S 
ATOM     94  O   UNL A   1      52.511  25.002  31.808  1.00  0.00    -0.237 OA
ATOM     95  O   UNL A   1      53.081  26.215  29.730  1.00  0.00    -0.237 OA
ATOM     96  O   UNL A   1      52.995  27.422  31.878  1.00  0.00    -0.744 OA
ENDBRANCH  92  93
ENDBRANCH  60  85
ENDBRANCH  34  35
ENDBRANCH  26  29
ENDBRANCH  24  25
ENDBRANCH   1  24
TORSDOF 17
ENDMDL
MODEL 3
REMARK VINA RESULT:     -11.3      4.905     10.207
REMARK SMILES N#Cc1cc([N+](=O)[O-])cnc1Oc1csc(C(=O)NCCCNC(=O)c2ccc(-c3c4nc(c(-c5c(F)cc(S(=O)(=O)[O-])cc5F)c5ccc([nH]5)c(-c5c(F)cc(S(=O)(=O)[O-])cc5F)c5nc(c(-c6c(F)cc(S(=O)(=O)[O-])cc6F)c6ccc3[nH]6)C=C5)C=C4)cc2)c1
REMARK SMILES IDX 21 1 20 2 19 3 17 4 18 5 16 7 13 8 14 9 92 10 15 11 12 12
REMARK SMILES IDX 11 13 3 14 4 15 5 16 10 17 9 18 2 19 1 20 6 21 7 22 8 23
REMARK SMILES IDX 22 24 23 25 24 26 25 28 26 29 27 30 91 31 28 32 90 33 29 34
REMARK SMILES IDX 30 35 31 36 84 37 32 38 89 39 83 40 85 41 33 42 88 43 82 44
REMARK SMILES IDX 81 45 34 47 68 48 47 49 67 50 48 51 51 52 66 53 86 54 49 55
REMARK SMILES IDX 50 56 65 58 87 59 52 60 35 61 36 62 45 63 37 64 38 65 44 66
REMARK SMILES IDX 46 67 39 68 40 69 41 70 42 71 43 72 69 73 70 74 79 75 71 76
REMARK SMILES IDX 72 77 78 78 80 79 73 80 74 81 75 82 76 83 77 84 53 85 54 86
REMARK SMILES IDX 63 87 55 88 56 89 62 90 64 91 57 92 58 93 59 94 60 95 61 96
REMARK H PARENT 19 6 23 27 85 46 51 57
REMARK Flexibility Score: inf
ROOT
ATOM      1  C   UNL A   1      37.878  22.772  25.871  1.00  0.00     0.042 C 
ENDROOT
BRANCH   1   2
ATOM      2  C   UNL A   1      36.381  23.063  25.809  1.00  0.00     0.118 C 
BRANCH   2   3
ATOM      3  N   UNL A   1      36.015  23.676  24.547  1.00  0.00    -0.351 N 
ATOM      4  C   UNL A   1      34.845  23.673  23.826  1.00  0.00     0.261 C 
ATOM      5  O   UNL A   1      34.835  24.413  22.840  1.00  0.00    -0.268 OA
ATOM      6  H   UNL A   1      36.742  24.190  24.126  1.00  0.00     0.163 HD
BRANCH   4   7
ATOM      7  C   UNL A   1      33.704  22.871  24.243  1.00  0.00     0.096 A 
ATOM      8  C   UNL A   1      32.120  21.196  24.587  1.00  0.00     0.141 A 
ATOM      9  C   UNL A   1      31.652  22.153  25.452  1.00  0.00     0.112 A 
ATOM     10  C   UNL A   1      33.280  21.606  23.878  1.00  0.00     0.072 A 
ATOM     11  S   UNL A   1      32.605  23.570  25.379  1.00  0.00    -0.135 S 
BRANCH   8  12
ATOM     12  O   UNL A   1      31.590  19.964  24.507  1.00  0.00    -0.437 OA
BRANCH  12  13
ATOM     13  C   UNL A   1      32.318  18.803  24.491  1.00  0.00     0.237 A 
ATOM     14  C   UNL A   1      32.647  18.011  23.390  1.00  0.00     0.121 A 
ATOM     15  C   UNL A   1      33.317  16.799  23.621  1.00  0.00     0.112 A 
ATOM     16  C   UNL A   1      33.660  16.436  24.924  1.00  0.00     0.289 A 
ATOM     17  N   UNL A   1      32.686  18.459  25.757  1.00  0.00    -0.213 NA
ATOM     18  C   UNL A   1      33.357  17.300  25.955  1.00  0.00     0.200 A 
BRANCH  14  19
ATOM     19  C   UNL A   1      32.348  18.335  22.031  1.00  0.00     0.105 C 
ATOM     20  N   UNL A   1      32.142  18.553  20.909  1.00  0.00    -0.192 NA
ENDBRANCH  14  19
BRANCH  16  21
ATOM     21  N   UNL A   1      34.270  15.146  25.209  1.00  0.00     0.064 N 
ATOM     22  O   UNL A   1      35.505  15.095  25.265  1.00  0.00    -0.258 OA
ATOM     23  O   UNL A   1      33.510  14.195  25.427  1.00  0.00    -0.258 OA
ENDBRANCH  16  21
ENDBRANCH  12  13
ENDBRANCH   8  12
ENDBRANCH   4   7
ENDBRANCH   2   3
ENDBRANCH   1   2
BRANCH   1  24
ATOM     24  C   UNL A   1      38.690  23.955  26.399  1.00  0.00     0.118 C 
BRANCH  24  25
ATOM     25  N   UNL A   1      40.122  23.763  26.196  1.00  0.00    -0.352 N 
ATOM     26  C   UNL A   1      41.182  24.566  26.536  1.00  0.00     0.251 C 
ATOM     27  H   UNL A   1      40.368  22.924  25.744  1.00  0.00     0.163 HD
ATOM     28  O   UNL A   1      42.284  24.354  26.037  1.00  0.00    -0.269 OA
BRANCH  26  29
ATOM     29  C   UNL A   1      40.999  25.677  27.489  1.00  0.00     0.039 A 
ATOM     30  C   UNL A   1      39.962  25.611  28.422  1.00  0.00     0.014 A 
ATOM     31  C   UNL A   1      41.838  26.795  27.449  1.00  0.00     0.014 A 
ATOM     32  C   UNL A   1      39.814  26.630  29.365  1.00  0.00     0.010 A 
ATOM     33  C   UNL A   1      41.740  27.768  28.438  1.00  0.00     0.010 A 
ATOM     34  C   UNL A   1      40.732  27.691  29.410  1.00  0.00    -0.014 A 
BRANCH  34  35
ATOM     35  C   UNL A   1      40.680  28.717  30.482  1.00  0.00     0.031 A 
ATOM     36  C   UNL A   1      41.580  28.604  31.681  1.00  0.00     0.074 A 
ATOM     37  C   UNL A   1      39.760  29.699  30.410  1.00  0.00     0.049 A 
ATOM     38  N   UNL A   1      41.602  29.333  32.767  1.00  0.00    -0.248 NA
ATOM     39  C   UNL A   1      42.572  27.516  31.669  1.00  0.00     0.031 C 
ATOM     40  C   UNL A   1      38.812  29.890  29.309  1.00  0.00     0.029 A 
ATOM     41  N   UNL A   1      39.458  30.713  31.284  1.00  0.00    -0.354 N 
ATOM     42  C   UNL A   1      42.600  28.792  33.567  1.00  0.00     0.074 A 
ATOM     43  C   UNL A   1      43.124  27.639  32.868  1.00  0.00     0.031 C 
ATOM     44  C   UNL A   1      38.050  30.965  29.565  1.00  0.00     0.029 A 
ATOM     45  C   UNL A   1      38.412  31.504  30.871  1.00  0.00     0.049 A 
ATOM     46  H   UNL A   1      39.945  30.860  32.127  1.00  0.00     0.167 HD
ATOM     47  C   UNL A   1      43.053  29.231  34.766  1.00  0.00     0.037 A 
ATOM     48  C   UNL A   1      37.794  32.532  31.486  1.00  0.00     0.037 A 
ATOM     49  C   UNL A   1      42.524  30.384  35.450  1.00  0.00     0.049 A 
ATOM     50  C   UNL A   1      38.277  32.962  32.846  1.00  0.00     0.074 A 
ATOM     51  C   UNL A   1      42.939  30.936  36.650  1.00  0.00     0.029 A 
ATOM     52  N   UNL A   1      41.459  31.155  35.004  1.00  0.00    -0.354 N 
ATOM     53  N   UNL A   1      39.267  32.480  33.561  1.00  0.00    -0.248 NA
ATOM     54  C   UNL A   1      37.561  34.074  33.485  1.00  0.00     0.031 C 
ATOM     55  C   UNL A   1      42.085  31.996  36.961  1.00  0.00     0.029 A 
ATOM     56  C   UNL A   1      41.181  32.154  35.923  1.00  0.00     0.049 A 
ATOM     57  H   UNL A   1      40.975  31.014  34.159  1.00  0.00     0.167 HD
ATOM     58  C   UNL A   1      39.308  33.247  34.719  1.00  0.00     0.074 A 
ATOM     59  C   UNL A   1      38.259  34.238  34.600  1.00  0.00     0.031 C 
ATOM     60  C   UNL A   1      40.136  33.139  35.788  1.00  0.00     0.037 A 
BRANCH  47  61
ATOM     61  C   UNL A   1      44.171  28.465  35.421  1.00  0.00     0.058 A 
ATOM     62  C   UNL A   1      45.519  28.771  35.174  1.00  0.00     0.135 A 
ATOM     63  C   UNL A   1      43.893  27.449  36.351  1.00  0.00     0.135 A 
ATOM     64  F   UNL A   1      45.846  29.722  34.284  1.00  0.00    -0.206 F 
ATOM     65  C   UNL A   1      46.550  28.084  35.806  1.00  0.00     0.059 A 
ATOM     66  C   UNL A   1      44.908  26.771  37.020  1.00  0.00     0.059 A 
ATOM     67  F   UNL A   1      42.623  27.111  36.624  1.00  0.00    -0.206 F 
ATOM     68  C   UNL A   1      46.234  27.089  36.732  1.00  0.00     0.060 A 
BRANCH  68  69
ATOM     69  S   UNL A   1      47.587  26.224  37.557  1.00  0.00     0.124 S 
ATOM     70  O   UNL A   1      47.130  24.839  37.494  1.00  0.00    -0.237 OA
ATOM     71  O   UNL A   1      48.727  26.555  36.709  1.00  0.00    -0.237 OA
ATOM     72  O   UNL A   1      47.607  26.816  38.892  1.00  0.00    -0.744 OA
ENDBRANCH  68  69
ENDBRANCH  47  61
BRANCH  48  73
ATOM     73  C   UNL A   1      36.650  33.222  30.829  1.00  0.00     0.058 A 
ATOM     74  C   UNL A   1      36.854  34.083  29.741  1.00  0.00     0.135 A 
ATOM     75  C   UNL A   1      35.332  33.044  31.280  1.00  0.00     0.135 A 
ATOM     76  F   UNL A   1      38.096  34.294  29.276  1.00  0.00    -0.206 F 
ATOM     77  C   UNL A   1      35.800  34.762  29.138  1.00  0.00     0.059 A 
ATOM     78  C   UNL A   1      34.257  33.684  30.672  1.00  0.00     0.059 A 
ATOM     79  F   UNL A   1      35.077  32.220  32.308  1.00  0.00    -0.206 F 
ATOM     80  C   UNL A   1      34.503  34.552  29.609  1.00  0.00     0.060 A 
BRANCH  80  81
ATOM     81  S   UNL A   1      33.138  35.408  28.796  1.00  0.00     0.124 S 
ATOM     82  O   UNL A   1      32.500  34.319  28.067  1.00  0.00    -0.237 OA
ATOM     83  O   UNL A   1      32.393  35.940  29.933  1.00  0.00    -0.237 OA
ATOM     84  O   UNL A   1      33.813  36.410  27.975  1.00  0.00    -0.744 OA
ENDBRANCH  80  81
ENDBRANCH  48  73
BRANCH  60  85
ATOM     85  C   UNL A   1      39.963  34.132  36.906  1.00  0.00     0.058 A 
ATOM     86  C   UNL A   1      40.592  35.388  36.882  1.00  0.00     0.135 A 
ATOM     87  C   UNL A   1      39.105  33.850  37.982  1.00  0.00     0.135 A 
ATOM     88  F   UNL A   1      41.430  35.706  35.883  1.00  0.00    -0.206 F 
ATOM     89  C   UNL A   1      40.391  36.319  37.895  1.00  0.00     0.059 A 
ATOM     90  C   UNL A   1      38.862  34.782  38.987  1.00  0.00     0.059 A 
ATOM     91  F   UNL A   1      38.473  32.669  38.052  1.00  0.00    -0.206 F 
ATOM     92  C   UNL A   1      39.516  36.011  38.939  1.00  0.00     0.060 A 
BRANCH  92  93
ATOM     93  S   UNL A   1      39.225  37.255  40.213  1.00  0.00     0.124 S 
ATOM     94  O   UNL A   1      40.575  37.757  40.450  1.00  0.00    -0.237 OA
ATOM     95  O   UNL A   1      38.314  38.177  39.543  1.00  0.00    -0.237 OA
ATOM     96  O   UNL A   1      38.639  36.489  41.310  1.00  0.00    -0.744 OA
ENDBRANCH  92  93
ENDBRANCH  60  85
ENDBRANCH  34  35
ENDBRANCH  26  29
ENDBRANCH  24  25
ENDBRANCH   1  24
TORSDOF 17
ENDMDL
