MODEL 1
REMARK VINA RESULT:     -10.9      0.000      0.000
REMARK SMILES C[C@@H]1CN([C@@H](CCS(C)(=O)=O)C(=O)NCCCNC(=O)c2ccc(-c3c4nc(c(-c5c(F)cc(S(=O)(=O)[O-])cc5F)c5ccc([nH]5)c(-c5c(F)cc(S(=O)(=O)[O-])cc5F)c5nc(c(-c6c(F)cc(S(=O)(=O)[O-])cc6F)c6ccc3[nH]6)C=C5)C=C4)cc2)S(=O)(=O)C1
REMARK SMILES IDX 16 1 15 2 14 3 12 4 13 5 5 7 4 8 1 9 2 10 3 11 90 12 87 13
REMARK SMILES IDX 88 14 89 15 6 16 7 17 8 18 9 19 10 20 11 21 17 22 18 23
REMARK SMILES IDX 19 24 20 26 21 27 22 28 86 29 23 30 85 31 24 32 25 33 26 34
REMARK SMILES IDX 79 35 27 36 84 37 78 38 80 39 28 40 83 41 77 42 76 43 29 45
REMARK SMILES IDX 63 46 42 47 62 48 43 49 46 50 61 51 81 52 44 53 45 54 60 56
REMARK SMILES IDX 82 57 47 58 30 59 31 60 40 61 32 62 33 63 39 64 41 65 34 66
REMARK SMILES IDX 35 67 36 68 37 69 38 70 64 71 65 72 74 73 66 74 67 75 73 76
REMARK SMILES IDX 75 77 68 78 69 79 70 80 71 81 72 82 48 83 49 84 58 85 50 86
REMARK SMILES IDX 51 87 57 88 59 89 52 90 53 91 54 92 55 93 56 94
REMARK H PARENT 14 6 18 25 80 44 46 55
REMARK Flexibility Score: inf
ROOT
ATOM      1  C   UNL A   1      33.934  28.031  25.496  1.00  0.00     0.042 C 
ENDROOT
BRANCH   1   2
ATOM      2  C   UNL A   1      33.765  26.559  25.223  1.00  0.00     0.117 C 
BRANCH   2   3
ATOM      3  N   UNL A   1      33.697  26.262  23.817  1.00  0.00    -0.355 N 
ATOM      4  C   UNL A   1      32.613  26.170  23.014  1.00  0.00     0.238 C 
ATOM      5  O   UNL A   1      32.819  26.093  21.794  1.00  0.00    -0.273 OA
ATOM      6  H   UNL A   1      34.564  26.103  23.377  1.00  0.00     0.163 HD
BRANCH   4   7
ATOM      7  C   UNL A   1      31.180  26.277  23.523  1.00  0.00     0.163 C 
BRANCH   7   8
ATOM      8  N   UNL A   1      30.148  27.266  23.062  1.00  0.00    -0.189 NA
ATOM      9  C   UNL A   1      26.533  28.332  23.529  1.00  0.00     0.010 C 
ATOM     10  C   UNL A   1      27.955  28.194  23.016  1.00  0.00     0.017 C 
ATOM     11  C   UNL A   1      28.799  27.098  23.687  1.00  0.00     0.107 C 
ATOM     12  C   UNL A   1      28.762  29.468  23.220  1.00  0.00     0.159 C 
ATOM     13  S   UNL A   1      30.449  28.955  23.005  1.00  0.00     0.215 S 
ATOM     14  O   UNL A   1      31.187  29.340  24.185  1.00  0.00    -0.212 OA
ATOM     15  O   UNL A   1      30.826  29.293  21.657  1.00  0.00    -0.212 OA
ENDBRANCH   7   8
BRANCH   7  16
ATOM     16  C   UNL A   1      30.543  24.872  23.766  1.00  0.00     0.046 C 
BRANCH  16  17
ATOM     17  C   UNL A   1      31.154  23.928  24.802  1.00  0.00     0.139 C 
BRANCH  17  18
ATOM     18  S   UNL A   1      30.564  24.132  26.494  1.00  0.00     0.147 S 
ATOM     19  C   UNL A   1      29.646  22.670  26.868  1.00  0.00     0.158 C 
ATOM     20  O   UNL A   1      31.729  24.133  27.357  1.00  0.00    -0.229 OA
ATOM     21  O   UNL A   1      29.596  25.206  26.563  1.00  0.00    -0.229 OA
ENDBRANCH  17  18
ENDBRANCH  16  17
ENDBRANCH   7  16
ENDBRANCH   4   7
ENDBRANCH   2   3
ENDBRANCH   1   2
BRANCH   1  22
ATOM     22  C   UNL A   1      34.006  28.247  26.988  1.00  0.00     0.118 C 
BRANCH  22  23
ATOM     23  N   UNL A   1      33.749  29.648  27.352  1.00  0.00    -0.352 N 
ATOM     24  C   UNL A   1      34.502  30.533  28.080  1.00  0.00     0.251 C 
ATOM     25  H   UNL A   1      32.896  30.010  27.018  1.00  0.00     0.163 HD
ATOM     26  O   UNL A   1      34.020  31.587  28.478  1.00  0.00    -0.269 OA
BRANCH  24  27
ATOM     27  C   UNL A   1      35.900  30.188  28.387  1.00  0.00     0.039 A 
ATOM     28  C   UNL A   1      36.233  29.615  29.613  1.00  0.00     0.014 A 
ATOM     29  C   UNL A   1      36.880  30.406  27.424  1.00  0.00     0.014 A 
ATOM     30  C   UNL A   1      37.551  29.220  29.835  1.00  0.00     0.010 A 
ATOM     31  C   UNL A   1      38.110  29.802  27.553  1.00  0.00     0.010 A 
ATOM     32  C   UNL A   1      38.490  29.285  28.792  1.00  0.00    -0.014 A 
BRANCH  32  33
ATOM     33  C   UNL A   1      39.916  28.944  28.986  1.00  0.00     0.031 A 
ATOM     34  C   UNL A   1      40.841  29.984  29.576  1.00  0.00     0.074 A 
ATOM     35  C   UNL A   1      40.378  27.746  28.586  1.00  0.00     0.049 A 
ATOM     36  N   UNL A   1      42.133  29.928  29.764  1.00  0.00    -0.248 NA
ATOM     37  C   UNL A   1      40.249  31.284  29.953  1.00  0.00     0.031 C 
ATOM     38  C   UNL A   1      39.585  26.701  27.933  1.00  0.00     0.029 A 
ATOM     39  N   UNL A   1      41.631  27.202  28.679  1.00  0.00    -0.354 N 
ATOM     40  C   UNL A   1      42.497  31.182  30.243  1.00  0.00     0.074 A 
ATOM     41  C   UNL A   1      41.319  32.012  30.215  1.00  0.00     0.031 C 
ATOM     42  C   UNL A   1      40.358  25.620  27.738  1.00  0.00     0.029 A 
ATOM     43  C   UNL A   1      41.707  25.913  28.209  1.00  0.00     0.049 A 
ATOM     44  H   UNL A   1      42.404  27.688  29.049  1.00  0.00     0.167 HD
ATOM     45  C   UNL A   1      43.693  31.592  30.721  1.00  0.00     0.037 A 
ATOM     46  C   UNL A   1      42.753  25.068  28.174  1.00  0.00     0.037 A 
ATOM     47  C   UNL A   1      44.839  30.731  30.801  1.00  0.00     0.049 A 
ATOM     48  C   UNL A   1      44.067  25.531  28.744  1.00  0.00     0.074 A 
ATOM     49  C   UNL A   1      46.088  31.006  31.324  1.00  0.00     0.029 A 
ATOM     50  N   UNL A   1      44.866  29.417  30.355  1.00  0.00    -0.354 N 
ATOM     51  N   UNL A   1      44.380  26.699  29.254  1.00  0.00    -0.248 NA
ATOM     52  C   UNL A   1      45.164  24.557  28.750  1.00  0.00     0.031 C 
ATOM     53  C   UNL A   1      46.888  29.874  31.146  1.00  0.00     0.029 A 
ATOM     54  C   UNL A   1      46.117  28.871  30.577  1.00  0.00     0.049 A 
ATOM     55  H   UNL A   1      44.108  28.945  29.942  1.00  0.00     0.167 HD
ATOM     56  C   UNL A   1      45.699  26.587  29.681  1.00  0.00     0.074 A 
ATOM     57  C   UNL A   1      46.117  25.233  29.376  1.00  0.00     0.031 C 
ATOM     58  C   UNL A   1      46.494  27.513  30.275  1.00  0.00     0.037 A 
BRANCH  45  59
ATOM     59  C   UNL A   1      43.805  33.012  31.206  1.00  0.00     0.058 A 
ATOM     60  C   UNL A   1      44.243  34.054  30.369  1.00  0.00     0.135 A 
ATOM     61  C   UNL A   1      43.459  33.342  32.526  1.00  0.00     0.135 A 
ATOM     62  F   UNL A   1      44.613  33.796  29.104  1.00  0.00    -0.206 F 
ATOM     63  C   UNL A   1      44.363  35.360  30.829  1.00  0.00     0.059 A 
ATOM     64  C   UNL A   1      43.536  34.649  32.998  1.00  0.00     0.059 A 
ATOM     65  F   UNL A   1      43.043  32.390  33.375  1.00  0.00    -0.206 F 
ATOM     66  C   UNL A   1      44.002  35.650  32.146  1.00  0.00     0.060 A 
BRANCH  66  67
ATOM     67  S   UNL A   1      44.139  37.355  32.720  1.00  0.00     0.124 S 
ATOM     68  O   UNL A   1      43.061  37.421  33.701  1.00  0.00    -0.237 OA
ATOM     69  O   UNL A   1      45.494  37.391  33.263  1.00  0.00    -0.237 OA
ATOM     70  O   UNL A   1      43.932  38.140  31.507  1.00  0.00    -0.744 OA
ENDBRANCH  66  67
ENDBRANCH  45  59
BRANCH  46  71
ATOM     71  C   UNL A   1      42.584  23.693  27.630  1.00  0.00     0.058 A 
ATOM     72  C   UNL A   1      42.384  22.596  28.481  1.00  0.00     0.135 A 
ATOM     73  C   UNL A   1      42.604  23.449  26.248  1.00  0.00     0.135 A 
ATOM     74  F   UNL A   1      42.354  22.775  29.811  1.00  0.00    -0.206 F 
ATOM     75  C   UNL A   1      42.242  21.304  27.987  1.00  0.00     0.059 A 
ATOM     76  C   UNL A   1      42.432  22.170  25.728  1.00  0.00     0.059 A 
ATOM     77  F   UNL A   1      42.766  24.467  25.387  1.00  0.00    -0.206 F 
ATOM     78  C   UNL A   1      42.267  21.102  26.606  1.00  0.00     0.060 A 
BRANCH  78  79
ATOM     79  S   UNL A   1      42.051  19.424  25.973  1.00  0.00     0.124 S 
ATOM     80  O   UNL A   1      42.534  18.623  27.092  1.00  0.00    -0.237 OA
ATOM     81  O   UNL A   1      40.614  19.373  25.723  1.00  0.00    -0.237 OA
ATOM     82  O   UNL A   1      42.888  19.406  24.777  1.00  0.00    -0.744 OA
ENDBRANCH  78  79
ENDBRANCH  46  71
BRANCH  58  83
ATOM     83  C   UNL A   1      47.870  27.072  30.690  1.00  0.00     0.058 A 
ATOM     84  C   UNL A   1      48.115  26.452  31.923  1.00  0.00     0.135 A 
ATOM     85  C   UNL A   1      48.954  27.242  29.812  1.00  0.00     0.135 A 
ATOM     86  F   UNL A   1      47.112  26.266  32.798  1.00  0.00    -0.206 F 
ATOM     87  C   UNL A   1      49.394  26.059  32.295  1.00  0.00     0.059 A 
ATOM     88  C   UNL A   1      50.235  26.821  30.147  1.00  0.00     0.059 A 
ATOM     89  F   UNL A   1      48.771  27.811  28.610  1.00  0.00    -0.206 F 
ATOM     90  C   UNL A   1      50.449  26.251  31.400  1.00  0.00     0.060 A 
BRANCH  90  91
ATOM     91  S   UNL A   1      52.105  25.734  31.892  1.00  0.00     0.124 S 
ATOM     92  O   UNL A   1      52.360  26.614  33.029  1.00  0.00    -0.237 OA
ATOM     93  O   UNL A   1      51.910  24.324  32.214  1.00  0.00    -0.237 OA
ATOM     94  O   UNL A   1      52.911  25.994  30.704  1.00  0.00    -0.744 OA
ENDBRANCH  90  91
ENDBRANCH  58  83
ENDBRANCH  32  33
ENDBRANCH  24  27
ENDBRANCH  22  23
ENDBRANCH   1  22
TORSDOF 17
ENDMDL
MODEL 2
REMARK VINA RESULT:     -10.7      4.822     10.515
REMARK SMILES C[C@@H]1CN([C@@H](CCS(C)(=O)=O)C(=O)NCCCNC(=O)c2ccc(-c3c4nc(c(-c5c(F)cc(S(=O)(=O)[O-])cc5F)c5ccc([nH]5)c(-c5c(F)cc(S(=O)(=O)[O-])cc5F)c5nc(c(-c6c(F)cc(S(=O)(=O)[O-])cc6F)c6ccc3[nH]6)C=C5)C=C4)cc2)S(=O)(=O)C1
REMARK SMILES IDX 16 1 15 2 14 3 12 4 13 5 5 7 4 8 1 9 2 10 3 11 90 12 87 13
REMARK SMILES IDX 88 14 89 15 6 16 7 17 8 18 9 19 10 20 11 21 17 22 18 23
REMARK SMILES IDX 19 24 20 26 21 27 22 28 86 29 23 30 85 31 24 32 25 33 26 34
REMARK SMILES IDX 79 35 27 36 84 37 78 38 80 39 28 40 83 41 77 42 76 43 29 45
REMARK SMILES IDX 63 46 42 47 62 48 43 49 46 50 61 51 81 52 44 53 45 54 60 56
REMARK SMILES IDX 82 57 47 58 30 59 31 60 40 61 32 62 33 63 39 64 41 65 34 66
REMARK SMILES IDX 35 67 36 68 37 69 38 70 64 71 65 72 74 73 66 74 67 75 73 76
REMARK SMILES IDX 75 77 68 78 69 79 70 80 71 81 72 82 48 83 49 84 58 85 50 86
REMARK SMILES IDX 51 87 57 88 59 89 52 90 53 91 54 92 55 93 56 94
REMARK H PARENT 14 6 18 25 80 44 46 55
REMARK Flexibility Score: inf
ROOT
ATOM      1  C   UNL A   1      40.799  21.540  27.561  1.00  0.00     0.042 C 
ENDROOT
BRANCH   1   2
ATOM      2  C   UNL A   1      42.129  20.867  27.786  1.00  0.00     0.117 C 
BRANCH   2   3
ATOM      3  N   UNL A   1      43.064  21.708  28.484  1.00  0.00    -0.355 N 
ATOM      4  C   UNL A   1      43.973  22.575  27.985  1.00  0.00     0.238 C 
ATOM      5  O   UNL A   1      44.534  23.331  28.791  1.00  0.00    -0.273 OA
ATOM      6  H   UNL A   1      43.037  21.643  29.467  1.00  0.00     0.163 HD
BRANCH   4   7
ATOM      7  C   UNL A   1      44.242  22.743  26.494  1.00  0.00     0.163 C 
BRANCH   7   8
ATOM      8  N   UNL A   1      44.609  24.022  25.798  1.00  0.00    -0.189 NA
ATOM      9  C   UNL A   1      43.989  27.769  25.791  1.00  0.00     0.010 C 
ATOM     10  C   UNL A   1      44.447  26.369  25.425  1.00  0.00     0.017 C 
ATOM     11  C   UNL A   1      43.923  25.241  26.329  1.00  0.00     0.107 C 
ATOM     12  C   UNL A   1      45.961  26.228  25.487  1.00  0.00     0.159 C 
ATOM     13  S   UNL A   1      46.237  24.473  25.496  1.00  0.00     0.215 S 
ATOM     14  O   UNL A   1      47.035  24.153  26.657  1.00  0.00    -0.212 OA
ATOM     15  O   UNL A   1      46.561  24.089  24.147  1.00  0.00    -0.212 OA
ENDBRANCH   7   8
BRANCH   7  16
ATOM     16  C   UNL A   1      45.041  21.535  25.909  1.00  0.00     0.046 C 
BRANCH  16  17
ATOM     17  C   UNL A   1      44.405  20.649  24.838  1.00  0.00     0.139 C 
BRANCH  17  18
ATOM     18  S   UNL A   1      45.119  19.002  24.655  1.00  0.00     0.147 S 
ATOM     19  C   UNL A   1      46.651  19.037  25.533  1.00  0.00     0.158 C 
ATOM     20  O   UNL A   1      44.250  18.078  25.354  1.00  0.00    -0.229 OA
ATOM     21  O   UNL A   1      45.489  18.766  23.275  1.00  0.00    -0.229 OA
ENDBRANCH  17  18
ENDBRANCH  16  17
ENDBRANCH   7  16
ENDBRANCH   4   7
ENDBRANCH   2   3
ENDBRANCH   1   2
BRANCH   1  22
ATOM     22  C   UNL A   1      40.800  22.184  26.197  1.00  0.00     0.118 C 
BRANCH  22  23
ATOM     23  N   UNL A   1      39.445  22.555  25.765  1.00  0.00    -0.352 N 
ATOM     24  C   UNL A   1      38.646  23.606  26.139  1.00  0.00     0.251 C 
ATOM     25  H   UNL A   1      39.045  21.950  25.098  1.00  0.00     0.163 HD
ATOM     26  O   UNL A   1      37.456  23.624  25.846  1.00  0.00    -0.269 OA
BRANCH  24  27
ATOM     27  C   UNL A   1      39.242  24.709  26.910  1.00  0.00     0.039 A 
ATOM     28  C   UNL A   1      40.017  25.677  26.275  1.00  0.00     0.014 A 
ATOM     29  C   UNL A   1      38.990  24.795  28.276  1.00  0.00     0.014 A 
ATOM     30  C   UNL A   1      40.492  26.754  27.020  1.00  0.00     0.010 A 
ATOM     31  C   UNL A   1      39.252  25.969  28.945  1.00  0.00     0.010 A 
ATOM     32  C   UNL A   1      40.084  26.921  28.355  1.00  0.00    -0.014 A 
BRANCH  32  33
ATOM     33  C   UNL A   1      40.606  28.005  29.215  1.00  0.00     0.031 A 
ATOM     34  C   UNL A   1      39.729  29.205  29.487  1.00  0.00     0.074 A 
ATOM     35  C   UNL A   1      41.862  27.935  29.692  1.00  0.00     0.049 A 
ATOM     36  N   UNL A   1      40.008  30.298  30.146  1.00  0.00    -0.248 NA
ATOM     37  C   UNL A   1      38.378  29.208  28.892  1.00  0.00     0.031 C 
ATOM     38  C   UNL A   1      42.818  26.857  29.423  1.00  0.00     0.029 A 
ATOM     39  N   UNL A   1      42.548  28.789  30.513  1.00  0.00    -0.354 N 
ATOM     40  C   UNL A   1      38.889  31.113  30.013  1.00  0.00     0.074 A 
ATOM     41  C   UNL A   1      37.973  30.444  29.124  1.00  0.00     0.031 C 
ATOM     42  C   UNL A   1      43.945  27.088  30.115  1.00  0.00     0.029 A 
ATOM     43  C   UNL A   1      43.807  28.348  30.836  1.00  0.00     0.049 A 
ATOM     44  H   UNL A   1      42.173  29.640  30.840  1.00  0.00     0.167 HD
ATOM     45  C   UNL A   1      38.619  32.289  30.622  1.00  0.00     0.037 A 
ATOM     46  C   UNL A   1      44.738  28.903  31.635  1.00  0.00     0.037 A 
ATOM     47  C   UNL A   1      39.516  32.910  31.555  1.00  0.00     0.049 A 
ATOM     48  C   UNL A   1      44.405  30.194  32.332  1.00  0.00     0.074 A 
ATOM     49  C   UNL A   1      39.333  34.067  32.288  1.00  0.00     0.029 A 
ATOM     50  N   UNL A   1      40.767  32.410  31.892  1.00  0.00    -0.354 N 
ATOM     51  N   UNL A   1      43.315  30.921  32.248  1.00  0.00    -0.248 NA
ATOM     52  C   UNL A   1      45.418  30.731  33.247  1.00  0.00     0.031 C 
ATOM     53  C   UNL A   1      40.495  34.295  33.030  1.00  0.00     0.029 A 
ATOM     54  C   UNL A   1      41.374  33.244  32.812  1.00  0.00     0.049 A 
ATOM     55  H   UNL A   1      41.162  31.585  31.529  1.00  0.00     0.167 HD
ATOM     56  C   UNL A   1      43.494  31.981  33.130  1.00  0.00     0.074 A 
ATOM     57  C   UNL A   1      44.794  31.790  33.744  1.00  0.00     0.031 C 
ATOM     58  C   UNL A   1      42.663  33.016  33.415  1.00  0.00     0.037 A 
BRANCH  45  59
ATOM     59  C   UNL A   1      37.304  32.954  30.314  1.00  0.00     0.058 A 
ATOM     60  C   UNL A   1      36.183  32.812  31.151  1.00  0.00     0.135 A 
ATOM     61  C   UNL A   1      37.163  33.754  29.169  1.00  0.00     0.135 A 
ATOM     62  F   UNL A   1      36.248  32.038  32.246  1.00  0.00    -0.206 F 
ATOM     63  C   UNL A   1      34.965  33.412  30.849  1.00  0.00     0.059 A 
ATOM     64  C   UNL A   1      35.965  34.395  28.867  1.00  0.00     0.059 A 
ATOM     65  F   UNL A   1      38.195  33.919  28.328  1.00  0.00    -0.206 F 
ATOM     66  C   UNL A   1      34.867  34.207  29.706  1.00  0.00     0.060 A 
BRANCH  66  67
ATOM     67  S   UNL A   1      33.287  35.000  29.344  1.00  0.00     0.124 S 
ATOM     68  O   UNL A   1      32.642  34.979  30.652  1.00  0.00    -0.237 OA
ATOM     69  O   UNL A   1      33.704  36.314  28.862  1.00  0.00    -0.237 OA
ATOM     70  O   UNL A   1      32.692  34.127  28.336  1.00  0.00    -0.744 OA
ENDBRANCH  66  67
ENDBRANCH  45  59
BRANCH  46  71
ATOM     71  C   UNL A   1      46.039  28.215  31.853  1.00  0.00     0.058 A 
ATOM     72  C   UNL A   1      46.188  27.245  32.855  1.00  0.00     0.135 A 
ATOM     73  C   UNL A   1      47.158  28.504  31.056  1.00  0.00     0.135 A 
ATOM     74  F   UNL A   1      45.149  26.931  33.643  1.00  0.00    -0.206 F 
ATOM     75  C   UNL A   1      47.403  26.608  33.081  1.00  0.00     0.059 A 
ATOM     76  C   UNL A   1      48.376  27.857  31.242  1.00  0.00     0.059 A 
ATOM     77  F   UNL A   1      47.064  29.406  30.065  1.00  0.00    -0.206 F 
ATOM     78  C   UNL A   1      48.493  26.922  32.267  1.00  0.00     0.060 A 
BRANCH  78  79
ATOM     79  S   UNL A   1      50.059  26.067  32.549  1.00  0.00     0.124 S 
ATOM     80  O   UNL A   1      49.993  24.998  31.559  1.00  0.00    -0.237 OA
ATOM     81  O   UNL A   1      51.034  27.121  32.288  1.00  0.00    -0.237 OA
ATOM     82  O   UNL A   1      49.964  25.643  33.943  1.00  0.00    -0.744 OA
ENDBRANCH  78  79
ENDBRANCH  46  71
BRANCH  58  83
ATOM     83  C   UNL A   1      43.107  33.980  34.478  1.00  0.00     0.058 A 
ATOM     84  C   UNL A   1      43.837  35.139  34.177  1.00  0.00     0.135 A 
ATOM     85  C   UNL A   1      42.758  33.754  35.819  1.00  0.00     0.135 A 
ATOM     86  F   UNL A   1      44.196  35.403  32.909  1.00  0.00    -0.206 F 
ATOM     87  C   UNL A   1      44.249  36.016  35.173  1.00  0.00     0.059 A 
ATOM     88  C   UNL A   1      43.125  34.637  36.828  1.00  0.00     0.059 A 
ATOM     89  F   UNL A   1      42.042  32.670  36.160  1.00  0.00    -0.206 F 
ATOM     90  C   UNL A   1      43.888  35.754  36.497  1.00  0.00     0.060 A 
BRANCH  90  91
ATOM     91  S   UNL A   1      44.425  36.900  37.782  1.00  0.00     0.124 S 
ATOM     92  O   UNL A   1      45.447  37.670  37.079  1.00  0.00    -0.237 OA
ATOM     93  O   UNL A   1      43.194  37.619  38.094  1.00  0.00    -0.237 OA
ATOM     94  O   UNL A   1      44.917  36.023  38.839  1.00  0.00    -0.744 OA
ENDBRANCH  90  91
ENDBRANCH  58  83
ENDBRANCH  32  33
ENDBRANCH  24  27
ENDBRANCH  22  23
ENDBRANCH   1  22
TORSDOF 17
ENDMDL
MODEL 3
REMARK VINA RESULT:     -10.7      1.688      3.423
REMARK SMILES C[C@@H]1CN([C@@H](CCS(C)(=O)=O)C(=O)NCCCNC(=O)c2ccc(-c3c4nc(c(-c5c(F)cc(S(=O)(=O)[O-])cc5F)c5ccc([nH]5)c(-c5c(F)cc(S(=O)(=O)[O-])cc5F)c5nc(c(-c6c(F)cc(S(=O)(=O)[O-])cc6F)c6ccc3[nH]6)C=C5)C=C4)cc2)S(=O)(=O)C1
REMARK SMILES IDX 16 1 15 2 14 3 12 4 13 5 5 7 4 8 1 9 2 10 3 11 90 12 87 13
REMARK SMILES IDX 88 14 89 15 6 16 7 17 8 18 9 19 10 20 11 21 17 22 18 23
REMARK SMILES IDX 19 24 20 26 21 27 22 28 86 29 23 30 85 31 24 32 25 33 26 34
REMARK SMILES IDX 79 35 27 36 84 37 78 38 80 39 28 40 83 41 77 42 76 43 29 45
REMARK SMILES IDX 63 46 42 47 62 48 43 49 46 50 61 51 81 52 44 53 45 54 60 56
REMARK SMILES IDX 82 57 47 58 30 59 31 60 40 61 32 62 33 63 39 64 41 65 34 66
REMARK SMILES IDX 35 67 36 68 37 69 38 70 64 71 65 72 74 73 66 74 67 75 73 76
REMARK SMILES IDX 75 77 68 78 69 79 70 80 71 81 72 82 48 83 49 84 58 85 50 86
REMARK SMILES IDX 51 87 57 88 59 89 52 90 53 91 54 92 55 93 56 94
REMARK H PARENT 14 6 18 25 80 44 46 55
REMARK Flexibility Score: inf
ROOT
ATOM      1  C   UNL A   1      32.848  27.767  26.245  1.00  0.00     0.042 C 
ENDROOT
BRANCH   1   2
ATOM      2  C   UNL A   1      33.071  26.288  26.066  1.00  0.00     0.117 C 
BRANCH   2   3
ATOM      3  N   UNL A   1      31.871  25.520  26.264  1.00  0.00    -0.355 N 
ATOM      4  C   UNL A   1      31.582  24.265  25.854  1.00  0.00     0.238 C 
ATOM      5  O   UNL A   1      30.554  23.744  26.313  1.00  0.00    -0.273 OA
ATOM      6  H   UNL A   1      31.159  25.974  26.772  1.00  0.00     0.163 HD
BRANCH   4   7
ATOM      7  C   UNL A   1      32.506  23.436  24.970  1.00  0.00     0.163 C 
BRANCH   7   8
ATOM      8  N   UNL A   1      32.868  21.993  25.172  1.00  0.00    -0.189 NA
ATOM      9  C   UNL A   1      32.425  18.512  23.720  1.00  0.00     0.010 C 
ATOM     10  C   UNL A   1      32.783  19.676  24.626  1.00  0.00     0.017 C 
ATOM     11  C   UNL A   1      32.290  21.056  24.159  1.00  0.00     0.107 C 
ATOM     12  C   UNL A   1      34.287  19.844  24.773  1.00  0.00     0.159 C 
ATOM     13  S   UNL A   1      34.481  21.476  25.447  1.00  0.00     0.215 S 
ATOM     14  O   UNL A   1      35.365  22.216  24.577  1.00  0.00    -0.212 OA
ATOM     15  O   UNL A   1      34.664  21.329  26.868  1.00  0.00    -0.212 OA
ENDBRANCH   7   8
BRANCH   7  16
ATOM     16  C   UNL A   1      32.302  23.757  23.455  1.00  0.00     0.046 C 
BRANCH  16  17
ATOM     17  C   UNL A   1      33.352  24.574  22.701  1.00  0.00     0.139 C 
BRANCH  17  18
ATOM     18  S   UNL A   1      32.716  25.903  21.661  1.00  0.00     0.147 S 
ATOM     19  C   UNL A   1      33.626  27.349  22.109  1.00  0.00     0.158 C 
ATOM     20  O   UNL A   1      33.073  25.585  20.292  1.00  0.00    -0.229 OA
ATOM     21  O   UNL A   1      31.345  26.204  22.013  1.00  0.00    -0.229 OA
ENDBRANCH  17  18
ENDBRANCH  16  17
ENDBRANCH   7  16
ENDBRANCH   4   7
ENDBRANCH   2   3
ENDBRANCH   1   2
BRANCH   1  22
ATOM     22  C   UNL A   1      34.000  28.345  27.030  1.00  0.00     0.118 C 
BRANCH  22  23
ATOM     23  N   UNL A   1      33.746  29.736  27.433  1.00  0.00    -0.352 N 
ATOM     24  C   UNL A   1      34.505  30.600  28.182  1.00  0.00     0.251 C 
ATOM     25  H   UNL A   1      32.892  30.108  27.113  1.00  0.00     0.163 HD
ATOM     26  O   UNL A   1      34.026  31.644  28.610  1.00  0.00    -0.269 OA
BRANCH  24  27
ATOM     27  C   UNL A   1      35.903  30.244  28.473  1.00  0.00     0.039 A 
ATOM     28  C   UNL A   1      36.234  29.598  29.662  1.00  0.00     0.014 A 
ATOM     29  C   UNL A   1      36.886  30.528  27.530  1.00  0.00     0.014 A 
ATOM     30  C   UNL A   1      37.553  29.198  29.866  1.00  0.00     0.010 A 
ATOM     31  C   UNL A   1      38.119  29.924  27.627  1.00  0.00     0.010 A 
ATOM     32  C   UNL A   1      38.497  29.333  28.833  1.00  0.00    -0.014 A 
BRANCH  32  33
ATOM     33  C   UNL A   1      39.924  28.989  29.012  1.00  0.00     0.031 A 
ATOM     34  C   UNL A   1      40.858  30.028  29.587  1.00  0.00     0.074 A 
ATOM     35  C   UNL A   1      40.378  27.788  28.612  1.00  0.00     0.049 A 
ATOM     36  N   UNL A   1      42.152  29.970  29.760  1.00  0.00    -0.248 NA
ATOM     37  C   UNL A   1      40.275  31.331  29.966  1.00  0.00     0.031 C 
ATOM     38  C   UNL A   1      39.575  26.742  27.972  1.00  0.00     0.029 A 
ATOM     39  N   UNL A   1      41.630  27.240  28.693  1.00  0.00    -0.354 N 
ATOM     40  C   UNL A   1      42.525  31.224  30.230  1.00  0.00     0.074 A 
ATOM     41  C   UNL A   1      41.350  32.058  30.212  1.00  0.00     0.031 C 
ATOM     42  C   UNL A   1      40.343  25.659  27.772  1.00  0.00     0.029 A 
ATOM     43  C   UNL A   1      41.697  25.950  28.227  1.00  0.00     0.049 A 
ATOM     44  H   UNL A   1      42.409  27.726  29.051  1.00  0.00     0.167 HD
ATOM     45  C   UNL A   1      43.728  31.633  30.693  1.00  0.00     0.037 A 
ATOM     46  C   UNL A   1      42.741  25.101  28.183  1.00  0.00     0.037 A 
ATOM     47  C   UNL A   1      44.872  30.769  30.764  1.00  0.00     0.049 A 
ATOM     48  C   UNL A   1      44.063  25.563  28.736  1.00  0.00     0.074 A 
ATOM     49  C   UNL A   1      46.128  31.043  31.271  1.00  0.00     0.029 A 
ATOM     50  N   UNL A   1      44.891  29.453  30.322  1.00  0.00    -0.354 N 
ATOM     51  N   UNL A   1      44.385  26.732  29.239  1.00  0.00    -0.248 NA
ATOM     52  C   UNL A   1      45.156  24.586  28.734  1.00  0.00     0.031 C 
ATOM     53  C   UNL A   1      46.922  29.907  31.089  1.00  0.00     0.029 A 
ATOM     54  C   UNL A   1      46.142  28.905  30.532  1.00  0.00     0.049 A 
ATOM     55  H   UNL A   1      44.126  28.981  29.920  1.00  0.00     0.167 HD
ATOM     56  C   UNL A   1      45.708  26.618  29.650  1.00  0.00     0.074 A 
ATOM     57  C   UNL A   1      46.119  25.262  29.346  1.00  0.00     0.031 C 
ATOM     58  C   UNL A   1      46.512  27.545  30.231  1.00  0.00     0.037 A 
BRANCH  45  59
ATOM     59  C   UNL A   1      43.849  33.055  31.171  1.00  0.00     0.058 A 
ATOM     60  C   UNL A   1      44.240  34.099  30.314  1.00  0.00     0.135 A 
ATOM     61  C   UNL A   1      43.560  33.384  32.505  1.00  0.00     0.135 A 
ATOM     62  F   UNL A   1      44.555  33.843  29.034  1.00  0.00    -0.206 F 
ATOM     63  C   UNL A   1      44.370  35.407  30.767  1.00  0.00     0.059 A 
ATOM     64  C   UNL A   1      43.647  34.692  32.972  1.00  0.00     0.059 A 
ATOM     65  F   UNL A   1      43.191  32.429  33.373  1.00  0.00    -0.206 F 
ATOM     66  C   UNL A   1      44.065  35.695  32.098  1.00  0.00     0.060 A 
BRANCH  66  67
ATOM     67  S   UNL A   1      44.214  37.402  32.664  1.00  0.00     0.124 S 
ATOM     68  O   UNL A   1      43.104  37.495  33.607  1.00  0.00    -0.237 OA
ATOM     69  O   UNL A   1      45.550  37.419  33.253  1.00  0.00    -0.237 OA
ATOM     70  O   UNL A   1      44.062  38.181  31.438  1.00  0.00    -0.744 OA
ENDBRANCH  66  67
ENDBRANCH  45  59
BRANCH  46  71
ATOM     71  C   UNL A   1      42.561  23.725  27.647  1.00  0.00     0.058 A 
ATOM     72  C   UNL A   1      42.379  22.630  28.505  1.00  0.00     0.135 A 
ATOM     73  C   UNL A   1      42.554  23.477  26.266  1.00  0.00     0.135 A 
ATOM     74  F   UNL A   1      42.376  22.813  29.835  1.00  0.00    -0.206 F 
ATOM     75  C   UNL A   1      42.228  21.336  28.018  1.00  0.00     0.059 A 
ATOM     76  C   UNL A   1      42.373  22.196  25.752  1.00  0.00     0.059 A 
ATOM     77  F   UNL A   1      42.698  24.492  25.399  1.00  0.00    -0.206 F 
ATOM     78  C   UNL A   1      42.226  21.131  26.637  1.00  0.00     0.060 A 
BRANCH  78  79
ATOM     79  S   UNL A   1      41.999  19.450  26.013  1.00  0.00     0.124 S 
ATOM     80  O   UNL A   1      40.564  19.426  25.750  1.00  0.00    -0.237 OA
ATOM     81  O   UNL A   1      42.865  19.441  24.838  1.00  0.00    -0.237 OA
ATOM     82  O   UNL A   1      42.451  18.616  27.122  1.00  0.00    -0.744 OA
ENDBRANCH  78  79
ENDBRANCH  46  71
BRANCH  58  83
ATOM     83  C   UNL A   1      47.891  27.102  30.632  1.00  0.00     0.058 A 
ATOM     84  C   UNL A   1      49.017  27.350  29.834  1.00  0.00     0.135 A 
ATOM     85  C   UNL A   1      48.088  26.450  31.861  1.00  0.00     0.135 A 
ATOM     86  F   UNL A   1      48.884  27.971  28.651  1.00  0.00    -0.206 F 
ATOM     87  C   UNL A   1      50.284  26.925  30.216  1.00  0.00     0.059 A 
ATOM     88  C   UNL A   1      49.350  26.050  32.281  1.00  0.00     0.059 A 
ATOM     89  F   UNL A   1      47.046  26.204  32.673  1.00  0.00    -0.206 F 
ATOM     90  C   UNL A   1      50.439  26.273  31.441  1.00  0.00     0.060 A 
BRANCH  90  91
ATOM     91  S   UNL A   1      52.088  25.728  31.927  1.00  0.00     0.124 S 
ATOM     92  O   UNL A   1      52.843  25.947  30.697  1.00  0.00    -0.237 OA
ATOM     93  O   UNL A   1      52.402  26.629  33.032  1.00  0.00    -0.237 OA
ATOM     94  O   UNL A   1      51.890  24.332  32.302  1.00  0.00    -0.744 OA
ENDBRANCH  90  91
ENDBRANCH  58  83
ENDBRANCH  32  33
ENDBRANCH  24  27
ENDBRANCH  22  23
ENDBRANCH   1  22
TORSDOF 17
ENDMDL
