MODEL 1
REMARK VINA RESULT:     -13.3      0.000      0.000
REMARK SMILES O=C(NCCCNC(=O)[C@H]1C[C@](O)(c2ccc(Cl)cc2)[C@@H](c2ccc(Cl)cc2)O1)c1ccc(-c2c3nc(c(-c4c(F)cc(S(=O)(=O)[O-])cc4F)c4ccc([nH]4)c(-c4c(F)cc(S(=O)(=O)[O-])cc4F)c4nc(c(-c5c(F)cc(S(=O)(=O)[O-])cc5F)c5ccc2[nH]5)C=C4)C=C3)cc1
REMARK SMILES IDX 4 1 3 2 1 3 2 4 30 6 31 7 95 8 32 9 94 10 33 11 34 12 35 13
REMARK SMILES IDX 88 14 36 15 93 16 87 17 89 18 37 19 92 20 86 21 85 22 38 24
REMARK SMILES IDX 72 25 51 26 71 27 52 28 55 29 70 30 90 31 53 32 54 33 69 35
REMARK SMILES IDX 91 36 56 37 39 38 40 39 49 40 41 41 42 42 48 43 50 44 43 45
REMARK SMILES IDX 44 46 45 47 46 48 47 49 73 50 74 51 83 52 75 53 76 54 82 55
REMARK SMILES IDX 84 56 77 57 78 58 79 59 80 60 81 61 57 62 58 63 67 64 59 65
REMARK SMILES IDX 60 66 66 67 68 68 61 69 62 70 63 71 64 72 65 73 5 74 6 75
REMARK SMILES IDX 7 76 8 77 9 79 10 80 11 81 29 82 12 83 21 84 14 85 15 86
REMARK SMILES IDX 20 87 16 88 19 89 17 90 18 91 13 92 22 94 23 95 28 96 24 97
REMARK SMILES IDX 27 98 25 99 26 100
REMARK H PARENT 3 5 89 23 55 34 7 78 13 93
REMARK Flexibility Score: inf
ROOT
ATOM      1  C   UNL A   1      35.768  31.160  28.172  1.00  0.00     0.118 C 
ENDROOT
BRANCH   1   2
ATOM      2  N   UNL A   1      35.643  30.698  29.548  1.00  0.00    -0.352 N 
ATOM      3  O   UNL A   1      36.151  29.536  31.408  1.00  0.00    -0.269 OA
ATOM      4  C   UNL A   1      36.515  29.965  30.314  1.00  0.00     0.251 C 
ATOM      5  H   UNL A   1      34.805  30.951  29.998  1.00  0.00     0.163 HD
BRANCH   4   6
ATOM      6  C   UNL A   1      37.876  29.675  29.817  1.00  0.00     0.039 A 
ATOM      7  C   UNL A   1      38.903  29.359  30.709  1.00  0.00     0.014 A 
ATOM      8  C   UNL A   1      38.120  29.689  28.441  1.00  0.00     0.014 A 
ATOM      9  C   UNL A   1      40.200  29.188  30.240  1.00  0.00     0.010 A 
ATOM     10  C   UNL A   1      39.407  29.426  27.963  1.00  0.00     0.010 A 
ATOM     11  C   UNL A   1      40.459  29.186  28.861  1.00  0.00    -0.014 A 
BRANCH  11  12
ATOM     12  C   UNL A   1      41.806  28.790  28.378  1.00  0.00     0.031 A 
ATOM     13  C   UNL A   1      42.099  27.386  27.934  1.00  0.00     0.074 A 
ATOM     14  C   UNL A   1      42.771  29.731  28.367  1.00  0.00     0.049 A 
ATOM     15  N   UNL A   1      43.233  26.878  27.527  1.00  0.00    -0.248 NA
ATOM     16  C   UNL A   1      40.985  26.424  27.951  1.00  0.00     0.031 C 
ATOM     17  C   UNL A   1      42.595  31.122  28.800  1.00  0.00     0.029 A 
ATOM     18  N   UNL A   1      44.087  29.671  27.986  1.00  0.00    -0.354 N 
ATOM     19  C   UNL A   1      42.981  25.537  27.265  1.00  0.00     0.074 A 
ATOM     20  C   UNL A   1      41.584  25.305  27.563  1.00  0.00     0.031 C 
ATOM     21  C   UNL A   1      43.749  31.784  28.644  1.00  0.00     0.029 A 
ATOM     22  C   UNL A   1      44.765  30.853  28.173  1.00  0.00     0.049 A 
ATOM     23  H   UNL A   1      44.506  28.861  27.615  1.00  0.00     0.167 HD
ATOM     24  C   UNL A   1      43.845  24.595  26.816  1.00  0.00     0.037 A 
ATOM     25  C   UNL A   1      46.071  31.147  28.029  1.00  0.00     0.037 A 
ATOM     26  C   UNL A   1      45.229  24.853  26.501  1.00  0.00     0.049 A 
ATOM     27  C   UNL A   1      47.006  30.068  27.564  1.00  0.00     0.074 A 
ATOM     28  C   UNL A   1      46.161  23.986  25.959  1.00  0.00     0.029 A 
ATOM     29  N   UNL A   1      45.883  26.057  26.718  1.00  0.00    -0.354 N 
ATOM     30  N   UNL A   1      46.731  28.828  27.236  1.00  0.00    -0.248 NA
ATOM     31  C   UNL A   1      48.428  30.420  27.456  1.00  0.00     0.031 C 
ATOM     32  C   UNL A   1      47.394  24.642  25.911  1.00  0.00     0.029 A 
ATOM     33  C   UNL A   1      47.219  25.938  26.369  1.00  0.00     0.049 A 
ATOM     34  H   UNL A   1      45.462  26.875  27.068  1.00  0.00     0.167 HD
ATOM     35  C   UNL A   1      47.944  28.254  26.879  1.00  0.00     0.074 A 
ATOM     36  C   UNL A   1      48.949  29.291  26.999  1.00  0.00     0.031 C 
ATOM     37  C   UNL A   1      48.205  26.981  26.496  1.00  0.00     0.037 A 
BRANCH  24  38
ATOM     38  C   UNL A   1      43.353  23.183  26.649  1.00  0.00     0.058 A 
ATOM     39  C   UNL A   1      43.199  22.594  25.386  1.00  0.00     0.135 A 
ATOM     40  C   UNL A   1      43.152  22.370  27.779  1.00  0.00     0.135 A 
ATOM     41  F   UNL A   1      43.365  23.327  24.273  1.00  0.00    -0.206 F 
ATOM     42  C   UNL A   1      42.868  21.249  25.247  1.00  0.00     0.059 A 
ATOM     43  C   UNL A   1      42.842  21.018  27.664  1.00  0.00     0.059 A 
ATOM     44  F   UNL A   1      43.284  22.884  29.012  1.00  0.00    -0.206 F 
ATOM     45  C   UNL A   1      42.702  20.466  26.392  1.00  0.00     0.060 A 
BRANCH  45  46
ATOM     46  S   UNL A   1      42.330  18.711  26.190  1.00  0.00     0.124 S 
ATOM     47  O   UNL A   1      40.920  18.753  25.812  1.00  0.00    -0.237 OA
ATOM     48  O   UNL A   1      43.255  18.316  25.134  1.00  0.00    -0.237 OA
ATOM     49  O   UNL A   1      42.608  18.148  27.508  1.00  0.00    -0.744 OA
ENDBRANCH  45  46
ENDBRANCH  24  38
BRANCH  25  50
ATOM     50  C   UNL A   1      46.575  32.499  28.389  1.00  0.00     0.058 A 
ATOM     51  C   UNL A   1      46.896  32.829  29.712  1.00  0.00     0.135 A 
ATOM     52  C   UNL A   1      46.731  33.494  27.410  1.00  0.00     0.135 A 
ATOM     53  F   UNL A   1      46.762  31.913  30.683  1.00  0.00    -0.206 F 
ATOM     54  C   UNL A   1      47.323  34.106  30.059  1.00  0.00     0.059 A 
ATOM     55  C   UNL A   1      47.189  34.767  27.727  1.00  0.00     0.059 A 
ATOM     56  F   UNL A   1      46.457  33.225  26.124  1.00  0.00    -0.206 F 
ATOM     57  C   UNL A   1      47.462  35.070  29.058  1.00  0.00     0.060 A 
BRANCH  57  58
ATOM     58  S   UNL A   1      48.017  36.725  29.518  1.00  0.00     0.124 S 
ATOM     59  O   UNL A   1      46.749  37.402  29.758  1.00  0.00    -0.237 OA
ATOM     60  O   UNL A   1      48.833  36.458  30.699  1.00  0.00    -0.237 OA
ATOM     61  O   UNL A   1      48.758  37.168  28.340  1.00  0.00    -0.744 OA
ENDBRANCH  57  58
ENDBRANCH  25  50
BRANCH  37  62
ATOM     62  C   UNL A   1      49.632  26.638  26.176  1.00  0.00     0.058 A 
ATOM     63  C   UNL A   1      50.476  26.053  27.133  1.00  0.00     0.135 A 
ATOM     64  C   UNL A   1      50.142  26.836  24.883  1.00  0.00     0.135 A 
ATOM     65  F   UNL A   1      50.041  25.856  28.387  1.00  0.00    -0.206 F 
ATOM     66  C   UNL A   1      51.781  25.688  26.823  1.00  0.00     0.059 A 
ATOM     67  C   UNL A   1      51.435  26.450  24.542  1.00  0.00     0.059 A 
ATOM     68  F   UNL A   1      49.375  27.387  23.930  1.00  0.00    -0.206 F 
ATOM     69  C   UNL A   1      52.248  25.882  25.522  1.00  0.00     0.060 A 
BRANCH  69  70
ATOM     70  S   UNL A   1      53.925  25.347  25.120  1.00  0.00     0.124 S 
ATOM     71  O   UNL A   1      54.662  25.771  26.306  1.00  0.00    -0.237 OA
ATOM     72  O   UNL A   1      53.760  23.907  24.957  1.00  0.00    -0.237 OA
ATOM     73  O   UNL A   1      54.231  26.081  23.895  1.00  0.00    -0.744 OA
ENDBRANCH  69  70
ENDBRANCH  37  62
ENDBRANCH  11  12
ENDBRANCH   4   6
ENDBRANCH   1   2
BRANCH   1  74
ATOM     74  C   UNL A   1      34.526  30.889  27.330  1.00  0.00     0.042 C 
BRANCH  74  75
ATOM     75  C   UNL A   1      34.139  29.422  27.217  1.00  0.00     0.117 C 
BRANCH  75  76
ATOM     76  N   UNL A   1      32.768  29.171  27.599  1.00  0.00    -0.354 N 
ATOM     77  C   UNL A   1      31.957  28.103  27.399  1.00  0.00     0.249 C 
ATOM     78  H   UNL A   1      32.345  29.909  28.095  1.00  0.00     0.163 HD
ATOM     79  O   UNL A   1      30.910  28.102  28.052  1.00  0.00    -0.272 OA
BRANCH  77  80
ATOM     80  C   UNL A   1      32.322  26.961  26.424  1.00  0.00     0.211 C 
ATOM     81  C   UNL A   1      31.237  25.889  26.451  1.00  0.00     0.085 C 
ATOM     82  O   UNL A   1      32.450  27.441  25.082  1.00  0.00    -0.357 OA
ATOM     83  C   UNL A   1      30.864  25.612  24.995  1.00  0.00     0.123 C 
ATOM     84  C   UNL A   1      31.429  26.857  24.243  1.00  0.00     0.186 C 
BRANCH  83  85
ATOM     85  C   UNL A   1      31.365  24.213  24.591  1.00  0.00    -0.013 A 
ATOM     86  C   UNL A   1      31.387  23.203  25.585  1.00  0.00     0.008 A 
ATOM     87  C   UNL A   1      31.748  23.837  23.295  1.00  0.00     0.008 A 
ATOM     88  C   UNL A   1      31.746  21.884  25.297  1.00  0.00     0.021 A 
ATOM     89  C   UNL A   1      32.098  22.510  23.000  1.00  0.00     0.021 A 
ATOM     90  C   UNL A   1      32.089  21.541  23.997  1.00  0.00     0.041 A 
ATOM     91  Cl  UNL A   1      32.488  19.910  23.621  1.00  0.00    -0.084 Cl
ENDBRANCH  83  85
BRANCH  83  92
ATOM     92  O   UNL A   1      29.439  25.485  24.859  1.00  0.00    -0.382 OA
ATOM     93  H   UNL A   1      29.235  24.987  24.053  1.00  0.00     0.212 HD
ENDBRANCH  83  92
BRANCH  84  94
ATOM     94  C   UNL A   1      30.496  27.990  23.817  1.00  0.00    -0.016 A 
ATOM     95  C   UNL A   1      29.291  27.769  23.135  1.00  0.00     0.008 A 
ATOM     96  C   UNL A   1      30.793  29.312  24.197  1.00  0.00     0.008 A 
ATOM     97  C   UNL A   1      28.392  28.808  22.880  1.00  0.00     0.021 A 
ATOM     98  C   UNL A   1      29.902  30.360  23.931  1.00  0.00     0.021 A 
ATOM     99  C   UNL A   1      28.698  30.100  23.286  1.00  0.00     0.041 A 
ATOM    100  Cl  UNL A   1      27.577  31.372  23.002  1.00  0.00    -0.084 Cl
ENDBRANCH  84  94
ENDBRANCH  77  80
ENDBRANCH  75  76
ENDBRANCH  74  75
ENDBRANCH   1  74
TORSDOF 16
ENDMDL
MODEL 2
REMARK VINA RESULT:     -13.3      6.746     12.021
REMARK SMILES O=C(NCCCNC(=O)[C@H]1C[C@](O)(c2ccc(Cl)cc2)[C@@H](c2ccc(Cl)cc2)O1)c1ccc(-c2c3nc(c(-c4c(F)cc(S(=O)(=O)[O-])cc4F)c4ccc([nH]4)c(-c4c(F)cc(S(=O)(=O)[O-])cc4F)c4nc(c(-c5c(F)cc(S(=O)(=O)[O-])cc5F)c5ccc2[nH]5)C=C4)C=C3)cc1
REMARK SMILES IDX 4 1 3 2 1 3 2 4 30 6 31 7 95 8 32 9 94 10 33 11 34 12 35 13
REMARK SMILES IDX 88 14 36 15 93 16 87 17 89 18 37 19 92 20 86 21 85 22 38 24
REMARK SMILES IDX 72 25 51 26 71 27 52 28 55 29 70 30 90 31 53 32 54 33 69 35
REMARK SMILES IDX 91 36 56 37 39 38 40 39 49 40 41 41 42 42 48 43 50 44 43 45
REMARK SMILES IDX 44 46 45 47 46 48 47 49 73 50 74 51 83 52 75 53 76 54 82 55
REMARK SMILES IDX 84 56 77 57 78 58 79 59 80 60 81 61 57 62 58 63 67 64 59 65
REMARK SMILES IDX 60 66 66 67 68 68 61 69 62 70 63 71 64 72 65 73 5 74 6 75
REMARK SMILES IDX 7 76 8 77 9 79 10 80 11 81 29 82 12 83 21 84 14 85 15 86
REMARK SMILES IDX 20 87 16 88 19 89 17 90 18 91 13 92 22 94 23 95 28 96 24 97
REMARK SMILES IDX 27 98 25 99 26 100
REMARK H PARENT 3 5 89 23 55 34 7 78 13 93
REMARK Flexibility Score: inf
ROOT
ATOM      1  C   UNL A   1      41.957  23.096  27.451  1.00  0.00     0.118 C 
ENDROOT
BRANCH   1   2
ATOM      2  N   UNL A   1      42.022  23.927  26.256  1.00  0.00    -0.352 N 
ATOM      3  O   UNL A   1      41.774  25.768  24.985  1.00  0.00    -0.269 OA
ATOM      4  C   UNL A   1      41.837  25.279  26.112  1.00  0.00     0.251 C 
ATOM      5  H   UNL A   1      42.231  23.444  25.424  1.00  0.00     0.163 HD
BRANCH   4   6
ATOM      6  C   UNL A   1      41.694  26.140  27.304  1.00  0.00     0.039 A 
ATOM      7  C   UNL A   1      42.683  27.070  27.628  1.00  0.00     0.014 A 
ATOM      8  C   UNL A   1      40.542  26.037  28.089  1.00  0.00     0.014 A 
ATOM      9  C   UNL A   1      42.586  27.802  28.806  1.00  0.00     0.010 A 
ATOM     10  C   UNL A   1      40.403  26.840  29.224  1.00  0.00     0.010 A 
ATOM     11  C   UNL A   1      41.430  27.720  29.598  1.00  0.00    -0.014 A 
BRANCH  11  12
ATOM     12  C   UNL A   1      41.260  28.665  30.729  1.00  0.00     0.031 A 
ATOM     13  C   UNL A   1      42.094  28.558  31.973  1.00  0.00     0.074 A 
ATOM     14  C   UNL A   1      40.315  29.619  30.615  1.00  0.00     0.049 A 
ATOM     15  N   UNL A   1      42.035  29.282  33.061  1.00  0.00    -0.248 NA
ATOM     16  C   UNL A   1      43.123  27.506  32.011  1.00  0.00     0.031 C 
ATOM     17  C   UNL A   1      39.434  29.795  29.455  1.00  0.00     0.029 A 
ATOM     18  N   UNL A   1      39.928  30.616  31.474  1.00  0.00    -0.354 N 
ATOM     19  C   UNL A   1      42.995  28.761  33.921  1.00  0.00     0.074 A 
ATOM     20  C   UNL A   1      43.622  27.654  33.232  1.00  0.00     0.031 C 
ATOM     21  C   UNL A   1      38.626  30.843  29.667  1.00  0.00     0.029 A 
ATOM     22  C   UNL A   1      38.876  31.367  31.003  1.00  0.00     0.049 A 
ATOM     23  H   UNL A   1      40.361  30.778  32.343  1.00  0.00     0.167 HD
ATOM     24  C   UNL A   1      43.314  29.178  35.170  1.00  0.00     0.037 A 
ATOM     25  C   UNL A   1      38.158  32.338  31.596  1.00  0.00     0.037 A 
ATOM     26  C   UNL A   1      42.692  30.299  35.830  1.00  0.00     0.049 A 
ATOM     27  C   UNL A   1      38.517  32.750  32.994  1.00  0.00     0.074 A 
ATOM     28  C   UNL A   1      43.006  30.853  37.059  1.00  0.00     0.029 A 
ATOM     29  N   UNL A   1      41.621  31.025  35.329  1.00  0.00    -0.354 N 
ATOM     30  N   UNL A   1      39.486  32.305  33.757  1.00  0.00    -0.248 NA
ATOM     31  C   UNL A   1      37.684  33.786  33.617  1.00  0.00     0.031 C 
ATOM     32  C   UNL A   1      42.083  31.866  37.332  1.00  0.00     0.029 A 
ATOM     33  C   UNL A   1      41.229  31.985  36.247  1.00  0.00     0.049 A 
ATOM     34  H   UNL A   1      41.201  30.879  34.450  1.00  0.00     0.167 HD
ATOM     35  C   UNL A   1      39.382  33.011  34.949  1.00  0.00     0.074 A 
ATOM     36  C   UNL A   1      38.277  33.935  34.793  1.00  0.00     0.031 C 
ATOM     37  C   UNL A   1      40.127  32.896  36.075  1.00  0.00     0.037 A 
BRANCH  24  38
ATOM     38  C   UNL A   1      44.364  28.423  35.938  1.00  0.00     0.058 A 
ATOM     39  C   UNL A   1      45.723  28.765  35.872  1.00  0.00     0.135 A 
ATOM     40  C   UNL A   1      43.986  27.420  36.849  1.00  0.00     0.135 A 
ATOM     41  F   UNL A   1      46.142  29.705  35.010  1.00  0.00    -0.206 F 
ATOM     42  C   UNL A   1      46.669  28.145  36.684  1.00  0.00     0.059 A 
ATOM     43  C   UNL A   1      44.910  26.803  37.686  1.00  0.00     0.059 A 
ATOM     44  F   UNL A   1      42.699  27.052  36.950  1.00  0.00    -0.206 F 
ATOM     45  C   UNL A   1      46.251  27.173  37.595  1.00  0.00     0.060 A 
BRANCH  45  46
ATOM     46  S   UNL A   1      47.484  26.421  38.680  1.00  0.00     0.124 S 
ATOM     47  O   UNL A   1      47.578  25.074  38.125  1.00  0.00    -0.237 OA
ATOM     48  O   UNL A   1      48.647  27.275  38.467  1.00  0.00    -0.237 OA
ATOM     49  O   UNL A   1      46.876  26.512  40.005  1.00  0.00    -0.744 OA
ENDBRANCH  45  46
ENDBRANCH  24  38
BRANCH  25  50
ATOM     50  C   UNL A   1      36.993  32.938  30.892  1.00  0.00     0.058 A 
ATOM     51  C   UNL A   1      37.158  33.961  29.949  1.00  0.00     0.135 A 
ATOM     52  C   UNL A   1      35.685  32.503  31.163  1.00  0.00     0.135 A 
ATOM     53  F   UNL A   1      38.388  34.411  29.656  1.00  0.00    -0.206 F 
ATOM     54  C   UNL A   1      36.067  34.556  29.323  1.00  0.00     0.059 A 
ATOM     55  C   UNL A   1      34.582  33.058  30.525  1.00  0.00     0.059 A 
ATOM     56  F   UNL A   1      35.472  31.512  32.043  1.00  0.00    -0.206 F 
ATOM     57  C   UNL A   1      34.782  34.099  29.623  1.00  0.00     0.060 A 
BRANCH  57  58
ATOM     58  S   UNL A   1      33.372  34.876  28.805  1.00  0.00     0.124 S 
ATOM     59  O   UNL A   1      34.006  36.014  28.151  1.00  0.00    -0.237 OA
ATOM     60  O   UNL A   1      32.904  33.811  27.923  1.00  0.00    -0.237 OA
ATOM     61  O   UNL A   1      32.480  35.200  29.914  1.00  0.00    -0.744 OA
ENDBRANCH  57  58
ENDBRANCH  25  50
BRANCH  37  62
ATOM     62  C   UNL A   1      39.775  33.796  37.226  1.00  0.00     0.058 A 
ATOM     63  C   UNL A   1      38.902  33.375  38.242  1.00  0.00     0.135 A 
ATOM     64  C   UNL A   1      40.365  35.064  37.349  1.00  0.00     0.135 A 
ATOM     65  F   UNL A   1      38.301  32.177  38.163  1.00  0.00    -0.206 F 
ATOM     66  C   UNL A   1      38.616  34.186  39.334  1.00  0.00     0.059 A 
ATOM     67  C   UNL A   1      40.116  35.880  38.448  1.00  0.00     0.059 A 
ATOM     68  F   UNL A   1      41.210  35.511  36.408  1.00  0.00    -0.206 F 
ATOM     69  C   UNL A   1      39.235  35.433  39.433  1.00  0.00     0.060 A 
BRANCH  69  70
ATOM     70  S   UNL A   1      38.899  36.449  40.887  1.00  0.00     0.124 S 
ATOM     71  O   UNL A   1      37.829  35.696  41.532  1.00  0.00    -0.237 OA
ATOM     72  O   UNL A   1      40.186  36.440  41.576  1.00  0.00    -0.237 OA
ATOM     73  O   UNL A   1      38.507  37.736  40.319  1.00  0.00    -0.744 OA
ENDBRANCH  69  70
ENDBRANCH  37  62
ENDBRANCH  11  12
ENDBRANCH   4   6
ENDBRANCH   1   2
BRANCH   1  74
ATOM     74  C   UNL A   1      40.655  22.310  27.570  1.00  0.00     0.042 C 
BRANCH  74  75
ATOM     75  C   UNL A   1      39.462  22.946  26.874  1.00  0.00     0.117 C 
BRANCH  75  76
ATOM     76  N   UNL A   1      38.908  22.112  25.831  1.00  0.00    -0.354 N 
ATOM     77  C   UNL A   1      37.697  22.114  25.223  1.00  0.00     0.249 C 
ATOM     78  H   UNL A   1      39.522  21.416  25.503  1.00  0.00     0.163 HD
ATOM     79  O   UNL A   1      37.613  21.420  24.205  1.00  0.00    -0.272 OA
BRANCH  77  80
ATOM     80  C   UNL A   1      36.503  22.933  25.763  1.00  0.00     0.211 C 
ATOM     81  C   UNL A   1      35.858  23.721  24.627  1.00  0.00     0.085 C 
ATOM     82  O   UNL A   1      35.509  22.085  26.346  1.00  0.00    -0.357 OA
ATOM     83  C   UNL A   1      34.358  23.439  24.700  1.00  0.00     0.123 C 
ATOM     84  C   UNL A   1      34.282  22.157  25.586  1.00  0.00     0.186 C 
BRANCH  83  85
ATOM     85  C   UNL A   1      33.617  24.706  25.167  1.00  0.00    -0.013 A 
ATOM     86  C   UNL A   1      32.538  24.548  26.073  1.00  0.00     0.008 A 
ATOM     87  C   UNL A   1      33.964  26.019  24.815  1.00  0.00     0.008 A 
ATOM     88  C   UNL A   1      31.858  25.640  26.617  1.00  0.00     0.021 A 
ATOM     89  C   UNL A   1      33.290  27.119  25.369  1.00  0.00     0.021 A 
ATOM     90  C   UNL A   1      32.248  26.926  26.270  1.00  0.00     0.041 A 
ATOM     91  Cl  UNL A   1      31.449  28.280  26.970  1.00  0.00    -0.084 Cl
ENDBRANCH  83  85
BRANCH  83  92
ATOM     92  O   UNL A   1      33.823  23.233  23.382  1.00  0.00    -0.382 OA
ATOM     93  H   UNL A   1      33.763  22.281  23.204  1.00  0.00     0.212 HD
ENDBRANCH  83  92
BRANCH  84  94
ATOM     94  C   UNL A   1      34.072  20.787  24.942  1.00  0.00    -0.016 A 
ATOM     95  C   UNL A   1      35.036  19.769  24.983  1.00  0.00     0.008 A 
ATOM     96  C   UNL A   1      32.828  20.478  24.360  1.00  0.00     0.008 A 
ATOM     97  C   UNL A   1      34.765  18.483  24.509  1.00  0.00     0.021 A 
ATOM     98  C   UNL A   1      32.556  19.195  23.869  1.00  0.00     0.021 A 
ATOM     99  C   UNL A   1      33.522  18.198  23.960  1.00  0.00     0.041 A 
ATOM    100  Cl  UNL A   1      33.178  16.607  23.406  1.00  0.00    -0.084 Cl
ENDBRANCH  84  94
ENDBRANCH  77  80
ENDBRANCH  75  76
ENDBRANCH  74  75
ENDBRANCH   1  74
TORSDOF 16
ENDMDL
MODEL 3
REMARK VINA RESULT:     -13.2      6.673     12.384
REMARK SMILES O=C(NCCCNC(=O)[C@H]1C[C@](O)(c2ccc(Cl)cc2)[C@@H](c2ccc(Cl)cc2)O1)c1ccc(-c2c3nc(c(-c4c(F)cc(S(=O)(=O)[O-])cc4F)c4ccc([nH]4)c(-c4c(F)cc(S(=O)(=O)[O-])cc4F)c4nc(c(-c5c(F)cc(S(=O)(=O)[O-])cc5F)c5ccc2[nH]5)C=C4)C=C3)cc1
REMARK SMILES IDX 4 1 3 2 1 3 2 4 30 6 31 7 95 8 32 9 94 10 33 11 34 12 35 13
REMARK SMILES IDX 88 14 36 15 93 16 87 17 89 18 37 19 92 20 86 21 85 22 38 24
REMARK SMILES IDX 72 25 51 26 71 27 52 28 55 29 70 30 90 31 53 32 54 33 69 35
REMARK SMILES IDX 91 36 56 37 39 38 40 39 49 40 41 41 42 42 48 43 50 44 43 45
REMARK SMILES IDX 44 46 45 47 46 48 47 49 73 50 74 51 83 52 75 53 76 54 82 55
REMARK SMILES IDX 84 56 77 57 78 58 79 59 80 60 81 61 57 62 58 63 67 64 59 65
REMARK SMILES IDX 60 66 66 67 68 68 61 69 62 70 63 71 64 72 65 73 5 74 6 75
REMARK SMILES IDX 7 76 8 77 9 79 10 80 11 81 29 82 12 83 21 84 14 85 15 86
REMARK SMILES IDX 20 87 16 88 19 89 17 90 18 91 13 92 22 94 23 95 28 96 24 97
REMARK SMILES IDX 27 98 25 99 26 100
REMARK H PARENT 3 5 89 23 55 34 7 78 13 93
REMARK Flexibility Score: inf
ROOT
ATOM      1  C   UNL A   1      41.955  23.251  27.407  1.00  0.00     0.118 C 
ENDROOT
BRANCH   1   2
ATOM      2  N   UNL A   1      41.944  24.115  26.234  1.00  0.00    -0.352 N 
ATOM      3  O   UNL A   1      41.527  25.957  25.009  1.00  0.00    -0.269 OA
ATOM      4  C   UNL A   1      41.632  25.447  26.123  1.00  0.00     0.251 C 
ATOM      5  H   UNL A   1      42.202  23.676  25.391  1.00  0.00     0.163 HD
BRANCH   4   6
ATOM      6  C   UNL A   1      41.403  26.258  27.336  1.00  0.00     0.039 A 
ATOM      7  C   UNL A   1      42.279  27.292  27.672  1.00  0.00     0.014 A 
ATOM      8  C   UNL A   1      40.282  26.003  28.130  1.00  0.00     0.014 A 
ATOM      9  C   UNL A   1      42.111  27.982  28.867  1.00  0.00     0.010 A 
ATOM     10  C   UNL A   1      40.063  26.759  29.285  1.00  0.00     0.010 A 
ATOM     11  C   UNL A   1      40.984  27.746  29.668  1.00  0.00    -0.014 A 
BRANCH  11  12
ATOM     12  C   UNL A   1      40.717  28.640  30.823  1.00  0.00     0.031 A 
ATOM     13  C   UNL A   1      39.622  29.668  30.783  1.00  0.00     0.074 A 
ATOM     14  C   UNL A   1      41.503  28.514  31.911  1.00  0.00     0.049 A 
ATOM     15  N   UNL A   1      39.294  30.547  31.694  1.00  0.00    -0.248 NA
ATOM     16  C   UNL A   1      38.791  29.725  29.570  1.00  0.00     0.031 C 
ATOM     17  C   UNL A   1      42.609  27.560  32.043  1.00  0.00     0.029 A 
ATOM     18  N   UNL A   1      41.503  29.183  33.108  1.00  0.00    -0.354 N 
ATOM     19  C   UNL A   1      38.241  31.279  31.159  1.00  0.00     0.074 A 
ATOM     20  C   UNL A   1      37.984  30.744  29.839  1.00  0.00     0.031 C 
ATOM     21  C   UNL A   1      43.168  27.693  33.253  1.00  0.00     0.029 A 
ATOM     22  C   UNL A   1      42.512  28.787  33.955  1.00  0.00     0.049 A 
ATOM     23  H   UNL A   1      40.846  29.879  33.338  1.00  0.00     0.167 HD
ATOM     24  C   UNL A   1      37.557  32.301  31.728  1.00  0.00     0.037 A 
ATOM     25  C   UNL A   1      42.900  29.280  35.146  1.00  0.00     0.037 A 
ATOM     26  C   UNL A   1      37.813  32.802  33.056  1.00  0.00     0.049 A 
ATOM     27  C   UNL A   1      42.142  30.437  35.730  1.00  0.00     0.074 A 
ATOM     28  C   UNL A   1      37.119  33.775  33.753  1.00  0.00     0.029 A 
ATOM     29  N   UNL A   1      38.852  32.388  33.877  1.00  0.00    -0.354 N 
ATOM     30  N   UNL A   1      41.091  31.057  35.248  1.00  0.00    -0.248 NA
ATOM     31  C   UNL A   1      42.622  30.968  37.012  1.00  0.00     0.031 C 
ATOM     32  C   UNL A   1      37.776  33.998  34.966  1.00  0.00     0.029 A 
ATOM     33  C   UNL A   1      38.847  33.123  35.051  1.00  0.00     0.049 A 
ATOM     34  H   UNL A   1      39.496  31.677  33.658  1.00  0.00     0.167 HD
ATOM     35  C   UNL A   1      40.782  32.049  36.170  1.00  0.00     0.074 A 
ATOM     36  C   UNL A   1      41.736  31.924  37.254  1.00  0.00     0.031 C 
ATOM     37  C   UNL A   1      39.805  32.985  36.119  1.00  0.00     0.037 A 
BRANCH  24  38
ATOM     38  C   UNL A   1      36.476  32.979  30.932  1.00  0.00     0.058 A 
ATOM     39  C   UNL A   1      35.116  32.809  31.231  1.00  0.00     0.135 A 
ATOM     40  C   UNL A   1      36.815  33.910  29.933  1.00  0.00     0.135 A 
ATOM     41  F   UNL A   1      34.734  31.924  32.165  1.00  0.00    -0.206 F 
ATOM     42  C   UNL A   1      34.131  33.541  30.573  1.00  0.00     0.059 A 
ATOM     43  C   UNL A   1      35.849  34.667  29.279  1.00  0.00     0.059 A 
ATOM     44  F   UNL A   1      38.102  34.109  29.607  1.00  0.00    -0.206 F 
ATOM     45  C   UNL A   1      34.508  34.475  29.606  1.00  0.00     0.060 A 
BRANCH  45  46
ATOM     46  S   UNL A   1      33.220  35.456  28.805  1.00  0.00     0.124 S 
ATOM     47  O   UNL A   1      32.495  35.983  29.958  1.00  0.00    -0.237 OA
ATOM     48  O   UNL A   1      33.998  36.431  28.048  1.00  0.00    -0.237 OA
ATOM     49  O   UNL A   1      32.493  34.477  28.002  1.00  0.00    -0.744 OA
ENDBRANCH  45  46
ENDBRANCH  24  38
BRANCH  25  50
ATOM     50  C   UNL A   1      44.098  28.723  35.828  1.00  0.00     0.058 A 
ATOM     51  C   UNL A   1      45.379  29.241  35.594  1.00  0.00     0.135 A 
ATOM     52  C   UNL A   1      43.982  27.646  36.723  1.00  0.00     0.135 A 
ATOM     53  F   UNL A   1      45.540  30.270  34.747  1.00  0.00    -0.206 F 
ATOM     54  C   UNL A   1      46.506  28.693  36.195  1.00  0.00     0.059 A 
ATOM     55  C   UNL A   1      45.090  27.102  37.362  1.00  0.00     0.059 A 
ATOM     56  F   UNL A   1      42.777  27.124  36.999  1.00  0.00    -0.206 F 
ATOM     57  C   UNL A   1      46.351  27.619  37.074  1.00  0.00     0.060 A 
BRANCH  57  58
ATOM     58  S   UNL A   1      47.820  26.913  37.850  1.00  0.00     0.124 S 
ATOM     59  O   UNL A   1      47.477  25.497  37.889  1.00  0.00    -0.237 OA
ATOM     60  O   UNL A   1      48.874  27.290  36.913  1.00  0.00    -0.237 OA
ATOM     61  O   UNL A   1      47.872  27.588  39.144  1.00  0.00    -0.744 OA
ENDBRANCH  57  58
ENDBRANCH  25  50
BRANCH  37  62
ATOM     62  C   UNL A   1      39.713  33.947  37.270  1.00  0.00     0.058 A 
ATOM     63  C   UNL A   1      40.289  35.225  37.202  1.00  0.00     0.135 A 
ATOM     64  C   UNL A   1      38.989  33.612  38.426  1.00  0.00     0.135 A 
ATOM     65  F   UNL A   1      41.003  35.588  36.125  1.00  0.00    -0.206 F 
ATOM     66  C   UNL A   1      40.161  36.135  38.246  1.00  0.00     0.059 A 
ATOM     67  C   UNL A   1      38.823  34.517  39.469  1.00  0.00     0.059 A 
ATOM     68  F   UNL A   1      38.415  32.405  38.538  1.00  0.00    -0.206 F 
ATOM     69  C   UNL A   1      39.418  35.775  39.371  1.00  0.00     0.060 A 
BRANCH  69  70
ATOM     70  S   UNL A   1      39.211  36.989  40.691  1.00  0.00     0.124 S 
ATOM     71  O   UNL A   1      38.531  36.201  41.713  1.00  0.00    -0.237 OA
ATOM     72  O   UNL A   1      40.590  37.361  40.990  1.00  0.00    -0.237 OA
ATOM     73  O   UNL A   1      38.407  38.035  40.067  1.00  0.00    -0.744 OA
ENDBRANCH  69  70
ENDBRANCH  37  62
ENDBRANCH  11  12
ENDBRANCH   4   6
ENDBRANCH   1   2
BRANCH   1  74
ATOM     74  C   UNL A   1      40.781  22.278  27.450  1.00  0.00     0.042 C 
BRANCH  74  75
ATOM     75  C   UNL A   1      39.509  22.784  26.787  1.00  0.00     0.117 C 
BRANCH  75  76
ATOM     76  N   UNL A   1      38.915  21.813  25.895  1.00  0.00    -0.354 N 
ATOM     77  C   UNL A   1      37.784  21.849  25.149  1.00  0.00     0.249 C 
ATOM     78  H   UNL A   1      39.424  20.974  25.816  1.00  0.00     0.163 HD
ATOM     79  O   UNL A   1      37.673  20.948  24.312  1.00  0.00    -0.272 OA
BRANCH  77  80
ATOM     80  C   UNL A   1      36.710  22.945  25.328  1.00  0.00     0.211 C 
ATOM     81  C   UNL A   1      36.308  23.505  23.967  1.00  0.00     0.085 C 
ATOM     82  O   UNL A   1      35.540  22.430  25.969  1.00  0.00    -0.357 OA
ATOM     83  C   UNL A   1      34.780  23.476  23.921  1.00  0.00     0.123 C 
ATOM     84  C   UNL A   1      34.410  22.486  25.070  1.00  0.00     0.186 C 
BRANCH  83  85
ATOM     85  C   UNL A   1      34.234  24.915  23.980  1.00  0.00    -0.013 A 
ATOM     86  C   UNL A   1      33.692  25.468  22.793  1.00  0.00     0.008 A 
ATOM     87  C   UNL A   1      34.174  25.707  25.136  1.00  0.00     0.008 A 
ATOM     88  C   UNL A   1      33.099  26.732  22.766  1.00  0.00     0.021 A 
ATOM     89  C   UNL A   1      33.568  26.973  25.115  1.00  0.00     0.021 A 
ATOM     90  C   UNL A   1      33.028  27.476  23.935  1.00  0.00     0.041 A 
ATOM     91  Cl  UNL A   1      32.258  29.015  23.925  1.00  0.00    -0.084 Cl
ENDBRANCH  83  85
BRANCH  83  92
ATOM     92  O   UNL A   1      34.328  23.022  22.635  1.00  0.00    -0.382 OA
ATOM     93  H   UNL A   1      34.312  23.769  22.016  1.00  0.00     0.212 HD
ENDBRANCH  83  92
BRANCH  84  94
ATOM     94  C   UNL A   1      34.019  21.044  24.749  1.00  0.00    -0.016 A 
ATOM     95  C   UNL A   1      32.797  20.700  24.155  1.00  0.00     0.008 A 
ATOM     96  C   UNL A   1      34.949  20.010  24.964  1.00  0.00     0.008 A 
ATOM     97  C   UNL A   1      32.523  19.392  23.747  1.00  0.00     0.021 A 
ATOM     98  C   UNL A   1      34.674  18.694  24.571  1.00  0.00     0.021 A 
ATOM     99  C   UNL A   1      33.466  18.394  23.950  1.00  0.00     0.041 A 
ATOM    100  Cl  UNL A   1      33.142  16.791  23.418  1.00  0.00    -0.084 Cl
ENDBRANCH  84  94
ENDBRANCH  77  80
ENDBRANCH  75  76
ENDBRANCH  74  75
ENDBRANCH   1  74
TORSDOF 16
ENDMDL
