MODEL 1
REMARK VINA RESULT:     -15.3      0.000      0.000
REMARK SMILES Cc1coc2cc3c(cc12)[C@@H](C)[C@H](CCC(=O)N[C@@H](Cc1c[nH]c2ccccc12)C(=O)NCCCNC(=O)c1ccc(-c2c4nc(c(-c5c(F)cc(S(=O)(=O)[O-])cc5F)c5ccc([nH]5)c(-c5c(F)cc(S(=O)(=O)[O-])cc5F)c5nc(c(-c6c(F)cc(S(=O)(=O)[O-])cc6F)c6ccc2[nH]6)C=C5)C=C4)cc1)C(=O)O3
REMARK SMILES IDX 33 1 32 2 30 3 31 4 19 6 18 7 16 8 17 9 15 11 14 12 13 13
REMARK SMILES IDX 1 14 2 15 3 16 10 17 4 18 5 19 9 20 6 21 8 22 7 23 11 24
REMARK SMILES IDX 107 25 12 26 105 27 106 28 20 29 21 30 22 31 29 32 23 33
REMARK SMILES IDX 24 34 28 35 25 37 27 38 26 39 34 40 35 41 36 42 37 43 38 45
REMARK SMILES IDX 39 46 40 47 104 48 41 49 103 50 42 51 43 52 44 53 97 54
REMARK SMILES IDX 45 55 102 56 96 57 98 58 46 59 101 60 95 61 94 62 47 64
REMARK SMILES IDX 81 65 60 66 80 67 61 68 64 69 79 70 99 71 62 72 63 73 78 75
REMARK SMILES IDX 100 76 65 77 48 78 49 79 58 80 50 81 51 82 57 83 59 84 52 85
REMARK SMILES IDX 53 86 54 87 55 88 56 89 82 90 83 91 92 92 84 93 85 94 91 95
REMARK SMILES IDX 93 96 86 97 87 98 88 99 89 100 90 101 66 102 67 103 76 104
REMARK SMILES IDX 68 105 69 106 75 107 77 108 70 109 71 110 72 111 73 112
REMARK SMILES IDX 74 113
REMARK H PARENT 32 5 18 10 23 36 36 44 98 63 64 74
REMARK Flexibility Score: inf
ROOT
ATOM      1  C   UNL A   1      35.830  20.752  25.056  1.00  0.00     0.117 C 
ENDROOT
BRANCH   1   2
ATOM      2  N   UNL A   1      35.387  21.226  26.343  1.00  0.00    -0.354 N 
ATOM      3  C   UNL A   1      34.166  21.740  26.651  1.00  0.00     0.242 C 
ATOM      4  O   UNL A   1      33.832  21.736  27.843  1.00  0.00    -0.273 OA
ATOM      5  H   UNL A   1      36.039  21.171  27.079  1.00  0.00     0.163 HD
BRANCH   3   6
ATOM      6  C   UNL A   1      33.191  22.256  25.575  1.00  0.00     0.175 C 
BRANCH   6   7
ATOM      7  N   UNL A   1      33.815  22.945  24.429  1.00  0.00    -0.344 N 
ATOM      8  C   UNL A   1      34.436  24.155  24.337  1.00  0.00     0.220 C 
ATOM      9  O   UNL A   1      35.015  24.430  23.283  1.00  0.00    -0.275 OA
ATOM     10  H   UNL A   1      33.774  22.443  23.583  1.00  0.00     0.164 HD
BRANCH   8  11
ATOM     11  C   UNL A   1      34.424  25.173  25.474  1.00  0.00     0.101 C 
BRANCH  11  12
ATOM     12  C   UNL A   1      33.883  26.555  25.055  1.00  0.00     0.026 C 
BRANCH  12  13
ATOM     13  C   UNL A   1      32.676  26.979  25.898  1.00  0.00     0.107 C 
ATOM     14  C   UNL A   1      29.100  32.348  22.905  1.00  0.00     0.048 C 
ATOM     15  C   UNL A   1      28.786  30.903  22.857  1.00  0.00    -0.005 A 
ATOM     16  C   UNL A   1      27.736  30.297  22.198  1.00  0.00     0.199 A 
ATOM     17  C   UNL A   1      29.509  29.846  23.478  1.00  0.00     0.024 A 
ATOM     18  O   UNL A   1      27.777  28.949  22.347  1.00  0.00    -0.464 OA
ATOM     19  C   UNL A   1      28.862  28.672  23.118  1.00  0.00     0.137 A 
ATOM     20  C   UNL A   1      30.640  29.766  24.307  1.00  0.00     0.020 A 
ATOM     21  C   UNL A   1      29.273  27.406  23.499  1.00  0.00     0.095 A 
ATOM     22  C   UNL A   1      31.073  28.507  24.752  1.00  0.00    -0.001 A 
ATOM     23  C   UNL A   1      30.397  27.361  24.325  1.00  0.00     0.138 A 
ATOM     24  C   UNL A   1      32.217  28.426  25.721  1.00  0.00     0.034 C 
ATOM     25  O   UNL A   1      30.742  26.072  24.738  1.00  0.00    -0.426 OA
ATOM     26  C   UNL A   1      31.810  29.047  27.072  1.00  0.00     0.014 C 
ATOM     27  C   UNL A   1      31.551  25.982  25.834  1.00  0.00     0.314 C 
ATOM     28  O   UNL A   1      31.403  25.087  26.669  1.00  0.00    -0.251 OA
ENDBRANCH  12  13
ENDBRANCH  11  12
ENDBRANCH   8  11
ENDBRANCH   6   7
BRANCH   6  29
ATOM     29  C   UNL A   1      32.031  21.290  25.216  1.00  0.00     0.072 C 
BRANCH  29  30
ATOM     30  C   UNL A   1      32.217  20.172  24.249  1.00  0.00    -0.020 A 
ATOM     31  C   UNL A   1      32.128  20.254  22.873  1.00  0.00     0.087 A 
ATOM     32  C   UNL A   1      32.669  18.843  24.554  1.00  0.00     0.003 A 
ATOM     33  N   UNL A   1      32.323  18.998  22.358  1.00  0.00    -0.361 N 
ATOM     34  C   UNL A   1      32.657  18.120  23.362  1.00  0.00     0.046 A 
ATOM     35  C   UNL A   1      33.090  18.185  25.731  1.00  0.00     0.010 A 
ATOM     36  H   UNL A   1      32.236  18.759  21.407  1.00  0.00     0.166 HD
ATOM     37  C   UNL A   1      32.962  16.755  23.301  1.00  0.00     0.026 A 
ATOM     38  C   UNL A   1      33.445  16.831  25.678  1.00  0.00     0.001 A 
ATOM     39  C   UNL A   1      33.358  16.124  24.483  1.00  0.00     0.002 A 
ENDBRANCH  29  30
ENDBRANCH   6  29
ENDBRANCH   3   6
ENDBRANCH   1   2
BRANCH   1  40
ATOM     40  C   UNL A   1      37.042  21.470  24.512  1.00  0.00     0.042 C 
BRANCH  40  41
ATOM     41  C   UNL A   1      37.788  22.310  25.555  1.00  0.00     0.118 C 
BRANCH  41  42
ATOM     42  N   UNL A   1      39.177  21.933  25.780  1.00  0.00    -0.352 N 
ATOM     43  C   UNL A   1      40.222  22.438  26.502  1.00  0.00     0.251 C 
ATOM     44  H   UNL A   1      39.423  21.114  25.292  1.00  0.00     0.163 HD
ATOM     45  O   UNL A   1      41.257  21.764  26.500  1.00  0.00    -0.269 OA
BRANCH  43  46
ATOM     46  C   UNL A   1      40.224  23.733  27.229  1.00  0.00     0.039 A 
ATOM     47  C   UNL A   1      39.216  24.686  27.143  1.00  0.00     0.014 A 
ATOM     48  C   UNL A   1      41.381  24.051  27.967  1.00  0.00     0.014 A 
ATOM     49  C   UNL A   1      39.396  25.953  27.678  1.00  0.00     0.010 A 
ATOM     50  C   UNL A   1      41.550  25.308  28.548  1.00  0.00     0.010 A 
ATOM     51  C   UNL A   1      40.570  26.277  28.367  1.00  0.00    -0.014 A 
BRANCH  51  52
ATOM     52  C   UNL A   1      40.629  27.604  28.975  1.00  0.00     0.031 A 
ATOM     53  C   UNL A   1      41.700  28.479  28.421  1.00  0.00     0.074 A 
ATOM     54  C   UNL A   1      39.799  28.078  29.923  1.00  0.00     0.049 A 
ATOM     55  N   UNL A   1      42.798  28.851  28.996  1.00  0.00    -0.248 NA
ATOM     56  C   UNL A   1      41.606  28.859  27.005  1.00  0.00     0.031 C 
ATOM     57  C   UNL A   1      38.551  27.498  30.423  1.00  0.00     0.029 A 
ATOM     58  N   UNL A   1      39.890  29.255  30.612  1.00  0.00    -0.354 N 
ATOM     59  C   UNL A   1      43.444  29.684  28.087  1.00  0.00     0.074 A 
ATOM     60  C   UNL A   1      42.748  29.528  26.836  1.00  0.00     0.031 C 
ATOM     61  C   UNL A   1      37.907  28.411  31.186  1.00  0.00     0.029 A 
ATOM     62  C   UNL A   1      38.760  29.576  31.352  1.00  0.00     0.049 A 
ATOM     63  H   UNL A   1      40.691  29.827  30.586  1.00  0.00     0.167 HD
ATOM     64  C   UNL A   1      44.375  30.593  28.489  1.00  0.00     0.037 A 
ATOM     65  C   UNL A   1      38.538  30.731  32.031  1.00  0.00     0.037 A 
ATOM     66  C   UNL A   1      44.886  30.277  29.799  1.00  0.00     0.049 A 
ATOM     67  C   UNL A   1      39.865  31.318  32.339  1.00  0.00     0.074 A 
ATOM     68  C   UNL A   1      45.578  29.218  30.352  1.00  0.00     0.029 A 
ATOM     69  N   UNL A   1      44.403  31.002  30.860  1.00  0.00    -0.354 N 
ATOM     70  N   UNL A   1      40.730  30.781  33.156  1.00  0.00    -0.248 NA
ATOM     71  C   UNL A   1      40.401  32.328  31.441  1.00  0.00     0.031 C 
ATOM     72  C   UNL A   1      45.086  29.105  31.686  1.00  0.00     0.029 A 
ATOM     73  C   UNL A   1      44.151  30.123  31.882  1.00  0.00     0.049 A 
ATOM     74  H   UNL A   1      44.263  31.976  30.884  1.00  0.00     0.167 HD
ATOM     75  C   UNL A   1      41.968  31.069  32.602  1.00  0.00     0.074 A 
ATOM     76  C   UNL A   1      41.706  32.118  31.621  1.00  0.00     0.031 C 
ATOM     77  C   UNL A   1      43.039  30.248  32.800  1.00  0.00     0.037 A 
BRANCH  64  78
ATOM     78  C   UNL A   1      44.552  31.962  27.866  1.00  0.00     0.058 A 
ATOM     79  C   UNL A   1      45.714  32.234  27.111  1.00  0.00     0.135 A 
ATOM     80  C   UNL A   1      43.786  33.092  28.226  1.00  0.00     0.135 A 
ATOM     81  F   UNL A   1      46.519  31.237  26.709  1.00  0.00    -0.206 F 
ATOM     82  C   UNL A   1      46.129  33.534  26.818  1.00  0.00     0.059 A 
ATOM     83  C   UNL A   1      44.154  34.393  27.898  1.00  0.00     0.059 A 
ATOM     84  F   UNL A   1      42.695  33.007  28.996  1.00  0.00    -0.206 F 
ATOM     85  C   UNL A   1      45.350  34.608  27.237  1.00  0.00     0.060 A 
BRANCH  85  86
ATOM     86  S   UNL A   1      45.945  36.288  26.976  1.00  0.00     0.124 S 
ATOM     87  O   UNL A   1      46.699  36.138  25.737  1.00  0.00    -0.237 OA
ATOM     88  O   UNL A   1      44.697  37.038  26.880  1.00  0.00    -0.237 OA
ATOM     89  O   UNL A   1      46.739  36.552  28.172  1.00  0.00    -0.744 OA
ENDBRANCH  85  86
ENDBRANCH  64  78
BRANCH  65  90
ATOM     90  C   UNL A   1      37.275  31.512  32.144  1.00  0.00     0.058 A 
ATOM     91  C   UNL A   1      36.844  32.019  33.385  1.00  0.00     0.135 A 
ATOM     92  C   UNL A   1      36.631  32.035  31.006  1.00  0.00     0.135 A 
ATOM     93  F   UNL A   1      37.409  31.590  34.525  1.00  0.00    -0.206 F 
ATOM     94  C   UNL A   1      35.885  33.034  33.486  1.00  0.00     0.059 A 
ATOM     95  C   UNL A   1      35.665  33.038  31.082  1.00  0.00     0.059 A 
ATOM     96  F   UNL A   1      36.990  31.654  29.770  1.00  0.00    -0.206 F 
ATOM     97  C   UNL A   1      35.320  33.557  32.325  1.00  0.00     0.060 A 
BRANCH  97  98
ATOM     98  S   UNL A   1      34.227  34.993  32.436  1.00  0.00     0.124 S 
ATOM     99  O   UNL A   1      32.981  34.390  32.899  1.00  0.00    -0.237 OA
ATOM    100  O   UNL A   1      34.924  35.835  33.403  1.00  0.00    -0.237 OA
ATOM    101  O   UNL A   1      34.201  35.507  31.071  1.00  0.00    -0.744 OA
ENDBRANCH  97  98
ENDBRANCH  65  90
BRANCH  77 102
ATOM    102  C   UNL A   1      42.958  29.221  33.900  1.00  0.00     0.058 A 
ATOM    103  C   UNL A   1      43.308  29.466  35.240  1.00  0.00     0.135 A 
ATOM    104  C   UNL A   1      42.338  27.994  33.613  1.00  0.00     0.135 A 
ATOM    105  F   UNL A   1      43.822  30.645  35.615  1.00  0.00    -0.206 F 
ATOM    106  C   UNL A   1      43.070  28.525  36.244  1.00  0.00     0.059 A 
ATOM    107  C   UNL A   1      42.064  27.055  34.603  1.00  0.00     0.059 A 
ATOM    108  F   UNL A   1      41.932  27.724  32.362  1.00  0.00    -0.206 F 
ATOM    109  C   UNL A   1      42.437  27.326  35.918  1.00  0.00     0.060 A 
BRANCH 109 110
ATOM    110  S   UNL A   1      42.023  26.165  37.240  1.00  0.00     0.124 S 
ATOM    111  O   UNL A   1      42.189  24.875  36.579  1.00  0.00    -0.237 OA
ATOM    112  O   UNL A   1      43.014  26.484  38.263  1.00  0.00    -0.237 OA
ATOM    113  O   UNL A   1      40.647  26.518  37.585  1.00  0.00    -0.744 OA
ENDBRANCH 109 110
ENDBRANCH  77 102
ENDBRANCH  51  52
ENDBRANCH  43  46
ENDBRANCH  41  42
ENDBRANCH  40  41
ENDBRANCH   1  40
TORSDOF 19
ENDMDL
MODEL 2
REMARK VINA RESULT:     -15.0      1.149      2.082
REMARK SMILES Cc1coc2cc3c(cc12)[C@@H](C)[C@H](CCC(=O)N[C@@H](Cc1c[nH]c2ccccc12)C(=O)NCCCNC(=O)c1ccc(-c2c4nc(c(-c5c(F)cc(S(=O)(=O)[O-])cc5F)c5ccc([nH]5)c(-c5c(F)cc(S(=O)(=O)[O-])cc5F)c5nc(c(-c6c(F)cc(S(=O)(=O)[O-])cc6F)c6ccc2[nH]6)C=C5)C=C4)cc1)C(=O)O3
REMARK SMILES IDX 33 1 32 2 30 3 31 4 19 6 18 7 16 8 17 9 15 11 14 12 13 13
REMARK SMILES IDX 1 14 2 15 3 16 10 17 4 18 5 19 9 20 6 21 8 22 7 23 11 24
REMARK SMILES IDX 107 25 12 26 105 27 106 28 20 29 21 30 22 31 29 32 23 33
REMARK SMILES IDX 24 34 28 35 25 37 27 38 26 39 34 40 35 41 36 42 37 43 38 45
REMARK SMILES IDX 39 46 40 47 104 48 41 49 103 50 42 51 43 52 44 53 97 54
REMARK SMILES IDX 45 55 102 56 96 57 98 58 46 59 101 60 95 61 94 62 47 64
REMARK SMILES IDX 81 65 60 66 80 67 61 68 64 69 79 70 99 71 62 72 63 73 78 75
REMARK SMILES IDX 100 76 65 77 48 78 49 79 58 80 50 81 51 82 57 83 59 84 52 85
REMARK SMILES IDX 53 86 54 87 55 88 56 89 82 90 83 91 92 92 84 93 85 94 91 95
REMARK SMILES IDX 93 96 86 97 87 98 88 99 89 100 90 101 66 102 67 103 76 104
REMARK SMILES IDX 68 105 69 106 75 107 77 108 70 109 71 110 72 111 73 112
REMARK SMILES IDX 74 113
REMARK H PARENT 32 5 18 10 23 36 36 44 98 63 64 74
REMARK Flexibility Score: inf
ROOT
ATOM      1  C   UNL A   1      35.986  20.895  25.107  1.00  0.00     0.117 C 
ENDROOT
BRANCH   1   2
ATOM      2  N   UNL A   1      35.484  21.598  26.261  1.00  0.00    -0.354 N 
ATOM      3  C   UNL A   1      34.239  22.116  26.427  1.00  0.00     0.242 C 
ATOM      4  O   UNL A   1      33.865  22.337  27.586  1.00  0.00    -0.273 OA
ATOM      5  H   UNL A   1      36.113  21.715  27.010  1.00  0.00     0.163 HD
BRANCH   3   6
ATOM      6  C   UNL A   1      33.284  22.371  25.244  1.00  0.00     0.175 C 
BRANCH   6   7
ATOM      7  N   UNL A   1      33.927  22.821  23.994  1.00  0.00    -0.344 N 
ATOM      8  C   UNL A   1      33.444  23.543  22.943  1.00  0.00     0.220 C 
ATOM      9  O   UNL A   1      34.244  23.921  22.084  1.00  0.00    -0.275 OA
ATOM     10  H   UNL A   1      34.870  22.552  23.904  1.00  0.00     0.164 HD
BRANCH   8  11
ATOM     11  C   UNL A   1      31.963  23.878  22.789  1.00  0.00     0.101 C 
BRANCH  11  12
ATOM     12  C   UNL A   1      31.644  25.371  23.011  1.00  0.00     0.026 C 
BRANCH  12  13
ATOM     13  C   UNL A   1      31.112  25.640  24.422  1.00  0.00     0.107 C 
ATOM     14  C   UNL A   1      35.711  29.415  28.317  1.00  0.00     0.048 C 
ATOM     15  C   UNL A   1      34.523  29.902  27.582  1.00  0.00    -0.005 A 
ATOM     16  C   UNL A   1      34.073  31.203  27.487  1.00  0.00     0.199 A 
ATOM     17  C   UNL A   1      33.606  29.124  26.821  1.00  0.00     0.024 A 
ATOM     18  O   UNL A   1      32.968  31.283  26.704  1.00  0.00    -0.464 OA
ATOM     19  C   UNL A   1      32.688  30.019  26.289  1.00  0.00     0.137 A 
ATOM     20  C   UNL A   1      33.461  27.757  26.531  1.00  0.00     0.020 A 
ATOM     21  C   UNL A   1      31.640  29.661  25.459  1.00  0.00     0.095 A 
ATOM     22  C   UNL A   1      32.390  27.340  25.725  1.00  0.00    -0.001 A 
ATOM     23  C   UNL A   1      31.521  28.296  25.194  1.00  0.00     0.138 A 
ATOM     24  C   UNL A   1      32.172  25.871  25.499  1.00  0.00     0.034 C 
ATOM     25  O   UNL A   1      30.416  27.969  24.404  1.00  0.00    -0.426 OA
ATOM     26  C   UNL A   1      31.775  25.187  26.822  1.00  0.00     0.014 C 
ATOM     27  C   UNL A   1      30.011  26.666  24.436  1.00  0.00     0.314 C 
ATOM     28  O   UNL A   1      28.817  26.364  24.400  1.00  0.00    -0.251 OA
ENDBRANCH  12  13
ENDBRANCH  11  12
ENDBRANCH   8  11
ENDBRANCH   6   7
BRANCH   6  29
ATOM     29  C   UNL A   1      32.155  21.323  25.068  1.00  0.00     0.072 C 
BRANCH  29  30
ATOM     30  C   UNL A   1      32.302  20.164  24.143  1.00  0.00    -0.020 A 
ATOM     31  C   UNL A   1      32.159  20.188  22.769  1.00  0.00     0.087 A 
ATOM     32  C   UNL A   1      32.765  18.848  24.485  1.00  0.00     0.003 A 
ATOM     33  N   UNL A   1      32.333  18.911  22.301  1.00  0.00    -0.361 N 
ATOM     34  C   UNL A   1      32.705  18.076  23.326  1.00  0.00     0.046 A 
ATOM     35  C   UNL A   1      33.231  18.240  25.672  1.00  0.00     0.010 A 
ATOM     36  H   UNL A   1      32.208  18.633  21.364  1.00  0.00     0.166 HD
ATOM     37  C   UNL A   1      33.006  16.708  23.312  1.00  0.00     0.026 A 
ATOM     38  C   UNL A   1      33.582  16.884  25.662  1.00  0.00     0.001 A 
ATOM     39  C   UNL A   1      33.448  16.127  24.503  1.00  0.00     0.002 A 
ENDBRANCH  29  30
ENDBRANCH   6  29
ENDBRANCH   3   6
ENDBRANCH   1   2
BRANCH   1  40
ATOM     40  C   UNL A   1      37.485  20.715  25.091  1.00  0.00     0.042 C 
BRANCH  40  41
ATOM     41  C   UNL A   1      38.255  21.835  25.801  1.00  0.00     0.118 C 
BRANCH  41  42
ATOM     42  N   UNL A   1      39.706  21.715  25.759  1.00  0.00    -0.352 N 
ATOM     43  C   UNL A   1      40.760  22.422  26.269  1.00  0.00     0.251 C 
ATOM     44  H   UNL A   1      40.000  20.934  25.237  1.00  0.00     0.163 HD
ATOM     45  O   UNL A   1      41.880  21.940  26.073  1.00  0.00    -0.269 OA
BRANCH  43  46
ATOM     46  C   UNL A   1      40.665  23.724  26.977  1.00  0.00     0.039 A 
ATOM     47  C   UNL A   1      39.727  24.710  26.691  1.00  0.00     0.014 A 
ATOM     48  C   UNL A   1      41.665  24.011  27.926  1.00  0.00     0.014 A 
ATOM     49  C   UNL A   1      39.844  25.976  27.246  1.00  0.00     0.010 A 
ATOM     50  C   UNL A   1      41.761  25.267  28.524  1.00  0.00     0.010 A 
ATOM     51  C   UNL A   1      40.871  26.266  28.151  1.00  0.00    -0.014 A 
BRANCH  51  52
ATOM     52  C   UNL A   1      40.856  27.597  28.754  1.00  0.00     0.031 A 
ATOM     53  C   UNL A   1      41.927  28.504  28.252  1.00  0.00     0.074 A 
ATOM     54  C   UNL A   1      39.962  28.049  29.655  1.00  0.00     0.049 A 
ATOM     55  N   UNL A   1      42.980  28.912  28.881  1.00  0.00    -0.248 NA
ATOM     56  C   UNL A   1      41.895  28.875  26.831  1.00  0.00     0.031 C 
ATOM     57  C   UNL A   1      38.709  27.431  30.091  1.00  0.00     0.029 A 
ATOM     58  N   UNL A   1      39.980  29.231  30.340  1.00  0.00    -0.354 N 
ATOM     59  C   UNL A   1      43.647  29.762  28.003  1.00  0.00     0.074 A 
ATOM     60  C   UNL A   1      43.024  29.578  26.718  1.00  0.00     0.031 C 
ATOM     61  C   UNL A   1      37.997  28.327  30.814  1.00  0.00     0.029 A 
ATOM     62  C   UNL A   1      38.803  29.519  31.018  1.00  0.00     0.049 A 
ATOM     63  H   UNL A   1      40.763  29.827  30.354  1.00  0.00     0.167 HD
ATOM     64  C   UNL A   1      44.527  30.701  28.448  1.00  0.00     0.037 A 
ATOM     65  C   UNL A   1      38.509  30.669  31.678  1.00  0.00     0.037 A 
ATOM     66  C   UNL A   1      44.978  30.406  29.785  1.00  0.00     0.049 A 
ATOM     67  C   UNL A   1      39.800  31.298  32.052  1.00  0.00     0.074 A 
ATOM     68  C   UNL A   1      45.673  29.372  30.380  1.00  0.00     0.029 A 
ATOM     69  N   UNL A   1      44.417  31.120  30.816  1.00  0.00    -0.354 N 
ATOM     70  N   UNL A   1      40.637  30.793  32.916  1.00  0.00    -0.248 NA
ATOM     71  C   UNL A   1      40.351  32.321  31.178  1.00  0.00     0.031 C 
ATOM     72  C   UNL A   1      45.115  29.249  31.687  1.00  0.00     0.029 A 
ATOM     73  C   UNL A   1      44.139  30.238  31.828  1.00  0.00     0.049 A 
ATOM     74  H   UNL A   1      44.245  32.089  30.827  1.00  0.00     0.167 HD
ATOM     75  C   UNL A   1      41.892  31.117  32.426  1.00  0.00     0.074 A 
ATOM     76  C   UNL A   1      41.650  32.154  31.427  1.00  0.00     0.031 C 
ATOM     77  C   UNL A   1      42.977  30.331  32.685  1.00  0.00     0.037 A 
BRANCH  64  78
ATOM     78  C   UNL A   1      44.693  32.072  27.828  1.00  0.00     0.058 A 
ATOM     79  C   UNL A   1      45.872  32.368  27.109  1.00  0.00     0.135 A 
ATOM     80  C   UNL A   1      43.892  33.186  28.161  1.00  0.00     0.135 A 
ATOM     81  F   UNL A   1      46.711  31.388  26.735  1.00  0.00    -0.206 F 
ATOM     82  C   UNL A   1      46.268  33.676  26.826  1.00  0.00     0.059 A 
ATOM     83  C   UNL A   1      44.242  34.494  27.842  1.00  0.00     0.059 A 
ATOM     84  F   UNL A   1      42.780  33.078  28.896  1.00  0.00    -0.206 F 
ATOM     85  C   UNL A   1      45.454  34.734  27.218  1.00  0.00     0.060 A 
BRANCH  85  86
ATOM     86  S   UNL A   1      46.019  36.426  26.971  1.00  0.00     0.124 S 
ATOM     87  O   UNL A   1      44.754  37.148  26.912  1.00  0.00    -0.237 OA
ATOM     88  O   UNL A   1      46.830  36.650  28.164  1.00  0.00    -0.237 OA
ATOM     89  O   UNL A   1      46.764  36.351  25.718  1.00  0.00    -0.744 OA
ENDBRANCH  85  86
ENDBRANCH  64  78
BRANCH  65  90
ATOM     90  C   UNL A   1      37.219  31.410  31.720  1.00  0.00     0.058 A 
ATOM     91  C   UNL A   1      36.595  31.712  32.946  1.00  0.00     0.135 A 
ATOM     92  C   UNL A   1      36.731  32.099  30.592  1.00  0.00     0.135 A 
ATOM     93  F   UNL A   1      37.001  31.115  34.077  1.00  0.00    -0.206 F 
ATOM     94  C   UNL A   1      35.598  32.689  33.058  1.00  0.00     0.059 A 
ATOM     95  C   UNL A   1      35.732  33.068  30.677  1.00  0.00     0.059 A 
ATOM     96  F   UNL A   1      37.279  31.921  29.381  1.00  0.00    -0.206 F 
ATOM     97  C   UNL A   1      35.192  33.382  31.920  1.00  0.00     0.060 A 
BRANCH  97  98
ATOM     98  S   UNL A   1      34.048  34.773  32.086  1.00  0.00     0.124 S 
ATOM     99  O   UNL A   1      33.085  34.258  33.055  1.00  0.00    -0.237 OA
ATOM    100  O   UNL A   1      34.925  35.837  32.563  1.00  0.00    -0.237 OA
ATOM    101  O   UNL A   1      33.534  34.953  30.733  1.00  0.00    -0.744 OA
ENDBRANCH  97  98
ENDBRANCH  65  90
BRANCH  77 102
ATOM    102  C   UNL A   1      42.870  29.307  33.786  1.00  0.00     0.058 A 
ATOM    103  C   UNL A   1      43.097  29.579  35.147  1.00  0.00     0.135 A 
ATOM    104  C   UNL A   1      42.350  28.043  33.462  1.00  0.00     0.135 A 
ATOM    105  F   UNL A   1      43.507  30.789  35.550  1.00  0.00    -0.206 F 
ATOM    106  C   UNL A   1      42.836  28.630  36.137  1.00  0.00     0.059 A 
ATOM    107  C   UNL A   1      42.055  27.093  34.436  1.00  0.00     0.059 A 
ATOM    108  F   UNL A   1      42.063  27.742  32.185  1.00  0.00    -0.206 F 
ATOM    109  C   UNL A   1      42.305  27.393  35.774  1.00  0.00     0.060 A 
BRANCH 109 110
ATOM    110  S   UNL A   1      41.856  26.216  37.070  1.00  0.00     0.124 S 
ATOM    111  O   UNL A   1      41.801  24.957  36.335  1.00  0.00    -0.237 OA
ATOM    112  O   UNL A   1      42.962  26.349  38.014  1.00  0.00    -0.237 OA
ATOM    113  O   UNL A   1      40.571  26.714  37.554  1.00  0.00    -0.744 OA
ENDBRANCH 109 110
ENDBRANCH  77 102
ENDBRANCH  51  52
ENDBRANCH  43  46
ENDBRANCH  41  42
ENDBRANCH  40  41
ENDBRANCH   1  40
TORSDOF 19
ENDMDL
MODEL 3
REMARK VINA RESULT:     -14.1      1.418      2.518
REMARK SMILES Cc1coc2cc3c(cc12)[C@@H](C)[C@H](CCC(=O)N[C@@H](Cc1c[nH]c2ccccc12)C(=O)NCCCNC(=O)c1ccc(-c2c4nc(c(-c5c(F)cc(S(=O)(=O)[O-])cc5F)c5ccc([nH]5)c(-c5c(F)cc(S(=O)(=O)[O-])cc5F)c5nc(c(-c6c(F)cc(S(=O)(=O)[O-])cc6F)c6ccc2[nH]6)C=C5)C=C4)cc1)C(=O)O3
REMARK SMILES IDX 33 1 32 2 30 3 31 4 19 6 18 7 16 8 17 9 15 11 14 12 13 13
REMARK SMILES IDX 1 14 2 15 3 16 10 17 4 18 5 19 9 20 6 21 8 22 7 23 11 24
REMARK SMILES IDX 107 25 12 26 105 27 106 28 20 29 21 30 22 31 29 32 23 33
REMARK SMILES IDX 24 34 28 35 25 37 27 38 26 39 34 40 35 41 36 42 37 43 38 45
REMARK SMILES IDX 39 46 40 47 104 48 41 49 103 50 42 51 43 52 44 53 97 54
REMARK SMILES IDX 45 55 102 56 96 57 98 58 46 59 101 60 95 61 94 62 47 64
REMARK SMILES IDX 81 65 60 66 80 67 61 68 64 69 79 70 99 71 62 72 63 73 78 75
REMARK SMILES IDX 100 76 65 77 48 78 49 79 58 80 50 81 51 82 57 83 59 84 52 85
REMARK SMILES IDX 53 86 54 87 55 88 56 89 82 90 83 91 92 92 84 93 85 94 91 95
REMARK SMILES IDX 93 96 86 97 87 98 88 99 89 100 90 101 66 102 67 103 76 104
REMARK SMILES IDX 68 105 69 106 75 107 77 108 70 109 71 110 72 111 73 112
REMARK SMILES IDX 74 113
REMARK H PARENT 32 5 18 10 23 36 36 44 98 63 64 74
REMARK Flexibility Score: inf
ROOT
ATOM      1  C   UNL A   1      35.212  22.433  26.034  1.00  0.00     0.117 C 
ENDROOT
BRANCH   1   2
ATOM      2  N   UNL A   1      34.511  22.462  27.293  1.00  0.00    -0.354 N 
ATOM      3  C   UNL A   1      33.164  22.493  27.481  1.00  0.00     0.242 C 
ATOM      4  O   UNL A   1      32.736  22.134  28.585  1.00  0.00    -0.273 OA
ATOM      5  H   UNL A   1      35.068  22.459  28.106  1.00  0.00     0.163 HD
BRANCH   3   6
ATOM      6  C   UNL A   1      32.183  22.894  26.362  1.00  0.00     0.175 C 
BRANCH   6   7
ATOM      7  N   UNL A   1      31.252  23.989  26.696  1.00  0.00    -0.344 N 
ATOM      8  C   UNL A   1      30.424  24.736  25.911  1.00  0.00     0.220 C 
ATOM      9  O   UNL A   1      29.625  25.493  26.469  1.00  0.00    -0.275 OA
ATOM     10  H   UNL A   1      31.225  24.221  27.653  1.00  0.00     0.164 HD
BRANCH   8  11
ATOM     11  C   UNL A   1      30.466  24.681  24.386  1.00  0.00     0.101 C 
BRANCH  11  12
ATOM     12  C   UNL A   1      29.656  25.805  23.708  1.00  0.00     0.026 C 
BRANCH  12  13
ATOM     13  C   UNL A   1      30.562  26.827  23.015  1.00  0.00     0.107 C 
ATOM     14  C   UNL A   1      31.787  32.503  27.119  1.00  0.00     0.048 C 
ATOM     15  C   UNL A   1      32.655  31.324  26.909  1.00  0.00    -0.005 A 
ATOM     16  C   UNL A   1      33.883  31.075  27.489  1.00  0.00     0.199 A 
ATOM     17  C   UNL A   1      32.396  30.206  26.069  1.00  0.00     0.024 A 
ATOM     18  O   UNL A   1      34.380  29.879  27.089  1.00  0.00    -0.464 OA
ATOM     19  C   UNL A   1      33.471  29.343  26.232  1.00  0.00     0.137 A 
ATOM     20  C   UNL A   1      31.364  29.838  25.190  1.00  0.00     0.020 A 
ATOM     21  C   UNL A   1      33.589  28.115  25.602  1.00  0.00     0.095 A 
ATOM     22  C   UNL A   1      31.457  28.621  24.498  1.00  0.00    -0.001 A 
ATOM     23  C   UNL A   1      32.550  27.782  24.732  1.00  0.00     0.138 A 
ATOM     24  C   UNL A   1      30.408  28.274  23.480  1.00  0.00     0.034 C 
ATOM     25  O   UNL A   1      32.737  26.566  24.070  1.00  0.00    -0.426 OA
ATOM     26  C   UNL A   1      30.486  29.250  22.289  1.00  0.00     0.014 C 
ATOM     27  C   UNL A   1      31.994  26.371  22.941  1.00  0.00     0.314 C 
ATOM     28  O   UNL A   1      32.459  25.785  21.961  1.00  0.00    -0.251 OA
ENDBRANCH  12  13
ENDBRANCH  11  12
ENDBRANCH   8  11
ENDBRANCH   6   7
BRANCH   6  29
ATOM     29  C   UNL A   1      32.793  22.955  24.937  1.00  0.00     0.072 C 
BRANCH  29  30
ATOM     30  C   UNL A   1      32.494  21.914  23.915  1.00  0.00    -0.020 A 
ATOM     31  C   UNL A   1      32.091  22.135  22.612  1.00  0.00     0.087 A 
ATOM     32  C   UNL A   1      32.713  20.500  24.042  1.00  0.00     0.003 A 
ATOM     33  N   UNL A   1      31.882  20.918  22.018  1.00  0.00    -0.361 N 
ATOM     34  C   UNL A   1      32.256  19.904  22.868  1.00  0.00     0.046 A 
ATOM     35  C   UNL A   1      33.259  19.669  25.046  1.00  0.00     0.010 A 
ATOM     36  H   UNL A   1      31.515  20.788  21.113  1.00  0.00     0.166 HD
ATOM     37  C   UNL A   1      32.239  18.517  22.680  1.00  0.00     0.026 A 
ATOM     38  C   UNL A   1      33.293  18.282  24.853  1.00  0.00     0.001 A 
ATOM     39  C   UNL A   1      32.768  17.716  23.695  1.00  0.00     0.002 A 
ENDBRANCH  29  30
ENDBRANCH   6  29
ENDBRANCH   3   6
ENDBRANCH   1   2
BRANCH   1  40
ATOM     40  C   UNL A   1      36.369  23.400  25.944  1.00  0.00     0.042 C 
BRANCH  40  41
ATOM     41  C   UNL A   1      37.482  22.952  24.990  1.00  0.00     0.118 C 
BRANCH  41  42
ATOM     42  N   UNL A   1      38.555  22.182  25.605  1.00  0.00    -0.352 N 
ATOM     43  C   UNL A   1      39.489  22.411  26.578  1.00  0.00     0.251 C 
ATOM     44  H   UNL A   1      38.625  21.275  25.229  1.00  0.00     0.163 HD
ATOM     45  O   UNL A   1      40.197  21.447  26.885  1.00  0.00    -0.269 OA
BRANCH  43  46
ATOM     46  C   UNL A   1      39.744  23.715  27.241  1.00  0.00     0.039 A 
ATOM     47  C   UNL A   1      38.922  24.830  27.127  1.00  0.00     0.014 A 
ATOM     48  C   UNL A   1      40.958  23.850  27.941  1.00  0.00     0.014 A 
ATOM     49  C   UNL A   1      39.343  26.066  27.596  1.00  0.00     0.010 A 
ATOM     50  C   UNL A   1      41.366  25.080  28.457  1.00  0.00     0.010 A 
ATOM     51  C   UNL A   1      40.574  26.201  28.247  1.00  0.00    -0.014 A 
BRANCH  51  52
ATOM     52  C   UNL A   1      40.888  27.522  28.789  1.00  0.00     0.031 A 
ATOM     53  C   UNL A   1      42.092  28.157  28.182  1.00  0.00     0.074 A 
ATOM     54  C   UNL A   1      40.176  28.185  29.720  1.00  0.00     0.049 A 
ATOM     55  N   UNL A   1      43.249  28.345  28.728  1.00  0.00    -0.248 NA
ATOM     56  C   UNL A   1      42.043  28.481  26.750  1.00  0.00     0.031 C 
ATOM     57  C   UNL A   1      38.853  27.869  30.259  1.00  0.00     0.029 A 
ATOM     58  N   UNL A   1      40.495  29.355  30.349  1.00  0.00    -0.354 N 
ATOM     59  C   UNL A   1      44.021  29.001  27.773  1.00  0.00     0.074 A 
ATOM     60  C   UNL A   1      43.286  28.918  26.537  1.00  0.00     0.031 C 
ATOM     61  C   UNL A   1      38.402  28.921  30.983  1.00  0.00     0.029 A 
ATOM     62  C   UNL A   1      39.458  29.915  31.083  1.00  0.00     0.049 A 
ATOM     63  H   UNL A   1      41.388  29.767  30.288  1.00  0.00     0.167 HD
ATOM     64  C   UNL A   1      45.111  29.739  28.121  1.00  0.00     0.037 A 
ATOM     65  C   UNL A   1      39.465  31.121  31.706  1.00  0.00     0.037 A 
ATOM     66  C   UNL A   1      45.579  29.395  29.440  1.00  0.00     0.049 A 
ATOM     67  C   UNL A   1      40.883  31.465  31.973  1.00  0.00     0.074 A 
ATOM     68  C   UNL A   1      46.074  28.253  30.039  1.00  0.00     0.029 A 
ATOM     69  N   UNL A   1      45.257  30.246  30.469  1.00  0.00    -0.354 N 
ATOM     70  N   UNL A   1      41.650  30.816  32.807  1.00  0.00    -0.248 NA
ATOM     71  C   UNL A   1      41.580  32.315  31.021  1.00  0.00     0.031 C 
ATOM     72  C   UNL A   1      45.594  28.296  31.381  1.00  0.00     0.029 A 
ATOM     73  C   UNL A   1      44.867  29.478  31.535  1.00  0.00     0.049 A 
ATOM     74  H   UNL A   1      45.300  31.229  30.446  1.00  0.00     0.167 HD
ATOM     75  C   UNL A   1      42.908  30.844  32.228  1.00  0.00     0.074 A 
ATOM     76  C   UNL A   1      42.827  31.877  31.199  1.00  0.00     0.031 C 
ATOM     77  C   UNL A   1      43.814  29.849  32.456  1.00  0.00     0.037 A 
BRANCH  64  78
ATOM     78  C   UNL A   1      45.526  31.021  27.430  1.00  0.00     0.058 A 
ATOM     79  C   UNL A   1      46.849  31.154  26.955  1.00  0.00     0.135 A 
ATOM     80  C   UNL A   1      44.779  32.218  27.483  1.00  0.00     0.135 A 
ATOM     81  F   UNL A   1      47.654  30.084  26.859  1.00  0.00    -0.206 F 
ATOM     82  C   UNL A   1      47.413  32.394  26.648  1.00  0.00     0.059 A 
ATOM     83  C   UNL A   1      45.305  33.456  27.130  1.00  0.00     0.059 A 
ATOM     84  F   UNL A   1      43.534  32.268  27.971  1.00  0.00    -0.206 F 
ATOM     85  C   UNL A   1      46.636  33.542  26.760  1.00  0.00     0.060 A 
BRANCH  85  86
ATOM     86  S   UNL A   1      47.392  35.154  26.489  1.00  0.00     0.124 S 
ATOM     87  O   UNL A   1      48.375  34.843  25.458  1.00  0.00    -0.237 OA
ATOM     88  O   UNL A   1      46.250  35.956  26.064  1.00  0.00    -0.237 OA
ATOM     89  O   UNL A   1      47.936  35.493  27.801  1.00  0.00    -0.744 OA
ENDBRANCH  85  86
ENDBRANCH  64  78
BRANCH  65  90
ATOM     90  C   UNL A   1      38.371  32.126  31.793  1.00  0.00     0.058 A 
ATOM     91  C   UNL A   1      37.602  32.461  30.661  1.00  0.00     0.135 A 
ATOM     92  C   UNL A   1      37.859  32.550  33.035  1.00  0.00     0.135 A 
ATOM     93  F   UNL A   1      38.004  32.089  29.436  1.00  0.00    -0.206 F 
ATOM     94  C   UNL A   1      36.366  33.112  30.762  1.00  0.00     0.059 A 
ATOM     95  C   UNL A   1      36.637  33.209  33.159  1.00  0.00     0.059 A 
ATOM     96  F   UNL A   1      38.487  32.251  34.181  1.00  0.00    -0.206 F 
ATOM     97  C   UNL A   1      35.879  33.458  32.020  1.00  0.00     0.060 A 
BRANCH  97  98
ATOM     98  S   UNL A   1      34.204  34.123  32.172  1.00  0.00     0.124 S 
ATOM     99  O   UNL A   1      34.438  35.368  32.898  1.00  0.00    -0.237 OA
ATOM    100  O   UNL A   1      33.801  34.265  30.777  1.00  0.00    -0.237 OA
ATOM    101  O   UNL A   1      33.495  33.090  32.920  1.00  0.00    -0.744 OA
ENDBRANCH  97  98
ENDBRANCH  65  90
BRANCH  77 102
ATOM    102  C   UNL A   1      43.564  28.907  33.606  1.00  0.00     0.058 A 
ATOM    103  C   UNL A   1      43.936  29.166  34.938  1.00  0.00     0.135 A 
ATOM    104  C   UNL A   1      42.765  27.777  33.372  1.00  0.00     0.135 A 
ATOM    105  F   UNL A   1      44.623  30.271  35.260  1.00  0.00    -0.206 F 
ATOM    106  C   UNL A   1      43.546  28.328  35.984  1.00  0.00     0.059 A 
ATOM    107  C   UNL A   1      42.339  26.946  34.404  1.00  0.00     0.059 A 
ATOM    108  F   UNL A   1      42.333  27.505  32.130  1.00  0.00    -0.206 F 
ATOM    109  C   UNL A   1      42.738  27.225  35.710  1.00  0.00     0.060 A 
BRANCH 109 110
ATOM    110  S   UNL A   1      42.137  26.215  37.082  1.00  0.00     0.124 S 
ATOM    111  O   UNL A   1      42.046  24.893  36.473  1.00  0.00    -0.237 OA
ATOM    112  O   UNL A   1      43.189  26.381  38.081  1.00  0.00    -0.237 OA
ATOM    113  O   UNL A   1      40.859  26.834  37.427  1.00  0.00    -0.744 OA
ENDBRANCH 109 110
ENDBRANCH  77 102
ENDBRANCH  51  52
ENDBRANCH  43  46
ENDBRANCH  41  42
ENDBRANCH  40  41
ENDBRANCH   1  40
TORSDOF 19
ENDMDL
