MODEL 1
REMARK VINA RESULT:     -11.2      0.000      0.000
REMARK SMILES CC[C@H]1CCCC[C@@H]1C1(C(=O)NCCCNC(=O)c2ccc(-c3c4nc(c(-c5c(F)cc(S(=O)(=O)[O-])cc5F)c5ccc([nH]5)c(-c5c(F)cc(S(=O)(=O)[O-])cc5F)c5nc(c(-c6c(F)cc(S(=O)(=O)[O-])cc6F)c6ccc3[nH]6)C=C5)C=C4)cc2)CC1
REMARK SMILES IDX 14 1 13 2 12 3 10 4 11 5 9 7 85 8 86 9 8 10 3 11 4 12 5 13
REMARK SMILES IDX 7 14 6 15 2 16 1 17 15 18 16 19 17 20 18 22 19 23 20 24
REMARK SMILES IDX 84 25 21 26 83 27 22 28 23 29 24 30 77 31 25 32 82 33 76 34
REMARK SMILES IDX 78 35 26 36 81 37 75 38 74 39 27 41 61 42 40 43 60 44 41 45
REMARK SMILES IDX 44 46 59 47 79 48 42 49 43 50 58 52 80 53 45 54 28 55 29 56
REMARK SMILES IDX 38 57 30 58 31 59 37 60 39 61 32 62 33 63 34 64 35 65 36 66
REMARK SMILES IDX 62 67 63 68 72 69 64 70 65 71 71 72 73 73 66 74 67 75 68 76
REMARK SMILES IDX 69 77 70 78 46 79 47 80 56 81 48 82 49 83 55 84 57 85 50 86
REMARK SMILES IDX 51 87 52 88 53 89 54 90
REMARK H PARENT 12 6 16 21 78 40 44 51
REMARK Flexibility Score: inf
ROOT
ATOM      1  C   UNL A   1      31.950  27.893  27.504  1.00  0.00     0.042 C 
ENDROOT
BRANCH   1   2
ATOM      2  C   UNL A   1      31.431  27.124  26.293  1.00  0.00     0.117 C 
BRANCH   2   3
ATOM      3  N   UNL A   1      30.756  25.896  26.655  1.00  0.00    -0.356 N 
ATOM      4  C   UNL A   1      31.056  24.569  26.599  1.00  0.00     0.226 C 
ATOM      5  O   UNL A   1      30.264  23.828  27.187  1.00  0.00    -0.274 OA
ATOM      6  H   UNL A   1      29.862  26.060  27.033  1.00  0.00     0.163 HD
BRANCH   4   7
ATOM      7  C   UNL A   1      32.264  23.948  25.898  1.00  0.00     0.052 C 
ATOM      8  C   UNL A   1      33.294  23.336  26.854  1.00  0.00     0.018 C 
ATOM      9  C   UNL A   1      33.675  24.501  25.997  1.00  0.00     0.018 C 
BRANCH   7  10
ATOM     10  C   UNL A   1      31.878  23.243  24.547  1.00  0.00     0.008 C 
ATOM     11  C   UNL A   1      32.986  22.535  23.717  1.00  0.00    -0.007 C 
ATOM     12  C   UNL A   1      33.706  23.479  22.734  1.00  0.00     0.004 C 
ATOM     13  C   UNL A   1      32.762  24.353  21.915  1.00  0.00     0.000 C 
ATOM     14  C   UNL A   1      30.988  24.167  23.691  1.00  0.00     0.005 C 
ATOM     15  C   UNL A   1      31.771  25.109  22.787  1.00  0.00     0.000 C 
BRANCH  11  16
ATOM     16  C   UNL A   1      32.406  21.330  22.920  1.00  0.00     0.000 C 
ATOM     17  C   UNL A   1      32.421  20.013  23.690  1.00  0.00     0.004 C 
ENDBRANCH  11  16
ENDBRANCH   7  10
ENDBRANCH   4   7
ENDBRANCH   2   3
ENDBRANCH   1   2
BRANCH   1  18
ATOM     18  C   UNL A   1      33.333  28.516  27.306  1.00  0.00     0.118 C 
BRANCH  18  19
ATOM     19  N   UNL A   1      33.373  29.938  27.636  1.00  0.00    -0.352 N 
ATOM     20  C   UNL A   1      34.365  30.696  28.203  1.00  0.00     0.251 C 
ATOM     21  H   UNL A   1      32.552  30.435  27.415  1.00  0.00     0.163 HD
ATOM     22  O   UNL A   1      34.119  31.841  28.577  1.00  0.00    -0.269 OA
BRANCH  20  23
ATOM     23  C   UNL A   1      35.715  30.130  28.387  1.00  0.00     0.039 A 
ATOM     24  C   UNL A   1      36.616  30.164  27.321  1.00  0.00     0.014 A 
ATOM     25  C   UNL A   1      36.090  29.577  29.613  1.00  0.00     0.014 A 
ATOM     26  C   UNL A   1      37.928  29.730  27.515  1.00  0.00     0.010 A 
ATOM     27  C   UNL A   1      37.416  29.220  29.828  1.00  0.00     0.010 A 
ATOM     28  C   UNL A   1      38.352  29.306  28.786  1.00  0.00    -0.014 A 
BRANCH  28  29
ATOM     29  C   UNL A   1      39.776  28.996  29.063  1.00  0.00     0.031 A 
ATOM     30  C   UNL A   1      40.682  30.041  29.652  1.00  0.00     0.074 A 
ATOM     31  C   UNL A   1      40.272  27.798  28.694  1.00  0.00     0.049 A 
ATOM     32  N   UNL A   1      41.966  29.981  29.889  1.00  0.00    -0.248 NA
ATOM     33  C   UNL A   1      40.065  31.332  29.995  1.00  0.00     0.031 C 
ATOM     34  C   UNL A   1      39.497  26.718  28.077  1.00  0.00     0.029 A 
ATOM     35  N   UNL A   1      41.542  27.289  28.775  1.00  0.00    -0.354 N 
ATOM     36  C   UNL A   1      42.318  31.228  30.390  1.00  0.00     0.074 A 
ATOM     37  C   UNL A   1      41.119  32.040  30.376  1.00  0.00     0.031 C 
ATOM     38  C   UNL A   1      40.301  25.664  27.868  1.00  0.00     0.029 A 
ATOM     39  C   UNL A   1      41.657  26.009  28.285  1.00  0.00     0.049 A 
ATOM     40  H   UNL A   1      42.302  27.793  29.148  1.00  0.00     0.167 HD
ATOM     41  C   UNL A   1      43.525  31.651  30.836  1.00  0.00     0.037 A 
ATOM     42  C   UNL A   1      42.732  25.206  28.176  1.00  0.00     0.037 A 
ATOM     43  C   UNL A   1      44.708  30.828  30.851  1.00  0.00     0.049 A 
ATOM     44  C   UNL A   1      44.071  25.711  28.640  1.00  0.00     0.074 A 
ATOM     45  C   UNL A   1      45.962  31.135  31.349  1.00  0.00     0.029 A 
ATOM     46  N   UNL A   1      44.788  29.544  30.331  1.00  0.00    -0.354 N 
ATOM     47  N   UNL A   1      44.371  26.865  29.186  1.00  0.00    -0.248 NA
ATOM     48  C   UNL A   1      45.217  24.809  28.467  1.00  0.00     0.031 C 
ATOM     49  C   UNL A   1      46.817  30.063  31.069  1.00  0.00     0.029 A 
ATOM     50  C   UNL A   1      46.082  29.062  30.454  1.00  0.00     0.049 A 
ATOM     51  H   UNL A   1      44.037  29.049  29.931  1.00  0.00     0.167 HD
ATOM     52  C   UNL A   1      45.736  26.818  29.449  1.00  0.00     0.074 A 
ATOM     53  C   UNL A   1      46.200  25.518  29.007  1.00  0.00     0.031 C 
ATOM     54  C   UNL A   1      46.531  27.765  30.006  1.00  0.00     0.037 A 
BRANCH  41  55
ATOM     55  C   UNL A   1      43.628  33.074  31.319  1.00  0.00     0.058 A 
ATOM     56  C   UNL A   1      43.942  34.133  30.451  1.00  0.00     0.135 A 
ATOM     57  C   UNL A   1      43.406  33.384  32.671  1.00  0.00     0.135 A 
ATOM     58  F   UNL A   1      44.173  33.896  29.149  1.00  0.00    -0.206 F 
ATOM     59  C   UNL A   1      44.084  35.437  30.914  1.00  0.00     0.059 A 
ATOM     60  C   UNL A   1      43.510  34.687  33.150  1.00  0.00     0.059 A 
ATOM     61  F   UNL A   1      43.098  32.414  33.546  1.00  0.00    -0.206 F 
ATOM     62  C   UNL A   1      43.873  35.703  32.268  1.00  0.00     0.060 A 
BRANCH  62  63
ATOM     63  S   UNL A   1      44.096  37.393  32.860  1.00  0.00     0.124 S 
ATOM     64  O   UNL A   1      43.002  37.511  33.820  1.00  0.00    -0.237 OA
ATOM     65  O   UNL A   1      45.439  37.349  33.432  1.00  0.00    -0.237 OA
ATOM     66  O   UNL A   1      43.959  38.200  31.651  1.00  0.00    -0.744 OA
ENDBRANCH  62  63
ENDBRANCH  41  55
BRANCH  42  67
ATOM     67  C   UNL A   1      42.576  23.829  27.638  1.00  0.00     0.058 A 
ATOM     68  C   UNL A   1      42.606  23.597  26.255  1.00  0.00     0.135 A 
ATOM     69  C   UNL A   1      42.436  22.718  28.485  1.00  0.00     0.135 A 
ATOM     70  F   UNL A   1      42.729  24.627  25.405  1.00  0.00    -0.206 F 
ATOM     71  C   UNL A   1      42.500  22.314  25.729  1.00  0.00     0.059 A 
ATOM     72  C   UNL A   1      42.355  21.422  27.982  1.00  0.00     0.059 A 
ATOM     73  F   UNL A   1      42.418  22.884  29.816  1.00  0.00    -0.206 F 
ATOM     74  C   UNL A   1      42.385  21.231  26.602  1.00  0.00     0.060 A 
BRANCH  74  75
ATOM     75  S   UNL A   1      42.325  19.566  25.906  1.00  0.00     0.124 S 
ATOM     76  O   UNL A   1      43.359  19.636  24.881  1.00  0.00    -0.237 OA
ATOM     77  O   UNL A   1      42.632  18.739  27.070  1.00  0.00    -0.237 OA
ATOM     78  O   UNL A   1      40.955  19.456  25.414  1.00  0.00    -0.744 OA
ENDBRANCH  74  75
ENDBRANCH  42  67
BRANCH  54  79
ATOM     79  C   UNL A   1      47.985  27.428  30.194  1.00  0.00     0.058 A 
ATOM     80  C   UNL A   1      48.966  27.864  29.290  1.00  0.00     0.135 A 
ATOM     81  C   UNL A   1      48.409  26.716  31.329  1.00  0.00     0.135 A 
ATOM     82  F   UNL A   1      48.615  28.537  28.184  1.00  0.00    -0.206 F 
ATOM     83  C   UNL A   1      50.316  27.595  29.497  1.00  0.00     0.059 A 
ATOM     84  C   UNL A   1      49.756  26.462  31.571  1.00  0.00     0.059 A 
ATOM     85  F   UNL A   1      47.514  26.281  32.228  1.00  0.00    -0.206 F 
ATOM     86  C   UNL A   1      50.701  26.900  30.645  1.00  0.00     0.060 A 
BRANCH  86  87
ATOM     87  S   UNL A   1      52.461  26.608  30.928  1.00  0.00     0.124 S 
ATOM     88  O   UNL A   1      52.924  27.939  31.303  1.00  0.00    -0.237 OA
ATOM     89  O   UNL A   1      52.443  25.617  31.999  1.00  0.00    -0.237 OA
ATOM     90  O   UNL A   1      52.936  26.119  29.637  1.00  0.00    -0.744 OA
ENDBRANCH  86  87
ENDBRANCH  54  79
ENDBRANCH  28  29
ENDBRANCH  20  23
ENDBRANCH  18  19
ENDBRANCH   1  18
TORSDOF 15
ENDMDL
MODEL 2
REMARK VINA RESULT:     -11.1      3.421      5.878
REMARK SMILES CC[C@H]1CCCC[C@@H]1C1(C(=O)NCCCNC(=O)c2ccc(-c3c4nc(c(-c5c(F)cc(S(=O)(=O)[O-])cc5F)c5ccc([nH]5)c(-c5c(F)cc(S(=O)(=O)[O-])cc5F)c5nc(c(-c6c(F)cc(S(=O)(=O)[O-])cc6F)c6ccc3[nH]6)C=C5)C=C4)cc2)CC1
REMARK SMILES IDX 14 1 13 2 12 3 10 4 11 5 9 7 85 8 86 9 8 10 3 11 4 12 5 13
REMARK SMILES IDX 7 14 6 15 2 16 1 17 15 18 16 19 17 20 18 22 19 23 20 24
REMARK SMILES IDX 84 25 21 26 83 27 22 28 23 29 24 30 77 31 25 32 82 33 76 34
REMARK SMILES IDX 78 35 26 36 81 37 75 38 74 39 27 41 61 42 40 43 60 44 41 45
REMARK SMILES IDX 44 46 59 47 79 48 42 49 43 50 58 52 80 53 45 54 28 55 29 56
REMARK SMILES IDX 38 57 30 58 31 59 37 60 39 61 32 62 33 63 34 64 35 65 36 66
REMARK SMILES IDX 62 67 63 68 72 69 64 70 65 71 71 72 73 73 66 74 67 75 68 76
REMARK SMILES IDX 69 77 70 78 46 79 47 80 56 81 48 82 49 83 55 84 57 85 50 86
REMARK SMILES IDX 51 87 52 88 53 89 54 90
REMARK H PARENT 12 6 16 21 78 40 44 51
REMARK Flexibility Score: inf
ROOT
ATOM      1  C   UNL A   1      34.669  34.369  28.259  1.00  0.00     0.042 C 
ENDROOT
BRANCH   1   2
ATOM      2  C   UNL A   1      34.055  34.851  29.570  1.00  0.00     0.117 C 
BRANCH   2   3
ATOM      3  N   UNL A   1      34.028  33.823  30.589  1.00  0.00    -0.356 N 
ATOM      4  C   UNL A   1      34.380  33.745  31.902  1.00  0.00     0.226 C 
ATOM      5  O   UNL A   1      34.023  32.715  32.479  1.00  0.00    -0.274 OA
ATOM      6  H   UNL A   1      33.667  32.972  30.249  1.00  0.00     0.163 HD
BRANCH   4   7
ATOM      7  C   UNL A   1      35.146  34.805  32.692  1.00  0.00     0.052 C 
ATOM      8  C   UNL A   1      34.445  35.253  33.980  1.00  0.00     0.018 C 
ATOM      9  C   UNL A   1      34.665  36.235  32.874  1.00  0.00     0.018 C 
BRANCH   7  10
ATOM     10  C   UNL A   1      36.701  34.588  32.638  1.00  0.00     0.008 C 
ATOM     11  C   UNL A   1      37.336  33.962  31.364  1.00  0.00    -0.007 C 
ATOM     12  C   UNL A   1      37.368  32.421  31.394  1.00  0.00     0.004 C 
ATOM     13  C   UNL A   1      37.882  31.841  32.707  1.00  0.00     0.000 C 
ATOM     14  C   UNL A   1      37.200  33.927  33.940  1.00  0.00     0.005 C 
ATOM     15  C   UNL A   1      37.150  32.406  33.915  1.00  0.00     0.000 C 
BRANCH  11  16
ATOM     16  C   UNL A   1      38.784  34.489  31.141  1.00  0.00     0.000 C 
ATOM     17  C   UNL A   1      39.132  34.748  29.678  1.00  0.00     0.004 C 
ENDBRANCH  11  16
ENDBRANCH   7  10
ENDBRANCH   4   7
ENDBRANCH   2   3
ENDBRANCH   1   2
BRANCH   1  18
ATOM     18  C   UNL A   1      35.321  32.987  28.343  1.00  0.00     0.118 C 
BRANCH  18  19
ATOM     19  N   UNL A   1      34.375  31.894  28.142  1.00  0.00    -0.352 N 
ATOM     20  C   UNL A   1      34.585  30.549  27.972  1.00  0.00     0.251 C 
ATOM     21  H   UNL A   1      33.428  32.167  28.125  1.00  0.00     0.163 HD
ATOM     22  O   UNL A   1      33.655  29.827  27.619  1.00  0.00    -0.269 OA
BRANCH  20  23
ATOM     23  C   UNL A   1      35.927  29.979  28.186  1.00  0.00     0.039 A 
ATOM     24  C   UNL A   1      36.846  29.991  27.135  1.00  0.00     0.014 A 
ATOM     25  C   UNL A   1      36.279  29.443  29.427  1.00  0.00     0.014 A 
ATOM     26  C   UNL A   1      38.152  29.552  27.357  1.00  0.00     0.010 A 
ATOM     27  C   UNL A   1      37.600  29.081  29.669  1.00  0.00     0.010 A 
ATOM     28  C   UNL A   1      38.553  29.146  28.641  1.00  0.00    -0.014 A 
BRANCH  28  29
ATOM     29  C   UNL A   1      39.971  28.832  28.946  1.00  0.00     0.031 A 
ATOM     30  C   UNL A   1      40.871  29.878  29.540  1.00  0.00     0.074 A 
ATOM     31  C   UNL A   1      40.467  27.627  28.598  1.00  0.00     0.049 A 
ATOM     32  N   UNL A   1      42.151  29.815  29.800  1.00  0.00    -0.248 NA
ATOM     33  C   UNL A   1      40.255  31.175  29.860  1.00  0.00     0.031 C 
ATOM     34  C   UNL A   1      39.698  26.545  27.979  1.00  0.00     0.029 A 
ATOM     35  N   UNL A   1      41.733  27.113  28.706  1.00  0.00    -0.354 N 
ATOM     36  C   UNL A   1      42.500  31.065  30.294  1.00  0.00     0.074 A 
ATOM     37  C   UNL A   1      41.306  31.883  30.251  1.00  0.00     0.031 C 
ATOM     38  C   UNL A   1      40.500  25.485  27.795  1.00  0.00     0.029 A 
ATOM     39  C   UNL A   1      41.850  25.827  28.232  1.00  0.00     0.049 A 
ATOM     40  H   UNL A   1      42.489  27.617  29.087  1.00  0.00     0.167 HD
ATOM     41  C   UNL A   1      43.701  31.487  30.757  1.00  0.00     0.037 A 
ATOM     42  C   UNL A   1      42.923  25.018  28.150  1.00  0.00     0.037 A 
ATOM     43  C   UNL A   1      44.879  30.659  30.801  1.00  0.00     0.049 A 
ATOM     44  C   UNL A   1      44.256  25.523  28.632  1.00  0.00     0.074 A 
ATOM     45  C   UNL A   1      46.126  30.965  31.318  1.00  0.00     0.029 A 
ATOM     46  N   UNL A   1      44.963  29.369  30.295  1.00  0.00    -0.354 N 
ATOM     47  N   UNL A   1      44.552  26.681  29.171  1.00  0.00    -0.248 NA
ATOM     48  C   UNL A   1      45.400  24.613  28.488  1.00  0.00     0.031 C 
ATOM     49  C   UNL A   1      46.981  29.886  31.064  1.00  0.00     0.029 A 
ATOM     50  C   UNL A   1      46.251  28.882  30.446  1.00  0.00     0.049 A 
ATOM     51  H   UNL A   1      44.216  28.874  29.888  1.00  0.00     0.167 HD
ATOM     52  C   UNL A   1      45.913  26.630  29.458  1.00  0.00     0.074 A 
ATOM     53  C   UNL A   1      46.377  25.323  29.038  1.00  0.00     0.031 C 
ATOM     54  C   UNL A   1      46.702  27.578  30.019  1.00  0.00     0.037 A 
BRANCH  41  55
ATOM     55  C   UNL A   1      43.802  32.914  31.228  1.00  0.00     0.058 A 
ATOM     56  C   UNL A   1      44.170  33.958  30.362  1.00  0.00     0.135 A 
ATOM     57  C   UNL A   1      43.525  33.244  32.564  1.00  0.00     0.135 A 
ATOM     58  F   UNL A   1      44.456  33.702  29.074  1.00  0.00    -0.206 F 
ATOM     59  C   UNL A   1      44.310  35.266  30.815  1.00  0.00     0.059 A 
ATOM     60  C   UNL A   1      43.626  34.552  33.032  1.00  0.00     0.059 A 
ATOM     61  F   UNL A   1      43.164  32.289  33.436  1.00  0.00    -0.206 F 
ATOM     62  C   UNL A   1      44.043  35.552  32.155  1.00  0.00     0.060 A 
BRANCH  62  63
ATOM     63  S   UNL A   1      44.263  37.246  32.736  1.00  0.00     0.124 S 
ATOM     64  O   UNL A   1      43.778  38.011  31.591  1.00  0.00    -0.237 OA
ATOM     65  O   UNL A   1      43.417  37.280  33.926  1.00  0.00    -0.237 OA
ATOM     66  O   UNL A   1      45.699  37.336  32.988  1.00  0.00    -0.744 OA
ENDBRANCH  62  63
ENDBRANCH  41  55
BRANCH  42  67
ATOM     67  C   UNL A   1      42.770  23.637  27.623  1.00  0.00     0.058 A 
ATOM     68  C   UNL A   1      42.485  22.572  28.490  1.00  0.00     0.135 A 
ATOM     69  C   UNL A   1      42.861  23.356  26.250  1.00  0.00     0.135 A 
ATOM     70  F   UNL A   1      42.397  22.788  29.811  1.00  0.00    -0.206 F 
ATOM     71  C   UNL A   1      42.299  21.277  28.018  1.00  0.00     0.059 A 
ATOM     72  C   UNL A   1      42.653  22.073  25.751  1.00  0.00     0.059 A 
ATOM     73  F   UNL A   1      43.116  24.343  25.377  1.00  0.00    -0.206 F 
ATOM     74  C   UNL A   1      42.375  21.039  26.644  1.00  0.00     0.060 A 
BRANCH  74  75
ATOM     75  S   UNL A   1      42.057  19.368  26.039  1.00  0.00     0.124 S 
ATOM     76  O   UNL A   1      42.452  18.559  27.186  1.00  0.00    -0.237 OA
ATOM     77  O   UNL A   1      40.627  19.417  25.752  1.00  0.00    -0.237 OA
ATOM     78  O   UNL A   1      42.920  19.265  24.867  1.00  0.00    -0.744 OA
ENDBRANCH  74  75
ENDBRANCH  42  67
BRANCH  54  79
ATOM     79  C   UNL A   1      48.151  27.236  30.236  1.00  0.00     0.058 A 
ATOM     80  C   UNL A   1      49.147  27.640  29.333  1.00  0.00     0.135 A 
ATOM     81  C   UNL A   1      48.555  26.554  31.395  1.00  0.00     0.135 A 
ATOM     82  F   UNL A   1      48.815  28.284  28.204  1.00  0.00    -0.206 F 
ATOM     83  C   UNL A   1      50.492  27.367  29.565  1.00  0.00     0.059 A 
ATOM     84  C   UNL A   1      49.896  26.297  31.663  1.00  0.00     0.059 A 
ATOM     85  F   UNL A   1      47.644  26.150  32.295  1.00  0.00    -0.206 F 
ATOM     86  C   UNL A   1      50.857  26.702  30.738  1.00  0.00     0.060 A 
BRANCH  86  87
ATOM     87  S   UNL A   1      52.610  26.405  31.052  1.00  0.00     0.124 S 
ATOM     88  O   UNL A   1      53.017  27.664  31.667  1.00  0.00    -0.237 OA
ATOM     89  O   UNL A   1      52.575  25.247  31.939  1.00  0.00    -0.237 OA
ATOM     90  O   UNL A   1      53.156  26.152  29.722  1.00  0.00    -0.744 OA
ENDBRANCH  86  87
ENDBRANCH  54  79
ENDBRANCH  28  29
ENDBRANCH  20  23
ENDBRANCH  18  19
ENDBRANCH   1  18
TORSDOF 15
ENDMDL
MODEL 3
REMARK VINA RESULT:     -11.0      1.064      2.148
REMARK SMILES CC[C@H]1CCCC[C@@H]1C1(C(=O)NCCCNC(=O)c2ccc(-c3c4nc(c(-c5c(F)cc(S(=O)(=O)[O-])cc5F)c5ccc([nH]5)c(-c5c(F)cc(S(=O)(=O)[O-])cc5F)c5nc(c(-c6c(F)cc(S(=O)(=O)[O-])cc6F)c6ccc3[nH]6)C=C5)C=C4)cc2)CC1
REMARK SMILES IDX 14 1 13 2 12 3 10 4 11 5 9 7 85 8 86 9 8 10 3 11 4 12 5 13
REMARK SMILES IDX 7 14 6 15 2 16 1 17 15 18 16 19 17 20 18 22 19 23 20 24
REMARK SMILES IDX 84 25 21 26 83 27 22 28 23 29 24 30 77 31 25 32 82 33 76 34
REMARK SMILES IDX 78 35 26 36 81 37 75 38 74 39 27 41 61 42 40 43 60 44 41 45
REMARK SMILES IDX 44 46 59 47 79 48 42 49 43 50 58 52 80 53 45 54 28 55 29 56
REMARK SMILES IDX 38 57 30 58 31 59 37 60 39 61 32 62 33 63 34 64 35 65 36 66
REMARK SMILES IDX 62 67 63 68 72 69 64 70 65 71 71 72 73 73 66 74 67 75 68 76
REMARK SMILES IDX 69 77 70 78 46 79 47 80 56 81 48 82 49 83 55 84 57 85 50 86
REMARK SMILES IDX 51 87 52 88 53 89 54 90
REMARK H PARENT 12 6 16 21 78 40 44 51
REMARK Flexibility Score: inf
ROOT
ATOM      1  C   UNL A   1      33.879  28.341  25.784  1.00  0.00     0.042 C 
ENDROOT
BRANCH   1   2
ATOM      2  C   UNL A   1      32.869  27.498  25.010  1.00  0.00     0.117 C 
BRANCH   2   3
ATOM      3  N   UNL A   1      33.369  27.065  23.723  1.00  0.00    -0.356 N 
ATOM      4  C   UNL A   1      33.746  25.877  23.175  1.00  0.00     0.226 C 
ATOM      5  O   UNL A   1      33.949  25.901  21.958  1.00  0.00    -0.274 OA
ATOM      6  H   UNL A   1      33.459  27.813  23.088  1.00  0.00     0.163 HD
BRANCH   4   7
ATOM      7  C   UNL A   1      33.919  24.556  23.924  1.00  0.00     0.052 C 
ATOM      8  C   UNL A   1      35.132  24.523  24.862  1.00  0.00     0.018 C 
ATOM      9  C   UNL A   1      35.074  23.597  23.689  1.00  0.00     0.018 C 
BRANCH   7  10
ATOM     10  C   UNL A   1      32.545  23.915  24.337  1.00  0.00     0.008 C 
ATOM     11  C   UNL A   1      32.416  23.227  25.725  1.00  0.00    -0.007 C 
ATOM     12  C   UNL A   1      32.824  21.741  25.708  1.00  0.00     0.004 C 
ATOM     13  C   UNL A   1      32.223  20.950  24.551  1.00  0.00     0.000 C 
ATOM     14  C   UNL A   1      31.984  23.052  23.188  1.00  0.00     0.005 C 
ATOM     15  C   UNL A   1      32.475  21.612  23.205  1.00  0.00     0.000 C 
BRANCH  11  16
ATOM     16  C   UNL A   1      30.964  23.341  26.275  1.00  0.00     0.000 C 
ATOM     17  C   UNL A   1      30.335  24.718  26.084  1.00  0.00     0.004 C 
ENDBRANCH  11  16
ENDBRANCH   7  10
ENDBRANCH   4   7
ENDBRANCH   2   3
ENDBRANCH   1   2
BRANCH   1  18
ATOM     18  C   UNL A   1      33.535  28.530  27.262  1.00  0.00     0.118 C 
BRANCH  18  19
ATOM     19  N   UNL A   1      33.555  29.929  27.680  1.00  0.00    -0.352 N 
ATOM     20  C   UNL A   1      34.530  30.660  28.309  1.00  0.00     0.251 C 
ATOM     21  H   UNL A   1      32.731  30.430  27.479  1.00  0.00     0.163 HD
ATOM     22  O   UNL A   1      34.265  31.777  28.749  1.00  0.00    -0.269 OA
BRANCH  20  23
ATOM     23  C   UNL A   1      35.883  30.098  28.476  1.00  0.00     0.039 A 
ATOM     24  C   UNL A   1      36.760  30.104  27.390  1.00  0.00     0.014 A 
ATOM     25  C   UNL A   1      36.285  29.577  29.708  1.00  0.00     0.014 A 
ATOM     26  C   UNL A   1      38.076  29.674  27.566  1.00  0.00     0.010 A 
ATOM     27  C   UNL A   1      37.616  29.224  29.901  1.00  0.00     0.010 A 
ATOM     28  C   UNL A   1      38.528  29.283  28.836  1.00  0.00    -0.014 A 
BRANCH  28  29
ATOM     29  C   UNL A   1      39.958  28.979  29.090  1.00  0.00     0.031 A 
ATOM     30  C   UNL A   1      40.871  30.029  29.657  1.00  0.00     0.074 A 
ATOM     31  C   UNL A   1      40.451  27.780  28.718  1.00  0.00     0.049 A 
ATOM     32  N   UNL A   1      42.160  29.975  29.871  1.00  0.00    -0.248 NA
ATOM     33  C   UNL A   1      40.256  31.320  30.006  1.00  0.00     0.031 C 
ATOM     34  C   UNL A   1      39.670  26.695  28.119  1.00  0.00     0.029 A 
ATOM     35  N   UNL A   1      41.725  27.276  28.778  1.00  0.00    -0.354 N 
ATOM     36  C   UNL A   1      42.516  31.226  30.360  1.00  0.00     0.074 A 
ATOM     37  C   UNL A   1      41.314  32.033  30.364  1.00  0.00     0.031 C 
ATOM     38  C   UNL A   1      40.474  25.643  27.901  1.00  0.00     0.029 A 
ATOM     39  C   UNL A   1      41.836  25.994  28.292  1.00  0.00     0.049 A 
ATOM     40  H   UNL A   1      42.490  27.784  29.134  1.00  0.00     0.167 HD
ATOM     41  C   UNL A   1      43.729  31.654  30.783  1.00  0.00     0.037 A 
ATOM     42  C   UNL A   1      42.912  25.194  28.167  1.00  0.00     0.037 A 
ATOM     43  C   UNL A   1      44.915  30.836  30.780  1.00  0.00     0.049 A 
ATOM     44  C   UNL A   1      44.257  25.707  28.604  1.00  0.00     0.074 A 
ATOM     45  C   UNL A   1      46.177  31.149  31.254  1.00  0.00     0.029 A 
ATOM     46  N   UNL A   1      44.991  29.550  30.264  1.00  0.00    -0.354 N 
ATOM     47  N   UNL A   1      44.563  26.864  29.140  1.00  0.00    -0.248 NA
ATOM     48  C   UNL A   1      45.402  24.808  28.414  1.00  0.00     0.031 C 
ATOM     49  C   UNL A   1      47.031  30.079  30.964  1.00  0.00     0.029 A 
ATOM     50  C   UNL A   1      46.288  29.072  30.366  1.00  0.00     0.049 A 
ATOM     51  H   UNL A   1      44.234  29.051  29.881  1.00  0.00     0.167 HD
ATOM     52  C   UNL A   1      45.932  26.823  29.378  1.00  0.00     0.074 A 
ATOM     53  C   UNL A   1      46.392  25.523  28.934  1.00  0.00     0.031 C 
ATOM     54  C   UNL A   1      46.733  27.775  29.916  1.00  0.00     0.037 A 
BRANCH  41  55
ATOM     55  C   UNL A   1      43.836  33.080  31.258  1.00  0.00     0.058 A 
ATOM     56  C   UNL A   1      43.727  33.421  32.617  1.00  0.00     0.135 A 
ATOM     57  C   UNL A   1      44.052  34.122  30.341  1.00  0.00     0.135 A 
ATOM     58  F   UNL A   1      43.512  32.468  33.539  1.00  0.00    -0.206 F 
ATOM     59  C   UNL A   1      43.776  34.745  33.042  1.00  0.00     0.059 A 
ATOM     60  C   UNL A   1      44.138  35.450  30.748  1.00  0.00     0.059 A 
ATOM     61  F   UNL A   1      44.168  33.855  29.030  1.00  0.00    -0.206 F 
ATOM     62  C   UNL A   1      43.975  35.754  32.098  1.00  0.00     0.060 A 
BRANCH  62  63
ATOM     63  S   UNL A   1      44.001  37.468  32.661  1.00  0.00     0.124 S 
ATOM     64  O   UNL A   1      45.361  37.583  33.179  1.00  0.00    -0.237 OA
ATOM     65  O   UNL A   1      43.728  38.205  31.430  1.00  0.00    -0.237 OA
ATOM     66  O   UNL A   1      42.941  37.514  33.664  1.00  0.00    -0.744 OA
ENDBRANCH  62  63
ENDBRANCH  41  55
BRANCH  42  67
ATOM     67  C   UNL A   1      42.751  23.815  27.638  1.00  0.00     0.058 A 
ATOM     68  C   UNL A   1      42.610  22.728  28.513  1.00  0.00     0.135 A 
ATOM     69  C   UNL A   1      42.692  23.555  26.259  1.00  0.00     0.135 A 
ATOM     70  F   UNL A   1      42.667  22.924  29.840  1.00  0.00    -0.206 F 
ATOM     71  C   UNL A   1      42.419  21.433  28.044  1.00  0.00     0.059 A 
ATOM     72  C   UNL A   1      42.477  22.271  25.766  1.00  0.00     0.059 A 
ATOM     73  F   UNL A   1      42.806  24.562  25.380  1.00  0.00    -0.206 F 
ATOM     74  C   UNL A   1      42.344  21.216  26.667  1.00  0.00     0.060 A 
BRANCH  74  75
ATOM     75  S   UNL A   1      42.022  19.541  26.074  1.00  0.00     0.124 S 
ATOM     76  O   UNL A   1      42.925  19.452  24.933  1.00  0.00    -0.237 OA
ATOM     77  O   UNL A   1      42.378  18.734  27.237  1.00  0.00    -0.237 OA
ATOM     78  O   UNL A   1      40.598  19.567  25.752  1.00  0.00    -0.744 OA
ENDBRANCH  74  75
ENDBRANCH  42  67
BRANCH  54  79
ATOM     79  C   UNL A   1      48.192  27.444  30.079  1.00  0.00     0.058 A 
ATOM     80  C   UNL A   1      49.160  27.913  29.178  1.00  0.00     0.135 A 
ATOM     81  C   UNL A   1      48.634  26.704  31.189  1.00  0.00     0.135 A 
ATOM     82  F   UNL A   1      48.792  28.614  28.095  1.00  0.00    -0.206 F 
ATOM     83  C   UNL A   1      50.514  27.648  29.363  1.00  0.00     0.059 A 
ATOM     84  C   UNL A   1      49.984  26.453  31.410  1.00  0.00     0.059 A 
ATOM     85  F   UNL A   1      47.751  26.236  32.085  1.00  0.00    -0.206 F 
ATOM     86  C   UNL A   1      50.916  26.924  30.487  1.00  0.00     0.060 A 
BRANCH  86  87
ATOM     87  S   UNL A   1      52.681  26.637  30.743  1.00  0.00     0.124 S 
ATOM     88  O   UNL A   1      52.669  25.725  31.882  1.00  0.00    -0.237 OA
ATOM     89  O   UNL A   1      53.089  26.056  29.468  1.00  0.00    -0.237 OA
ATOM     90  O   UNL A   1      53.207  27.971  31.014  1.00  0.00    -0.744 OA
ENDBRANCH  86  87
ENDBRANCH  54  79
ENDBRANCH  28  29
ENDBRANCH  20  23
ENDBRANCH  18  19
ENDBRANCH   1  18
TORSDOF 15
ENDMDL
