MODEL 1
REMARK VINA RESULT:     -12.1      0.000      0.000
REMARK SMILES C[NH2+][C@@]1(C(=O)NCCCNC(=O)c2ccc(-c3c4nc(c(-c5c(F)cc(S(=O)(=O)[O-])cc5F)c5ccc([nH]5)c(-c5c(F)cc(S(=O)(=O)[O-])cc5F)c5nc(c(-c6c(F)cc(S(=O)(=O)[O-])cc6F)c6ccc3[nH]6)C=C5)C=C4)cc2)CC[C@H](Sc2nccc(=O)[nH]2)C1
REMARK SMILES IDX 8 1 7 2 6 3 4 4 5 5 3 7 79 8 90 9 80 10 81 11 2 12 1 13
REMARK SMILES IDX 82 16 83 17 84 18 89 19 85 20 87 21 86 23 88 24 9 25 10 26
REMARK SMILES IDX 11 27 12 29 13 30 14 31 78 32 15 33 77 34 16 35 17 36 18 37
REMARK SMILES IDX 71 38 19 39 76 40 70 41 72 42 20 43 75 44 69 45 68 46 21 48
REMARK SMILES IDX 55 49 34 50 54 51 35 52 38 53 53 54 73 55 36 56 37 57 52 59
REMARK SMILES IDX 74 60 39 61 22 62 23 63 32 64 24 65 25 66 31 67 33 68 26 69
REMARK SMILES IDX 27 70 28 71 29 72 30 73 56 74 57 75 66 76 58 77 59 78 65 79
REMARK SMILES IDX 67 80 60 81 61 82 62 83 63 84 64 85 40 86 41 87 50 88 42 89
REMARK SMILES IDX 43 90 49 91 51 92 44 93 45 94 46 95 47 96 48 97
REMARK H PARENT 6 6 2 14 2 15 89 22 10 28 72 47 38 58
REMARK Flexibility Score: inf
ROOT
ATOM      1  C   UNL A   1      33.807  30.046  26.718  1.00  0.00     0.042 C 
ENDROOT
BRANCH   1   2
ATOM      2  C   UNL A   1      33.244  28.970  25.808  1.00  0.00     0.118 C 
BRANCH   2   3
ATOM      3  N   UNL A   1      33.826  29.019  24.493  1.00  0.00    -0.351 N 
ATOM      4  C   UNL A   1      33.312  28.736  23.268  1.00  0.00     0.281 C 
ATOM      5  O   UNL A   1      34.179  28.588  22.396  1.00  0.00    -0.268 OA
ATOM      6  H   UNL A   1      34.767  29.309  24.478  1.00  0.00     0.163 HD
BRANCH   4   7
ATOM      7  C   UNL A   1      31.755  28.581  22.958  1.00  0.00     0.176 C 
ATOM      8  C   UNL A   1      30.805  28.598  24.170  1.00  0.00     0.080 C 
ATOM      9  C   UNL A   1      31.482  27.235  22.251  1.00  0.00     0.094 C 
ATOM     10  C   UNL A   1      30.286  27.178  24.410  1.00  0.00     0.022 C 
ATOM     11  C   UNL A   1      30.504  26.403  23.114  1.00  0.00     0.062 C 
BRANCH   7  12
ATOM     12  N   UNL A   1      31.373  29.678  22.014  1.00  0.00    -0.336 N 
ATOM     13  C   UNL A   1      29.951  30.010  21.992  1.00  0.00     0.331 C 
ATOM     14  H   UNL A   1      31.890  30.518  22.278  1.00  0.00     0.346 HD
ATOM     15  H   UNL A   1      31.600  29.340  21.078  1.00  0.00     0.346 HD
ENDBRANCH   7  12
BRANCH  11  16
ATOM     16  S   UNL A   1      31.077  24.671  23.091  1.00  0.00    -0.084 SA
BRANCH  16  17
ATOM     17  C   UNL A   1      31.572  24.216  24.683  1.00  0.00     0.168 A 
ATOM     18  N   UNL A   1      32.790  24.216  25.109  1.00  0.00    -0.233 NA
ATOM     19  N   UNL A   1      30.497  23.871  25.448  1.00  0.00    -0.301 N 
ATOM     20  C   UNL A   1      32.968  23.837  26.419  1.00  0.00     0.120 A 
ATOM     21  C   UNL A   1      30.618  23.467  26.743  1.00  0.00     0.251 A 
ATOM     22  H   UNL A   1      29.598  23.916  25.049  1.00  0.00     0.172 HD
ATOM     23  C   UNL A   1      31.995  23.464  27.257  1.00  0.00     0.091 A 
ATOM     24  O   UNL A   1      29.673  23.123  27.435  1.00  0.00    -0.269 OA
ENDBRANCH  16  17
ENDBRANCH  11  16
ENDBRANCH   4   7
ENDBRANCH   2   3
ENDBRANCH   1   2
BRANCH   1  25
ATOM     25  C   UNL A   1      35.043  29.595  27.471  1.00  0.00     0.118 C 
BRANCH  25  26
ATOM     26  N   UNL A   1      35.178  30.281  28.753  1.00  0.00    -0.352 N 
ATOM     27  C   UNL A   1      36.199  30.336  29.672  1.00  0.00     0.251 C 
ATOM     28  H   UNL A   1      34.385  30.805  29.008  1.00  0.00     0.163 HD
ATOM     29  O   UNL A   1      35.946  30.782  30.789  1.00  0.00    -0.269 OA
BRANCH  27  30
ATOM     30  C   UNL A   1      37.567  29.862  29.355  1.00  0.00     0.039 A 
ATOM     31  C   UNL A   1      37.983  29.828  28.020  1.00  0.00     0.014 A 
ATOM     32  C   UNL A   1      38.434  29.403  30.346  1.00  0.00     0.014 A 
ATOM     33  C   UNL A   1      39.279  29.412  27.697  1.00  0.00     0.010 A 
ATOM     34  C   UNL A   1      39.760  29.119  30.042  1.00  0.00     0.010 A 
ATOM     35  C   UNL A   1      40.193  29.094  28.711  1.00  0.00    -0.014 A 
BRANCH  35  36
ATOM     36  C   UNL A   1      41.590  28.685  28.416  1.00  0.00     0.031 A 
ATOM     37  C   UNL A   1      42.681  29.726  28.388  1.00  0.00     0.074 A 
ATOM     38  C   UNL A   1      41.863  27.405  28.097  1.00  0.00     0.049 A 
ATOM     39  N   UNL A   1      43.938  29.599  28.051  1.00  0.00    -0.248 NA
ATOM     40  C   UNL A   1      42.298  31.101  28.753  1.00  0.00     0.031 C 
ATOM     41  C   UNL A   1      40.885  26.315  28.047  1.00  0.00     0.029 A 
ATOM     42  N   UNL A   1      43.044  26.804  27.738  1.00  0.00    -0.354 N 
ATOM     43  C   UNL A   1      44.486  30.874  28.144  1.00  0.00     0.074 A 
ATOM     44  C   UNL A   1      43.411  31.772  28.498  1.00  0.00     0.031 C 
ATOM     45  C   UNL A   1      41.509  25.178  27.702  1.00  0.00     0.029 A 
ATOM     46  C   UNL A   1      42.921  25.462  27.466  1.00  0.00     0.049 A 
ATOM     47  H   UNL A   1      43.899  27.289  27.684  1.00  0.00     0.167 HD
ATOM     48  C   UNL A   1      45.774  31.258  27.982  1.00  0.00     0.037 A 
ATOM     49  C   UNL A   1      43.842  24.565  27.062  1.00  0.00     0.037 A 
ATOM     50  C   UNL A   1      46.842  30.350  27.660  1.00  0.00     0.049 A 
ATOM     51  C   UNL A   1      45.267  25.016  26.877  1.00  0.00     0.074 A 
ATOM     52  C   UNL A   1      48.193  30.622  27.533  1.00  0.00     0.029 A 
ATOM     53  N   UNL A   1      46.682  28.995  27.411  1.00  0.00    -0.354 N 
ATOM     54  N   UNL A   1      45.781  26.213  27.037  1.00  0.00    -0.248 NA
ATOM     55  C   UNL A   1      46.239  23.994  26.466  1.00  0.00     0.031 C 
ATOM     56  C   UNL A   1      48.841  29.443  27.153  1.00  0.00     0.029 A 
ATOM     57  C   UNL A   1      47.904  28.422  27.104  1.00  0.00     0.049 A 
ATOM     58  H   UNL A   1      45.824  28.512  27.448  1.00  0.00     0.167 HD
ATOM     59  C   UNL A   1      47.142  26.081  26.777  1.00  0.00     0.074 A 
ATOM     60  C   UNL A   1      47.371  24.686  26.460  1.00  0.00     0.031 C 
ATOM     61  C   UNL A   1      48.113  27.027  26.799  1.00  0.00     0.037 A 
BRANCH  48  62
ATOM     62  C   UNL A   1      46.094  32.720  28.155  1.00  0.00     0.058 A 
ATOM     63  C   UNL A   1      46.000  33.629  27.089  1.00  0.00     0.135 A 
ATOM     64  C   UNL A   1      46.481  33.223  29.408  1.00  0.00     0.135 A 
ATOM     65  F   UNL A   1      45.653  33.203  25.864  1.00  0.00    -0.206 F 
ATOM     66  C   UNL A   1      46.313  34.976  27.248  1.00  0.00     0.059 A 
ATOM     67  C   UNL A   1      46.765  34.572  29.599  1.00  0.00     0.059 A 
ATOM     68  F   UNL A   1      46.589  32.401  30.464  1.00  0.00    -0.206 F 
ATOM     69  C   UNL A   1      46.694  35.437  28.509  1.00  0.00     0.060 A 
BRANCH  69  70
ATOM     70  S   UNL A   1      47.094  37.187  28.697  1.00  0.00     0.124 S 
ATOM     71  O   UNL A   1      48.519  37.129  29.009  1.00  0.00    -0.237 OA
ATOM     72  O   UNL A   1      46.755  37.728  27.385  1.00  0.00    -0.237 OA
ATOM     73  O   UNL A   1      46.231  37.619  29.793  1.00  0.00    -0.744 OA
ENDBRANCH  69  70
ENDBRANCH  48  62
BRANCH  49  74
ATOM     74  C   UNL A   1      43.451  23.148  26.833  1.00  0.00     0.058 A 
ATOM     75  C   UNL A   1      43.381  22.618  25.536  1.00  0.00     0.135 A 
ATOM     76  C   UNL A   1      43.150  22.290  27.903  1.00  0.00     0.135 A 
ATOM     77  F   UNL A   1      43.651  23.398  24.478  1.00  0.00    -0.206 F 
ATOM     78  C   UNL A   1      43.010  21.297  25.305  1.00  0.00     0.059 A 
ATOM     79  C   UNL A   1      42.805  20.957  27.699  1.00  0.00     0.059 A 
ATOM     80  F   UNL A   1      43.217  22.740  29.167  1.00  0.00    -0.206 F 
ATOM     81  C   UNL A   1      42.727  20.473  26.395  1.00  0.00     0.060 A 
BRANCH  81  82
ATOM     82  S   UNL A   1      42.292  18.747  26.084  1.00  0.00     0.124 S 
ATOM     83  O   UNL A   1      43.205  18.404  25.001  1.00  0.00    -0.237 OA
ATOM     84  O   UNL A   1      42.568  18.125  27.374  1.00  0.00    -0.237 OA
ATOM     85  O   UNL A   1      40.880  18.818  25.719  1.00  0.00    -0.744 OA
ENDBRANCH  81  82
ENDBRANCH  49  74
BRANCH  61  86
ATOM     86  C   UNL A   1      49.522  26.585  26.509  1.00  0.00     0.058 A 
ATOM     87  C   UNL A   1      50.382  26.141  27.526  1.00  0.00     0.135 A 
ATOM     88  C   UNL A   1      49.996  26.547  25.187  1.00  0.00     0.135 A 
ATOM     89  F   UNL A   1      49.982  26.162  28.807  1.00  0.00    -0.206 F 
ATOM     90  C   UNL A   1      51.671  25.698  27.245  1.00  0.00     0.059 A 
ATOM     91  C   UNL A   1      51.269  26.078  24.880  1.00  0.00     0.059 A 
ATOM     92  F   UNL A   1      49.210  26.949  24.175  1.00  0.00    -0.206 F 
ATOM     93  C   UNL A   1      52.104  25.666  25.917  1.00  0.00     0.060 A 
BRANCH  93  94
ATOM     94  S   UNL A   1      53.763  25.054  25.564  1.00  0.00     0.124 S 
ATOM     95  O   UNL A   1      54.459  25.352  26.812  1.00  0.00    -0.237 OA
ATOM     96  O   UNL A   1      53.523  23.640  25.294  1.00  0.00    -0.237 OA
ATOM     97  O   UNL A   1      54.181  25.845  24.410  1.00  0.00    -0.744 OA
ENDBRANCH  93  94
ENDBRANCH  61  86
ENDBRANCH  35  36
ENDBRANCH  27  30
ENDBRANCH  25  26
ENDBRANCH   1  25
TORSDOF 16
ENDMDL
MODEL 2
REMARK VINA RESULT:     -12.0      7.081     11.805
REMARK SMILES C[NH2+][C@@]1(C(=O)NCCCNC(=O)c2ccc(-c3c4nc(c(-c5c(F)cc(S(=O)(=O)[O-])cc5F)c5ccc([nH]5)c(-c5c(F)cc(S(=O)(=O)[O-])cc5F)c5nc(c(-c6c(F)cc(S(=O)(=O)[O-])cc6F)c6ccc3[nH]6)C=C5)C=C4)cc2)CC[C@H](Sc2nccc(=O)[nH]2)C1
REMARK SMILES IDX 8 1 7 2 6 3 4 4 5 5 3 7 79 8 90 9 80 10 81 11 2 12 1 13
REMARK SMILES IDX 82 16 83 17 84 18 89 19 85 20 87 21 86 23 88 24 9 25 10 26
REMARK SMILES IDX 11 27 12 29 13 30 14 31 78 32 15 33 77 34 16 35 17 36 18 37
REMARK SMILES IDX 71 38 19 39 76 40 70 41 72 42 20 43 75 44 69 45 68 46 21 48
REMARK SMILES IDX 55 49 34 50 54 51 35 52 38 53 53 54 73 55 36 56 37 57 52 59
REMARK SMILES IDX 74 60 39 61 22 62 23 63 32 64 24 65 25 66 31 67 33 68 26 69
REMARK SMILES IDX 27 70 28 71 29 72 30 73 56 74 57 75 66 76 58 77 59 78 65 79
REMARK SMILES IDX 67 80 60 81 61 82 62 83 63 84 64 85 40 86 41 87 50 88 42 89
REMARK SMILES IDX 43 90 49 91 51 92 44 93 45 94 46 95 47 96 48 97
REMARK H PARENT 6 6 2 14 2 15 89 22 10 28 72 47 38 58
REMARK Flexibility Score: inf
ROOT
ATOM      1  C   UNL A   1      39.065  22.575  26.260  1.00  0.00     0.042 C 
ENDROOT
BRANCH   1   2
ATOM      2  C   UNL A   1      37.985  23.611  26.007  1.00  0.00     0.118 C 
BRANCH   2   3
ATOM      3  N   UNL A   1      37.450  23.518  24.674  1.00  0.00    -0.351 N 
ATOM      4  C   UNL A   1      36.193  23.271  24.222  1.00  0.00     0.281 C 
ATOM      5  O   UNL A   1      36.158  22.955  23.025  1.00  0.00    -0.268 OA
ATOM      6  H   UNL A   1      38.115  23.658  23.962  1.00  0.00     0.163 HD
BRANCH   4   7
ATOM      7  C   UNL A   1      34.880  23.348  25.124  1.00  0.00     0.176 C 
ATOM      8  C   UNL A   1      34.857  22.466  26.386  1.00  0.00     0.080 C 
ATOM      9  C   UNL A   1      33.644  22.912  24.306  1.00  0.00     0.094 C 
ATOM     10  C   UNL A   1      33.901  21.293  26.151  1.00  0.00     0.022 C 
ATOM     11  C   UNL A   1      32.991  21.690  24.993  1.00  0.00     0.062 C 
BRANCH   7  12
ATOM     12  N   UNL A   1      34.687  24.779  25.515  1.00  0.00    -0.336 N 
ATOM     13  C   UNL A   1      33.350  25.115  25.999  1.00  0.00     0.331 C 
ATOM     14  H   UNL A   1      35.354  24.998  26.255  1.00  0.00     0.346 HD
ATOM     15  H   UNL A   1      34.827  25.328  24.667  1.00  0.00     0.346 HD
ENDBRANCH   7  12
BRANCH  11  16
ATOM     16  S   UNL A   1      32.495  20.516  23.688  1.00  0.00    -0.084 SA
BRANCH  16  17
ATOM     17  C   UNL A   1      32.699  18.901  24.270  1.00  0.00     0.168 A 
ATOM     18  N   UNL A   1      32.278  18.467  25.410  1.00  0.00    -0.233 NA
ATOM     19  N   UNL A   1      33.353  18.132  23.355  1.00  0.00    -0.301 N 
ATOM     20  C   UNL A   1      32.528  17.140  25.675  1.00  0.00     0.120 A 
ATOM     21  C   UNL A   1      33.645  16.820  23.575  1.00  0.00     0.251 A 
ATOM     22  H   UNL A   1      33.625  18.540  22.501  1.00  0.00     0.172 HD
ATOM     23  C   UNL A   1      33.171  16.295  24.863  1.00  0.00     0.091 A 
ATOM     24  O   UNL A   1      34.259  16.122  22.783  1.00  0.00    -0.269 OA
ENDBRANCH  16  17
ENDBRANCH  11  16
ENDBRANCH   4   7
ENDBRANCH   2   3
ENDBRANCH   1   2
BRANCH   1  25
ATOM     25  C   UNL A   1      40.281  23.150  26.960  1.00  0.00     0.118 C 
BRANCH  25  26
ATOM     26  N   UNL A   1      41.083  23.977  26.064  1.00  0.00    -0.352 N 
ATOM     27  C   UNL A   1      41.471  25.294  26.117  1.00  0.00     0.251 C 
ATOM     28  H   UNL A   1      41.410  23.498  25.267  1.00  0.00     0.163 HD
ATOM     29  O   UNL A   1      41.930  25.803  25.096  1.00  0.00    -0.269 OA
BRANCH  27  30
ATOM     30  C   UNL A   1      41.333  26.105  27.351  1.00  0.00     0.039 A 
ATOM     31  C   UNL A   1      42.259  27.123  27.602  1.00  0.00     0.014 A 
ATOM     32  C   UNL A   1      40.337  25.849  28.291  1.00  0.00     0.014 A 
ATOM     33  C   UNL A   1      42.135  27.920  28.745  1.00  0.00     0.010 A 
ATOM     34  C   UNL A   1      40.132  26.722  29.353  1.00  0.00     0.010 A 
ATOM     35  C   UNL A   1      41.044  27.753  29.609  1.00  0.00    -0.014 A 
BRANCH  35  36
ATOM     36  C   UNL A   1      40.851  28.603  30.812  1.00  0.00     0.031 A 
ATOM     37  C   UNL A   1      39.787  29.671  30.807  1.00  0.00     0.074 A 
ATOM     38  C   UNL A   1      41.676  28.469  31.868  1.00  0.00     0.049 A 
ATOM     39  N   UNL A   1      39.525  30.584  31.706  1.00  0.00    -0.248 NA
ATOM     40  C   UNL A   1      38.926  29.747  29.613  1.00  0.00     0.031 C 
ATOM     41  C   UNL A   1      42.771  27.501  31.974  1.00  0.00     0.029 A 
ATOM     42  N   UNL A   1      41.734  29.162  33.052  1.00  0.00    -0.354 N 
ATOM     43  C   UNL A   1      38.489  31.348  31.181  1.00  0.00     0.074 A 
ATOM     44  C   UNL A   1      38.218  30.840  29.856  1.00  0.00     0.031 C 
ATOM     45  C   UNL A   1      43.374  27.647  33.164  1.00  0.00     0.029 A 
ATOM     46  C   UNL A   1      42.740  28.743  33.890  1.00  0.00     0.049 A 
ATOM     47  H   UNL A   1      41.110  29.889  33.281  1.00  0.00     0.167 HD
ATOM     48  C   UNL A   1      37.803  32.360  31.760  1.00  0.00     0.037 A 
ATOM     49  C   UNL A   1      43.114  29.198  35.102  1.00  0.00     0.037 A 
ATOM     50  C   UNL A   1      38.060  32.838  33.092  1.00  0.00     0.049 A 
ATOM     51  C   UNL A   1      42.343  30.333  35.724  1.00  0.00     0.074 A 
ATOM     52  C   UNL A   1      37.386  33.817  33.800  1.00  0.00     0.029 A 
ATOM     53  N   UNL A   1      39.075  32.375  33.917  1.00  0.00    -0.354 N 
ATOM     54  N   UNL A   1      41.320  30.998  35.241  1.00  0.00    -0.248 NA
ATOM     55  C   UNL A   1      42.771  30.772  37.059  1.00  0.00     0.031 C 
ATOM     56  C   UNL A   1      38.026  33.983  35.032  1.00  0.00     0.029 A 
ATOM     57  C   UNL A   1      39.063  33.067  35.117  1.00  0.00     0.049 A 
ATOM     58  H   UNL A   1      39.710  31.660  33.684  1.00  0.00     0.167 HD
ATOM     59  C   UNL A   1      40.963  31.914  36.226  1.00  0.00     0.074 A 
ATOM     60  C   UNL A   1      41.871  31.707  37.335  1.00  0.00     0.031 C 
ATOM     61  C   UNL A   1      39.972  32.840  36.214  1.00  0.00     0.037 A 
BRANCH  48  62
ATOM     62  C   UNL A   1      36.708  33.013  30.957  1.00  0.00     0.058 A 
ATOM     63  C   UNL A   1      35.355  32.690  31.151  1.00  0.00     0.135 A 
ATOM     64  C   UNL A   1      37.014  33.990  29.995  1.00  0.00     0.135 A 
ATOM     65  F   UNL A   1      35.004  31.751  32.044  1.00  0.00    -0.206 F 
ATOM     66  C   UNL A   1      34.348  33.283  30.396  1.00  0.00     0.059 A 
ATOM     67  C   UNL A   1      36.020  34.622  29.253  1.00  0.00     0.059 A 
ATOM     68  F   UNL A   1      38.289  34.339  29.766  1.00  0.00    -0.206 F 
ATOM     69  C   UNL A   1      34.691  34.249  29.449  1.00  0.00     0.060 A 
BRANCH  69  70
ATOM     70  S   UNL A   1      33.372  35.009  28.480  1.00  0.00     0.124 S 
ATOM     71  O   UNL A   1      34.133  35.824  27.538  1.00  0.00    -0.237 OA
ATOM     72  O   UNL A   1      32.696  33.848  27.910  1.00  0.00    -0.237 OA
ATOM     73  O   UNL A   1      32.604  35.754  29.473  1.00  0.00    -0.744 OA
ENDBRANCH  69  70
ENDBRANCH  48  62
BRANCH  49  74
ATOM     74  C   UNL A   1      44.254  28.563  35.816  1.00  0.00     0.058 A 
ATOM     75  C   UNL A   1      44.045  27.504  36.714  1.00  0.00     0.135 A 
ATOM     76  C   UNL A   1      45.576  28.989  35.610  1.00  0.00     0.135 A 
ATOM     77  F   UNL A   1      42.800  27.065  36.953  1.00  0.00    -0.206 F 
ATOM     78  C   UNL A   1      45.100  26.904  37.395  1.00  0.00     0.059 A 
ATOM     79  C   UNL A   1      46.650  28.385  36.257  1.00  0.00     0.059 A 
ATOM     80  F   UNL A   1      45.835  29.987  34.749  1.00  0.00    -0.206 F 
ATOM     81  C   UNL A   1      46.401  27.350  37.156  1.00  0.00     0.060 A 
BRANCH  81  82
ATOM     82  S   UNL A   1      47.765  26.532  38.011  1.00  0.00     0.124 S 
ATOM     83  O   UNL A   1      48.795  27.564  37.978  1.00  0.00    -0.237 OA
ATOM     84  O   UNL A   1      47.183  26.253  39.319  1.00  0.00    -0.237 OA
ATOM     85  O   UNL A   1      48.023  25.357  37.184  1.00  0.00    -0.744 OA
ENDBRANCH  81  82
ENDBRANCH  49  74
BRANCH  61  86
ATOM     86  C   UNL A   1      39.789  33.679  37.450  1.00  0.00     0.058 A 
ATOM     87  C   UNL A   1      40.480  34.887  37.633  1.00  0.00     0.135 A 
ATOM     88  C   UNL A   1      38.864  33.297  38.436  1.00  0.00     0.135 A 
ATOM     89  F   UNL A   1      41.380  35.297  36.726  1.00  0.00    -0.206 F 
ATOM     90  C   UNL A   1      40.277  35.675  38.762  1.00  0.00     0.059 A 
ATOM     91  C   UNL A   1      38.621  34.085  39.556  1.00  0.00     0.059 A 
ATOM     92  F   UNL A   1      38.168  32.156  38.304  1.00  0.00    -0.206 F 
ATOM     93  C   UNL A   1      39.341  35.268  39.716  1.00  0.00     0.060 A 
BRANCH  93  94
ATOM     94  S   UNL A   1      39.061  36.319  41.155  1.00  0.00     0.124 S 
ATOM     95  O   UNL A   1      40.373  36.300  41.794  1.00  0.00    -0.237 OA
ATOM     96  O   UNL A   1      38.671  37.586  40.544  1.00  0.00    -0.237 OA
ATOM     97  O   UNL A   1      38.000  35.627  41.882  1.00  0.00    -0.744 OA
ENDBRANCH  93  94
ENDBRANCH  61  86
ENDBRANCH  35  36
ENDBRANCH  27  30
ENDBRANCH  25  26
ENDBRANCH   1  25
TORSDOF 16
ENDMDL
MODEL 3
REMARK VINA RESULT:     -12.0      6.790     12.288
REMARK SMILES C[NH2+][C@@]1(C(=O)NCCCNC(=O)c2ccc(-c3c4nc(c(-c5c(F)cc(S(=O)(=O)[O-])cc5F)c5ccc([nH]5)c(-c5c(F)cc(S(=O)(=O)[O-])cc5F)c5nc(c(-c6c(F)cc(S(=O)(=O)[O-])cc6F)c6ccc3[nH]6)C=C5)C=C4)cc2)CC[C@H](Sc2nccc(=O)[nH]2)C1
REMARK SMILES IDX 8 1 7 2 6 3 4 4 5 5 3 7 79 8 90 9 80 10 81 11 2 12 1 13
REMARK SMILES IDX 82 16 83 17 84 18 89 19 85 20 87 21 86 23 88 24 9 25 10 26
REMARK SMILES IDX 11 27 12 29 13 30 14 31 78 32 15 33 77 34 16 35 17 36 18 37
REMARK SMILES IDX 71 38 19 39 76 40 70 41 72 42 20 43 75 44 69 45 68 46 21 48
REMARK SMILES IDX 55 49 34 50 54 51 35 52 38 53 53 54 73 55 36 56 37 57 52 59
REMARK SMILES IDX 74 60 39 61 22 62 23 63 32 64 24 65 25 66 31 67 33 68 26 69
REMARK SMILES IDX 27 70 28 71 29 72 30 73 56 74 57 75 66 76 58 77 59 78 65 79
REMARK SMILES IDX 67 80 60 81 61 82 62 83 63 84 64 85 40 86 41 87 50 88 42 89
REMARK SMILES IDX 43 90 49 91 51 92 44 93 45 94 46 95 47 96 48 97
REMARK H PARENT 6 6 2 14 2 15 89 22 10 28 72 47 38 58
REMARK Flexibility Score: inf
ROOT
ATOM      1  C   UNL A   1      37.236  23.449  25.475  1.00  0.00     0.042 C 
ENDROOT
BRANCH   1   2
ATOM      2  C   UNL A   1      36.554  22.203  26.010  1.00  0.00     0.118 C 
BRANCH   2   3
ATOM      3  N   UNL A   1      35.484  22.522  26.918  1.00  0.00    -0.351 N 
ATOM      4  C   UNL A   1      34.141  22.344  26.826  1.00  0.00     0.281 C 
ATOM      5  O   UNL A   1      33.502  23.015  27.648  1.00  0.00    -0.268 OA
ATOM      6  H   UNL A   1      35.779  22.945  27.756  1.00  0.00     0.163 HD
BRANCH   4   7
ATOM      7  C   UNL A   1      33.428  21.394  25.761  1.00  0.00     0.176 C 
ATOM      8  C   UNL A   1      34.088  21.295  24.374  1.00  0.00     0.080 C 
ATOM      9  C   UNL A   1      31.988  21.883  25.489  1.00  0.00     0.094 C 
ATOM     10  C   UNL A   1      33.231  22.064  23.364  1.00  0.00     0.022 C 
ATOM     11  C   UNL A   1      31.846  22.217  23.985  1.00  0.00     0.062 C 
BRANCH   7  12
ATOM     12  N   UNL A   1      33.339  20.028  26.367  1.00  0.00    -0.336 N 
ATOM     13  C   UNL A   1      32.885  18.976  25.461  1.00  0.00     0.331 C 
ATOM     14  H   UNL A   1      34.266  19.772  26.708  1.00  0.00     0.346 HD
ATOM     15  H   UNL A   1      32.637  20.089  27.105  1.00  0.00     0.346 HD
ENDBRANCH   7  12
BRANCH  11  16
ATOM     16  S   UNL A   1      30.872  23.753  23.845  1.00  0.00    -0.084 SA
BRANCH  16  17
ATOM     17  C   UNL A   1      31.881  25.010  23.223  1.00  0.00     0.168 A 
ATOM     18  N   UNL A   1      32.402  25.959  23.925  1.00  0.00    -0.233 NA
ATOM     19  N   UNL A   1      32.075  24.860  21.881  1.00  0.00    -0.301 N 
ATOM     20  C   UNL A   1      33.192  26.850  23.238  1.00  0.00     0.120 A 
ATOM     21  C   UNL A   1      32.829  25.725  21.148  1.00  0.00     0.251 A 
ATOM     22  H   UNL A   1      31.654  24.096  21.425  1.00  0.00     0.172 HD
ATOM     23  C   UNL A   1      33.441  26.813  21.924  1.00  0.00     0.091 A 
ATOM     24  O   UNL A   1      32.989  25.628  19.942  1.00  0.00    -0.269 OA
ENDBRANCH  16  17
ENDBRANCH  11  16
ENDBRANCH   4   7
ENDBRANCH   2   3
ENDBRANCH   1   2
BRANCH   1  25
ATOM     25  C   UNL A   1      38.126  24.122  26.502  1.00  0.00     0.118 C 
BRANCH  25  26
ATOM     26  N   UNL A   1      39.541  23.966  26.177  1.00  0.00    -0.352 N 
ATOM     27  C   UNL A   1      40.660  24.675  26.546  1.00  0.00     0.251 C 
ATOM     28  H   UNL A   1      39.731  23.207  25.579  1.00  0.00     0.163 HD
ATOM     29  O   UNL A   1      41.699  24.481  25.918  1.00  0.00    -0.269 OA
BRANCH  27  30
ATOM     30  C   UNL A   1      40.635  25.662  27.651  1.00  0.00     0.039 A 
ATOM     31  C   UNL A   1      41.646  26.627  27.723  1.00  0.00     0.014 A 
ATOM     32  C   UNL A   1      39.662  25.627  28.648  1.00  0.00     0.014 A 
ATOM     33  C   UNL A   1      41.632  27.587  28.740  1.00  0.00     0.010 A 
ATOM     34  C   UNL A   1      39.569  26.658  29.575  1.00  0.00     0.010 A 
ATOM     35  C   UNL A   1      40.567  27.636  29.651  1.00  0.00    -0.014 A 
BRANCH  35  36
ATOM     36  C   UNL A   1      40.490  28.663  30.721  1.00  0.00     0.031 A 
ATOM     37  C   UNL A   1      41.378  28.543  31.934  1.00  0.00     0.074 A 
ATOM     38  C   UNL A   1      39.574  29.648  30.643  1.00  0.00     0.049 A 
ATOM     39  N   UNL A   1      41.395  29.266  33.023  1.00  0.00    -0.248 NA
ATOM     40  C   UNL A   1      42.353  27.438  31.938  1.00  0.00     0.031 C 
ATOM     41  C   UNL A   1      38.629  29.844  29.541  1.00  0.00     0.029 A 
ATOM     42  N   UNL A   1      39.277  30.665  31.516  1.00  0.00    -0.354 N 
ATOM     43  C   UNL A   1      42.362  28.695  33.843  1.00  0.00     0.074 A 
ATOM     44  C   UNL A   1      42.859  27.524  33.159  1.00  0.00     0.031 C 
ATOM     45  C   UNL A   1      37.875  30.925  29.794  1.00  0.00     0.029 A 
ATOM     46  C   UNL A   1      38.252  31.477  31.092  1.00  0.00     0.049 A 
ATOM     47  H   UNL A   1      39.756  30.801  32.366  1.00  0.00     0.167 HD
ATOM     48  C   UNL A   1      42.819  29.124  35.042  1.00  0.00     0.037 A 
ATOM     49  C   UNL A   1      37.676  32.539  31.687  1.00  0.00     0.037 A 
ATOM     50  C   UNL A   1      42.339  30.310  35.701  1.00  0.00     0.049 A 
ATOM     51  C   UNL A   1      38.192  32.993  33.027  1.00  0.00     0.074 A 
ATOM     52  C   UNL A   1      42.775  30.870  36.888  1.00  0.00     0.029 A 
ATOM     53  N   UNL A   1      41.313  31.117  35.230  1.00  0.00    -0.354 N 
ATOM     54  N   UNL A   1      39.156  32.481  33.757  1.00  0.00    -0.248 NA
ATOM     55  C   UNL A   1      37.551  34.174  33.621  1.00  0.00     0.031 C 
ATOM     56  C   UNL A   1      41.976  31.985  37.163  1.00  0.00     0.029 A 
ATOM     57  C   UNL A   1      41.083  32.155  36.117  1.00  0.00     0.049 A 
ATOM     58  H   UNL A   1      40.823  30.973  34.389  1.00  0.00     0.167 HD
ATOM     59  C   UNL A   1      39.256  33.296  34.881  1.00  0.00     0.074 A 
ATOM     60  C   UNL A   1      38.264  34.340  34.726  1.00  0.00     0.031 C 
ATOM     61  C   UNL A   1      40.094  33.191  35.941  1.00  0.00     0.037 A 
BRANCH  48  62
ATOM     62  C   UNL A   1      43.893  28.309  35.714  1.00  0.00     0.058 A 
ATOM     63  C   UNL A   1      45.257  28.542  35.477  1.00  0.00     0.135 A 
ATOM     64  C   UNL A   1      43.554  27.294  36.625  1.00  0.00     0.135 A 
ATOM     65  F   UNL A   1      45.640  29.487  34.603  1.00  0.00    -0.206 F 
ATOM     66  C   UNL A   1      46.245  27.775  36.087  1.00  0.00     0.059 A 
ATOM     67  C   UNL A   1      44.527  26.538  37.273  1.00  0.00     0.059 A 
ATOM     68  F   UNL A   1      42.266  27.025  36.890  1.00  0.00    -0.206 F 
ATOM     69  C   UNL A   1      45.869  26.776  36.984  1.00  0.00     0.060 A 
BRANCH  69  70
ATOM     70  S   UNL A   1      47.165  25.793  37.768  1.00  0.00     0.124 S 
ATOM     71  O   UNL A   1      48.199  25.800  36.739  1.00  0.00    -0.237 OA
ATOM     72  O   UNL A   1      47.460  26.568  38.969  1.00  0.00    -0.237 OA
ATOM     73  O   UNL A   1      46.521  24.503  38.000  1.00  0.00    -0.744 OA
ENDBRANCH  69  70
ENDBRANCH  48  62
BRANCH  49  74
ATOM     74  C   UNL A   1      36.565  33.261  31.009  1.00  0.00     0.058 A 
ATOM     75  C   UNL A   1      36.813  34.102  29.913  1.00  0.00     0.135 A 
ATOM     76  C   UNL A   1      35.234  33.118  31.431  1.00  0.00     0.135 A 
ATOM     77  F   UNL A   1      38.069  34.280  29.476  1.00  0.00    -0.206 F 
ATOM     78  C   UNL A   1      35.786  34.789  29.272  1.00  0.00     0.059 A 
ATOM     79  C   UNL A   1      34.187  33.771  30.788  1.00  0.00     0.059 A 
ATOM     80  F   UNL A   1      34.938  32.313  32.464  1.00  0.00    -0.206 F 
ATOM     81  C   UNL A   1      34.475  34.613  29.716  1.00  0.00     0.060 A 
BRANCH  81  82
ATOM     82  S   UNL A   1      33.146  35.475  28.846  1.00  0.00     0.124 S 
ATOM     83  O   UNL A   1      32.453  36.134  29.946  1.00  0.00    -0.237 OA
ATOM     84  O   UNL A   1      33.888  36.349  27.943  1.00  0.00    -0.237 OA
ATOM     85  O   UNL A   1      32.413  34.392  28.196  1.00  0.00    -0.744 OA
ENDBRANCH  81  82
ENDBRANCH  49  74
BRANCH  61  86
ATOM     86  C   UNL A   1      40.005  34.251  37.006  1.00  0.00     0.058 A 
ATOM     87  C   UNL A   1      40.764  35.431  36.941  1.00  0.00     0.135 A 
ATOM     88  C   UNL A   1      39.103  34.110  38.073  1.00  0.00     0.135 A 
ATOM     89  F   UNL A   1      41.646  35.614  35.946  1.00  0.00    -0.206 F 
ATOM     90  C   UNL A   1      40.648  36.423  37.910  1.00  0.00     0.059 A 
ATOM     91  C   UNL A   1      38.947  35.103  39.035  1.00  0.00     0.059 A 
ATOM     92  F   UNL A   1      38.344  33.007  38.177  1.00  0.00    -0.206 F 
ATOM     93  C   UNL A   1      39.732  36.251  38.951  1.00  0.00     0.060 A 
BRANCH  93  94
ATOM     94  S   UNL A   1      39.566  37.563  40.179  1.00  0.00     0.124 S 
ATOM     95  O   UNL A   1      40.615  38.489  39.766  1.00  0.00    -0.237 OA
ATOM     96  O   UNL A   1      38.196  38.019  39.963  1.00  0.00    -0.237 OA
ATOM     97  O   UNL A   1      39.799  36.875  41.446  1.00  0.00    -0.744 OA
ENDBRANCH  93  94
ENDBRANCH  61  86
ENDBRANCH  35  36
ENDBRANCH  27  30
ENDBRANCH  25  26
ENDBRANCH   1  25
TORSDOF 16
ENDMDL
