MODEL 1
REMARK VINA RESULT:     -13.4      0.000      0.000
REMARK SMILES O=C(NCCCNC(=O)c1ccc(-c2c3nc(c(-c4c(F)cc(S(=O)(=O)[O-])cc4F)c4ccc([nH]4)c(-c4c(F)cc(S(=O)(=O)[O-])cc4F)c4nc(c(-c5c(F)cc(S(=O)(=O)[O-])cc5F)c5ccc2[nH]5)C=C4)C=C3)cc1)C1=Cc2c(ccc(Cl)c2-c2ccccc2)O[C@H]1C(F)(F)F
REMARK SMILES IDX 6 1 5 2 4 3 3 4 1 5 2 6 76 8 77 9 92 10 78 11 91 12 79 13
REMARK SMILES IDX 84 14 80 15 82 16 81 17 83 18 93 19 94 20 95 21 96 22 85 23
REMARK SMILES IDX 86 24 90 25 87 26 89 27 88 28 7 29 8 30 9 32 10 33 11 34
REMARK SMILES IDX 75 35 12 36 74 37 13 38 14 39 15 40 68 41 16 42 73 43 67 44
REMARK SMILES IDX 69 45 17 46 72 47 66 48 65 49 18 51 52 52 31 53 51 54 32 55
REMARK SMILES IDX 35 56 50 57 70 58 33 59 34 60 49 62 71 63 36 64 19 65 20 66
REMARK SMILES IDX 29 67 21 68 22 69 28 70 30 71 23 72 24 73 25 74 26 75 27 76
REMARK SMILES IDX 53 77 54 78 63 79 55 80 56 81 62 82 64 83 57 84 58 85 59 86
REMARK SMILES IDX 60 87 61 88 37 89 38 90 47 91 39 92 40 93 46 94 48 95 41 96
REMARK SMILES IDX 42 97 43 98 44 99 45 100
REMARK H PARENT 3 7 7 31 69 50 35 61
REMARK Flexibility Score: inf
ROOT
ATOM      1  C   UNL A   1      39.413  23.273  26.693  1.00  0.00     0.118 C 
ENDROOT
BRANCH   1   2
ATOM      2  C   UNL A   1      38.379  24.285  26.217  1.00  0.00     0.042 C 
BRANCH   2   3
ATOM      3  C   UNL A   1      37.099  23.650  25.701  1.00  0.00     0.118 C 
BRANCH   3   4
ATOM      4  N   UNL A   1      37.195  22.240  25.366  1.00  0.00    -0.352 N 
ATOM      5  O   UNL A   1      36.465  20.139  25.019  1.00  0.00    -0.270 OA
ATOM      6  C   UNL A   1      36.202  21.301  25.316  1.00  0.00     0.251 C 
ATOM      7  H   UNL A   1      38.098  21.915  25.144  1.00  0.00     0.163 HD
BRANCH   6   8
ATOM      8  C   UNL A   1      34.800  21.671  25.609  1.00  0.00     0.067 C 
ATOM      9  C   UNL A   1      33.919  20.666  25.718  1.00  0.00     0.026 C 
ATOM     10  C   UNL A   1      34.292  23.040  25.267  1.00  0.00     0.314 C 
ATOM     11  C   UNL A   1      33.114  20.585  24.467  1.00  0.00     0.027 A 
ATOM     12  O   UNL A   1      33.190  23.012  24.296  1.00  0.00    -0.475 OA
ATOM     13  C   UNL A   1      32.817  21.785  23.802  1.00  0.00     0.128 A 
ATOM     14  C   UNL A   1      32.836  19.318  23.893  1.00  0.00     0.011 A 
ATOM     15  C   UNL A   1      32.234  21.744  22.542  1.00  0.00     0.049 A 
ATOM     16  C   UNL A   1      32.269  19.303  22.610  1.00  0.00     0.049 A 
ATOM     17  C   UNL A   1      31.978  20.505  21.941  1.00  0.00     0.025 A 
ATOM     18  Cl  UNL A   1      31.962  17.823  21.776  1.00  0.00    -0.084 Cl
BRANCH  10  19
ATOM     19  C   UNL A   1      33.876  23.810  26.539  1.00  0.00     0.429 C 
ATOM     20  F   UNL A   1      34.492  23.358  27.659  1.00  0.00    -0.167 F 
ATOM     21  F   UNL A   1      34.170  25.127  26.430  1.00  0.00    -0.167 F 
ATOM     22  F   UNL A   1      32.545  23.719  26.776  1.00  0.00    -0.167 F 
ENDBRANCH  10  19
BRANCH  14  23
ATOM     23  C   UNL A   1      33.310  18.129  24.633  1.00  0.00    -0.016 A 
ATOM     24  C   UNL A   1      32.411  17.393  25.420  1.00  0.00     0.009 A 
ATOM     25  C   UNL A   1      34.538  17.540  24.288  1.00  0.00     0.009 A 
ATOM     26  C   UNL A   1      32.678  16.063  25.749  1.00  0.00     0.001 A 
ATOM     27  C   UNL A   1      34.798  16.206  24.607  1.00  0.00     0.001 A 
ATOM     28  C   UNL A   1      33.856  15.462  25.314  1.00  0.00     0.000 A 
ENDBRANCH  14  23
ENDBRANCH   6   8
ENDBRANCH   3   4
ENDBRANCH   2   3
ENDBRANCH   1   2
BRANCH   1  29
ATOM     29  N   UNL A   1      40.776  23.548  26.241  1.00  0.00    -0.352 N 
ATOM     30  C   UNL A   1      41.679  24.558  26.504  1.00  0.00     0.251 C 
ATOM     31  H   UNL A   1      41.122  22.870  25.617  1.00  0.00     0.163 HD
ATOM     32  O   UNL A   1      42.751  24.551  25.920  1.00  0.00    -0.269 OA
BRANCH  30  33
ATOM     33  C   UNL A   1      41.356  25.676  27.423  1.00  0.00     0.039 A 
ATOM     34  C   UNL A   1      40.457  25.444  28.473  1.00  0.00     0.014 A 
ATOM     35  C   UNL A   1      41.910  26.942  27.272  1.00  0.00     0.014 A 
ATOM     36  C   UNL A   1      40.222  26.439  29.428  1.00  0.00     0.010 A 
ATOM     37  C   UNL A   1      41.783  27.881  28.289  1.00  0.00     0.010 A 
ATOM     38  C   UNL A   1      40.941  27.642  29.385  1.00  0.00    -0.014 A 
BRANCH  38  39
ATOM     39  C   UNL A   1      40.848  28.669  30.459  1.00  0.00     0.031 A 
ATOM     40  C   UNL A   1      41.755  28.585  31.660  1.00  0.00     0.074 A 
ATOM     41  C   UNL A   1      39.873  29.600  30.414  1.00  0.00     0.049 A 
ATOM     42  N   UNL A   1      41.699  29.244  32.789  1.00  0.00    -0.248 NA
ATOM     43  C   UNL A   1      42.836  27.587  31.606  1.00  0.00     0.031 C 
ATOM     44  C   UNL A   1      38.888  29.752  29.340  1.00  0.00     0.029 A 
ATOM     45  N   UNL A   1      39.534  30.585  31.309  1.00  0.00    -0.354 N 
ATOM     46  C   UNL A   1      42.698  28.706  33.591  1.00  0.00     0.074 A 
ATOM     47  C   UNL A   1      43.310  27.631  32.842  1.00  0.00     0.031 C 
ATOM     48  C   UNL A   1      38.079  30.786  29.623  1.00  0.00     0.029 A 
ATOM     49  C   UNL A   1      38.451  31.338  30.920  1.00  0.00     0.049 A 
ATOM     50  H   UNL A   1      40.020  30.738  32.151  1.00  0.00     0.167 HD
ATOM     51  C   UNL A   1      43.088  29.087  34.832  1.00  0.00     0.037 A 
ATOM     52  C   UNL A   1      37.819  32.353  31.542  1.00  0.00     0.037 A 
ATOM     53  C   UNL A   1      42.526  30.206  35.541  1.00  0.00     0.049 A 
ATOM     54  C   UNL A   1      38.310  32.801  32.890  1.00  0.00     0.074 A 
ATOM     55  C   UNL A   1      42.905  30.731  36.763  1.00  0.00     0.029 A 
ATOM     56  N   UNL A   1      41.474  30.984  35.079  1.00  0.00    -0.354 N 
ATOM     57  N   UNL A   1      39.284  32.307  33.617  1.00  0.00    -0.248 NA
ATOM     58  C   UNL A   1      37.620  33.944  33.503  1.00  0.00     0.031 C 
ATOM     59  C   UNL A   1      42.067  31.812  37.052  1.00  0.00     0.029 A 
ATOM     60  C   UNL A   1      41.187  31.983  35.994  1.00  0.00     0.049 A 
ATOM     61  H   UNL A   1      41.000  30.846  34.228  1.00  0.00     0.167 HD
ATOM     62  C   UNL A   1      39.338  33.091  34.764  1.00  0.00     0.074 A 
ATOM     63  C   UNL A   1      38.307  34.100  34.627  1.00  0.00     0.031 C 
ATOM     64  C   UNL A   1      40.163  32.983  35.833  1.00  0.00     0.037 A 
BRANCH  51  65
ATOM     65  C   UNL A   1      44.189  28.297  35.487  1.00  0.00     0.058 A 
ATOM     66  C   UNL A   1      45.543  28.607  35.279  1.00  0.00     0.135 A 
ATOM     67  C   UNL A   1      43.888  27.224  36.341  1.00  0.00     0.135 A 
ATOM     68  F   UNL A   1      45.888  29.613  34.460  1.00  0.00    -0.206 F 
ATOM     69  C   UNL A   1      46.560  27.853  35.855  1.00  0.00     0.059 A 
ATOM     70  C   UNL A   1      44.889  26.475  36.954  1.00  0.00     0.059 A 
ATOM     71  F   UNL A   1      42.611  26.886  36.580  1.00  0.00    -0.206 F 
ATOM     72  C   UNL A   1      46.223  26.784  36.688  1.00  0.00     0.060 A 
BRANCH  72  73
ATOM     73  S   UNL A   1      47.553  25.806  37.417  1.00  0.00     0.124 S 
ATOM     74  O   UNL A   1      47.590  24.655  36.519  1.00  0.00    -0.237 OA
ATOM     75  O   UNL A   1      48.693  26.713  37.333  1.00  0.00    -0.237 OA
ATOM     76  O   UNL A   1      47.072  25.534  38.768  1.00  0.00    -0.744 OA
ENDBRANCH  72  73
ENDBRANCH  51  65
BRANCH  52  77
ATOM     77  C   UNL A   1      36.677  33.036  30.877  1.00  0.00     0.058 A 
ATOM     78  C   UNL A   1      35.364  32.832  31.325  1.00  0.00     0.135 A 
ATOM     79  C   UNL A   1      36.873  33.921  29.806  1.00  0.00     0.135 A 
ATOM     80  F   UNL A   1      35.128  31.991  32.343  1.00  0.00    -0.206 F 
ATOM     81  C   UNL A   1      34.282  33.470  30.729  1.00  0.00     0.059 A 
ATOM     82  C   UNL A   1      35.808  34.589  29.207  1.00  0.00     0.059 A 
ATOM     83  F   UNL A   1      38.112  34.166  29.353  1.00  0.00    -0.206 F 
ATOM     84  C   UNL A   1      34.515  34.350  29.671  1.00  0.00     0.060 A 
BRANCH  84  85
ATOM     85  S   UNL A   1      33.110  35.220  28.943  1.00  0.00     0.124 S 
ATOM     86  O   UNL A   1      32.605  34.228  28.003  1.00  0.00    -0.237 OA
ATOM     87  O   UNL A   1      32.271  35.480  30.110  1.00  0.00    -0.237 OA
ATOM     88  O   UNL A   1      33.723  36.404  28.347  1.00  0.00    -0.744 OA
ENDBRANCH  84  85
ENDBRANCH  52  77
BRANCH  64  89
ATOM     89  C   UNL A   1      40.009  34.001  36.927  1.00  0.00     0.058 A 
ATOM     90  C   UNL A   1      40.632  35.256  36.854  1.00  0.00     0.135 A 
ATOM     91  C   UNL A   1      39.182  33.738  38.030  1.00  0.00     0.135 A 
ATOM     92  F   UNL A   1      41.438  35.552  35.822  1.00  0.00    -0.206 F 
ATOM     93  C   UNL A   1      40.454  36.212  37.848  1.00  0.00     0.059 A 
ATOM     94  C   UNL A   1      38.971  34.687  39.025  1.00  0.00     0.059 A 
ATOM     95  F   UNL A   1      38.558  32.554  38.140  1.00  0.00    -0.206 F 
ATOM     96  C   UNL A   1      39.619  35.918  38.929  1.00  0.00     0.060 A 
BRANCH  96  97
ATOM     97  S   UNL A   1      39.361  37.181  40.192  1.00  0.00     0.124 S 
ATOM     98  O   UNL A   1      38.596  36.443  41.192  1.00  0.00    -0.237 OA
ATOM     99  O   UNL A   1      40.727  37.532  40.570  1.00  0.00    -0.237 OA
ATOM    100  O   UNL A   1      38.626  38.225  39.483  1.00  0.00    -0.744 OA
ENDBRANCH  96  97
ENDBRANCH  64  89
ENDBRANCH  38  39
ENDBRANCH  30  33
ENDBRANCH   1  29
TORSDOF 15
ENDMDL
MODEL 2
REMARK VINA RESULT:     -13.4      7.078     12.432
REMARK SMILES O=C(NCCCNC(=O)c1ccc(-c2c3nc(c(-c4c(F)cc(S(=O)(=O)[O-])cc4F)c4ccc([nH]4)c(-c4c(F)cc(S(=O)(=O)[O-])cc4F)c4nc(c(-c5c(F)cc(S(=O)(=O)[O-])cc5F)c5ccc2[nH]5)C=C4)C=C3)cc1)C1=Cc2c(ccc(Cl)c2-c2ccccc2)O[C@H]1C(F)(F)F
REMARK SMILES IDX 6 1 5 2 4 3 3 4 1 5 2 6 76 8 77 9 92 10 78 11 91 12 79 13
REMARK SMILES IDX 84 14 80 15 82 16 81 17 83 18 93 19 94 20 95 21 96 22 85 23
REMARK SMILES IDX 86 24 90 25 87 26 89 27 88 28 7 29 8 30 9 32 10 33 11 34
REMARK SMILES IDX 75 35 12 36 74 37 13 38 14 39 15 40 68 41 16 42 73 43 67 44
REMARK SMILES IDX 69 45 17 46 72 47 66 48 65 49 18 51 52 52 31 53 51 54 32 55
REMARK SMILES IDX 35 56 50 57 70 58 33 59 34 60 49 62 71 63 36 64 19 65 20 66
REMARK SMILES IDX 29 67 21 68 22 69 28 70 30 71 23 72 24 73 25 74 26 75 27 76
REMARK SMILES IDX 53 77 54 78 63 79 55 80 56 81 62 82 64 83 57 84 58 85 59 86
REMARK SMILES IDX 60 87 61 88 37 89 38 90 47 91 39 92 40 93 46 94 48 95 41 96
REMARK SMILES IDX 42 97 43 98 44 99 45 100
REMARK H PARENT 3 7 7 31 69 50 35 61
REMARK Flexibility Score: inf
ROOT
ATOM      1  C   UNL A   1      35.454  30.509  27.890  1.00  0.00     0.118 C 
ENDROOT
BRANCH   1   2
ATOM      2  C   UNL A   1      35.190  29.151  27.253  1.00  0.00     0.042 C 
BRANCH   2   3
ATOM      3  C   UNL A   1      33.736  28.718  27.324  1.00  0.00     0.118 C 
BRANCH   3   4
ATOM      4  N   UNL A   1      32.765  29.737  26.963  1.00  0.00    -0.352 N 
ATOM      5  O   UNL A   1      31.251  30.790  25.672  1.00  0.00    -0.270 OA
ATOM      6  C   UNL A   1      32.028  29.850  25.817  1.00  0.00     0.251 C 
ATOM      7  H   UNL A   1      32.617  30.441  27.634  1.00  0.00     0.163 HD
BRANCH   6   8
ATOM      8  C   UNL A   1      32.146  28.841  24.741  1.00  0.00     0.067 C 
ATOM      9  C   UNL A   1      31.449  29.069  23.618  1.00  0.00     0.026 C 
ATOM     10  C   UNL A   1      32.550  27.434  25.065  1.00  0.00     0.314 C 
ATOM     11  C   UNL A   1      30.237  28.204  23.613  1.00  0.00     0.027 A 
ATOM     12  O   UNL A   1      31.518  26.450  24.712  1.00  0.00    -0.475 OA
ATOM     13  C   UNL A   1      30.337  26.933  24.199  1.00  0.00     0.128 A 
ATOM     14  C   UNL A   1      28.992  28.745  23.199  1.00  0.00     0.011 A 
ATOM     15  C   UNL A   1      29.191  26.170  24.384  1.00  0.00     0.049 A 
ATOM     16  C   UNL A   1      27.846  27.966  23.418  1.00  0.00     0.049 A 
ATOM     17  C   UNL A   1      27.948  26.695  24.011  1.00  0.00     0.025 A 
ATOM     18  Cl  UNL A   1      26.269  28.551  23.031  1.00  0.00    -0.084 Cl
BRANCH  10  19
ATOM     19  C   UNL A   1      33.895  27.076  24.397  1.00  0.00     0.429 C 
ATOM     20  F   UNL A   1      34.682  26.291  25.173  1.00  0.00    -0.167 F 
ATOM     21  F   UNL A   1      33.700  26.412  23.233  1.00  0.00    -0.167 F 
ATOM     22  F   UNL A   1      34.628  28.177  24.106  1.00  0.00    -0.167 F 
ENDBRANCH  10  19
BRANCH  14  23
ATOM     23  C   UNL A   1      28.997  30.142  22.715  1.00  0.00    -0.016 A 
ATOM     24  C   UNL A   1      28.927  30.404  21.337  1.00  0.00     0.009 A 
ATOM     25  C   UNL A   1      28.723  31.189  23.611  1.00  0.00     0.009 A 
ATOM     26  C   UNL A   1      28.479  31.640  20.870  1.00  0.00     0.001 A 
ATOM     27  C   UNL A   1      28.263  32.421  23.142  1.00  0.00     0.001 A 
ATOM     28  C   UNL A   1      28.117  32.635  21.773  1.00  0.00     0.000 A 
ENDBRANCH  14  23
ENDBRANCH   6   8
ENDBRANCH   3   4
ENDBRANCH   2   3
ENDBRANCH   1   2
BRANCH   1  29
ATOM     29  N   UNL A   1      35.390  30.510  29.350  1.00  0.00    -0.352 N 
ATOM     30  C   UNL A   1      36.340  30.383  30.343  1.00  0.00     0.251 C 
ATOM     31  H   UNL A   1      34.476  30.626  29.699  1.00  0.00     0.163 HD
ATOM     32  O   UNL A   1      35.971  30.366  31.507  1.00  0.00    -0.269 OA
BRANCH  30  33
ATOM     33  C   UNL A   1      37.778  30.205  30.032  1.00  0.00     0.039 A 
ATOM     34  C   UNL A   1      38.654  29.871  31.074  1.00  0.00     0.014 A 
ATOM     35  C   UNL A   1      38.284  30.366  28.747  1.00  0.00     0.014 A 
ATOM     36  C   UNL A   1      39.994  29.579  30.797  1.00  0.00     0.010 A 
ATOM     37  C   UNL A   1      39.576  29.948  28.452  1.00  0.00     0.010 A 
ATOM     38  C   UNL A   1      40.450  29.542  29.472  1.00  0.00    -0.014 A 
BRANCH  38  39
ATOM     39  C   UNL A   1      41.819  29.087  29.107  1.00  0.00     0.031 A 
ATOM     40  C   UNL A   1      42.958  30.074  29.082  1.00  0.00     0.074 A 
ATOM     41  C   UNL A   1      42.014  27.821  28.682  1.00  0.00     0.049 A 
ATOM     42  N   UNL A   1      44.166  29.934  28.600  1.00  0.00    -0.248 NA
ATOM     43  C   UNL A   1      42.684  31.416  29.623  1.00  0.00     0.031 C 
ATOM     44  C   UNL A   1      40.985  26.782  28.596  1.00  0.00     0.029 A 
ATOM     45  N   UNL A   1      43.147  27.197  28.219  1.00  0.00    -0.354 N 
ATOM     46  C   UNL A   1      44.772  31.177  28.731  1.00  0.00     0.074 A 
ATOM     47  C   UNL A   1      43.784  32.073  29.289  1.00  0.00     0.031 C 
ATOM     48  C   UNL A   1      41.538  25.646  28.142  1.00  0.00     0.029 A 
ATOM     49  C   UNL A   1      42.947  25.886  27.854  1.00  0.00     0.049 A 
ATOM     50  H   UNL A   1      44.021  27.646  28.155  1.00  0.00     0.167 HD
ATOM     51  C   UNL A   1      46.045  31.538  28.437  1.00  0.00     0.037 A 
ATOM     52  C   UNL A   1      43.799  24.981  27.336  1.00  0.00     0.037 A 
ATOM     53  C   UNL A   1      47.045  30.623  27.953  1.00  0.00     0.049 A 
ATOM     54  C   UNL A   1      45.224  25.383  27.077  1.00  0.00     0.074 A 
ATOM     55  C   UNL A   1      48.385  30.862  27.705  1.00  0.00     0.029 A 
ATOM     56  N   UNL A   1      46.816  29.286  27.660  1.00  0.00    -0.354 N 
ATOM     57  N   UNL A   1      45.791  26.554  27.246  1.00  0.00    -0.248 NA
ATOM     58  C   UNL A   1      46.125  24.346  26.558  1.00  0.00     0.031 C 
ATOM     59  C   UNL A   1      48.961  29.675  27.241  1.00  0.00     0.029 A 
ATOM     60  C   UNL A   1      47.988  28.687  27.231  1.00  0.00     0.049 A 
ATOM     61  H   UNL A   1      45.948  28.829  27.745  1.00  0.00     0.167 HD
ATOM     62  C   UNL A   1      47.121  26.389  26.876  1.00  0.00     0.074 A 
ATOM     63  C   UNL A   1      47.275  25.002  26.485  1.00  0.00     0.031 C 
ATOM     64  C   UNL A   1      48.122  27.302  26.858  1.00  0.00     0.037 A 
BRANCH  51  65
ATOM     65  C   UNL A   1      46.428  32.976  28.652  1.00  0.00     0.058 A 
ATOM     66  C   UNL A   1      46.931  33.430  29.883  1.00  0.00     0.135 A 
ATOM     67  C   UNL A   1      46.301  33.913  27.614  1.00  0.00     0.135 A 
ATOM     68  F   UNL A   1      47.058  32.581  30.915  1.00  0.00    -0.206 F 
ATOM     69  C   UNL A   1      47.249  34.768  30.092  1.00  0.00     0.059 A 
ATOM     70  C   UNL A   1      46.643  35.252  27.790  1.00  0.00     0.059 A 
ATOM     71  F   UNL A   1      45.830  33.535  26.415  1.00  0.00    -0.206 F 
ATOM     72  C   UNL A   1      47.096  35.673  29.040  1.00  0.00     0.060 A 
BRANCH  72  73
ATOM     73  S   UNL A   1      47.499  37.408  29.330  1.00  0.00     0.124 S 
ATOM     74  O   UNL A   1      46.770  38.059  28.245  1.00  0.00    -0.237 OA
ATOM     75  O   UNL A   1      46.972  37.634  30.672  1.00  0.00    -0.237 OA
ATOM     76  O   UNL A   1      48.954  37.442  29.218  1.00  0.00    -0.744 OA
ENDBRANCH  72  73
ENDBRANCH  51  65
BRANCH  52  77
ATOM     77  C   UNL A   1      43.334  23.595  27.061  1.00  0.00     0.058 A 
ATOM     78  C   UNL A   1      43.070  23.176  25.749  1.00  0.00     0.135 A 
ATOM     79  C   UNL A   1      43.168  22.657  28.092  1.00  0.00     0.135 A 
ATOM     80  F   UNL A   1      43.209  24.039  24.731  1.00  0.00    -0.206 F 
ATOM     81  C   UNL A   1      42.648  21.882  25.466  1.00  0.00     0.059 A 
ATOM     82  C   UNL A   1      42.769  21.349  27.833  1.00  0.00     0.059 A 
ATOM     83  F   UNL A   1      43.427  23.002  29.363  1.00  0.00    -0.206 F 
ATOM     84  C   UNL A   1      42.502  20.974  26.516  1.00  0.00     0.060 A 
BRANCH  84  85
ATOM     85  S   UNL A   1      42.012  19.278  26.133  1.00  0.00     0.124 S 
ATOM     86  O   UNL A   1      42.827  18.996  24.958  1.00  0.00    -0.237 OA
ATOM     87  O   UNL A   1      42.383  18.567  27.353  1.00  0.00    -0.237 OA
ATOM     88  O   UNL A   1      40.576  19.392  25.896  1.00  0.00    -0.744 OA
ENDBRANCH  84  85
ENDBRANCH  52  77
BRANCH  64  89
ATOM     89  C   UNL A   1      49.481  26.826  26.432  1.00  0.00     0.058 A 
ATOM     90  C   UNL A   1      50.343  26.173  27.326  1.00  0.00     0.135 A 
ATOM     91  C   UNL A   1      49.900  26.974  25.101  1.00  0.00     0.135 A 
ATOM     92  F   UNL A   1      49.989  26.014  28.611  1.00  0.00    -0.206 F 
ATOM     93  C   UNL A   1      51.583  25.696  26.919  1.00  0.00     0.059 A 
ATOM     94  C   UNL A   1      51.127  26.484  24.665  1.00  0.00     0.059 A 
ATOM     95  F   UNL A   1      49.107  27.584  24.206  1.00  0.00    -0.206 F 
ATOM     96  C   UNL A   1      51.966  25.855  25.585  1.00  0.00     0.060 A 
BRANCH  96  97
ATOM     97  S   UNL A   1      53.560  25.195  25.057  1.00  0.00     0.124 S 
ATOM     98  O   UNL A   1      53.384  23.767  25.308  1.00  0.00    -0.237 OA
ATOM     99  O   UNL A   1      53.615  25.589  23.652  1.00  0.00    -0.237 OA
ATOM    100  O   UNL A   1      54.515  25.873  25.929  1.00  0.00    -0.744 OA
ENDBRANCH  96  97
ENDBRANCH  64  89
ENDBRANCH  38  39
ENDBRANCH  30  33
ENDBRANCH   1  29
TORSDOF 15
ENDMDL
MODEL 3
REMARK VINA RESULT:     -13.4      4.823     10.115
REMARK SMILES O=C(NCCCNC(=O)c1ccc(-c2c3nc(c(-c4c(F)cc(S(=O)(=O)[O-])cc4F)c4ccc([nH]4)c(-c4c(F)cc(S(=O)(=O)[O-])cc4F)c4nc(c(-c5c(F)cc(S(=O)(=O)[O-])cc5F)c5ccc2[nH]5)C=C4)C=C3)cc1)C1=Cc2c(ccc(Cl)c2-c2ccccc2)O[C@H]1C(F)(F)F
REMARK SMILES IDX 6 1 5 2 4 3 3 4 1 5 2 6 76 8 77 9 92 10 78 11 91 12 79 13
REMARK SMILES IDX 84 14 80 15 82 16 81 17 83 18 93 19 94 20 95 21 96 22 85 23
REMARK SMILES IDX 86 24 90 25 87 26 89 27 88 28 7 29 8 30 9 32 10 33 11 34
REMARK SMILES IDX 75 35 12 36 74 37 13 38 14 39 15 40 68 41 16 42 73 43 67 44
REMARK SMILES IDX 69 45 17 46 72 47 66 48 65 49 18 51 52 52 31 53 51 54 32 55
REMARK SMILES IDX 35 56 50 57 70 58 33 59 34 60 49 62 71 63 36 64 19 65 20 66
REMARK SMILES IDX 29 67 21 68 22 69 28 70 30 71 23 72 24 73 25 74 26 75 27 76
REMARK SMILES IDX 53 77 54 78 63 79 55 80 56 81 62 82 64 83 57 84 58 85 59 86
REMARK SMILES IDX 60 87 61 88 37 89 38 90 47 91 39 92 40 93 46 94 48 95 41 96
REMARK SMILES IDX 42 97 43 98 44 99 45 100
REMARK H PARENT 3 7 7 31 69 50 35 61
REMARK Flexibility Score: inf
ROOT
ATOM      1  C   UNL A   1      33.155  28.494  27.242  1.00  0.00     0.118 C 
ENDROOT
BRANCH   1   2
ATOM      2  C   UNL A   1      31.764  27.921  27.481  1.00  0.00     0.042 C 
BRANCH   2   3
ATOM      3  C   UNL A   1      31.364  26.854  26.478  1.00  0.00     0.118 C 
BRANCH   3   4
ATOM      4  N   UNL A   1      31.483  25.484  26.947  1.00  0.00    -0.352 N 
ATOM      5  O   UNL A   1      31.982  23.292  26.832  1.00  0.00    -0.270 OA
ATOM      6  C   UNL A   1      31.960  24.389  26.281  1.00  0.00     0.251 C 
ATOM      7  H   UNL A   1      31.179  25.321  27.869  1.00  0.00     0.163 HD
BRANCH   6   8
ATOM      8  C   UNL A   1      32.466  24.510  24.896  1.00  0.00     0.067 C 
ATOM      9  C   UNL A   1      32.662  23.368  24.221  1.00  0.00     0.026 C 
ATOM     10  C   UNL A   1      33.217  25.736  24.469  1.00  0.00     0.314 C 
ATOM     11  C   UNL A   1      34.119  23.059  24.196  1.00  0.00     0.027 A 
ATOM     12  O   UNL A   1      34.591  25.442  24.043  1.00  0.00    -0.475 OA
ATOM     13  C   UNL A   1      35.014  24.138  24.137  1.00  0.00     0.128 A 
ATOM     14  C   UNL A   1      34.557  21.729  24.418  1.00  0.00     0.011 A 
ATOM     15  C   UNL A   1      36.375  23.909  24.300  1.00  0.00     0.049 A 
ATOM     16  C   UNL A   1      35.933  21.526  24.604  1.00  0.00     0.049 A 
ATOM     17  C   UNL A   1      36.829  22.608  24.551  1.00  0.00     0.025 A 
ATOM     18  Cl  UNL A   1      36.575  19.965  24.962  1.00  0.00    -0.084 Cl
BRANCH  10  19
ATOM     19  C   UNL A   1      32.454  26.495  23.362  1.00  0.00     0.429 C 
ATOM     20  F   UNL A   1      32.898  26.205  22.115  1.00  0.00    -0.167 F 
ATOM     21  F   UNL A   1      31.133  26.200  23.390  1.00  0.00    -0.167 F 
ATOM     22  F   UNL A   1      32.562  27.839  23.500  1.00  0.00    -0.167 F 
ENDBRANCH  10  19
BRANCH  14  23
ATOM     23  C   UNL A   1      33.511  20.698  24.587  1.00  0.00    -0.016 A 
ATOM     24  C   UNL A   1      32.942  20.088  23.457  1.00  0.00     0.009 A 
ATOM     25  C   UNL A   1      33.333  20.087  25.840  1.00  0.00     0.009 A 
ATOM     26  C   UNL A   1      32.321  18.843  23.558  1.00  0.00     0.001 A 
ATOM     27  C   UNL A   1      32.722  18.836  25.937  1.00  0.00     0.001 A 
ATOM     28  C   UNL A   1      32.241  18.204  24.793  1.00  0.00     0.000 A 
ENDBRANCH  14  23
ENDBRANCH   6   8
ENDBRANCH   3   4
ENDBRANCH   2   3
ENDBRANCH   1   2
BRANCH   1  29
ATOM     29  N   UNL A   1      33.312  29.886  27.656  1.00  0.00    -0.352 N 
ATOM     30  C   UNL A   1      34.376  30.619  28.141  1.00  0.00     0.251 C 
ATOM     31  H   UNL A   1      32.484  30.413  27.570  1.00  0.00     0.163 HD
ATOM     32  O   UNL A   1      34.187  31.783  28.462  1.00  0.00    -0.269 OA
BRANCH  30  33
ATOM     33  C   UNL A   1      35.716  30.017  28.339  1.00  0.00     0.039 A 
ATOM     34  C   UNL A   1      36.620  30.022  27.269  1.00  0.00     0.014 A 
ATOM     35  C   UNL A   1      36.099  29.443  29.547  1.00  0.00     0.014 A 
ATOM     36  C   UNL A   1      37.931  29.571  27.455  1.00  0.00     0.010 A 
ATOM     37  C   UNL A   1      37.433  29.121  29.770  1.00  0.00     0.010 A 
ATOM     38  C   UNL A   1      38.370  29.186  28.729  1.00  0.00    -0.014 A 
BRANCH  38  39
ATOM     39  C   UNL A   1      39.791  28.848  29.019  1.00  0.00     0.031 A 
ATOM     40  C   UNL A   1      40.716  29.899  29.576  1.00  0.00     0.074 A 
ATOM     41  C   UNL A   1      40.278  27.640  28.668  1.00  0.00     0.049 A 
ATOM     42  N   UNL A   1      42.018  29.876  29.703  1.00  0.00    -0.248 NA
ATOM     43  C   UNL A   1      40.098  31.169  29.997  1.00  0.00     0.031 C 
ATOM     44  C   UNL A   1      39.506  26.552  28.061  1.00  0.00     0.029 A 
ATOM     45  N   UNL A   1      41.550  27.128  28.752  1.00  0.00    -0.354 N 
ATOM     46  C   UNL A   1      42.376  31.137  30.164  1.00  0.00     0.074 A 
ATOM     47  C   UNL A   1      41.161  31.919  30.246  1.00  0.00     0.031 C 
ATOM     48  C   UNL A   1      40.310  25.497  27.857  1.00  0.00     0.029 A 
ATOM     49  C   UNL A   1      41.665  25.846  28.268  1.00  0.00     0.049 A 
ATOM     50  H   UNL A   1      42.309  27.633  29.123  1.00  0.00     0.167 HD
ATOM     51  C   UNL A   1      43.601  31.598  30.514  1.00  0.00     0.037 A 
ATOM     52  C   UNL A   1      42.741  25.043  28.158  1.00  0.00     0.037 A 
ATOM     53  C   UNL A   1      44.793  30.792  30.502  1.00  0.00     0.049 A 
ATOM     54  C   UNL A   1      44.081  25.552  28.611  1.00  0.00     0.074 A 
ATOM     55  C   UNL A   1      46.068  31.132  30.917  1.00  0.00     0.029 A 
ATOM     56  N   UNL A   1      44.851  29.475  30.068  1.00  0.00    -0.354 N 
ATOM     57  N   UNL A   1      44.394  26.735  29.084  1.00  0.00    -0.248 NA
ATOM     58  C   UNL A   1      45.213  24.622  28.516  1.00  0.00     0.031 C 
ATOM     59  C   UNL A   1      46.903  30.028  30.712  1.00  0.00     0.029 A 
ATOM     60  C   UNL A   1      46.141  28.989  30.201  1.00  0.00     0.049 A 
ATOM     61  H   UNL A   1      44.088  28.962  29.716  1.00  0.00     0.167 HD
ATOM     62  C   UNL A   1      45.754  26.684  29.365  1.00  0.00     0.074 A 
ATOM     63  C   UNL A   1      46.201  25.349  29.019  1.00  0.00     0.031 C 
ATOM     64  C   UNL A   1      46.561  27.654  29.861  1.00  0.00     0.037 A 
BRANCH  51  65
ATOM     65  C   UNL A   1      43.705  33.032  30.956  1.00  0.00     0.058 A 
ATOM     66  C   UNL A   1      43.947  34.071  30.041  1.00  0.00     0.135 A 
ATOM     67  C   UNL A   1      43.554  33.376  32.308  1.00  0.00     0.135 A 
ATOM     68  F   UNL A   1      44.115  33.797  28.737  1.00  0.00    -0.206 F 
ATOM     69  C   UNL A   1      44.080  35.391  30.456  1.00  0.00     0.059 A 
ATOM     70  C   UNL A   1      43.653  34.696  32.743  1.00  0.00     0.059 A 
ATOM     71  F   UNL A   1      43.318  32.426  33.227  1.00  0.00    -0.206 F 
ATOM     72  C   UNL A   1      43.937  35.694  31.811  1.00  0.00     0.060 A 
BRANCH  72  73
ATOM     73  S   UNL A   1      44.127  37.409  32.337  1.00  0.00     0.124 S 
ATOM     74  O   UNL A   1      43.853  38.124  31.093  1.00  0.00    -0.237 OA
ATOM     75  O   UNL A   1      43.110  37.535  33.376  1.00  0.00    -0.237 OA
ATOM     76  O   UNL A   1      45.508  37.470  32.805  1.00  0.00    -0.744 OA
ENDBRANCH  72  73
ENDBRANCH  51  65
BRANCH  52  77
ATOM     77  C   UNL A   1      42.587  23.662  27.627  1.00  0.00     0.058 A 
ATOM     78  C   UNL A   1      42.638  23.417  26.248  1.00  0.00     0.135 A 
ATOM     79  C   UNL A   1      42.412  22.562  28.481  1.00  0.00     0.135 A 
ATOM     80  F   UNL A   1      42.798  24.438  25.392  1.00  0.00    -0.206 F 
ATOM     81  C   UNL A   1      42.510  22.133  25.729  1.00  0.00     0.059 A 
ATOM     82  C   UNL A   1      42.305  21.265  27.988  1.00  0.00     0.059 A 
ATOM     83  F   UNL A   1      42.377  22.742  29.810  1.00  0.00    -0.206 F 
ATOM     84  C   UNL A   1      42.346  21.061  26.609  1.00  0.00     0.060 A 
BRANCH  84  85
ATOM     85  S   UNL A   1      42.243  19.391  25.930  1.00  0.00     0.124 S 
ATOM     86  O   UNL A   1      40.807  19.248  25.722  1.00  0.00    -0.237 OA
ATOM     87  O   UNL A   1      43.056  19.499  24.722  1.00  0.00    -0.237 OA
ATOM     88  O   UNL A   1      42.814  18.564  26.989  1.00  0.00    -0.744 OA
ENDBRANCH  84  85
ENDBRANCH  52  77
BRANCH  64  89
ATOM     89  C   UNL A   1      48.002  27.300  30.090  1.00  0.00     0.058 A 
ATOM     90  C   UNL A   1      48.973  27.496  29.097  1.00  0.00     0.135 A 
ATOM     91  C   UNL A   1      48.424  26.812  31.337  1.00  0.00     0.135 A 
ATOM     92  F   UNL A   1      48.618  27.954  27.886  1.00  0.00    -0.206 F 
ATOM     93  C   UNL A   1      50.313  27.206  29.326  1.00  0.00     0.059 A 
ATOM     94  C   UNL A   1      49.762  26.537  31.597  1.00  0.00     0.059 A 
ATOM     95  F   UNL A   1      47.533  26.615  32.322  1.00  0.00    -0.206 F 
ATOM     96  C   UNL A   1      50.698  26.729  30.581  1.00  0.00     0.060 A 
BRANCH  96  97
ATOM     97  S   UNL A   1      52.446  26.396  30.881  1.00  0.00     0.124 S 
ATOM     98  O   UNL A   1      52.382  25.145  31.631  1.00  0.00    -0.237 OA
ATOM     99  O   UNL A   1      52.985  26.297  29.528  1.00  0.00    -0.237 OA
ATOM    100  O   UNL A   1      52.888  27.561  31.642  1.00  0.00    -0.744 OA
ENDBRANCH  96  97
ENDBRANCH  64  89
ENDBRANCH  38  39
ENDBRANCH  30  33
ENDBRANCH   1  29
TORSDOF 15
ENDMDL
