MODEL 1
REMARK VINA RESULT:     -12.3      0.000      0.000
REMARK SMILES O=C(NCCCNC(=O)[C@H](c1ccc(O)cc1)[NH+]1CC[NH+](Cc2cccc(Cl)c2)CC1)c1ccc(-c2c3nc(c(-c4c(F)cc(S(=O)(=O)[O-])cc4F)c4ccc([nH]4)c(-c4c(F)cc(S(=O)(=O)[O-])cc4F)c4nc(c(-c5c(F)cc(S(=O)(=O)[O-])cc5F)c5ccc2[nH]5)C=C4)C=C3)cc1
REMARK SMILES IDX 5 1 4 2 3 3 1 4 2 5 32 7 33 8 97 9 34 10 96 11 35 12 36 13
REMARK SMILES IDX 37 14 90 15 38 16 95 17 89 18 91 19 39 20 94 21 88 22 87 23
REMARK SMILES IDX 40 25 74 26 53 27 73 28 54 29 57 30 72 31 92 32 55 33 56 34
REMARK SMILES IDX 71 36 93 37 58 38 41 39 42 40 51 41 43 42 44 43 50 44 52 45
REMARK SMILES IDX 45 46 46 47 47 48 48 49 49 50 75 51 76 52 85 53 77 54 78 55
REMARK SMILES IDX 84 56 86 57 79 58 80 59 81 60 82 61 83 62 59 63 60 64 69 65
REMARK SMILES IDX 61 66 62 67 68 68 70 69 63 70 64 71 65 72 66 73 67 74 6 75
REMARK SMILES IDX 7 76 8 77 9 79 10 80 18 81 19 82 31 83 20 85 30 86 21 87
REMARK SMILES IDX 22 89 23 90 24 91 29 92 25 93 27 94 26 95 28 96 11 97 12 98
REMARK SMILES IDX 17 99 13 100 16 101 14 102 15 103
REMARK H PARENT 3 6 91 24 57 35 7 78 18 84 21 88 15 104
REMARK Flexibility Score: inf
ROOT
ATOM      1  C   UNL A   1      35.822  24.040  25.818  1.00  0.00     0.042 C 
ENDROOT
BRANCH   1   2
ATOM      2  C   UNL A   1      36.950  23.768  24.832  1.00  0.00     0.118 C 
BRANCH   2   3
ATOM      3  N   UNL A   1      37.827  22.723  25.341  1.00  0.00    -0.352 N 
ATOM      4  O   UNL A   1      39.854  21.949  25.937  1.00  0.00    -0.269 OA
ATOM      5  C   UNL A   1      39.036  22.869  25.968  1.00  0.00     0.251 C 
ATOM      6  H   UNL A   1      37.512  21.798  25.220  1.00  0.00     0.163 HD
BRANCH   5   7
ATOM      7  C   UNL A   1      39.333  24.118  26.693  1.00  0.00     0.039 A 
ATOM      8  C   UNL A   1      38.907  24.274  28.017  1.00  0.00     0.014 A 
ATOM      9  C   UNL A   1      40.105  25.108  26.078  1.00  0.00     0.014 A 
ATOM     10  C   UNL A   1      39.169  25.453  28.697  1.00  0.00     0.010 A 
ATOM     11  C   UNL A   1      40.443  26.256  26.794  1.00  0.00     0.010 A 
ATOM     12  C   UNL A   1      39.976  26.434  28.107  1.00  0.00    -0.014 A 
BRANCH  12  13
ATOM     13  C   UNL A   1      40.423  27.591  28.914  1.00  0.00     0.031 A 
ATOM     14  C   UNL A   1      41.721  27.549  29.657  1.00  0.00     0.074 A 
ATOM     15  C   UNL A   1      39.614  28.666  28.989  1.00  0.00     0.049 A 
ATOM     16  N   UNL A   1      42.218  28.425  30.490  1.00  0.00    -0.248 NA
ATOM     17  C   UNL A   1      42.567  26.366  29.448  1.00  0.00     0.031 C 
ATOM     18  C   UNL A   1      38.324  28.796  28.303  1.00  0.00     0.029 A 
ATOM     19  N   UNL A   1      39.743  29.842  29.678  1.00  0.00    -0.354 N 
ATOM     20  C   UNL A   1      43.418  27.887  30.934  1.00  0.00     0.074 A 
ATOM     21  C   UNL A   1      43.569  26.601  30.284  1.00  0.00     0.031 C 
ATOM     22  C   UNL A   1      37.789  29.988  28.596  1.00  0.00     0.029 A 
ATOM     23  C   UNL A   1      38.659  30.675  29.542  1.00  0.00     0.049 A 
ATOM     24  H   UNL A   1      40.535  30.068  30.216  1.00  0.00     0.167 HD
ATOM     25  C   UNL A   1      44.305  28.421  31.807  1.00  0.00     0.037 A 
ATOM     26  C   UNL A   1      38.372  31.843  30.145  1.00  0.00     0.037 A 
ATOM     27  C   UNL A   1      44.134  29.706  32.433  1.00  0.00     0.049 A 
ATOM     28  C   UNL A   1      39.362  32.411  31.117  1.00  0.00     0.074 A 
ATOM     29  C   UNL A   1      44.985  30.360  33.306  1.00  0.00     0.029 A 
ATOM     30  N   UNL A   1      43.029  30.531  32.258  1.00  0.00    -0.354 N 
ATOM     31  N   UNL A   1      40.506  31.905  31.508  1.00  0.00    -0.248 NA
ATOM     32  C   UNL A   1      39.029  33.702  31.730  1.00  0.00     0.031 C 
ATOM     33  C   UNL A   1      44.375  31.560  33.690  1.00  0.00     0.029 A 
ATOM     34  C   UNL A   1      43.166  31.678  33.021  1.00  0.00     0.049 A 
ATOM     35  H   UNL A   1      42.261  30.328  31.676  1.00  0.00     0.167 HD
ATOM     36  C   UNL A   1      41.042  32.821  32.403  1.00  0.00     0.074 A 
ATOM     37  C   UNL A   1      40.096  33.917  32.491  1.00  0.00     0.031 C 
ATOM     38  C   UNL A   1      42.212  32.760  33.084  1.00  0.00     0.037 A 
BRANCH  25  39
ATOM     39  C   UNL A   1      45.509  27.592  32.162  1.00  0.00     0.058 A 
ATOM     40  C   UNL A   1      45.509  26.709  33.253  1.00  0.00     0.135 A 
ATOM     41  C   UNL A   1      46.687  27.694  31.403  1.00  0.00     0.135 A 
ATOM     42  F   UNL A   1      44.414  26.581  34.019  1.00  0.00    -0.206 F 
ATOM     43  C   UNL A   1      46.648  25.993  33.610  1.00  0.00     0.059 A 
ATOM     44  C   UNL A   1      47.830  26.968  31.726  1.00  0.00     0.059 A 
ATOM     45  F   UNL A   1      46.742  28.519  30.347  1.00  0.00    -0.206 F 
ATOM     46  C   UNL A   1      47.808  26.140  32.847  1.00  0.00     0.060 A 
BRANCH  46  47
ATOM     47  S   UNL A   1      49.295  25.246  33.347  1.00  0.00     0.124 S 
ATOM     48  O   UNL A   1      49.919  24.979  32.054  1.00  0.00    -0.237 OA
ATOM     49  O   UNL A   1      49.981  26.218  34.191  1.00  0.00    -0.237 OA
ATOM     50  O   UNL A   1      48.770  24.076  34.043  1.00  0.00    -0.744 OA
ENDBRANCH  46  47
ENDBRANCH  25  39
BRANCH  26  51
ATOM     51  C   UNL A   1      37.085  32.514  29.837  1.00  0.00     0.058 A 
ATOM     52  C   UNL A   1      35.918  32.200  30.546  1.00  0.00     0.135 A 
ATOM     53  C   UNL A   1      37.026  33.566  28.907  1.00  0.00     0.135 A 
ATOM     54  F   UNL A   1      35.927  31.203  31.443  1.00  0.00    -0.206 F 
ATOM     55  C   UNL A   1      34.739  32.914  30.356  1.00  0.00     0.059 A 
ATOM     56  C   UNL A   1      35.865  34.309  28.717  1.00  0.00     0.059 A 
ATOM     57  F   UNL A   1      38.124  33.919  28.221  1.00  0.00    -0.206 F 
ATOM     58  C   UNL A   1      34.727  33.977  29.449  1.00  0.00     0.060 A 
BRANCH  58  59
ATOM     59  S   UNL A   1      33.225  34.968  29.294  1.00  0.00     0.124 S 
ATOM     60  O   UNL A   1      32.705  34.927  30.656  1.00  0.00    -0.237 OA
ATOM     61  O   UNL A   1      33.752  36.255  28.850  1.00  0.00    -0.237 OA
ATOM     62  O   UNL A   1      32.445  34.243  28.296  1.00  0.00    -0.744 OA
ENDBRANCH  58  59
ENDBRANCH  26  51
BRANCH  38  63
ATOM     63  C   UNL A   1      42.560  33.926  33.963  1.00  0.00     0.058 A 
ATOM     64  C   UNL A   1      42.159  33.980  35.305  1.00  0.00     0.135 A 
ATOM     65  C   UNL A   1      43.386  34.952  33.476  1.00  0.00     0.135 A 
ATOM     66  F   UNL A   1      41.358  33.029  35.810  1.00  0.00    -0.206 F 
ATOM     67  C   UNL A   1      42.569  35.013  36.140  1.00  0.00     0.059 A 
ATOM     68  C   UNL A   1      43.826  35.983  34.299  1.00  0.00     0.059 A 
ATOM     69  F   UNL A   1      43.797  34.940  32.198  1.00  0.00    -0.206 F 
ATOM     70  C   UNL A   1      43.411  36.004  35.631  1.00  0.00     0.060 A 
BRANCH  70  71
ATOM     71  S   UNL A   1      44.006  37.292  36.746  1.00  0.00     0.124 S 
ATOM     72  O   UNL A   1      43.012  37.242  37.812  1.00  0.00    -0.237 OA
ATOM     73  O   UNL A   1      45.339  36.812  37.098  1.00  0.00    -0.237 OA
ATOM     74  O   UNL A   1      43.980  38.496  35.919  1.00  0.00    -0.744 OA
ENDBRANCH  70  71
ENDBRANCH  38  63
ENDBRANCH  12  13
ENDBRANCH   5   7
ENDBRANCH   2   3
ENDBRANCH   1   2
BRANCH   1  75
ATOM     75  C   UNL A   1      34.684  24.822  25.169  1.00  0.00     0.118 C 
BRANCH  75  76
ATOM     76  N   UNL A   1      33.606  25.032  26.120  1.00  0.00    -0.351 N 
ATOM     77  C   UNL A   1      32.298  25.341  25.845  1.00  0.00     0.283 C 
ATOM     78  H   UNL A   1      33.841  24.939  27.071  1.00  0.00     0.163 HD
ATOM     79  O   UNL A   1      31.642  25.852  26.757  1.00  0.00    -0.268 OA
BRANCH  77  80
ATOM     80  C   UNL A   1      31.738  25.023  24.440  1.00  0.00     0.305 C 
BRANCH  80  81
ATOM     81  N   UNL A   1      31.176  23.665  24.278  1.00  0.00    -0.312 N 
ATOM     82  C   UNL A   1      31.756  22.932  23.146  1.00  0.00     0.325 C 
ATOM     83  C   UNL A   1      31.068  22.822  25.475  1.00  0.00     0.325 C 
ATOM     84  H   UNL A   1      30.202  23.879  24.065  1.00  0.00     0.349 HD
ATOM     85  C   UNL A   1      32.973  22.038  23.467  1.00  0.00     0.324 C 
ATOM     86  C   UNL A   1      32.266  21.872  25.771  1.00  0.00     0.324 C 
ATOM     87  N   UNL A   1      32.826  21.147  24.620  1.00  0.00    -0.322 N 
ATOM     88  H   UNL A   1      33.769  20.863  24.889  1.00  0.00     0.348 HD
BRANCH  87  89
ATOM     89  C   UNL A   1      32.243  19.827  24.343  1.00  0.00     0.299 C 
BRANCH  89  90
ATOM     90  C   UNL A   1      33.088  18.616  24.667  1.00  0.00     0.008 A 
ATOM     91  C   UNL A   1      34.475  18.628  24.457  1.00  0.00     0.009 A 
ATOM     92  C   UNL A   1      32.483  17.426  25.102  1.00  0.00     0.030 A 
ATOM     93  C   UNL A   1      35.218  17.449  24.545  1.00  0.00     0.002 A 
ATOM     94  C   UNL A   1      33.231  16.254  25.199  1.00  0.00     0.041 A 
ATOM     95  C   UNL A   1      34.591  16.254  24.896  1.00  0.00     0.020 A 
ATOM     96  Cl  UNL A   1      32.453  14.782  25.637  1.00  0.00    -0.084 Cl
ENDBRANCH  89  90
ENDBRANCH  87  89
ENDBRANCH  80  81
BRANCH  80  97
ATOM     97  C   UNL A   1      30.833  26.114  23.879  1.00  0.00     0.019 A 
ATOM     98  C   UNL A   1      29.446  26.135  24.083  1.00  0.00     0.014 A 
ATOM     99  C   UNL A   1      31.417  27.167  23.143  1.00  0.00     0.014 A 
ATOM    100  C   UNL A   1      28.674  27.199  23.601  1.00  0.00     0.046 A 
ATOM    101  C   UNL A   1      30.650  28.230  22.672  1.00  0.00     0.046 A 
ATOM    102  C   UNL A   1      29.287  28.243  22.913  1.00  0.00     0.115 A 
BRANCH 102 103
ATOM    103  O   UNL A   1      28.581  29.315  22.456  1.00  0.00    -0.508 OA
ATOM    104  H   UNL A   1      28.069  29.240  21.676  1.00  0.00     0.293 HD
ENDBRANCH 102 103
ENDBRANCH  80  97
ENDBRANCH  77  80
ENDBRANCH  75  76
ENDBRANCH   1  75
TORSDOF 18
ENDMDL
MODEL 2
REMARK VINA RESULT:     -12.3      2.942      8.723
REMARK SMILES O=C(NCCCNC(=O)[C@H](c1ccc(O)cc1)[NH+]1CC[NH+](Cc2cccc(Cl)c2)CC1)c1ccc(-c2c3nc(c(-c4c(F)cc(S(=O)(=O)[O-])cc4F)c4ccc([nH]4)c(-c4c(F)cc(S(=O)(=O)[O-])cc4F)c4nc(c(-c5c(F)cc(S(=O)(=O)[O-])cc5F)c5ccc2[nH]5)C=C4)C=C3)cc1
REMARK SMILES IDX 5 1 4 2 3 3 1 4 2 5 32 7 33 8 97 9 34 10 96 11 35 12 36 13
REMARK SMILES IDX 37 14 90 15 38 16 95 17 89 18 91 19 39 20 94 21 88 22 87 23
REMARK SMILES IDX 40 25 74 26 53 27 73 28 54 29 57 30 72 31 92 32 55 33 56 34
REMARK SMILES IDX 71 36 93 37 58 38 41 39 42 40 51 41 43 42 44 43 50 44 52 45
REMARK SMILES IDX 45 46 46 47 47 48 48 49 49 50 75 51 76 52 85 53 77 54 78 55
REMARK SMILES IDX 84 56 86 57 79 58 80 59 81 60 82 61 83 62 59 63 60 64 69 65
REMARK SMILES IDX 61 66 62 67 68 68 70 69 63 70 64 71 65 72 66 73 67 74 6 75
REMARK SMILES IDX 7 76 8 77 9 79 10 80 18 81 19 82 31 83 20 85 30 86 21 87
REMARK SMILES IDX 22 89 23 90 24 91 29 92 25 93 27 94 26 95 28 96 11 97 12 98
REMARK SMILES IDX 17 99 13 100 16 101 14 102 15 103
REMARK H PARENT 3 6 91 24 57 35 7 78 18 84 21 88 15 104
REMARK Flexibility Score: inf
ROOT
ATOM      1  C   UNL A   1      33.894  28.210  25.529  1.00  0.00     0.042 C 
ENDROOT
BRANCH   1   2
ATOM      2  C   UNL A   1      33.673  28.444  27.017  1.00  0.00     0.118 C 
BRANCH   2   3
ATOM      3  N   UNL A   1      33.650  29.871  27.307  1.00  0.00    -0.352 N 
ATOM      4  O   UNL A   1      34.121  31.638  28.618  1.00  0.00    -0.269 OA
ATOM      5  C   UNL A   1      34.500  30.581  28.111  1.00  0.00     0.251 C 
ATOM      6  H   UNL A   1      32.934  30.388  26.871  1.00  0.00     0.163 HD
BRANCH   5   7
ATOM      7  C   UNL A   1      35.869  30.084  28.341  1.00  0.00     0.039 A 
ATOM      8  C   UNL A   1      36.819  30.157  27.315  1.00  0.00     0.014 A 
ATOM      9  C   UNL A   1      36.232  29.614  29.606  1.00  0.00     0.014 A 
ATOM     10  C   UNL A   1      38.102  29.675  27.521  1.00  0.00     0.010 A 
ATOM     11  C   UNL A   1      37.547  29.212  29.837  1.00  0.00     0.010 A 
ATOM     12  C   UNL A   1      38.488  29.240  28.795  1.00  0.00    -0.014 A 
BRANCH  12  13
ATOM     13  C   UNL A   1      39.910  28.927  29.057  1.00  0.00     0.031 A 
ATOM     14  C   UNL A   1      40.837  29.970  29.597  1.00  0.00     0.074 A 
ATOM     15  C   UNL A   1      40.354  27.689  28.764  1.00  0.00     0.049 A 
ATOM     16  N   UNL A   1      42.128  29.902  29.788  1.00  0.00    -0.248 NA
ATOM     17  C   UNL A   1      40.240  31.264  29.957  1.00  0.00     0.031 C 
ATOM     18  C   UNL A   1      39.526  26.604  28.228  1.00  0.00     0.029 A 
ATOM     19  N   UNL A   1      41.603  27.135  28.861  1.00  0.00    -0.354 N 
ATOM     20  C   UNL A   1      42.508  31.152  30.259  1.00  0.00     0.074 A 
ATOM     21  C   UNL A   1      41.309  31.963  30.314  1.00  0.00     0.031 C 
ATOM     22  C   UNL A   1      40.285  25.514  28.056  1.00  0.00     0.029 A 
ATOM     23  C   UNL A   1      41.662  25.842  28.401  1.00  0.00     0.049 A 
ATOM     24  H   UNL A   1      42.380  27.616  29.226  1.00  0.00     0.167 HD
ATOM     25  C   UNL A   1      43.746  31.576  30.607  1.00  0.00     0.037 A 
ATOM     26  C   UNL A   1      42.715  25.021  28.232  1.00  0.00     0.037 A 
ATOM     27  C   UNL A   1      44.920  30.744  30.549  1.00  0.00     0.049 A 
ATOM     28  C   UNL A   1      44.078  25.514  28.612  1.00  0.00     0.074 A 
ATOM     29  C   UNL A   1      46.218  31.060  30.911  1.00  0.00     0.029 A 
ATOM     30  N   UNL A   1      44.939  29.432  30.093  1.00  0.00    -0.354 N 
ATOM     31  N   UNL A   1      44.421  26.690  29.080  1.00  0.00    -0.248 NA
ATOM     32  C   UNL A   1      45.197  24.580  28.443  1.00  0.00     0.031 C 
ATOM     33  C   UNL A   1      47.027  29.952  30.633  1.00  0.00     0.029 A 
ATOM     34  C   UNL A   1      46.228  28.930  30.143  1.00  0.00     0.049 A 
ATOM     35  H   UNL A   1      44.150  28.933  29.779  1.00  0.00     0.167 HD
ATOM     36  C   UNL A   1      45.793  26.636  29.280  1.00  0.00     0.074 A 
ATOM     37  C   UNL A   1      46.217  25.306  28.884  1.00  0.00     0.031 C 
ATOM     38  C   UNL A   1      46.623  27.597  29.752  1.00  0.00     0.037 A 
BRANCH  25  39
ATOM     39  C   UNL A   1      43.889  33.011  31.034  1.00  0.00     0.058 A 
ATOM     40  C   UNL A   1      44.149  34.039  30.113  1.00  0.00     0.135 A 
ATOM     41  C   UNL A   1      43.775  33.361  32.389  1.00  0.00     0.135 A 
ATOM     42  F   UNL A   1      44.279  33.760  28.807  1.00  0.00    -0.206 F 
ATOM     43  C   UNL A   1      44.342  35.354  30.527  1.00  0.00     0.059 A 
ATOM     44  C   UNL A   1      43.938  34.673  32.823  1.00  0.00     0.059 A 
ATOM     45  F   UNL A   1      43.523  32.420  33.311  1.00  0.00    -0.206 F 
ATOM     46  C   UNL A   1      44.247  35.659  31.886  1.00  0.00     0.060 A 
BRANCH  46  47
ATOM     47  S   UNL A   1      44.546  37.358  32.418  1.00  0.00     0.124 S 
ATOM     48  O   UNL A   1      45.916  37.267  32.915  1.00  0.00    -0.237 OA
ATOM     49  O   UNL A   1      44.372  38.112  31.182  1.00  0.00    -0.237 OA
ATOM     50  O   UNL A   1      43.524  37.581  33.434  1.00  0.00    -0.744 OA
ENDBRANCH  46  47
ENDBRANCH  25  39
BRANCH  26  51
ATOM     51  C   UNL A   1      42.488  23.669  27.662  1.00  0.00     0.058 A 
ATOM     52  C   UNL A   1      42.543  23.449  26.280  1.00  0.00     0.135 A 
ATOM     53  C   UNL A   1      42.330  22.552  28.500  1.00  0.00     0.135 A 
ATOM     54  F   UNL A   1      42.692  24.484  25.441  1.00  0.00    -0.206 F 
ATOM     55  C   UNL A   1      42.463  22.166  25.746  1.00  0.00     0.059 A 
ATOM     56  C   UNL A   1      42.271  21.259  27.991  1.00  0.00     0.059 A 
ATOM     57  F   UNL A   1      42.296  22.712  29.832  1.00  0.00    -0.206 F 
ATOM     58  C   UNL A   1      42.341  21.076  26.611  1.00  0.00     0.060 A 
BRANCH  58  59
ATOM     59  S   UNL A   1      42.353  19.409  25.915  1.00  0.00     0.124 S 
ATOM     60  O   UNL A   1      40.935  19.190  25.656  1.00  0.00    -0.237 OA
ATOM     61  O   UNL A   1      43.200  19.575  24.738  1.00  0.00    -0.237 OA
ATOM     62  O   UNL A   1      42.934  18.603  26.985  1.00  0.00    -0.744 OA
ENDBRANCH  58  59
ENDBRANCH  26  51
BRANCH  38  63
ATOM     63  C   UNL A   1      48.074  27.244  29.901  1.00  0.00     0.058 A 
ATOM     64  C   UNL A   1      49.003  27.505  28.884  1.00  0.00     0.135 A 
ATOM     65  C   UNL A   1      48.550  26.726  31.116  1.00  0.00     0.135 A 
ATOM     66  F   UNL A   1      48.592  27.988  27.701  1.00  0.00    -0.206 F 
ATOM     67  C   UNL A   1      50.360  27.269  29.068  1.00  0.00     0.059 A 
ATOM     68  C   UNL A   1      49.906  26.502  31.329  1.00  0.00     0.059 A 
ATOM     69  F   UNL A   1      47.698  26.463  32.120  1.00  0.00    -0.206 F 
ATOM     70  C   UNL A   1      50.804  26.777  30.298  1.00  0.00     0.060 A 
BRANCH  70  71
ATOM     71  S   UNL A   1      52.576  26.554  30.555  1.00  0.00     0.124 S 
ATOM     72  O   UNL A   1      52.601  25.403  31.450  1.00  0.00    -0.237 OA
ATOM     73  O   UNL A   1      53.061  26.313  29.199  1.00  0.00    -0.237 OA
ATOM     74  O   UNL A   1      52.996  27.820  31.147  1.00  0.00    -0.744 OA
ENDBRANCH  70  71
ENDBRANCH  38  63
ENDBRANCH  12  13
ENDBRANCH   5   7
ENDBRANCH   2   3
ENDBRANCH   1   2
BRANCH   1  75
ATOM     75  C   UNL A   1      33.791  26.730  25.172  1.00  0.00     0.118 C 
BRANCH  75  76
ATOM     76  N   UNL A   1      33.014  26.020  26.172  1.00  0.00    -0.351 N 
ATOM     77  C   UNL A   1      31.749  25.507  26.039  1.00  0.00     0.283 C 
ATOM     78  H   UNL A   1      33.447  25.890  27.047  1.00  0.00     0.163 HD
ATOM     79  O   UNL A   1      31.121  25.293  27.080  1.00  0.00    -0.268 OA
BRANCH  77  80
ATOM     80  C   UNL A   1      31.208  25.221  24.619  1.00  0.00     0.305 C 
BRANCH  80  81
ATOM     81  N   UNL A   1      30.761  23.833  24.382  1.00  0.00    -0.312 N 
ATOM     82  C   UNL A   1      31.279  23.265  23.130  1.00  0.00     0.325 C 
ATOM     83  C   UNL A   1      30.863  22.881  25.495  1.00  0.00     0.325 C 
ATOM     84  H   UNL A   1      29.753  23.964  24.290  1.00  0.00     0.349 HD
ATOM     85  C   UNL A   1      32.601  22.476  23.238  1.00  0.00     0.324 C 
ATOM     86  C   UNL A   1      32.170  22.037  25.574  1.00  0.00     0.324 C 
ATOM     87  N   UNL A   1      32.664  21.477  24.307  1.00  0.00    -0.322 N 
ATOM     88  H   UNL A   1      33.653  21.269  24.451  1.00  0.00     0.348 HD
BRANCH  87  89
ATOM     89  C   UNL A   1      32.180  20.134  23.962  1.00  0.00     0.299 C 
BRANCH  89  90
ATOM     90  C   UNL A   1      33.007  18.958  24.430  1.00  0.00     0.008 A 
ATOM     91  C   UNL A   1      34.408  18.987  24.352  1.00  0.00     0.009 A 
ATOM     92  C   UNL A   1      32.381  17.782  24.870  1.00  0.00     0.030 A 
ATOM     93  C   UNL A   1      35.156  17.828  24.574  1.00  0.00     0.002 A 
ATOM     94  C   UNL A   1      33.133  16.631  25.100  1.00  0.00     0.041 A 
ATOM     95  C   UNL A   1      34.515  16.642  24.928  1.00  0.00     0.020 A 
ATOM     96  Cl  UNL A   1      32.338  15.169  25.542  1.00  0.00    -0.084 Cl
ENDBRANCH  89  90
ENDBRANCH  87  89
ENDBRANCH  80  81
BRANCH  80  97
ATOM     97  C   UNL A   1      30.212  26.263  24.122  1.00  0.00     0.019 A 
ATOM     98  C   UNL A   1      30.601  27.434  23.456  1.00  0.00     0.014 A 
ATOM     99  C   UNL A   1      28.834  26.030  24.317  1.00  0.00     0.014 A 
ATOM    100  C   UNL A   1      29.637  28.323  22.963  1.00  0.00     0.046 A 
ATOM    101  C   UNL A   1      27.876  26.909  23.817  1.00  0.00     0.046 A 
ATOM    102  C   UNL A   1      28.284  28.043  23.135  1.00  0.00     0.115 A 
BRANCH 102 103
ATOM    103  O   UNL A   1      27.312  28.861  22.643  1.00  0.00    -0.508 OA
ATOM    104  H   UNL A   1      27.370  29.180  21.765  1.00  0.00     0.293 HD
ENDBRANCH 102 103
ENDBRANCH  80  97
ENDBRANCH  77  80
ENDBRANCH  75  76
ENDBRANCH   1  75
TORSDOF 18
ENDMDL
MODEL 3
REMARK VINA RESULT:     -12.1      4.573      9.821
REMARK SMILES O=C(NCCCNC(=O)[C@H](c1ccc(O)cc1)[NH+]1CC[NH+](Cc2cccc(Cl)c2)CC1)c1ccc(-c2c3nc(c(-c4c(F)cc(S(=O)(=O)[O-])cc4F)c4ccc([nH]4)c(-c4c(F)cc(S(=O)(=O)[O-])cc4F)c4nc(c(-c5c(F)cc(S(=O)(=O)[O-])cc5F)c5ccc2[nH]5)C=C4)C=C3)cc1
REMARK SMILES IDX 5 1 4 2 3 3 1 4 2 5 32 7 33 8 97 9 34 10 96 11 35 12 36 13
REMARK SMILES IDX 37 14 90 15 38 16 95 17 89 18 91 19 39 20 94 21 88 22 87 23
REMARK SMILES IDX 40 25 74 26 53 27 73 28 54 29 57 30 72 31 92 32 55 33 56 34
REMARK SMILES IDX 71 36 93 37 58 38 41 39 42 40 51 41 43 42 44 43 50 44 52 45
REMARK SMILES IDX 45 46 46 47 47 48 48 49 49 50 75 51 76 52 85 53 77 54 78 55
REMARK SMILES IDX 84 56 86 57 79 58 80 59 81 60 82 61 83 62 59 63 60 64 69 65
REMARK SMILES IDX 61 66 62 67 68 68 70 69 63 70 64 71 65 72 66 73 67 74 6 75
REMARK SMILES IDX 7 76 8 77 9 79 10 80 18 81 19 82 31 83 20 85 30 86 21 87
REMARK SMILES IDX 22 89 23 90 24 91 29 92 25 93 27 94 26 95 28 96 11 97 12 98
REMARK SMILES IDX 17 99 13 100 16 101 14 102 15 103
REMARK H PARENT 3 6 91 24 57 35 7 78 18 84 21 88 15 104
REMARK Flexibility Score: inf
ROOT
ATOM      1  C   UNL A   1      33.993  30.230  27.092  1.00  0.00     0.042 C 
ENDROOT
BRANCH   1   2
ATOM      2  C   UNL A   1      35.116  29.812  28.031  1.00  0.00     0.118 C 
BRANCH   2   3
ATOM      3  N   UNL A   1      35.263  30.781  29.108  1.00  0.00    -0.352 N 
ATOM      4  O   UNL A   1      36.038  31.403  31.126  1.00  0.00    -0.269 OA
ATOM      5  C   UNL A   1      36.258  30.854  30.046  1.00  0.00     0.251 C 
ATOM      6  H   UNL A   1      34.561  31.469  29.169  1.00  0.00     0.163 HD
BRANCH   5   7
ATOM      7  C   UNL A   1      37.588  30.295  29.740  1.00  0.00     0.039 A 
ATOM      8  C   UNL A   1      38.075  30.333  28.429  1.00  0.00     0.014 A 
ATOM      9  C   UNL A   1      38.385  29.801  30.776  1.00  0.00     0.014 A 
ATOM     10  C   UNL A   1      39.318  29.794  28.134  1.00  0.00     0.010 A 
ATOM     11  C   UNL A   1      39.670  29.340  30.491  1.00  0.00     0.010 A 
ATOM     12  C   UNL A   1      40.142  29.334  29.168  1.00  0.00    -0.014 A 
BRANCH  12  13
ATOM     13  C   UNL A   1      41.541  28.956  28.871  1.00  0.00     0.031 A 
ATOM     14  C   UNL A   1      42.634  29.977  28.911  1.00  0.00     0.074 A 
ATOM     15  C   UNL A   1      41.797  27.678  28.529  1.00  0.00     0.049 A 
ATOM     16  N   UNL A   1      43.892  29.846  28.579  1.00  0.00    -0.248 NA
ATOM     17  C   UNL A   1      42.267  31.324  29.370  1.00  0.00     0.031 C 
ATOM     18  C   UNL A   1      40.794  26.611  28.456  1.00  0.00     0.029 A 
ATOM     19  N   UNL A   1      42.965  27.060  28.168  1.00  0.00    -0.354 N 
ATOM     20  C   UNL A   1      44.462  31.100  28.757  1.00  0.00     0.074 A 
ATOM     21  C   UNL A   1      43.408  31.981  29.215  1.00  0.00     0.031 C 
ATOM     22  C   UNL A   1      41.391  25.470  28.088  1.00  0.00     0.029 A 
ATOM     23  C   UNL A   1      42.800  25.739  27.830  1.00  0.00     0.049 A 
ATOM     24  H   UNL A   1      43.836  27.518  28.154  1.00  0.00     0.167 HD
ATOM     25  C   UNL A   1      45.748  31.473  28.549  1.00  0.00     0.037 A 
ATOM     26  C   UNL A   1      43.675  24.849  27.326  1.00  0.00     0.037 A 
ATOM     27  C   UNL A   1      46.778  30.573  28.100  1.00  0.00     0.049 A 
ATOM     28  C   UNL A   1      45.089  25.286  27.093  1.00  0.00     0.074 A 
ATOM     29  C   UNL A   1      48.120  30.835  27.891  1.00  0.00     0.029 A 
ATOM     30  N   UNL A   1      46.577  29.235  27.783  1.00  0.00    -0.354 N 
ATOM     31  N   UNL A   1      45.623  26.468  27.289  1.00  0.00    -0.248 NA
ATOM     32  C   UNL A   1      46.022  24.279  26.572  1.00  0.00     0.031 C 
ATOM     33  C   UNL A   1      48.720  29.667  27.407  1.00  0.00     0.029 A 
ATOM     34  C   UNL A   1      47.765  28.663  27.361  1.00  0.00     0.049 A 
ATOM     35  H   UNL A   1      45.715  28.763  27.850  1.00  0.00     0.167 HD
ATOM     36  C   UNL A   1      46.958  26.347  26.932  1.00  0.00     0.074 A 
ATOM     37  C   UNL A   1      47.153  24.973  26.511  1.00  0.00     0.031 C 
ATOM     38  C   UNL A   1      47.934  27.288  26.956  1.00  0.00     0.037 A 
BRANCH  25  39
ATOM     39  C   UNL A   1      46.088  32.922  28.765  1.00  0.00     0.058 A 
ATOM     40  C   UNL A   1      46.533  33.406  30.006  1.00  0.00     0.135 A 
ATOM     41  C   UNL A   1      45.955  33.844  27.714  1.00  0.00     0.135 A 
ATOM     42  F   UNL A   1      46.667  32.571  31.048  1.00  0.00    -0.206 F 
ATOM     43  C   UNL A   1      46.785  34.760  30.211  1.00  0.00     0.059 A 
ATOM     44  C   UNL A   1      46.227  35.198  27.889  1.00  0.00     0.059 A 
ATOM     45  F   UNL A   1      45.538  33.437  26.506  1.00  0.00    -0.206 F 
ATOM     46  C   UNL A   1      46.616  35.650  29.149  1.00  0.00     0.060 A 
BRANCH  46  47
ATOM     47  S   UNL A   1      46.898  37.409  29.438  1.00  0.00     0.124 S 
ATOM     48  O   UNL A   1      45.679  37.784  30.149  1.00  0.00    -0.237 OA
ATOM     49  O   UNL A   1      48.120  37.408  30.236  1.00  0.00    -0.237 OA
ATOM     50  O   UNL A   1      47.034  37.957  28.092  1.00  0.00    -0.744 OA
ENDBRANCH  46  47
ENDBRANCH  25  39
BRANCH  26  51
ATOM     51  C   UNL A   1      43.202  23.479  27.007  1.00  0.00     0.058 A 
ATOM     52  C   UNL A   1      43.044  23.060  25.680  1.00  0.00     0.135 A 
ATOM     53  C   UNL A   1      43.015  22.527  28.024  1.00  0.00     0.135 A 
ATOM     54  F   UNL A   1      43.212  23.934  24.676  1.00  0.00    -0.206 F 
ATOM     55  C   UNL A   1      42.730  21.741  25.368  1.00  0.00     0.059 A 
ATOM     56  C   UNL A   1      42.724  21.197  27.736  1.00  0.00     0.059 A 
ATOM     57  F   UNL A   1      43.180  22.875  29.309  1.00  0.00    -0.206 F 
ATOM     58  C   UNL A   1      42.586  20.813  26.403  1.00  0.00     0.060 A 
BRANCH  58  59
ATOM     59  S   UNL A   1      42.291  19.082  25.982  1.00  0.00     0.124 S 
ATOM     60  O   UNL A   1      43.141  18.916  24.809  1.00  0.00    -0.237 OA
ATOM     61  O   UNL A   1      42.730  18.393  27.192  1.00  0.00    -0.237 OA
ATOM     62  O   UNL A   1      40.853  19.037  25.734  1.00  0.00    -0.744 OA
ENDBRANCH  58  59
ENDBRANCH  26  51
BRANCH  38  63
ATOM     63  C   UNL A   1      49.313  26.861  26.547  1.00  0.00     0.058 A 
ATOM     64  C   UNL A   1      50.211  26.300  27.466  1.00  0.00     0.135 A 
ATOM     65  C   UNL A   1      49.700  26.928  25.199  1.00  0.00     0.135 A 
ATOM     66  F   UNL A   1      49.891  26.228  28.767  1.00  0.00    -0.206 F 
ATOM     67  C   UNL A   1      51.449  25.814  27.060  1.00  0.00     0.059 A 
ATOM     68  C   UNL A   1      50.924  26.428  24.768  1.00  0.00     0.059 A 
ATOM     69  F   UNL A   1      48.871  27.454  24.283  1.00  0.00    -0.206 F 
ATOM     70  C   UNL A   1      51.792  25.873  25.708  1.00  0.00     0.060 A 
BRANCH  70  71
ATOM     71  S   UNL A   1      53.365  25.162  25.180  1.00  0.00     0.124 S 
ATOM     72  O   UNL A   1      53.454  25.633  23.803  1.00  0.00    -0.237 OA
ATOM     73  O   UNL A   1      54.310  25.763  26.117  1.00  0.00    -0.237 OA
ATOM     74  O   UNL A   1      53.161  23.726  25.342  1.00  0.00    -0.744 OA
ENDBRANCH  70  71
ENDBRANCH  38  63
ENDBRANCH  12  13
ENDBRANCH   5   7
ENDBRANCH   2   3
ENDBRANCH   1   2
BRANCH   1  75
ATOM     75  C   UNL A   1      33.595  29.096  26.153  1.00  0.00     0.118 C 
BRANCH  75  76
ATOM     76  N   UNL A   1      32.735  28.147  26.839  1.00  0.00    -0.351 N 
ATOM     77  C   UNL A   1      31.671  27.456  26.320  1.00  0.00     0.283 C 
ATOM     78  H   UNL A   1      32.942  27.981  27.787  1.00  0.00     0.163 HD
ATOM     79  O   UNL A   1      30.846  27.012  27.125  1.00  0.00    -0.268 OA
BRANCH  77  80
ATOM     80  C   UNL A   1      31.582  27.267  24.787  1.00  0.00     0.305 C 
BRANCH  80  81
ATOM     81  N   UNL A   1      31.735  25.876  24.314  1.00  0.00    -0.312 N 
ATOM     82  C   UNL A   1      32.103  25.787  22.895  1.00  0.00     0.325 C 
ATOM     83  C   UNL A   1      32.524  24.953  25.140  1.00  0.00     0.325 C 
ATOM     84  H   UNL A   1      30.785  25.524  24.428  1.00  0.00     0.349 HD
ATOM     85  C   UNL A   1      33.614  25.714  22.588  1.00  0.00     0.324 C 
ATOM     86  C   UNL A   1      34.038  24.829  24.795  1.00  0.00     0.324 C 
ATOM     87  N   UNL A   1      34.378  24.737  23.367  1.00  0.00    -0.322 N 
ATOM     88  H   UNL A   1      35.359  25.007  23.287  1.00  0.00     0.348 HD
BRANCH  87  89
ATOM     89  C   UNL A   1      34.451  23.381  22.806  1.00  0.00     0.299 C 
BRANCH  89  90
ATOM     90  C   UNL A   1      34.769  22.253  23.761  1.00  0.00     0.008 A 
ATOM     91  C   UNL A   1      36.076  22.056  24.232  1.00  0.00     0.009 A 
ATOM     92  C   UNL A   1      33.776  21.330  24.123  1.00  0.00     0.030 A 
ATOM     93  C   UNL A   1      36.412  20.894  24.930  1.00  0.00     0.002 A 
ATOM     94  C   UNL A   1      34.115  20.177  24.829  1.00  0.00     0.041 A 
ATOM     95  C   UNL A   1      35.433  19.942  25.211  1.00  0.00     0.020 A 
ATOM     96  Cl  UNL A   1      32.902  19.006  25.178  1.00  0.00    -0.084 Cl
ENDBRANCH  89  90
ENDBRANCH  87  89
ENDBRANCH  80  81
BRANCH  80  97
ATOM     97  C   UNL A   1      30.401  27.990  24.149  1.00  0.00     0.019 A 
ATOM     98  C   UNL A   1      30.451  29.335  23.759  1.00  0.00     0.014 A 
ATOM     99  C   UNL A   1      29.212  27.268  23.915  1.00  0.00     0.014 A 
ATOM    100  C   UNL A   1      29.357  29.929  23.116  1.00  0.00     0.046 A 
ATOM    101  C   UNL A   1      28.128  27.855  23.266  1.00  0.00     0.046 A 
ATOM    102  C   UNL A   1      28.213  29.177  22.862  1.00  0.00     0.115 A 
BRANCH 102 103
ATOM    103  O   UNL A   1      27.138  29.702  22.209  1.00  0.00    -0.508 OA
ATOM    104  H   UNL A   1      27.044  30.631  22.134  1.00  0.00     0.293 HD
ENDBRANCH 102 103
ENDBRANCH  80  97
ENDBRANCH  77  80
ENDBRANCH  75  76
ENDBRANCH   1  75
TORSDOF 18
ENDMDL
