MODEL 1
REMARK VINA RESULT:     -12.4      0.000      0.000
REMARK SMILES C[NH+]1CCC(NC(=O)N[C@@H]2C=C[C@H](C(=O)NCCCNC(=O)c3ccc(-c4c5nc(c(-c6c(F)cc(S(=O)(=O)[O-])cc6F)c6ccc([nH]6)c(-c6c(F)cc(S(=O)(=O)[O-])cc6F)c6nc(c(-c7c(F)cc(S(=O)(=O)[O-])cc7F)c7ccc4[nH]7)C=C6)C=C5)cc3)C2)CC1
REMARK SMILES IDX 18 1 17 2 16 3 14 4 15 5 13 7 10 8 11 9 89 10 12 11 9 12
REMARK SMILES IDX 6 13 7 14 8 16 5 18 1 19 2 20 3 21 91 22 4 24 90 25 19 26
REMARK SMILES IDX 20 27 21 28 22 30 23 31 24 32 88 33 25 34 87 35 26 36 27 37
REMARK SMILES IDX 28 38 81 39 29 40 86 41 80 42 82 43 30 44 85 45 79 46 78 47
REMARK SMILES IDX 31 49 65 50 44 51 64 52 45 53 48 54 63 55 83 56 46 57 47 58
REMARK SMILES IDX 62 60 84 61 49 62 32 63 33 64 42 65 34 66 35 67 41 68 43 69
REMARK SMILES IDX 36 70 37 71 38 72 39 73 40 74 66 75 67 76 76 77 68 78 69 79
REMARK SMILES IDX 75 80 77 81 70 82 71 83 72 84 73 85 74 86 50 87 51 88 60 89
REMARK SMILES IDX 52 90 53 91 59 92 61 93 54 94 55 95 56 96 57 97 58 98
REMARK H PARENT 16 6 6 15 9 17 2 23 20 29 82 48 48 59
REMARK Flexibility Score: inf
ROOT
ATOM      1  C   UNL A   1      38.206  19.971  24.922  1.00  0.00     0.042 C 
ENDROOT
BRANCH   1   2
ATOM      2  C   UNL A   1      36.964  20.844  25.062  1.00  0.00     0.117 C 
BRANCH   2   3
ATOM      3  N   UNL A   1      35.752  20.046  25.117  1.00  0.00    -0.356 N 
ATOM      4  C   UNL A   1      34.456  20.453  24.980  1.00  0.00     0.227 C 
ATOM      5  O   UNL A   1      33.560  19.619  25.098  1.00  0.00    -0.274 OA
ATOM      6  H   UNL A   1      35.883  19.083  25.274  1.00  0.00     0.163 HD
BRANCH   4   7
ATOM      7  C   UNL A   1      34.195  21.909  24.621  1.00  0.00     0.103 C 
ATOM      8  C   UNL A   1      32.308  23.253  25.459  1.00  0.00     0.107 C 
ATOM      9  C   UNL A   1      32.024  22.650  24.122  1.00  0.00    -0.006 C 
ATOM     10  C   UNL A   1      33.698  22.724  25.824  1.00  0.00     0.047 C 
ATOM     11  C   UNL A   1      33.053  21.945  23.652  1.00  0.00    -0.016 C 
BRANCH   8  12
ATOM     12  N   UNL A   1      31.259  22.865  26.371  1.00  0.00    -0.332 N 
ATOM     13  N   UNL A   1      29.798  24.732  26.462  1.00  0.00    -0.335 N 
ATOM     14  C   UNL A   1      30.166  23.492  26.840  1.00  0.00     0.315 C 
ATOM     15  H   UNL A   1      28.976  25.056  26.895  1.00  0.00     0.165 HD
ATOM     16  O   UNL A   1      29.451  22.902  27.654  1.00  0.00    -0.249 OA
ATOM     17  H   UNL A   1      31.366  21.952  26.723  1.00  0.00     0.165 HD
BRANCH  13  18
ATOM     18  C   UNL A   1      30.387  25.677  25.536  1.00  0.00     0.095 C 
ATOM     19  C   UNL A   1      31.908  28.738  23.101  1.00  0.00     0.332 C 
ATOM     20  N   UNL A   1      31.053  28.097  24.106  1.00  0.00    -0.337 N 
ATOM     21  C   UNL A   1      31.890  27.626  25.223  1.00  0.00     0.264 C 
ATOM     22  C   UNL A   1      30.258  27.026  23.481  1.00  0.00     0.264 C 
ATOM     23  H   UNL A   1      30.384  28.763  24.490  1.00  0.00     0.347 HD
ATOM     24  C   UNL A   1      31.095  26.823  26.251  1.00  0.00     0.086 C 
ATOM     25  C   UNL A   1      29.422  26.249  24.507  1.00  0.00     0.086 C 
ENDBRANCH  13  18
ENDBRANCH   8  12
ENDBRANCH   4   7
ENDBRANCH   2   3
ENDBRANCH   1   2
BRANCH   1  26
ATOM     26  C   UNL A   1      39.343  20.378  25.855  1.00  0.00     0.118 C 
BRANCH  26  27
ATOM     27  N   UNL A   1      40.340  19.327  26.006  1.00  0.00    -0.352 N 
ATOM     28  C   UNL A   1      41.703  19.410  26.140  1.00  0.00     0.251 C 
ATOM     29  H   UNL A   1      39.978  18.411  26.014  1.00  0.00     0.163 HD
ATOM     30  O   UNL A   1      42.381  18.395  26.039  1.00  0.00    -0.269 OA
BRANCH  28  31
ATOM     31  C   UNL A   1      42.345  20.717  26.391  1.00  0.00     0.039 A 
ATOM     32  C   UNL A   1      42.805  21.463  25.303  1.00  0.00     0.014 A 
ATOM     33  C   UNL A   1      42.515  21.195  27.693  1.00  0.00     0.014 A 
ATOM     34  C   UNL A   1      43.378  22.717  25.519  1.00  0.00     0.010 A 
ATOM     35  C   UNL A   1      43.008  22.480  27.900  1.00  0.00     0.010 A 
ATOM     36  C   UNL A   1      43.451  23.251  26.816  1.00  0.00    -0.014 A 
BRANCH  36  37
ATOM     37  C   UNL A   1      43.987  24.614  27.059  1.00  0.00     0.031 A 
ATOM     38  C   UNL A   1      43.068  25.724  27.492  1.00  0.00     0.074 A 
ATOM     39  C   UNL A   1      45.290  24.865  26.828  1.00  0.00     0.049 A 
ATOM     40  N   UNL A   1      43.337  26.988  27.696  1.00  0.00    -0.248 NA
ATOM     41  C   UNL A   1      41.653  25.371  27.696  1.00  0.00     0.031 C 
ATOM     42  C   UNL A   1      46.271  23.882  26.365  1.00  0.00     0.029 A 
ATOM     43  N   UNL A   1      46.014  26.025  26.944  1.00  0.00    -0.354 N 
ATOM     44  C   UNL A   1      42.129  27.582  28.040  1.00  0.00     0.074 A 
ATOM     45  C   UNL A   1      41.114  26.554  27.955  1.00  0.00     0.031 C 
ATOM     46  C   UNL A   1      47.473  24.471  26.266  1.00  0.00     0.029 A 
ATOM     47  C   UNL A   1      47.341  25.883  26.615  1.00  0.00     0.049 A 
ATOM     48  H   UNL A   1      45.620  26.879  27.235  1.00  0.00     0.167 HD
ATOM     49  C   UNL A   1      41.890  28.861  28.417  1.00  0.00     0.037 A 
ATOM     50  C   UNL A   1      48.338  26.788  26.589  1.00  0.00     0.037 A 
ATOM     51  C   UNL A   1      42.908  29.875  28.506  1.00  0.00     0.049 A 
ATOM     52  C   UNL A   1      48.047  28.209  26.988  1.00  0.00     0.074 A 
ATOM     53  C   UNL A   1      42.781  31.188  28.924  1.00  0.00     0.029 A 
ATOM     54  N   UNL A   1      44.241  29.692  28.164  1.00  0.00    -0.354 N 
ATOM     55  N   UNL A   1      46.911  28.741  27.371  1.00  0.00    -0.248 NA
ATOM     56  C   UNL A   1      49.172  29.151  26.955  1.00  0.00     0.031 C 
ATOM     57  C   UNL A   1      44.025  31.815  28.781  1.00  0.00     0.029 A 
ATOM     58  C   UNL A   1      44.942  30.876  28.335  1.00  0.00     0.049 A 
ATOM     59  H   UNL A   1      44.632  28.847  27.848  1.00  0.00     0.167 HD
ATOM     60  C   UNL A   1      47.190  30.073  27.654  1.00  0.00     0.074 A 
ATOM     61  C   UNL A   1      48.606  30.262  27.406  1.00  0.00     0.031 C 
ATOM     62  C   UNL A   1      46.353  31.049  28.085  1.00  0.00     0.037 A 
BRANCH  49  63
ATOM     63  C   UNL A   1      40.468  29.231  28.751  1.00  0.00     0.058 A 
ATOM     64  C   UNL A   1      40.033  29.374  30.080  1.00  0.00     0.135 A 
ATOM     65  C   UNL A   1      39.527  29.449  27.731  1.00  0.00     0.135 A 
ATOM     66  F   UNL A   1      40.884  29.166  31.097  1.00  0.00    -0.206 F 
ATOM     67  C   UNL A   1      38.709  29.671  30.386  1.00  0.00     0.059 A 
ATOM     68  C   UNL A   1      38.205  29.781  28.014  1.00  0.00     0.059 A 
ATOM     69  F   UNL A   1      39.885  29.330  26.444  1.00  0.00    -0.206 F 
ATOM     70  C   UNL A   1      37.801  29.868  29.345  1.00  0.00     0.060 A 
BRANCH  70  71
ATOM     71  S   UNL A   1      36.081  30.226  29.760  1.00  0.00     0.124 S 
ATOM     72  O   UNL A   1      35.381  29.651  28.615  1.00  0.00    -0.237 OA
ATOM     73  O   UNL A   1      35.911  29.521  31.026  1.00  0.00    -0.237 OA
ATOM     74  O   UNL A   1      36.048  31.683  29.847  1.00  0.00    -0.744 OA
ENDBRANCH  70  71
ENDBRANCH  49  63
BRANCH  50  75
ATOM     75  C   UNL A   1      49.711  26.362  26.207  1.00  0.00     0.058 A 
ATOM     76  C   UNL A   1      50.206  26.605  24.918  1.00  0.00     0.135 A 
ATOM     77  C   UNL A   1      50.568  25.742  27.129  1.00  0.00     0.135 A 
ATOM     78  F   UNL A   1      49.422  27.190  23.998  1.00  0.00    -0.206 F 
ATOM     79  C   UNL A   1      51.498  26.244  24.552  1.00  0.00     0.059 A 
ATOM     80  C   UNL A   1      51.874  25.395  26.796  1.00  0.00     0.059 A 
ATOM     81  F   UNL A   1      50.149  25.501  28.382  1.00  0.00    -0.206 F 
ATOM     82  C   UNL A   1      52.328  25.646  25.502  1.00  0.00     0.060 A 
BRANCH  82  83
ATOM     83  S   UNL A   1      54.028  25.249  25.037  1.00  0.00     0.124 S 
ATOM     84  O   UNL A   1      53.979  23.793  24.956  1.00  0.00    -0.237 OA
ATOM     85  O   UNL A   1      54.169  25.956  23.767  1.00  0.00    -0.237 OA
ATOM     86  O   UNL A   1      54.813  25.794  26.140  1.00  0.00    -0.744 OA
ENDBRANCH  82  83
ENDBRANCH  50  75
BRANCH  62  87
ATOM     87  C   UNL A   1      46.948  32.406  28.352  1.00  0.00     0.058 A 
ATOM     88  C   UNL A   1      47.556  32.722  29.577  1.00  0.00     0.135 A 
ATOM     89  C   UNL A   1      46.956  33.387  27.345  1.00  0.00     0.135 A 
ATOM     90  F   UNL A   1      47.571  31.825  30.576  1.00  0.00    -0.206 F 
ATOM     91  C   UNL A   1      48.130  33.970  29.803  1.00  0.00     0.059 A 
ATOM     92  C   UNL A   1      47.551  34.628  27.539  1.00  0.00     0.059 A 
ATOM     93  F   UNL A   1      46.397  33.134  26.151  1.00  0.00    -0.206 F 
ATOM     94  C   UNL A   1      48.126  34.915  28.776  1.00  0.00     0.060 A 
BRANCH  94  95
ATOM     95  S   UNL A   1      48.905  36.517  29.071  1.00  0.00     0.124 S 
ATOM     96  O   UNL A   1      47.806  37.435  28.788  1.00  0.00    -0.237 OA
ATOM     97  O   UNL A   1      49.302  36.416  30.472  1.00  0.00    -0.237 OA
ATOM     98  O   UNL A   1      50.006  36.542  28.114  1.00  0.00    -0.744 OA
ENDBRANCH  94  95
ENDBRANCH  62  87
ENDBRANCH  36  37
ENDBRANCH  28  31
ENDBRANCH  26  27
ENDBRANCH   1  26
TORSDOF 15
ENDMDL
MODEL 2
REMARK VINA RESULT:     -12.4      0.494      8.328
REMARK SMILES C[NH+]1CCC(NC(=O)N[C@@H]2C=C[C@H](C(=O)NCCCNC(=O)c3ccc(-c4c5nc(c(-c6c(F)cc(S(=O)(=O)[O-])cc6F)c6ccc([nH]6)c(-c6c(F)cc(S(=O)(=O)[O-])cc6F)c6nc(c(-c7c(F)cc(S(=O)(=O)[O-])cc7F)c7ccc4[nH]7)C=C6)C=C5)cc3)C2)CC1
REMARK SMILES IDX 18 1 17 2 16 3 14 4 15 5 13 7 10 8 11 9 89 10 12 11 9 12
REMARK SMILES IDX 6 13 7 14 8 16 5 18 1 19 2 20 3 21 91 22 4 24 90 25 19 26
REMARK SMILES IDX 20 27 21 28 22 30 23 31 24 32 88 33 25 34 87 35 26 36 27 37
REMARK SMILES IDX 28 38 81 39 29 40 86 41 80 42 82 43 30 44 85 45 79 46 78 47
REMARK SMILES IDX 31 49 65 50 44 51 64 52 45 53 48 54 63 55 83 56 46 57 47 58
REMARK SMILES IDX 62 60 84 61 49 62 32 63 33 64 42 65 34 66 35 67 41 68 43 69
REMARK SMILES IDX 36 70 37 71 38 72 39 73 40 74 66 75 67 76 76 77 68 78 69 79
REMARK SMILES IDX 75 80 77 81 70 82 71 83 72 84 73 85 74 86 50 87 51 88 60 89
REMARK SMILES IDX 52 90 53 91 59 92 61 93 54 94 55 95 56 96 57 97 58 98
REMARK H PARENT 16 6 6 15 9 17 2 23 20 29 82 48 48 59
REMARK Flexibility Score: inf
ROOT
ATOM      1  C   UNL A   1      38.180  19.808  24.992  1.00  0.00     0.042 C 
ENDROOT
BRANCH   1   2
ATOM      2  C   UNL A   1      36.947  20.704  25.013  1.00  0.00     0.117 C 
BRANCH   2   3
ATOM      3  N   UNL A   1      35.723  19.930  25.115  1.00  0.00    -0.356 N 
ATOM      4  C   UNL A   1      34.431  20.358  25.006  1.00  0.00     0.227 C 
ATOM      5  O   UNL A   1      33.524  19.542  25.163  1.00  0.00    -0.274 OA
ATOM      6  H   UNL A   1      35.841  18.968  25.286  1.00  0.00     0.163 HD
BRANCH   4   7
ATOM      7  C   UNL A   1      34.186  21.812  24.629  1.00  0.00     0.103 C 
ATOM      8  C   UNL A   1      32.316  23.188  25.454  1.00  0.00     0.107 C 
ATOM      9  C   UNL A   1      32.023  22.571  24.125  1.00  0.00    -0.006 C 
ATOM     10  C   UNL A   1      33.700  22.647  25.823  1.00  0.00     0.047 C 
ATOM     11  C   UNL A   1      33.042  21.849  23.662  1.00  0.00    -0.016 C 
BRANCH   8  12
ATOM     12  N   UNL A   1      31.265  22.824  26.373  1.00  0.00    -0.332 N 
ATOM     13  N   UNL A   1      29.825  24.709  26.441  1.00  0.00    -0.335 N 
ATOM     14  C   UNL A   1      30.179  23.469  26.835  1.00  0.00     0.315 C 
ATOM     15  H   UNL A   1      29.007  25.047  26.872  1.00  0.00     0.165 HD
ATOM     16  O   UNL A   1      29.459  22.898  27.658  1.00  0.00    -0.249 OA
ATOM     17  H   UNL A   1      31.362  21.914  26.736  1.00  0.00     0.165 HD
BRANCH  13  18
ATOM     18  C   UNL A   1      30.423  25.635  25.502  1.00  0.00     0.095 C 
ATOM     19  C   UNL A   1      31.953  28.645  23.010  1.00  0.00     0.332 C 
ATOM     20  N   UNL A   1      31.080  28.018  24.009  1.00  0.00    -0.337 N 
ATOM     21  C   UNL A   1      31.889  27.608  25.170  1.00  0.00     0.264 C 
ATOM     22  C   UNL A   1      30.332  26.907  23.396  1.00  0.00     0.264 C 
ATOM     23  H   UNL A   1      30.383  28.681  24.346  1.00  0.00     0.347 HD
ATOM     24  C   UNL A   1      31.079  26.822  26.199  1.00  0.00     0.086 C 
ATOM     25  C   UNL A   1      29.480  26.145  24.422  1.00  0.00     0.086 C 
ENDBRANCH  13  18
ENDBRANCH   8  12
ENDBRANCH   4   7
ENDBRANCH   2   3
ENDBRANCH   1   2
BRANCH   1  26
ATOM     26  C   UNL A   1      39.328  20.334  25.850  1.00  0.00     0.118 C 
BRANCH  26  27
ATOM     27  N   UNL A   1      40.353  19.325  26.083  1.00  0.00    -0.352 N 
ATOM     28  C   UNL A   1      41.705  19.463  26.272  1.00  0.00     0.251 C 
ATOM     29  H   UNL A   1      40.023  18.398  26.110  1.00  0.00     0.163 HD
ATOM     30  O   UNL A   1      42.422  18.470  26.238  1.00  0.00    -0.269 OA
BRANCH  28  31
ATOM     31  C   UNL A   1      42.290  20.800  26.500  1.00  0.00     0.039 A 
ATOM     32  C   UNL A   1      42.667  21.570  25.397  1.00  0.00     0.014 A 
ATOM     33  C   UNL A   1      42.488  21.286  27.795  1.00  0.00     0.014 A 
ATOM     34  C   UNL A   1      43.183  22.851  25.593  1.00  0.00     0.010 A 
ATOM     35  C   UNL A   1      42.922  22.593  27.986  1.00  0.00     0.010 A 
ATOM     36  C   UNL A   1      43.282  23.387  26.887  1.00  0.00    -0.014 A 
BRANCH  36  37
ATOM     37  C   UNL A   1      43.757  24.775  27.113  1.00  0.00     0.031 A 
ATOM     38  C   UNL A   1      45.206  25.123  26.907  1.00  0.00     0.074 A 
ATOM     39  C   UNL A   1      42.895  25.706  27.566  1.00  0.00     0.049 A 
ATOM     40  N   UNL A   1      45.820  26.260  27.108  1.00  0.00    -0.248 NA
ATOM     41  C   UNL A   1      46.087  24.042  26.436  1.00  0.00     0.031 C 
ATOM     42  C   UNL A   1      41.476  25.479  27.846  1.00  0.00     0.029 A 
ATOM     43  N   UNL A   1      43.086  27.029  27.878  1.00  0.00    -0.354 N 
ATOM     44  C   UNL A   1      47.156  26.030  26.802  1.00  0.00     0.074 A 
ATOM     45  C   UNL A   1      47.274  24.629  26.462  1.00  0.00     0.031 C 
ATOM     46  C   UNL A   1      40.918  26.629  28.257  1.00  0.00     0.029 A 
ATOM     47  C   UNL A   1      41.947  27.663  28.314  1.00  0.00     0.049 A 
ATOM     48  H   UNL A   1      43.957  27.481  27.797  1.00  0.00     0.167 HD
ATOM     49  C   UNL A   1      48.185  26.911  26.781  1.00  0.00     0.037 A 
ATOM     50  C   UNL A   1      41.754  28.933  28.721  1.00  0.00     0.037 A 
ATOM     51  C   UNL A   1      48.055  28.305  27.113  1.00  0.00     0.049 A 
ATOM     52  C   UNL A   1      42.915  29.888  28.713  1.00  0.00     0.074 A 
ATOM     53  C   UNL A   1      49.024  29.293  27.077  1.00  0.00     0.029 A 
ATOM     54  N   UNL A   1      46.885  28.911  27.550  1.00  0.00    -0.354 N 
ATOM     55  N   UNL A   1      44.159  29.670  28.361  1.00  0.00    -0.248 NA
ATOM     56  C   UNL A   1      42.646  31.263  29.154  1.00  0.00     0.031 C 
ATOM     57  C   UNL A   1      48.454  30.482  27.546  1.00  0.00     0.029 A 
ATOM     58  C   UNL A   1      47.113  30.252  27.814  1.00  0.00     0.049 A 
ATOM     59  H   UNL A   1      46.019  28.455  27.657  1.00  0.00     0.167 HD
ATOM     60  C   UNL A   1      44.816  30.887  28.509  1.00  0.00     0.074 A 
ATOM     61  C   UNL A   1      43.826  31.839  28.974  1.00  0.00     0.031 C 
ATOM     62  C   UNL A   1      46.118  31.189  28.276  1.00  0.00     0.037 A 
BRANCH  49  63
ATOM     63  C   UNL A   1      49.542  26.382  26.394  1.00  0.00     0.058 A 
ATOM     64  C   UNL A   1      50.357  25.695  27.310  1.00  0.00     0.135 A 
ATOM     65  C   UNL A   1      50.034  26.560  25.091  1.00  0.00     0.135 A 
ATOM     66  F   UNL A   1      49.945  25.504  28.573  1.00  0.00    -0.206 F 
ATOM     67  C   UNL A   1      51.628  25.248  26.962  1.00  0.00     0.059 A 
ATOM     68  C   UNL A   1      51.289  26.091  24.711  1.00  0.00     0.059 A 
ATOM     69  F   UNL A   1      49.299  27.205  24.172  1.00  0.00    -0.206 F 
ATOM     70  C   UNL A   1      52.087  25.456  25.661  1.00  0.00     0.060 A 
BRANCH  70  71
ATOM     71  S   UNL A   1      53.749  24.893  25.234  1.00  0.00     0.124 S 
ATOM     72  O   UNL A   1      54.509  25.319  26.406  1.00  0.00    -0.237 OA
ATOM     73  O   UNL A   1      53.563  23.453  25.089  1.00  0.00    -0.237 OA
ATOM     74  O   UNL A   1      54.045  25.613  24.000  1.00  0.00    -0.744 OA
ENDBRANCH  70  71
ENDBRANCH  49  63
BRANCH  50  75
ATOM     75  C   UNL A   1      40.394  29.376  29.132  1.00  0.00     0.058 A 
ATOM     76  C   UNL A   1      40.078  29.562  30.485  1.00  0.00     0.135 A 
ATOM     77  C   UNL A   1      39.400  29.662  28.183  1.00  0.00     0.135 A 
ATOM     78  F   UNL A   1      40.993  29.295  31.430  1.00  0.00    -0.206 F 
ATOM     79  C   UNL A   1      38.823  30.007  30.887  1.00  0.00     0.059 A 
ATOM     80  C   UNL A   1      38.146  30.134  28.558  1.00  0.00     0.059 A 
ATOM     81  F   UNL A   1      39.657  29.517  26.874  1.00  0.00    -0.206 F 
ATOM     82  C   UNL A   1      37.865  30.299  29.913  1.00  0.00     0.060 A 
BRANCH  82  83
ATOM     83  S   UNL A   1      36.265  30.948  30.443  1.00  0.00     0.124 S 
ATOM     84  O   UNL A   1      35.457  30.754  29.244  1.00  0.00    -0.237 OA
ATOM     85  O   UNL A   1      35.947  30.083  31.576  1.00  0.00    -0.237 OA
ATOM     86  O   UNL A   1      36.563  32.335  30.787  1.00  0.00    -0.744 OA
ENDBRANCH  82  83
ENDBRANCH  50  75
BRANCH  62  87
ATOM     87  C   UNL A   1      46.546  32.617  28.485  1.00  0.00     0.058 A 
ATOM     88  C   UNL A   1      46.452  33.578  27.465  1.00  0.00     0.135 A 
ATOM     89  C   UNL A   1      47.008  33.041  29.742  1.00  0.00     0.135 A 
ATOM     90  F   UNL A   1      46.023  33.226  26.243  1.00  0.00    -0.206 F 
ATOM     91  C   UNL A   1      46.822  34.902  27.678  1.00  0.00     0.059 A 
ATOM     92  C   UNL A   1      47.355  34.366  29.985  1.00  0.00     0.059 A 
ATOM     93  F   UNL A   1      47.109  32.166  30.755  1.00  0.00    -0.206 F 
ATOM     94  C   UNL A   1      47.269  35.287  28.943  1.00  0.00     0.060 A 
BRANCH  94  95
ATOM     95  S   UNL A   1      47.714  37.016  29.214  1.00  0.00     0.124 S 
ATOM     96  O   UNL A   1      48.880  37.159  28.348  1.00  0.00    -0.237 OA
ATOM     97  O   UNL A   1      46.511  37.718  28.778  1.00  0.00    -0.237 OA
ATOM     98  O   UNL A   1      47.984  37.077  30.647  1.00  0.00    -0.744 OA
ENDBRANCH  94  95
ENDBRANCH  62  87
ENDBRANCH  36  37
ENDBRANCH  28  31
ENDBRANCH  26  27
ENDBRANCH   1  26
TORSDOF 15
ENDMDL
MODEL 3
REMARK VINA RESULT:     -12.2      2.659      8.743
REMARK SMILES C[NH+]1CCC(NC(=O)N[C@@H]2C=C[C@H](C(=O)NCCCNC(=O)c3ccc(-c4c5nc(c(-c6c(F)cc(S(=O)(=O)[O-])cc6F)c6ccc([nH]6)c(-c6c(F)cc(S(=O)(=O)[O-])cc6F)c6nc(c(-c7c(F)cc(S(=O)(=O)[O-])cc7F)c7ccc4[nH]7)C=C6)C=C5)cc3)C2)CC1
REMARK SMILES IDX 18 1 17 2 16 3 14 4 15 5 13 7 10 8 11 9 89 10 12 11 9 12
REMARK SMILES IDX 6 13 7 14 8 16 5 18 1 19 2 20 3 21 91 22 4 24 90 25 19 26
REMARK SMILES IDX 20 27 21 28 22 30 23 31 24 32 88 33 25 34 87 35 26 36 27 37
REMARK SMILES IDX 28 38 81 39 29 40 86 41 80 42 82 43 30 44 85 45 79 46 78 47
REMARK SMILES IDX 31 49 65 50 44 51 64 52 45 53 48 54 63 55 83 56 46 57 47 58
REMARK SMILES IDX 62 60 84 61 49 62 32 63 33 64 42 65 34 66 35 67 41 68 43 69
REMARK SMILES IDX 36 70 37 71 38 72 39 73 40 74 66 75 67 76 76 77 68 78 69 79
REMARK SMILES IDX 75 80 77 81 70 82 71 83 72 84 73 85 74 86 50 87 51 88 60 89
REMARK SMILES IDX 52 90 53 91 59 92 61 93 54 94 55 95 56 96 57 97 58 98
REMARK H PARENT 16 6 6 15 9 17 2 23 20 29 82 48 48 59
REMARK Flexibility Score: inf
ROOT
ATOM      1  C   UNL A   1      34.006  28.885  27.424  1.00  0.00     0.042 C 
ENDROOT
BRANCH   1   2
ATOM      2  C   UNL A   1      32.989  29.742  26.680  1.00  0.00     0.117 C 
BRANCH   2   3
ATOM      3  N   UNL A   1      33.349  29.911  25.284  1.00  0.00    -0.356 N 
ATOM      4  C   UNL A   1      33.123  29.064  24.237  1.00  0.00     0.227 C 
ATOM      5  O   UNL A   1      33.544  29.376  23.124  1.00  0.00    -0.274 OA
ATOM      6  H   UNL A   1      33.818  30.747  25.063  1.00  0.00     0.163 HD
BRANCH   4   7
ATOM      7  C   UNL A   1      32.302  27.808  24.493  1.00  0.00     0.103 C 
ATOM      8  C   UNL A   1      31.719  26.130  22.786  1.00  0.00     0.107 C 
ATOM      9  C   UNL A   1      30.635  27.138  22.982  1.00  0.00    -0.006 C 
ATOM     10  C   UNL A   1      32.840  26.595  23.720  1.00  0.00     0.047 C 
ATOM     11  C   UNL A   1      30.933  28.032  23.925  1.00  0.00    -0.016 C 
BRANCH   8  12
ATOM     12  N   UNL A   1      32.076  26.105  21.388  1.00  0.00    -0.332 N 
ATOM     13  N   UNL A   1      33.107  23.994  21.053  1.00  0.00    -0.335 N 
ATOM     14  C   UNL A   1      32.695  25.199  20.610  1.00  0.00     0.315 C 
ATOM     15  H   UNL A   1      33.547  23.444  20.365  1.00  0.00     0.165 HD
ATOM     16  O   UNL A   1      32.892  25.475  19.424  1.00  0.00    -0.249 OA
ATOM     17  H   UNL A   1      31.810  26.919  20.902  1.00  0.00     0.165 HD
BRANCH  13  18
ATOM     18  C   UNL A   1      33.023  23.358  22.351  1.00  0.00     0.095 C 
ATOM     19  C   UNL A   1      33.136  21.274  25.992  1.00  0.00     0.332 C 
ATOM     20  N   UNL A   1      33.419  21.568  24.583  1.00  0.00    -0.337 N 
ATOM     21  C   UNL A   1      34.162  22.837  24.492  1.00  0.00     0.264 C 
ATOM     22  C   UNL A   1      32.167  21.568  23.808  1.00  0.00     0.264 C 
ATOM     23  H   UNL A   1      34.009  20.844  24.174  1.00  0.00     0.347 HD
ATOM     24  C   UNL A   1      34.377  23.287  23.049  1.00  0.00     0.086 C 
ATOM     25  C   UNL A   1      32.390  21.974  22.344  1.00  0.00     0.086 C 
ENDBRANCH  13  18
ENDBRANCH   8  12
ENDBRANCH   4   7
ENDBRANCH   2   3
ENDBRANCH   1   2
BRANCH   1  26
ATOM     26  C   UNL A   1      35.299  29.627  27.757  1.00  0.00     0.118 C 
BRANCH  26  27
ATOM     27  N   UNL A   1      35.277  30.208  29.092  1.00  0.00    -0.352 N 
ATOM     28  C   UNL A   1      36.271  30.306  30.032  1.00  0.00     0.251 C 
ATOM     29  H   UNL A   1      34.412  30.593  29.362  1.00  0.00     0.163 HD
ATOM     30  O   UNL A   1      35.987  30.641  31.176  1.00  0.00    -0.269 OA
BRANCH  28  31
ATOM     31  C   UNL A   1      37.669  29.997  29.669  1.00  0.00     0.039 A 
ATOM     32  C   UNL A   1      38.563  29.626  30.677  1.00  0.00     0.014 A 
ATOM     33  C   UNL A   1      38.105  30.093  28.345  1.00  0.00     0.014 A 
ATOM     34  C   UNL A   1      39.876  29.292  30.346  1.00  0.00     0.010 A 
ATOM     35  C   UNL A   1      39.389  29.678  28.006  1.00  0.00     0.010 A 
ATOM     36  C   UNL A   1      40.290  29.280  29.004  1.00  0.00    -0.014 A 
BRANCH  36  37
ATOM     37  C   UNL A   1      41.661  28.854  28.624  1.00  0.00     0.031 A 
ATOM     38  C   UNL A   1      42.779  29.859  28.572  1.00  0.00     0.074 A 
ATOM     39  C   UNL A   1      41.882  27.575  28.264  1.00  0.00     0.049 A 
ATOM     40  N   UNL A   1      44.024  29.691  28.207  1.00  0.00    -0.248 NA
ATOM     41  C   UNL A   1      42.448  31.240  28.955  1.00  0.00     0.031 C 
ATOM     42  C   UNL A   1      40.869  26.519  28.231  1.00  0.00     0.029 A 
ATOM     43  N   UNL A   1      43.028  26.946  27.848  1.00  0.00    -0.354 N 
ATOM     44  C   UNL A   1      44.620  30.943  28.305  1.00  0.00     0.074 A 
ATOM     45  C   UNL A   1      43.585  31.872  28.702  1.00  0.00     0.031 C 
ATOM     46  C   UNL A   1      41.444  25.368  27.850  1.00  0.00     0.029 A 
ATOM     47  C   UNL A   1      42.855  25.612  27.566  1.00  0.00     0.049 A 
ATOM     48  H   UNL A   1      43.894  27.406  27.760  1.00  0.00     0.167 HD
ATOM     49  C   UNL A   1      45.916  31.283  28.108  1.00  0.00     0.037 A 
ATOM     50  C   UNL A   1      43.731  24.690  27.123  1.00  0.00     0.037 A 
ATOM     51  C   UNL A   1      46.941  30.349  27.721  1.00  0.00     0.049 A 
ATOM     52  C   UNL A   1      45.160  25.094  26.886  1.00  0.00     0.074 A 
ATOM     53  C   UNL A   1      48.294  30.580  27.541  1.00  0.00     0.029 A 
ATOM     54  N   UNL A   1      46.726  29.006  27.444  1.00  0.00    -0.354 N 
ATOM     55  N   UNL A   1      45.722  26.268  27.044  1.00  0.00    -0.248 NA
ATOM     56  C   UNL A   1      46.076  24.046  26.415  1.00  0.00     0.031 C 
ATOM     57  C   UNL A   1      48.886  29.390  27.103  1.00  0.00     0.029 A 
ATOM     58  C   UNL A   1      47.916  28.401  27.070  1.00  0.00     0.049 A 
ATOM     59  H   UNL A   1      45.857  28.548  27.506  1.00  0.00     0.167 HD
ATOM     60  C   UNL A   1      47.064  26.096  26.721  1.00  0.00     0.074 A 
ATOM     61  C   UNL A   1      47.229  24.699  26.368  1.00  0.00     0.031 C 
ATOM     62  C   UNL A   1      48.067  27.009  26.722  1.00  0.00     0.037 A 
BRANCH  49  63
ATOM     63  C   UNL A   1      46.290  32.730  28.300  1.00  0.00     0.058 A 
ATOM     64  C   UNL A   1      46.206  33.662  27.251  1.00  0.00     0.135 A 
ATOM     65  C   UNL A   1      46.737  33.194  29.548  1.00  0.00     0.135 A 
ATOM     66  F   UNL A   1      45.797  33.274  26.032  1.00  0.00    -0.206 F 
ATOM     67  C   UNL A   1      46.595  34.986  27.419  1.00  0.00     0.059 A 
ATOM     68  C   UNL A   1      47.099  34.523  29.748  1.00  0.00     0.059 A 
ATOM     69  F   UNL A   1      46.835  32.351  30.587  1.00  0.00    -0.206 F 
ATOM     70  C   UNL A   1      47.046  35.406  28.671  1.00  0.00     0.060 A 
BRANCH  70  71
ATOM     71  S   UNL A   1      47.572  37.122  28.866  1.00  0.00     0.124 S 
ATOM     72  O   UNL A   1      49.022  36.973  28.953  1.00  0.00    -0.237 OA
ATOM     73  O   UNL A   1      47.072  37.743  27.643  1.00  0.00    -0.237 OA
ATOM     74  O   UNL A   1      46.911  37.544  30.096  1.00  0.00    -0.744 OA
ENDBRANCH  70  71
ENDBRANCH  49  63
BRANCH  50  75
ATOM     75  C   UNL A   1      43.283  23.287  26.912  1.00  0.00     0.058 A 
ATOM     76  C   UNL A   1      43.145  22.763  25.619  1.00  0.00     0.135 A 
ATOM     77  C   UNL A   1      43.022  22.432  27.995  1.00  0.00     0.135 A 
ATOM     78  F   UNL A   1      43.376  23.543  24.552  1.00  0.00    -0.206 F 
ATOM     79  C   UNL A   1      42.758  21.444  25.404  1.00  0.00     0.059 A 
ATOM     80  C   UNL A   1      42.660  21.102  27.806  1.00  0.00     0.059 A 
ATOM     81  F   UNL A   1      43.155  22.880  29.254  1.00  0.00    -0.206 F 
ATOM     82  C   UNL A   1      42.526  20.618  26.505  1.00  0.00     0.060 A 
BRANCH  82  83
ATOM     83  S   UNL A   1      42.097  18.889  26.213  1.00  0.00     0.124 S 
ATOM     84  O   UNL A   1      40.700  18.995  25.809  1.00  0.00    -0.237 OA
ATOM     85  O   UNL A   1      43.040  18.515  25.162  1.00  0.00    -0.237 OA
ATOM     86  O   UNL A   1      42.334  18.261  27.509  1.00  0.00    -0.744 OA
ENDBRANCH  82  83
ENDBRANCH  50  75
BRANCH  62  87
ATOM     87  C   UNL A   1      49.446  26.524  26.363  1.00  0.00     0.058 A 
ATOM     88  C   UNL A   1      49.987  26.707  25.080  1.00  0.00     0.135 A 
ATOM     89  C   UNL A   1      50.258  25.913  27.334  1.00  0.00     0.135 A 
ATOM     90  F   UNL A   1      49.253  27.278  24.112  1.00  0.00    -0.206 F 
ATOM     91  C   UNL A   1      51.274  26.281  24.767  1.00  0.00     0.059 A 
ATOM     92  C   UNL A   1      51.558  25.509  27.051  1.00  0.00     0.059 A 
ATOM     93  F   UNL A   1      49.793  25.723  28.579  1.00  0.00    -0.206 F 
ATOM     94  C   UNL A   1      52.054  25.686  25.761  1.00  0.00     0.060 A 
BRANCH  94  95
ATOM     95  S   UNL A   1      53.734  25.170  25.350  1.00  0.00     0.124 S 
ATOM     96  O   UNL A   1      53.910  25.764  24.029  1.00  0.00    -0.237 OA
ATOM     97  O   UNL A   1      54.516  25.773  26.426  1.00  0.00    -0.237 OA
ATOM     98  O   UNL A   1      53.659  23.713  25.378  1.00  0.00    -0.744 OA
ENDBRANCH  94  95
ENDBRANCH  62  87
ENDBRANCH  36  37
ENDBRANCH  28  31
ENDBRANCH  26  27
ENDBRANCH   1  26
TORSDOF 15
ENDMDL
