MODEL 1
REMARK VINA RESULT:     -12.1      0.000      0.000
REMARK SMILES Cc1cccc(C[N@H+]2CC[C@@](C)(C(=O)NCCCNC(=O)c3ccc(-c4c5nc(c(-c6c(F)cc(S(=O)(=O)[O-])cc6F)c6ccc([nH]6)c(-c6c(F)cc(S(=O)(=O)[O-])cc6F)c6nc(c(-c7c(F)cc(S(=O)(=O)[O-])cc7F)c7ccc4[nH]7)C=C6)C=C5)cc3)C2)n1
REMARK SMILES IDX 17 1 16 2 15 3 13 4 14 5 11 7 8 8 9 9 88 10 10 12 12 13 7 14
REMARK SMILES IDX 6 15 1 16 2 17 3 18 89 19 4 20 5 21 18 22 19 23 20 24 21 26
REMARK SMILES IDX 22 27 23 28 87 29 24 30 86 31 25 32 26 33 27 34 80 35 28 36
REMARK SMILES IDX 85 37 79 38 81 39 29 40 84 41 78 42 77 43 30 45 64 46 43 47
REMARK SMILES IDX 63 48 44 49 47 50 62 51 82 52 45 53 46 54 61 56 83 57 48 58
REMARK SMILES IDX 31 59 32 60 41 61 33 62 34 63 40 64 42 65 35 66 36 67 37 68
REMARK SMILES IDX 38 69 39 70 65 71 66 72 75 73 67 74 68 75 74 76 76 77 69 78
REMARK SMILES IDX 70 79 71 80 72 81 73 82 49 83 50 84 59 85 51 86 52 87 58 88
REMARK SMILES IDX 60 89 53 90 54 91 55 92 56 93 57 94
REMARK H PARENT 15 6 8 11 19 25 81 44 47 55
REMARK Flexibility Score: inf
ROOT
ATOM      1  C   UNL A   1      34.246  34.159  28.296  1.00  0.00     0.042 C 
ENDROOT
BRANCH   1   2
ATOM      2  C   UNL A   1      33.004  35.814  29.007  1.00  0.00     0.117 C 
BRANCH   2   3
ATOM      3  N   UNL A   1      33.271  37.012  29.955  1.00  0.00    -0.355 N 
ATOM      4  C   UNL A   1      33.249  37.119  31.300  1.00  0.00     0.231 C 
ATOM      5  O   UNL A   1      33.474  38.270  31.704  1.00  0.00    -0.274 OA
ATOM      6  H   UNL A   1      33.501  37.848  29.489  1.00  0.00     0.163 HD
BRANCH   4   7
ATOM      7  C   UNL A   1      33.105  35.927  32.287  1.00  0.00     0.100 C 
ATOM      8  N   UNL A   1      34.944  34.379  32.799  1.00  0.00    -0.329 N 
ATOM      9  C   UNL A   1      34.977  35.428  33.816  1.00  0.00     0.263 C 
ATOM     10  C   UNL A   1      33.760  34.579  31.941  1.00  0.00     0.279 C 
ATOM     11  H   UNL A   1      34.844  33.493  33.295  1.00  0.00     0.348 HD
ATOM     12  C   UNL A   1      33.706  36.272  33.657  1.00  0.00     0.084 C 
ATOM     13  C   UNL A   1      31.575  35.718  32.411  1.00  0.00     0.028 C 
BRANCH   8  14
ATOM     14  C   UNL A   1      36.215  34.086  32.082  1.00  0.00     0.319 C 
BRANCH  14  15
ATOM     15  C   UNL A   1      37.365  33.546  32.953  1.00  0.00     0.095 A 
ATOM     16  C   UNL A   1      39.109  29.535  33.298  1.00  0.00     0.067 C 
ATOM     17  C   UNL A   1      39.075  31.027  33.274  1.00  0.00     0.038 A 
ATOM     18  C   UNL A   1      40.553  32.030  33.481  1.00  0.00     0.023 A 
ATOM     19  N   UNL A   1      37.535  31.790  32.947  1.00  0.00    -0.252 NA
ATOM     20  C   UNL A   1      40.390  33.834  33.559  1.00  0.00     0.004 A 
ATOM     21  C   UNL A   1      38.790  34.596  33.223  1.00  0.00     0.030 A 
ENDBRANCH  14  15
ENDBRANCH   8  14
ENDBRANCH   4   7
ENDBRANCH   2   3
ENDBRANCH   1   2
BRANCH   1  22
ATOM     22  C   UNL A   1      34.739  32.635  28.968  1.00  0.00     0.118 C 
BRANCH  22  23
ATOM     23  N   UNL A   1      34.138  31.383  28.451  1.00  0.00    -0.352 N 
ATOM     24  C   UNL A   1      34.723  30.198  28.121  1.00  0.00     0.251 C 
ATOM     25  H   UNL A   1      33.161  31.412  28.329  1.00  0.00     0.163 HD
ATOM     26  O   UNL A   1      34.097  29.298  27.579  1.00  0.00    -0.269 OA
BRANCH  24  27
ATOM     27  C   UNL A   1      36.116  30.057  28.500  1.00  0.00     0.039 A 
ATOM     28  C   UNL A   1      36.437  29.534  29.748  1.00  0.00     0.014 A 
ATOM     29  C   UNL A   1      37.059  30.257  27.488  1.00  0.00     0.014 A 
ATOM     30  C   UNL A   1      37.753  29.172  29.979  1.00  0.00     0.010 A 
ATOM     31  C   UNL A   1      38.333  29.781  27.681  1.00  0.00     0.010 A 
ATOM     32  C   UNL A   1      38.691  29.269  28.937  1.00  0.00    -0.014 A 
BRANCH  32  33
ATOM     33  C   UNL A   1      40.097  28.893  29.142  1.00  0.00     0.031 A 
ATOM     34  C   UNL A   1      41.043  29.943  29.640  1.00  0.00     0.074 A 
ATOM     35  C   UNL A   1      40.505  27.663  28.786  1.00  0.00     0.049 A 
ATOM     36  N   UNL A   1      42.338  29.883  29.778  1.00  0.00    -0.248 NA
ATOM     37  C   UNL A   1      40.464  31.260  29.968  1.00  0.00     0.031 C 
ATOM     38  C   UNL A   1      39.653  26.617  28.213  1.00  0.00     0.029 A 
ATOM     39  N   UNL A   1      41.746  27.090  28.838  1.00  0.00    -0.354 N 
ATOM     40  C   UNL A   1      42.726  31.158  30.170  1.00  0.00     0.074 A 
ATOM     41  C   UNL A   1      41.548  31.990  30.170  1.00  0.00     0.031 C 
ATOM     42  C   UNL A   1      40.392  25.519  27.994  1.00  0.00     0.029 A 
ATOM     43  C   UNL A   1      41.774  25.802  28.364  1.00  0.00     0.049 A 
ATOM     44  H   UNL A   1      42.541  27.557  29.182  1.00  0.00     0.167 HD
ATOM     45  C   UNL A   1      43.956  31.577  30.533  1.00  0.00     0.037 A 
ATOM     46  C   UNL A   1      42.813  24.957  28.234  1.00  0.00     0.037 A 
ATOM     47  C   UNL A   1      45.093  30.701  30.571  1.00  0.00     0.049 A 
ATOM     48  C   UNL A   1      44.168  25.432  28.679  1.00  0.00     0.074 A 
ATOM     49  C   UNL A   1      46.370  30.969  31.021  1.00  0.00     0.029 A 
ATOM     50  N   UNL A   1      45.082  29.382  30.134  1.00  0.00    -0.354 N 
ATOM     51  N   UNL A   1      44.509  26.605  29.160  1.00  0.00    -0.248 NA
ATOM     52  C   UNL A   1      45.276  24.477  28.573  1.00  0.00     0.031 C 
ATOM     53  C   UNL A   1      47.149  29.828  30.798  1.00  0.00     0.029 A 
ATOM     54  C   UNL A   1      46.342  28.832  30.265  1.00  0.00     0.049 A 
ATOM     55  H   UNL A   1      44.293  28.910  29.782  1.00  0.00     0.167 HD
ATOM     56  C   UNL A   1      45.872  26.532  29.418  1.00  0.00     0.074 A 
ATOM     57  C   UNL A   1      46.285  25.187  29.064  1.00  0.00     0.031 C 
ATOM     58  C   UNL A   1      46.710  27.485  29.896  1.00  0.00     0.037 A 
BRANCH  45  59
ATOM     59  C   UNL A   1      44.119  33.023  30.910  1.00  0.00     0.058 A 
ATOM     60  C   UNL A   1      44.334  34.025  29.949  1.00  0.00     0.135 A 
ATOM     61  C   UNL A   1      44.065  33.413  32.258  1.00  0.00     0.135 A 
ATOM     62  F   UNL A   1      44.417  33.709  28.646  1.00  0.00    -0.206 F 
ATOM     63  C   UNL A   1      44.532  35.353  30.312  1.00  0.00     0.059 A 
ATOM     64  C   UNL A   1      44.225  34.741  32.641  1.00  0.00     0.059 A 
ATOM     65  F   UNL A   1      43.872  32.498  33.220  1.00  0.00    -0.206 F 
ATOM     66  C   UNL A   1      44.475  35.701  31.662  1.00  0.00     0.060 A 
BRANCH  66  67
ATOM     67  S   UNL A   1      44.732  37.429  32.114  1.00  0.00     0.124 S 
ATOM     68  O   UNL A   1      44.990  38.036  30.812  1.00  0.00    -0.237 OA
ATOM     69  O   UNL A   1      43.459  37.780  32.735  1.00  0.00    -0.237 OA
ATOM     70  O   UNL A   1      45.876  37.378  33.020  1.00  0.00    -0.744 OA
ENDBRANCH  66  67
ENDBRANCH  45  59
BRANCH  46  71
ATOM     71  C   UNL A   1      42.592  23.598  27.674  1.00  0.00     0.058 A 
ATOM     72  C   UNL A   1      42.598  23.372  26.292  1.00  0.00     0.135 A 
ATOM     73  C   UNL A   1      42.436  22.484  28.517  1.00  0.00     0.135 A 
ATOM     74  F   UNL A   1      42.744  24.402  25.445  1.00  0.00    -0.206 F 
ATOM     75  C   UNL A   1      42.454  22.093  25.760  1.00  0.00     0.059 A 
ATOM     76  C   UNL A   1      42.317  21.193  28.011  1.00  0.00     0.059 A 
ATOM     77  F   UNL A   1      42.446  22.642  29.849  1.00  0.00    -0.206 F 
ATOM     78  C   UNL A   1      42.322  21.009  26.629  1.00  0.00     0.060 A 
BRANCH  78  79
ATOM     79  S   UNL A   1      42.212  19.347  25.930  1.00  0.00     0.124 S 
ATOM     80  O   UNL A   1      40.780  19.226  25.685  1.00  0.00    -0.237 OA
ATOM     81  O   UNL A   1      43.056  19.460  24.745  1.00  0.00    -0.237 OA
ATOM     82  O   UNL A   1      42.745  18.499  26.991  1.00  0.00    -0.744 OA
ENDBRANCH  78  79
ENDBRANCH  46  71
BRANCH  58  83
ATOM     83  C   UNL A   1      48.154  27.112  30.061  1.00  0.00     0.058 A 
ATOM     84  C   UNL A   1      49.099  27.401  29.065  1.00  0.00     0.135 A 
ATOM     85  C   UNL A   1      48.611  26.560  31.268  1.00  0.00     0.135 A 
ATOM     86  F   UNL A   1      48.707  27.920  27.891  1.00  0.00    -0.206 F 
ATOM     87  C   UNL A   1      50.451  27.151  29.259  1.00  0.00     0.059 A 
ATOM     88  C   UNL A   1      49.963  26.332  31.496  1.00  0.00     0.059 A 
ATOM     89  F   UNL A   1      47.745  26.278  32.254  1.00  0.00    -0.206 F 
ATOM     90  C   UNL A   1      50.874  26.629  30.483  1.00  0.00     0.060 A 
BRANCH  90  91
ATOM     91  S   UNL A   1      52.642  26.382  30.747  1.00  0.00     0.124 S 
ATOM     92  O   UNL A   1      53.115  26.174  29.382  1.00  0.00    -0.237 OA
ATOM     93  O   UNL A   1      53.040  27.639  31.372  1.00  0.00    -0.237 OA
ATOM     94  O   UNL A   1      52.697  25.209  31.615  1.00  0.00    -0.744 OA
ENDBRANCH  90  91
ENDBRANCH  58  83
ENDBRANCH  32  33
ENDBRANCH  24  27
ENDBRANCH  22  23
ENDBRANCH   1  22
TORSDOF 15
ENDMDL
MODEL 2
REMARK VINA RESULT:     -11.9      5.438     12.184
REMARK SMILES Cc1cccc(C[N@H+]2CC[C@@](C)(C(=O)NCCCNC(=O)c3ccc(-c4c5nc(c(-c6c(F)cc(S(=O)(=O)[O-])cc6F)c6ccc([nH]6)c(-c6c(F)cc(S(=O)(=O)[O-])cc6F)c6nc(c(-c7c(F)cc(S(=O)(=O)[O-])cc7F)c7ccc4[nH]7)C=C6)C=C5)cc3)C2)n1
REMARK SMILES IDX 17 1 16 2 15 3 13 4 14 5 11 7 8 8 9 9 88 10 10 12 12 13 7 14
REMARK SMILES IDX 6 15 1 16 2 17 3 18 89 19 4 20 5 21 18 22 19 23 20 24 21 26
REMARK SMILES IDX 22 27 23 28 87 29 24 30 86 31 25 32 26 33 27 34 80 35 28 36
REMARK SMILES IDX 85 37 79 38 81 39 29 40 84 41 78 42 77 43 30 45 64 46 43 47
REMARK SMILES IDX 63 48 44 49 47 50 62 51 82 52 45 53 46 54 61 56 83 57 48 58
REMARK SMILES IDX 31 59 32 60 41 61 33 62 34 63 40 64 42 65 35 66 36 67 37 68
REMARK SMILES IDX 38 69 39 70 65 71 66 72 75 73 67 74 68 75 74 76 76 77 69 78
REMARK SMILES IDX 70 79 71 80 72 81 73 82 49 83 50 84 59 85 51 86 52 87 58 88
REMARK SMILES IDX 60 89 53 90 54 91 55 92 56 93 57 94
REMARK H PARENT 15 6 8 11 19 25 81 44 47 55
REMARK Flexibility Score: inf
ROOT
ATOM      1  C   UNL A   1      37.384  23.204  25.520  1.00  0.00     0.042 C 
ENDROOT
BRANCH   1   2
ATOM      2  C   UNL A   1      35.814  21.833  26.184  1.00  0.00     0.117 C 
BRANCH   2   3
ATOM      3  N   UNL A   1      34.711  21.926  27.270  1.00  0.00    -0.355 N 
ATOM      4  C   UNL A   1      33.388  22.182  27.190  1.00  0.00     0.231 C 
ATOM      5  O   UNL A   1      32.830  22.220  28.297  1.00  0.00    -0.274 OA
ATOM      6  H   UNL A   1      35.035  21.768  28.185  1.00  0.00     0.163 HD
BRANCH   4   7
ATOM      7  C   UNL A   1      32.576  22.280  25.869  1.00  0.00     0.100 C 
ATOM      8  N   UNL A   1      31.274  24.265  25.237  1.00  0.00    -0.329 N 
ATOM      9  C   UNL A   1      32.594  24.412  24.627  1.00  0.00     0.263 C 
ATOM     10  C   UNL A   1      31.188  22.942  25.884  1.00  0.00     0.279 C 
ATOM     11  H   UNL A   1      30.594  24.303  24.477  1.00  0.00     0.348 HD
ATOM     12  C   UNL A   1      33.342  23.086  24.811  1.00  0.00     0.084 C 
ATOM     13  C   UNL A   1      32.419  20.808  25.410  1.00  0.00     0.028 C 
BRANCH   8  14
ATOM     14  C   UNL A   1      30.765  25.409  26.042  1.00  0.00     0.319 C 
BRANCH  14  15
ATOM     15  C   UNL A   1      31.327  26.793  25.668  1.00  0.00     0.095 A 
ATOM     16  C   UNL A   1      30.176  29.644  22.538  1.00  0.00     0.067 C 
ATOM     17  C   UNL A   1      30.664  29.181  23.871  1.00  0.00     0.038 A 
ATOM     18  C   UNL A   1      31.109  30.323  25.186  1.00  0.00     0.023 A 
ATOM     19  N   UNL A   1      30.712  27.455  24.153  1.00  0.00    -0.252 NA
ATOM     20  C   UNL A   1      31.807  29.666  26.725  1.00  0.00     0.004 A 
ATOM     21  C   UNL A   1      31.850  27.882  26.989  1.00  0.00     0.030 A 
ENDBRANCH  14  15
ENDBRANCH   8  14
ENDBRANCH   4   7
ENDBRANCH   2   3
ENDBRANCH   1   2
BRANCH   1  22
ATOM     22  C   UNL A   1      38.487  24.272  26.333  1.00  0.00     0.118 C 
BRANCH  22  23
ATOM     23  N   UNL A   1      39.945  24.108  26.125  1.00  0.00    -0.352 N 
ATOM     24  C   UNL A   1      40.984  24.886  26.535  1.00  0.00     0.251 C 
ATOM     25  H   UNL A   1      40.203  23.309  25.610  1.00  0.00     0.163 HD
ATOM     26  O   UNL A   1      42.131  24.680  26.165  1.00  0.00    -0.269 OA
BRANCH  24  27
ATOM     27  C   UNL A   1      40.650  25.937  27.477  1.00  0.00     0.039 A 
ATOM     28  C   UNL A   1      39.741  25.679  28.498  1.00  0.00     0.014 A 
ATOM     29  C   UNL A   1      41.436  27.091  27.426  1.00  0.00     0.014 A 
ATOM     30  C   UNL A   1      39.639  26.604  29.522  1.00  0.00     0.010 A 
ATOM     31  C   UNL A   1      41.418  27.940  28.505  1.00  0.00     0.010 A 
ATOM     32  C   UNL A   1      40.497  27.717  29.540  1.00  0.00    -0.014 A 
BRANCH  32  33
ATOM     33  C   UNL A   1      40.420  28.720  30.611  1.00  0.00     0.031 A 
ATOM     34  C   UNL A   1      41.306  28.545  31.807  1.00  0.00     0.074 A 
ATOM     35  C   UNL A   1      39.499  29.695  30.530  1.00  0.00     0.049 A 
ATOM     36  N   UNL A   1      41.327  29.224  32.920  1.00  0.00    -0.248 NA
ATOM     37  C   UNL A   1      42.254  27.415  31.775  1.00  0.00     0.031 C 
ATOM     38  C   UNL A   1      38.545  29.875  29.432  1.00  0.00     0.029 A 
ATOM     39  N   UNL A   1      39.203  30.710  31.398  1.00  0.00    -0.354 N 
ATOM     40  C   UNL A   1      42.258  28.581  33.726  1.00  0.00     0.074 A 
ATOM     41  C   UNL A   1      42.719  27.416  33.012  1.00  0.00     0.031 C 
ATOM     42  C   UNL A   1      37.788  30.955  29.680  1.00  0.00     0.029 A 
ATOM     43  C   UNL A   1      38.172  31.510  30.973  1.00  0.00     0.049 A 
ATOM     44  H   UNL A   1      39.683  30.852  32.245  1.00  0.00     0.167 HD
ATOM     45  C   UNL A   1      42.708  28.960  34.940  1.00  0.00     0.037 A 
ATOM     46  C   UNL A   1      37.597  32.566  31.578  1.00  0.00     0.037 A 
ATOM     47  C   UNL A   1      42.261  30.158  35.593  1.00  0.00     0.049 A 
ATOM     48  C   UNL A   1      38.139  32.994  32.914  1.00  0.00     0.074 A 
ATOM     49  C   UNL A   1      42.712  30.715  36.772  1.00  0.00     0.029 A 
ATOM     50  N   UNL A   1      41.249  30.982  35.114  1.00  0.00    -0.354 N 
ATOM     51  N   UNL A   1      39.102  32.448  33.622  1.00  0.00    -0.248 NA
ATOM     52  C   UNL A   1      37.530  34.176  33.532  1.00  0.00     0.031 C 
ATOM     53  C   UNL A   1      41.930  31.843  37.038  1.00  0.00     0.029 A 
ATOM     54  C   UNL A   1      41.032  32.023  35.995  1.00  0.00     0.049 A 
ATOM     55  H   UNL A   1      40.759  30.842  34.271  1.00  0.00     0.167 HD
ATOM     56  C   UNL A   1      39.218  33.221  34.769  1.00  0.00     0.074 A 
ATOM     57  C   UNL A   1      38.243  34.289  34.645  1.00  0.00     0.031 C 
ATOM     58  C   UNL A   1      40.046  33.064  35.833  1.00  0.00     0.037 A 
BRANCH  45  59
ATOM     59  C   UNL A   1      43.719  28.077  35.617  1.00  0.00     0.058 A 
ATOM     60  C   UNL A   1      45.097  28.193  35.369  1.00  0.00     0.135 A 
ATOM     61  C   UNL A   1      43.301  27.092  36.526  1.00  0.00     0.135 A 
ATOM     62  F   UNL A   1      45.554  29.102  34.492  1.00  0.00    -0.206 F 
ATOM     63  C   UNL A   1      46.019  27.338  35.963  1.00  0.00     0.059 A 
ATOM     64  C   UNL A   1      44.209  26.250  37.160  1.00  0.00     0.059 A 
ATOM     65  F   UNL A   1      41.996  26.929  36.795  1.00  0.00    -0.206 F 
ATOM     66  C   UNL A   1      45.565  26.369  36.858  1.00  0.00     0.060 A 
BRANCH  66  67
ATOM     67  S   UNL A   1      46.776  25.271  37.622  1.00  0.00     0.124 S 
ATOM     68  O   UNL A   1      47.456  24.727  36.450  1.00  0.00    -0.237 OA
ATOM     69  O   UNL A   1      47.560  26.193  38.437  1.00  0.00    -0.237 OA
ATOM     70  O   UNL A   1      45.953  24.323  38.367  1.00  0.00    -0.744 OA
ENDBRANCH  66  67
ENDBRANCH  45  59
BRANCH  46  71
ATOM     71  C   UNL A   1      36.470  33.272  30.915  1.00  0.00     0.058 A 
ATOM     72  C   UNL A   1      35.163  33.181  31.411  1.00  0.00     0.135 A 
ATOM     73  C   UNL A   1      36.691  34.109  29.808  1.00  0.00     0.135 A 
ATOM     74  F   UNL A   1      34.900  32.395  32.467  1.00  0.00    -0.206 F 
ATOM     75  C   UNL A   1      34.112  33.888  30.834  1.00  0.00     0.059 A 
ATOM     76  C   UNL A   1      35.663  34.847  29.230  1.00  0.00     0.059 A 
ATOM     77  F   UNL A   1      37.929  34.251  29.308  1.00  0.00    -0.206 F 
ATOM     78  C   UNL A   1      34.374  34.725  29.749  1.00  0.00     0.060 A 
BRANCH  78  79
ATOM     79  S   UNL A   1      33.017  35.696  29.056  1.00  0.00     0.124 S 
ATOM     80  O   UNL A   1      32.364  34.716  28.196  1.00  0.00    -0.237 OA
ATOM     81  O   UNL A   1      32.281  36.086  30.254  1.00  0.00    -0.237 OA
ATOM     82  O   UNL A   1      33.700  36.786  28.367  1.00  0.00    -0.744 OA
ENDBRANCH  78  79
ENDBRANCH  46  71
BRANCH  58  83
ATOM     83  C   UNL A   1      39.933  34.064  36.945  1.00  0.00     0.058 A 
ATOM     84  C   UNL A   1      40.518  35.335  36.845  1.00  0.00     0.135 A 
ATOM     85  C   UNL A   1      39.142  33.786  38.073  1.00  0.00     0.135 A 
ATOM     86  F   UNL A   1      41.289  35.643  35.790  1.00  0.00    -0.206 F 
ATOM     87  C   UNL A   1      40.326  36.297  37.828  1.00  0.00     0.059 A 
ATOM     88  C   UNL A   1      38.912  34.745  39.051  1.00  0.00     0.059 A 
ATOM     89  F   UNL A   1      38.553  32.587  38.207  1.00  0.00    -0.206 F 
ATOM     90  C   UNL A   1      39.511  35.996  38.921  1.00  0.00     0.060 A 
BRANCH  90  91
ATOM     91  S   UNL A   1      39.211  37.283  40.149  1.00  0.00     0.124 S 
ATOM     92  O   UNL A   1      38.447  38.256  39.374  1.00  0.00    -0.237 OA
ATOM     93  O   UNL A   1      38.466  36.563  41.176  1.00  0.00    -0.237 OA
ATOM     94  O   UNL A   1      40.554  37.705  40.535  1.00  0.00    -0.744 OA
ENDBRANCH  90  91
ENDBRANCH  58  83
ENDBRANCH  32  33
ENDBRANCH  24  27
ENDBRANCH  22  23
ENDBRANCH   1  22
TORSDOF 15
ENDMDL
MODEL 3
REMARK VINA RESULT:     -11.5      4.024      6.745
REMARK SMILES Cc1cccc(C[N@H+]2CC[C@@](C)(C(=O)NCCCNC(=O)c3ccc(-c4c5nc(c(-c6c(F)cc(S(=O)(=O)[O-])cc6F)c6ccc([nH]6)c(-c6c(F)cc(S(=O)(=O)[O-])cc6F)c6nc(c(-c7c(F)cc(S(=O)(=O)[O-])cc7F)c7ccc4[nH]7)C=C6)C=C5)cc3)C2)n1
REMARK SMILES IDX 17 1 16 2 15 3 13 4 14 5 11 7 8 8 9 9 88 10 10 12 12 13 7 14
REMARK SMILES IDX 6 15 1 16 2 17 3 18 89 19 4 20 5 21 18 22 19 23 20 24 21 26
REMARK SMILES IDX 22 27 23 28 87 29 24 30 86 31 25 32 26 33 27 34 80 35 28 36
REMARK SMILES IDX 85 37 79 38 81 39 29 40 84 41 78 42 77 43 30 45 64 46 43 47
REMARK SMILES IDX 63 48 44 49 47 50 62 51 82 52 45 53 46 54 61 56 83 57 48 58
REMARK SMILES IDX 31 59 32 60 41 61 33 62 34 63 40 64 42 65 35 66 36 67 37 68
REMARK SMILES IDX 38 69 39 70 65 71 66 72 75 73 67 74 68 75 74 76 76 77 69 78
REMARK SMILES IDX 70 79 71 80 72 81 73 82 49 83 50 84 59 85 51 86 52 87 58 88
REMARK SMILES IDX 60 89 53 90 54 91 55 92 56 93 57 94
REMARK H PARENT 15 6 8 11 19 25 81 44 47 55
REMARK Flexibility Score: inf
ROOT
ATOM      1  C   UNL A   1      33.910  30.287  26.985  1.00  0.00     0.042 C 
ENDROOT
BRANCH   1   2
ATOM      2  C   UNL A   1      33.051  29.545  25.116  1.00  0.00     0.117 C 
BRANCH   2   3
ATOM      3  N   UNL A   1      33.658  29.195  23.733  1.00  0.00    -0.355 N 
ATOM      4  C   UNL A   1      33.288  28.307  22.785  1.00  0.00     0.231 C 
ATOM      5  O   UNL A   1      34.060  28.278  21.814  1.00  0.00    -0.274 OA
ATOM      6  H   UNL A   1      34.460  29.717  23.503  1.00  0.00     0.163 HD
BRANCH   4   7
ATOM      7  C   UNL A   1      31.965  27.492  22.794  1.00  0.00     0.100 C 
ATOM      8  N   UNL A   1      31.851  25.112  22.196  1.00  0.00    -0.329 N 
ATOM      9  C   UNL A   1      32.011  25.177  23.647  1.00  0.00     0.263 C 
ATOM     10  C   UNL A   1      31.695  26.481  21.668  1.00  0.00     0.279 C 
ATOM     11  H   UNL A   1      30.991  24.592  22.019  1.00  0.00     0.348 HD
ATOM     12  C   UNL A   1      31.852  26.643  24.068  1.00  0.00     0.084 C 
ATOM     13  C   UNL A   1      30.854  28.571  22.770  1.00  0.00     0.028 C 
BRANCH   8  14
ATOM     14  C   UNL A   1      32.794  24.236  21.446  1.00  0.00     0.319 C 
BRANCH  14  15
ATOM     15  C   UNL A   1      33.533  23.177  22.283  1.00  0.00     0.095 A 
ATOM     16  C   UNL A   1      36.808  23.531  25.180  1.00  0.00     0.067 C 
ATOM     17  C   UNL A   1      35.552  22.995  24.576  1.00  0.00     0.038 A 
ATOM     18  C   UNL A   1      34.602  21.672  25.339  1.00  0.00     0.023 A 
ATOM     19  N   UNL A   1      34.972  23.764  23.117  1.00  0.00    -0.252 NA
ATOM     20  C   UNL A   1      33.159  21.008  24.465  1.00  0.00     0.004 A 
ATOM     21  C   UNL A   1      32.584  21.816  22.958  1.00  0.00     0.030 A 
ENDBRANCH  14  15
ENDBRANCH   8  14
ENDBRANCH   4   7
ENDBRANCH   2   3
ENDBRANCH   1   2
BRANCH   1  22
ATOM     22  C   UNL A   1      35.261  29.818  27.973  1.00  0.00     0.118 C 
BRANCH  22  23
ATOM     23  N   UNL A   1      35.375  30.350  29.351  1.00  0.00    -0.352 N 
ATOM     24  C   UNL A   1      36.379  30.222  30.262  1.00  0.00     0.251 C 
ATOM     25  H   UNL A   1      34.604  30.882  29.655  1.00  0.00     0.163 HD
ATOM     26  O   UNL A   1      36.260  30.616  31.413  1.00  0.00    -0.269 OA
BRANCH  24  27
ATOM     27  C   UNL A   1      37.610  29.639  29.764  1.00  0.00     0.039 A 
ATOM     28  C   UNL A   1      38.027  29.923  28.468  1.00  0.00     0.014 A 
ATOM     29  C   UNL A   1      38.418  28.994  30.704  1.00  0.00     0.014 A 
ATOM     30  C   UNL A   1      39.318  29.569  28.112  1.00  0.00     0.010 A 
ATOM     31  C   UNL A   1      39.732  28.760  30.383  1.00  0.00     0.010 A 
ATOM     32  C   UNL A   1      40.177  29.016  29.077  1.00  0.00    -0.014 A 
BRANCH  32  33
ATOM     33  C   UNL A   1      41.553  28.630  28.739  1.00  0.00     0.031 A 
ATOM     34  C   UNL A   1      42.601  29.701  28.712  1.00  0.00     0.074 A 
ATOM     35  C   UNL A   1      41.807  27.362  28.371  1.00  0.00     0.049 A 
ATOM     36  N   UNL A   1      43.844  29.625  28.326  1.00  0.00    -0.248 NA
ATOM     37  C   UNL A   1      42.179  31.057  29.115  1.00  0.00     0.031 C 
ATOM     38  C   UNL A   1      40.815  26.286  28.292  1.00  0.00     0.029 A 
ATOM     39  N   UNL A   1      42.974  26.769  27.978  1.00  0.00    -0.354 N 
ATOM     40  C   UNL A   1      44.334  30.922  28.404  1.00  0.00     0.074 A 
ATOM     41  C   UNL A   1      43.240  31.777  28.794  1.00  0.00     0.031 C 
ATOM     42  C   UNL A   1      41.424  25.155  27.903  1.00  0.00     0.029 A 
ATOM     43  C   UNL A   1      42.833  25.441  27.661  1.00  0.00     0.049 A 
ATOM     44  H   UNL A   1      43.832  27.248  27.928  1.00  0.00     0.167 HD
ATOM     45  C   UNL A   1      45.599  31.347  28.203  1.00  0.00     0.037 A 
ATOM     46  C   UNL A   1      43.748  24.563  27.209  1.00  0.00     0.037 A 
ATOM     47  C   UNL A   1      46.671  30.453  27.868  1.00  0.00     0.049 A 
ATOM     48  C   UNL A   1      45.160  25.048  27.026  1.00  0.00     0.074 A 
ATOM     49  C   UNL A   1      48.016  30.733  27.741  1.00  0.00     0.029 A 
ATOM     50  N   UNL A   1      46.510  29.098  27.602  1.00  0.00    -0.354 N 
ATOM     51  N   UNL A   1      45.644  26.254  27.213  1.00  0.00    -0.248 NA
ATOM     52  C   UNL A   1      46.149  24.062  26.579  1.00  0.00     0.031 C 
ATOM     53  C   UNL A   1      48.661  29.559  27.338  1.00  0.00     0.029 A 
ATOM     54  C   UNL A   1      47.726  28.534  27.271  1.00  0.00     0.049 A 
ATOM     55  H   UNL A   1      45.654  28.612  27.643  1.00  0.00     0.167 HD
ATOM     56  C   UNL A   1      46.997  26.175  26.911  1.00  0.00     0.074 A 
ATOM     57  C   UNL A   1      47.257  24.793  26.554  1.00  0.00     0.031 C 
ATOM     58  C   UNL A   1      47.939  27.151  26.919  1.00  0.00     0.037 A 
BRANCH  45  59
ATOM     59  C   UNL A   1      45.873  32.818  28.340  1.00  0.00     0.058 A 
ATOM     60  C   UNL A   1      45.791  33.698  27.248  1.00  0.00     0.135 A 
ATOM     61  C   UNL A   1      46.231  33.357  29.586  1.00  0.00     0.135 A 
ATOM     62  F   UNL A   1      45.475  33.236  26.027  1.00  0.00    -0.206 F 
ATOM     63  C   UNL A   1      46.095  35.050  27.376  1.00  0.00     0.059 A 
ATOM     64  C   UNL A   1      46.504  34.713  29.745  1.00  0.00     0.059 A 
ATOM     65  F   UNL A   1      46.335  32.563  30.663  1.00  0.00    -0.206 F 
ATOM     66  C   UNL A   1      46.450  35.547  28.630  1.00  0.00     0.060 A 
BRANCH  66  67
ATOM     67  S   UNL A   1      46.837  37.303  28.778  1.00  0.00     0.124 S 
ATOM     68  O   UNL A   1      46.256  37.835  27.548  1.00  0.00    -0.237 OA
ATOM     69  O   UNL A   1      46.152  37.670  30.012  1.00  0.00    -0.237 OA
ATOM     70  O   UNL A   1      48.296  37.326  28.843  1.00  0.00    -0.744 OA
ENDBRANCH  66  67
ENDBRANCH  45  59
BRANCH  46  71
ATOM     71  C   UNL A   1      43.346  23.163  26.919  1.00  0.00     0.058 A 
ATOM     72  C   UNL A   1      43.327  22.668  25.608  1.00  0.00     0.135 A 
ATOM     73  C   UNL A   1      43.035  22.269  27.958  1.00  0.00     0.135 A 
ATOM     74  F   UNL A   1      43.617  23.482  24.581  1.00  0.00    -0.206 F 
ATOM     75  C   UNL A   1      43.012  21.341  25.333  1.00  0.00     0.059 A 
ATOM     76  C   UNL A   1      42.742  20.931  27.711  1.00  0.00     0.059 A 
ATOM     77  F   UNL A   1      43.060  22.685  29.233  1.00  0.00    -0.206 F 
ATOM     78  C   UNL A   1      42.729  20.478  26.393  1.00  0.00     0.060 A 
BRANCH  78  79
ATOM     79  S   UNL A   1      42.395  18.740  26.029  1.00  0.00     0.124 S 
ATOM     80  O   UNL A   1      40.978  18.778  25.686  1.00  0.00    -0.237 OA
ATOM     81  O   UNL A   1      43.313  18.479  24.925  1.00  0.00    -0.237 OA
ATOM     82  O   UNL A   1      42.724  18.064  27.280  1.00  0.00    -0.744 OA
ENDBRANCH  78  79
ENDBRANCH  46  71
BRANCH  58  83
ATOM     83  C   UNL A   1      49.335  26.762  26.528  1.00  0.00     0.058 A 
ATOM     84  C   UNL A   1      50.217  26.186  27.454  1.00  0.00     0.135 A 
ATOM     85  C   UNL A   1      49.753  26.868  25.191  1.00  0.00     0.135 A 
ATOM     86  F   UNL A   1      49.863  26.072  28.744  1.00  0.00    -0.206 F 
ATOM     87  C   UNL A   1      51.471  25.730  27.069  1.00  0.00     0.059 A 
ATOM     88  C   UNL A   1      50.991  26.390  24.779  1.00  0.00     0.059 A 
ATOM     89  F   UNL A   1      48.939  27.403  24.267  1.00  0.00    -0.206 F 
ATOM     90  C   UNL A   1      51.843  25.825  25.727  1.00  0.00     0.060 A 
BRANCH  90  91
ATOM     91  S   UNL A   1      53.445  25.159  25.231  1.00  0.00     0.124 S 
ATOM     92  O   UNL A   1      53.560  25.659  23.865  1.00  0.00    -0.237 OA
ATOM     93  O   UNL A   1      54.346  25.763  26.206  1.00  0.00    -0.237 OA
ATOM     94  O   UNL A   1      53.267  23.716  25.357  1.00  0.00    -0.744 OA
ENDBRANCH  90  91
ENDBRANCH  58  83
ENDBRANCH  32  33
ENDBRANCH  24  27
ENDBRANCH  22  23
ENDBRANCH   1  22
TORSDOF 15
ENDMDL
