MODEL 1
REMARK VINA RESULT:     -11.8      0.000      0.000
REMARK SMILES CCCC[C@@H](NS(=O)(=O)c1cc2c3c(c1)c(C)cc(=O)n3CC2)C(=O)NCCCNC(=O)c1ccc(-c2c3nc(c(-c4c(F)cc(S(=O)(=O)[O-])cc4F)c4ccc([nH]4)c(-c4c(F)cc(S(=O)(=O)[O-])cc4F)c4nc(c(-c5c(F)cc(S(=O)(=O)[O-])cc5F)c5ccc2[nH]5)C=C4)C=C3)cc1
REMARK SMILES IDX 28 1 27 2 26 3 24 4 25 5 5 7 4 8 3 9 2 10 1 11 6 12 7 14
REMARK SMILES IDX 8 15 9 16 10 17 11 18 15 19 12 20 14 21 13 22 23 23 16 24
REMARK SMILES IDX 21 25 22 26 17 27 18 28 19 29 20 30 29 31 30 32 31 33 32 35
REMARK SMILES IDX 33 36 34 37 98 38 35 39 97 40 36 41 37 42 38 43 91 44 39 45
REMARK SMILES IDX 96 46 90 47 92 48 40 49 95 50 89 51 88 52 41 54 75 55 54 56
REMARK SMILES IDX 74 57 55 58 58 59 73 60 93 61 56 62 57 63 72 65 94 66 59 67
REMARK SMILES IDX 42 68 43 69 52 70 44 71 45 72 51 73 53 74 46 75 47 76 48 77
REMARK SMILES IDX 49 78 50 79 76 80 77 81 86 82 78 83 79 84 85 85 87 86 80 87
REMARK SMILES IDX 81 88 82 89 83 90 84 91 60 92 61 93 70 94 62 95 63 96 69 97
REMARK SMILES IDX 71 98 64 99 65 100 66 101 67 102 68 103
REMARK H PARENT 26 6 6 13 30 34 92 53 58 64
REMARK Flexibility Score: inf
ROOT
ATOM      1  C   UNL A   1      37.486  23.446  26.199  1.00  0.00     0.042 C 
ENDROOT
BRANCH   1   2
ATOM      2  C   UNL A   1      36.866  23.385  24.812  1.00  0.00     0.117 C 
BRANCH   2   3
ATOM      3  N   UNL A   1      36.342  22.052  24.570  1.00  0.00    -0.355 N 
ATOM      4  C   UNL A   1      35.053  21.608  24.558  1.00  0.00     0.238 C 
ATOM      5  O   UNL A   1      34.854  20.393  24.632  1.00  0.00    -0.273 OA
ATOM      6  H   UNL A   1      37.022  21.363  24.389  1.00  0.00     0.163 HD
BRANCH   4   7
ATOM      7  C   UNL A   1      33.892  22.594  24.437  1.00  0.00     0.159 C 
BRANCH   7   8
ATOM      8  C   UNL A   1      33.400  22.548  22.981  1.00  0.00     0.030 C 
BRANCH   8   9
ATOM      9  C   UNL A   1      32.974  23.886  22.378  1.00  0.00     0.002 C 
BRANCH   9  10
ATOM     10  C   UNL A   1      33.672  25.123  22.944  1.00  0.00    -0.003 C 
ATOM     11  C   UNL A   1      33.301  26.416  22.233  1.00  0.00     0.004 C 
ENDBRANCH   9  10
ENDBRANCH   8   9
ENDBRANCH   7   8
BRANCH   7  12
ATOM     12  N   UNL A   1      32.817  22.301  25.412  1.00  0.00    -0.199 NA
ATOM     13  H   UNL A   1      32.982  21.352  25.748  1.00  0.00     0.142 HD
BRANCH  12  14
ATOM     14  S   UNL A   1      32.600  23.261  26.778  1.00  0.00     0.241 S 
ATOM     15  O   UNL A   1      31.634  22.614  27.632  1.00  0.00    -0.207 OA
ATOM     16  O   UNL A   1      33.939  23.556  27.252  1.00  0.00    -0.207 OA
BRANCH  14  17
ATOM     17  C   UNL A   1      31.899  24.788  26.183  1.00  0.00     0.083 A 
ATOM     18  C   UNL A   1      30.685  24.712  25.477  1.00  0.00     0.027 A 
ATOM     19  C   UNL A   1      32.566  26.024  26.386  1.00  0.00     0.032 A 
ATOM     20  C   UNL A   1      30.255  25.842  24.817  1.00  0.00    -0.020 A 
ATOM     21  C   UNL A   1      32.063  27.189  25.793  1.00  0.00     0.003 A 
ATOM     22  C   UNL A   1      30.944  27.029  24.991  1.00  0.00     0.055 A 
ATOM     23  C   UNL A   1      29.163  26.010  23.803  1.00  0.00     0.060 C 
ATOM     24  C   UNL A   1      32.603  28.563  25.888  1.00  0.00    -0.036 A 
ATOM     25  N   UNL A   1      30.389  28.039  24.224  1.00  0.00    -0.308 N 
ATOM     26  C   UNL A   1      29.276  27.509  23.439  1.00  0.00     0.131 C 
ATOM     27  C   UNL A   1      33.738  28.849  26.822  1.00  0.00     0.045 C 
ATOM     28  C   UNL A   1      32.032  29.541  25.150  1.00  0.00     0.075 A 
ATOM     29  C   UNL A   1      30.870  29.317  24.233  1.00  0.00     0.251 A 
ATOM     30  O   UNL A   1      30.408  30.241  23.573  1.00  0.00    -0.269 OA
ENDBRANCH  14  17
ENDBRANCH  12  14
ENDBRANCH   7  12
ENDBRANCH   4   7
ENDBRANCH   2   3
ENDBRANCH   1   2
BRANCH   1  31
ATOM     31  C   UNL A   1      38.475  24.594  26.328  1.00  0.00     0.118 C 
BRANCH  31  32
ATOM     32  N   UNL A   1      39.840  24.157  26.071  1.00  0.00    -0.352 N 
ATOM     33  C   UNL A   1      41.006  24.701  26.550  1.00  0.00     0.251 C 
ATOM     34  H   UNL A   1      39.939  23.376  25.480  1.00  0.00     0.163 HD
ATOM     35  O   UNL A   1      42.085  24.399  26.056  1.00  0.00    -0.269 OA
BRANCH  33  36
ATOM     36  C   UNL A   1      40.922  25.669  27.660  1.00  0.00     0.039 A 
ATOM     37  C   UNL A   1      41.876  26.682  27.757  1.00  0.00     0.014 A 
ATOM     38  C   UNL A   1      39.865  25.587  28.573  1.00  0.00     0.014 A 
ATOM     39  C   UNL A   1      41.743  27.647  28.755  1.00  0.00     0.010 A 
ATOM     40  C   UNL A   1      39.695  26.589  29.519  1.00  0.00     0.010 A 
ATOM     41  C   UNL A   1      40.644  27.616  29.630  1.00  0.00    -0.014 A 
BRANCH  41  42
ATOM     42  C   UNL A   1      40.510  28.610  30.719  1.00  0.00     0.031 A 
ATOM     43  C   UNL A   1      41.393  28.491  31.929  1.00  0.00     0.074 A 
ATOM     44  C   UNL A   1      39.590  29.589  30.632  1.00  0.00     0.049 A 
ATOM     45  N   UNL A   1      41.423  29.235  33.003  1.00  0.00    -0.248 NA
ATOM     46  C   UNL A   1      42.361  27.379  31.943  1.00  0.00     0.031 C 
ATOM     47  C   UNL A   1      38.660  29.781  29.516  1.00  0.00     0.029 A 
ATOM     48  N   UNL A   1      39.279  30.604  31.500  1.00  0.00    -0.354 N 
ATOM     49  C   UNL A   1      42.410  28.687  33.812  1.00  0.00     0.074 A 
ATOM     50  C   UNL A   1      42.914  27.513  33.140  1.00  0.00     0.031 C 
ATOM     51  C   UNL A   1      37.897  30.859  29.762  1.00  0.00     0.029 A 
ATOM     52  C   UNL A   1      38.259  31.416  31.062  1.00  0.00     0.049 A 
ATOM     53  H   UNL A   1      39.745  30.740  32.357  1.00  0.00     0.167 HD
ATOM     54  C   UNL A   1      42.877  29.146  34.995  1.00  0.00     0.037 A 
ATOM     55  C   UNL A   1      37.681  32.484  31.649  1.00  0.00     0.037 A 
ATOM     56  C   UNL A   1      42.384  30.328  35.648  1.00  0.00     0.049 A 
ATOM     57  C   UNL A   1      38.194  32.946  32.990  1.00  0.00     0.074 A 
ATOM     58  C   UNL A   1      42.823  30.901  36.828  1.00  0.00     0.029 A 
ATOM     59  N   UNL A   1      41.345  31.117  35.180  1.00  0.00    -0.354 N 
ATOM     60  N   UNL A   1      39.175  32.458  33.710  1.00  0.00    -0.248 NA
ATOM     61  C   UNL A   1      37.526  34.108  33.595  1.00  0.00     0.031 C 
ATOM     62  C   UNL A   1      42.014  32.006  37.103  1.00  0.00     0.029 A 
ATOM     63  C   UNL A   1      41.108  32.156  36.064  1.00  0.00     0.049 A 
ATOM     64  H   UNL A   1      40.849  30.963  34.343  1.00  0.00     0.167 HD
ATOM     65  C   UNL A   1      39.258  33.265  34.839  1.00  0.00     0.074 A 
ATOM     66  C   UNL A   1      38.240  34.285  34.698  1.00  0.00     0.031 C 
ATOM     67  C   UNL A   1      40.096  33.170  35.901  1.00  0.00     0.037 A 
BRANCH  54  68
ATOM     68  C   UNL A   1      43.991  28.387  35.657  1.00  0.00     0.058 A 
ATOM     69  C   UNL A   1      45.336  28.696  35.403  1.00  0.00     0.135 A 
ATOM     70  C   UNL A   1      43.713  27.406  36.623  1.00  0.00     0.135 A 
ATOM     71  F   UNL A   1      45.657  29.608  34.472  1.00  0.00    -0.206 F 
ATOM     72  C   UNL A   1      46.368  28.063  36.085  1.00  0.00     0.059 A 
ATOM     73  C   UNL A   1      44.729  26.779  37.338  1.00  0.00     0.059 A 
ATOM     74  F   UNL A   1      42.442  27.067  36.896  1.00  0.00    -0.206 F 
ATOM     75  C   UNL A   1      46.053  27.115  37.062  1.00  0.00     0.060 A 
BRANCH  75  76
ATOM     76  S   UNL A   1      47.406  26.352  37.981  1.00  0.00     0.124 S 
ATOM     77  O   UNL A   1      48.206  25.779  36.903  1.00  0.00    -0.237 OA
ATOM     78  O   UNL A   1      47.995  27.497  38.667  1.00  0.00    -0.237 OA
ATOM     79  O   UNL A   1      46.732  25.386  38.842  1.00  0.00    -0.744 OA
ENDBRANCH  75  76
ENDBRANCH  54  68
BRANCH  55  80
ATOM     80  C   UNL A   1      36.563  33.198  30.974  1.00  0.00     0.058 A 
ATOM     81  C   UNL A   1      36.797  34.034  29.872  1.00  0.00     0.135 A 
ATOM     82  C   UNL A   1      35.239  33.071  31.424  1.00  0.00     0.135 A 
ATOM     83  F   UNL A   1      38.045  34.196  29.407  1.00  0.00    -0.206 F 
ATOM     84  C   UNL A   1      35.767  34.737  29.256  1.00  0.00     0.059 A 
ATOM     85  C   UNL A   1      34.187  33.741  30.807  1.00  0.00     0.059 A 
ATOM     86  F   UNL A   1      34.956  32.272  32.465  1.00  0.00    -0.206 F 
ATOM     87  C   UNL A   1      34.463  34.583  29.731  1.00  0.00     0.060 A 
BRANCH  87  88
ATOM     88  S   UNL A   1      33.131  35.481  28.906  1.00  0.00     0.124 S 
ATOM     89  O   UNL A   1      32.376  35.997  30.041  1.00  0.00    -0.237 OA
ATOM     90  O   UNL A   1      33.870  36.469  28.127  1.00  0.00    -0.237 OA
ATOM     91  O   UNL A   1      32.463  34.446  28.121  1.00  0.00    -0.744 OA
ENDBRANCH  87  88
ENDBRANCH  55  80
BRANCH  67  92
ATOM     92  C   UNL A   1      39.972  34.199  36.990  1.00  0.00     0.058 A 
ATOM     93  C   UNL A   1      40.539  35.477  36.860  1.00  0.00     0.135 A 
ATOM     94  C   UNL A   1      39.201  33.936  38.135  1.00  0.00     0.135 A 
ATOM     95  F   UNL A   1      41.289  35.777  35.788  1.00  0.00    -0.206 F 
ATOM     96  C   UNL A   1      40.355  36.453  37.832  1.00  0.00     0.059 A 
ATOM     97  C   UNL A   1      38.978  34.909  39.105  1.00  0.00     0.059 A 
ATOM     98  F   UNL A   1      38.626  32.734  38.302  1.00  0.00    -0.206 F 
ATOM     99  C   UNL A   1      39.566  36.163  38.947  1.00  0.00     0.060 A 
BRANCH  99 100
ATOM    100  S   UNL A   1      39.297  37.461  40.172  1.00  0.00     0.124 S 
ATOM    101  O   UNL A   1      38.705  36.708  41.273  1.00  0.00    -0.237 OA
ATOM    102  O   UNL A   1      40.650  37.957  40.399  1.00  0.00    -0.237 OA
ATOM    103  O   UNL A   1      38.399  38.390  39.494  1.00  0.00    -0.744 OA
ENDBRANCH  99 100
ENDBRANCH  67  92
ENDBRANCH  41  42
ENDBRANCH  33  36
ENDBRANCH  31  32
ENDBRANCH   1  31
TORSDOF 19
ENDMDL
MODEL 2
REMARK VINA RESULT:     -11.8      3.047      9.280
REMARK SMILES CCCC[C@@H](NS(=O)(=O)c1cc2c3c(c1)c(C)cc(=O)n3CC2)C(=O)NCCCNC(=O)c1ccc(-c2c3nc(c(-c4c(F)cc(S(=O)(=O)[O-])cc4F)c4ccc([nH]4)c(-c4c(F)cc(S(=O)(=O)[O-])cc4F)c4nc(c(-c5c(F)cc(S(=O)(=O)[O-])cc5F)c5ccc2[nH]5)C=C4)C=C3)cc1
REMARK SMILES IDX 28 1 27 2 26 3 24 4 25 5 5 7 4 8 3 9 2 10 1 11 6 12 7 14
REMARK SMILES IDX 8 15 9 16 10 17 11 18 15 19 12 20 14 21 13 22 23 23 16 24
REMARK SMILES IDX 21 25 22 26 17 27 18 28 19 29 20 30 29 31 30 32 31 33 32 35
REMARK SMILES IDX 33 36 34 37 98 38 35 39 97 40 36 41 37 42 38 43 91 44 39 45
REMARK SMILES IDX 96 46 90 47 92 48 40 49 95 50 89 51 88 52 41 54 75 55 54 56
REMARK SMILES IDX 74 57 55 58 58 59 73 60 93 61 56 62 57 63 72 65 94 66 59 67
REMARK SMILES IDX 42 68 43 69 52 70 44 71 45 72 51 73 53 74 46 75 47 76 48 77
REMARK SMILES IDX 49 78 50 79 76 80 77 81 86 82 78 83 79 84 85 85 87 86 80 87
REMARK SMILES IDX 81 88 82 89 83 90 84 91 60 92 61 93 70 94 62 95 63 96 69 97
REMARK SMILES IDX 71 98 64 99 65 100 66 101 67 102 68 103
REMARK H PARENT 26 6 6 13 30 34 92 53 58 64
REMARK Flexibility Score: inf
ROOT
ATOM      1  C   UNL A   1      33.879  27.811  24.898  1.00  0.00     0.042 C 
ENDROOT
BRANCH   1   2
ATOM      2  C   UNL A   1      33.793  26.293  24.861  1.00  0.00     0.117 C 
BRANCH   2   3
ATOM      3  N   UNL A   1      33.131  25.872  23.638  1.00  0.00    -0.355 N 
ATOM      4  C   UNL A   1      31.911  25.289  23.461  1.00  0.00     0.238 C 
ATOM      5  O   UNL A   1      31.678  24.744  22.380  1.00  0.00    -0.273 OA
ATOM      6  H   UNL A   1      33.641  26.032  22.812  1.00  0.00     0.163 HD
BRANCH   4   7
ATOM      7  C   UNL A   1      30.862  25.330  24.570  1.00  0.00     0.159 C 
BRANCH   7   8
ATOM      8  C   UNL A   1      29.765  26.312  24.128  1.00  0.00     0.030 C 
BRANCH   8   9
ATOM      9  C   UNL A   1      30.235  27.725  23.780  1.00  0.00     0.002 C 
BRANCH   9  10
ATOM     10  C   UNL A   1      29.255  28.569  22.966  1.00  0.00    -0.003 C 
ATOM     11  C   UNL A   1      29.924  29.641  22.120  1.00  0.00     0.004 C 
ENDBRANCH   9  10
ENDBRANCH   8   9
ENDBRANCH   7   8
BRANCH   7  12
ATOM     12  N   UNL A   1      30.331  23.981  24.874  1.00  0.00    -0.199 NA
ATOM     13  H   UNL A   1      30.527  23.402  24.058  1.00  0.00     0.142 HD
BRANCH  12  14
ATOM     14  S   UNL A   1      30.872  23.119  26.215  1.00  0.00     0.241 S 
ATOM     15  O   UNL A   1      31.257  24.066  27.232  1.00  0.00    -0.207 OA
ATOM     16  O   UNL A   1      29.846  22.125  26.468  1.00  0.00    -0.207 OA
BRANCH  14  17
ATOM     17  C   UNL A   1      32.330  22.250  25.668  1.00  0.00     0.083 A 
ATOM     18  C   UNL A   1      32.155  20.959  25.138  1.00  0.00     0.027 A 
ATOM     19  C   UNL A   1      33.617  22.832  25.801  1.00  0.00     0.032 A 
ATOM     20  C   UNL A   1      33.280  20.193  24.930  1.00  0.00    -0.020 A 
ATOM     21  C   UNL A   1      34.755  22.077  25.490  1.00  0.00     0.003 A 
ATOM     22  C   UNL A   1      34.528  20.764  25.108  1.00  0.00     0.055 A 
ATOM     23  C   UNL A   1      33.408  18.732  24.619  1.00  0.00     0.060 C 
ATOM     24  C   UNL A   1      36.171  22.499  25.555  1.00  0.00    -0.036 A 
ATOM     25  N   UNL A   1      35.531  19.836  24.890  1.00  0.00    -0.308 N 
ATOM     26  C   UNL A   1      34.942  18.533  24.586  1.00  0.00     0.131 C 
ATOM     27  C   UNL A   1      36.505  23.929  25.845  1.00  0.00     0.045 C 
ATOM     28  C   UNL A   1      37.137  21.584  25.315  1.00  0.00     0.075 A 
ATOM     29  C   UNL A   1      36.857  20.151  24.979  1.00  0.00     0.251 A 
ATOM     30  O   UNL A   1      37.776  19.362  24.792  1.00  0.00    -0.269 OA
ENDBRANCH  14  17
ENDBRANCH  12  14
ENDBRANCH   7  12
ENDBRANCH   4   7
ENDBRANCH   2   3
ENDBRANCH   1   2
BRANCH   1  31
ATOM     31  C   UNL A   1      34.343  28.320  26.255  1.00  0.00     0.118 C 
BRANCH  31  32
ATOM     32  N   UNL A   1      33.892  29.682  26.498  1.00  0.00    -0.352 N 
ATOM     33  C   UNL A   1      34.368  30.577  27.425  1.00  0.00     0.251 C 
ATOM     34  H   UNL A   1      33.155  30.002  25.928  1.00  0.00     0.163 HD
ATOM     35  O   UNL A   1      33.735  31.590  27.696  1.00  0.00    -0.269 OA
BRANCH  33  36
ATOM     36  C   UNL A   1      35.647  30.276  28.096  1.00  0.00     0.039 A 
ATOM     37  C   UNL A   1      35.633  29.662  29.348  1.00  0.00     0.014 A 
ATOM     38  C   UNL A   1      36.853  30.567  27.450  1.00  0.00     0.014 A 
ATOM     39  C   UNL A   1      36.843  29.299  29.939  1.00  0.00     0.010 A 
ATOM     40  C   UNL A   1      38.051  30.141  28.008  1.00  0.00     0.010 A 
ATOM     41  C   UNL A   1      38.056  29.520  29.266  1.00  0.00    -0.014 A 
BRANCH  41  42
ATOM     42  C   UNL A   1      39.350  29.177  29.898  1.00  0.00     0.031 A 
ATOM     43  C   UNL A   1      39.825  29.980  31.076  1.00  0.00     0.074 A 
ATOM     44  C   UNL A   1      40.101  28.175  29.401  1.00  0.00     0.049 A 
ATOM     45  N   UNL A   1      40.933  29.866  31.758  1.00  0.00    -0.248 NA
ATOM     46  C   UNL A   1      38.944  31.068  31.541  1.00  0.00     0.031 C 
ATOM     47  C   UNL A   1      39.752  27.349  28.243  1.00  0.00     0.029 A 
ATOM     48  N   UNL A   1      41.316  27.683  29.804  1.00  0.00    -0.354 N 
ATOM     49  C   UNL A   1      40.880  30.856  32.730  1.00  0.00     0.074 A 
ATOM     50  C   UNL A   1      39.664  31.605  32.515  1.00  0.00     0.031 C 
ATOM     51  C   UNL A   1      40.722  26.443  28.042  1.00  0.00     0.029 A 
ATOM     52  C   UNL A   1      41.777  26.641  29.033  1.00  0.00     0.049 A 
ATOM     53  H   UNL A   1      41.812  28.042  30.575  1.00  0.00     0.167 HD
ATOM     54  C   UNL A   1      41.753  31.096  33.734  1.00  0.00     0.037 A 
ATOM     55  C   UNL A   1      42.921  25.934  29.117  1.00  0.00     0.037 A 
ATOM     56  C   UNL A   1      42.951  30.332  33.955  1.00  0.00     0.049 A 
ATOM     57  C   UNL A   1      43.897  26.253  30.221  1.00  0.00     0.074 A 
ATOM     58  C   UNL A   1      43.877  30.468  34.973  1.00  0.00     0.029 A 
ATOM     59  N   UNL A   1      43.389  29.293  33.149  1.00  0.00    -0.354 N 
ATOM     60  N   UNL A   1      43.799  27.149  31.175  1.00  0.00    -0.248 NA
ATOM     61  C   UNL A   1      45.136  25.462  30.266  1.00  0.00     0.031 C 
ATOM     62  C   UNL A   1      44.904  29.548  34.752  1.00  0.00     0.029 A 
ATOM     63  C   UNL A   1      44.589  28.799  33.629  1.00  0.00     0.049 A 
ATOM     64  H   UNL A   1      42.916  28.956  32.353  1.00  0.00     0.167 HD
ATOM     65  C   UNL A   1      44.949  27.013  31.945  1.00  0.00     0.074 A 
ATOM     66  C   UNL A   1      45.719  25.936  31.358  1.00  0.00     0.031 C 
ATOM     67  C   UNL A   1      45.336  27.717  33.037  1.00  0.00     0.037 A 
BRANCH  54  68
ATOM     68  C   UNL A   1      41.443  32.212  34.689  1.00  0.00     0.058 A 
ATOM     69  C   UNL A   1      41.932  33.511  34.479  1.00  0.00     0.135 A 
ATOM     70  C   UNL A   1      40.574  32.005  35.774  1.00  0.00     0.135 A 
ATOM     71  F   UNL A   1      42.785  33.758  33.472  1.00  0.00    -0.206 F 
ATOM     72  C   UNL A   1      41.569  34.567  35.307  1.00  0.00     0.059 A 
ATOM     73  C   UNL A   1      40.176  33.052  36.598  1.00  0.00     0.059 A 
ATOM     74  F   UNL A   1      40.087  30.779  36.024  1.00  0.00    -0.206 F 
ATOM     75  C   UNL A   1      40.678  34.330  36.356  1.00  0.00     0.060 A 
BRANCH  75  76
ATOM     76  S   UNL A   1      40.169  35.728  37.378  1.00  0.00     0.124 S 
ATOM     77  O   UNL A   1      41.417  36.064  38.057  1.00  0.00    -0.237 OA
ATOM     78  O   UNL A   1      39.713  36.688  36.379  1.00  0.00    -0.237 OA
ATOM     79  O   UNL A   1      39.125  35.166  38.229  1.00  0.00    -0.744 OA
ENDBRANCH  75  76
ENDBRANCH  54  68
BRANCH  55  80
ATOM     80  C   UNL A   1      43.207  24.849  28.139  1.00  0.00     0.058 A 
ATOM     81  C   UNL A   1      43.819  25.126  26.908  1.00  0.00     0.135 A 
ATOM     82  C   UNL A   1      42.863  23.514  28.408  1.00  0.00     0.135 A 
ATOM     83  F   UNL A   1      44.162  26.386  26.598  1.00  0.00    -0.206 F 
ATOM     84  C   UNL A   1      44.058  24.127  25.969  1.00  0.00     0.059 A 
ATOM     85  C   UNL A   1      43.118  22.493  27.498  1.00  0.00     0.059 A 
ATOM     86  F   UNL A   1      42.288  23.190  29.577  1.00  0.00    -0.206 F 
ATOM     87  C   UNL A   1      43.704  22.812  26.274  1.00  0.00     0.060 A 
BRANCH  87  88
ATOM     88  S   UNL A   1      44.043  21.521  25.058  1.00  0.00     0.124 S 
ATOM     89  O   UNL A   1      45.386  21.102  25.439  1.00  0.00    -0.237 OA
ATOM     90  O   UNL A   1      42.974  20.565  25.326  1.00  0.00    -0.237 OA
ATOM     91  O   UNL A   1      43.939  22.224  23.782  1.00  0.00    -0.744 OA
ENDBRANCH  87  88
ENDBRANCH  55  80
BRANCH  67  92
ATOM     92  C   UNL A   1      46.640  27.345  33.689  1.00  0.00     0.058 A 
ATOM     93  C   UNL A   1      47.841  27.980  33.342  1.00  0.00     0.135 A 
ATOM     94  C   UNL A   1      46.670  26.409  34.737  1.00  0.00     0.135 A 
ATOM     95  F   UNL A   1      47.867  28.879  32.344  1.00  0.00    -0.206 F 
ATOM     96  C   UNL A   1      49.030  27.692  34.002  1.00  0.00     0.059 A 
ATOM     97  C   UNL A   1      47.843  26.129  35.432  1.00  0.00     0.059 A 
ATOM     98  F   UNL A   1      45.545  25.783  35.118  1.00  0.00    -0.206 F 
ATOM     99  C   UNL A   1      49.020  26.772  35.051  1.00  0.00     0.060 A 
BRANCH  99 100
ATOM    100  S   UNL A   1      50.563  26.451  35.929  1.00  0.00     0.124 S 
ATOM    101  O   UNL A   1      51.137  27.790  36.016  1.00  0.00    -0.237 OA
ATOM    102  O   UNL A   1      50.092  25.881  37.187  1.00  0.00    -0.237 OA
ATOM    103  O   UNL A   1      51.269  25.523  35.052  1.00  0.00    -0.744 OA
ENDBRANCH  99 100
ENDBRANCH  67  92
ENDBRANCH  41  42
ENDBRANCH  33  36
ENDBRANCH  31  32
ENDBRANCH   1  31
TORSDOF 19
ENDMDL
MODEL 3
REMARK VINA RESULT:     -11.8      2.053      8.498
REMARK SMILES CCCC[C@@H](NS(=O)(=O)c1cc2c3c(c1)c(C)cc(=O)n3CC2)C(=O)NCCCNC(=O)c1ccc(-c2c3nc(c(-c4c(F)cc(S(=O)(=O)[O-])cc4F)c4ccc([nH]4)c(-c4c(F)cc(S(=O)(=O)[O-])cc4F)c4nc(c(-c5c(F)cc(S(=O)(=O)[O-])cc5F)c5ccc2[nH]5)C=C4)C=C3)cc1
REMARK SMILES IDX 28 1 27 2 26 3 24 4 25 5 5 7 4 8 3 9 2 10 1 11 6 12 7 14
REMARK SMILES IDX 8 15 9 16 10 17 11 18 15 19 12 20 14 21 13 22 23 23 16 24
REMARK SMILES IDX 21 25 22 26 17 27 18 28 19 29 20 30 29 31 30 32 31 33 32 35
REMARK SMILES IDX 33 36 34 37 98 38 35 39 97 40 36 41 37 42 38 43 91 44 39 45
REMARK SMILES IDX 96 46 90 47 92 48 40 49 95 50 89 51 88 52 41 54 75 55 54 56
REMARK SMILES IDX 74 57 55 58 58 59 73 60 93 61 56 62 57 63 72 65 94 66 59 67
REMARK SMILES IDX 42 68 43 69 52 70 44 71 45 72 51 73 53 74 46 75 47 76 48 77
REMARK SMILES IDX 49 78 50 79 76 80 77 81 86 82 78 83 79 84 85 85 87 86 80 87
REMARK SMILES IDX 81 88 82 89 83 90 84 91 60 92 61 93 70 94 62 95 63 96 69 97
REMARK SMILES IDX 71 98 64 99 65 100 66 101 67 102 68 103
REMARK H PARENT 26 6 6 13 30 34 92 53 58 64
REMARK Flexibility Score: inf
ROOT
ATOM      1  C   UNL A   1      31.465  32.202  26.856  1.00  0.00     0.042 C 
ENDROOT
BRANCH   1   2
ATOM      2  C   UNL A   1      31.775  30.893  26.146  1.00  0.00     0.117 C 
BRANCH   2   3
ATOM      3  N   UNL A   1      30.917  30.756  24.982  1.00  0.00    -0.355 N 
ATOM      4  C   UNL A   1      30.691  29.672  24.187  1.00  0.00     0.238 C 
ATOM      5  O   UNL A   1      30.167  29.856  23.085  1.00  0.00    -0.273 OA
ATOM      6  H   UNL A   1      30.425  31.569  24.728  1.00  0.00     0.163 HD
BRANCH   4   7
ATOM      7  C   UNL A   1      31.063  28.268  24.661  1.00  0.00     0.159 C 
BRANCH   7   8
ATOM      8  C   UNL A   1      30.486  27.272  23.642  1.00  0.00     0.030 C 
BRANCH   8   9
ATOM      9  C   UNL A   1      31.482  26.690  22.640  1.00  0.00     0.002 C 
BRANCH   9  10
ATOM     10  C   UNL A   1      31.617  25.167  22.644  1.00  0.00    -0.003 C 
ATOM     11  C   UNL A   1      30.363  24.441  23.106  1.00  0.00     0.004 C 
ENDBRANCH   9  10
ENDBRANCH   8   9
ENDBRANCH   7   8
BRANCH   7  12
ATOM     12  N   UNL A   1      32.525  28.118  24.840  1.00  0.00    -0.199 NA
ATOM     13  H   UNL A   1      32.930  29.044  24.706  1.00  0.00     0.142 HD
BRANCH  12  14
ATOM     14  S   UNL A   1      33.164  27.520  26.279  1.00  0.00     0.241 S 
ATOM     15  O   UNL A   1      34.441  28.154  26.499  1.00  0.00    -0.207 OA
ATOM     16  O   UNL A   1      32.093  27.640  27.250  1.00  0.00    -0.207 OA
BRANCH  14  17
ATOM     17  C   UNL A   1      33.434  25.782  25.998  1.00  0.00     0.083 A 
ATOM     18  C   UNL A   1      34.721  25.382  25.593  1.00  0.00     0.027 A 
ATOM     19  C   UNL A   1      32.377  24.847  26.144  1.00  0.00     0.032 A 
ATOM     20  C   UNL A   1      34.881  24.087  25.151  1.00  0.00    -0.020 A 
ATOM     21  C   UNL A   1      32.579  23.508  25.786  1.00  0.00     0.003 A 
ATOM     22  C   UNL A   1      33.824  23.202  25.259  1.00  0.00     0.055 A 
ATOM     23  C   UNL A   1      36.036  23.447  24.440  1.00  0.00     0.060 C 
ATOM     24  C   UNL A   1      31.616  22.389  25.868  1.00  0.00    -0.036 A 
ATOM     25  N   UNL A   1      34.160  21.966  24.733  1.00  0.00    -0.308 N 
ATOM     26  C   UNL A   1      35.516  22.013  24.188  1.00  0.00     0.131 C 
ATOM     27  C   UNL A   1      30.290  22.602  26.530  1.00  0.00     0.045 C 
ATOM     28  C   UNL A   1      31.971  21.183  25.371  1.00  0.00     0.075 A 
ATOM     29  C   UNL A   1      33.299  20.906  24.737  1.00  0.00     0.251 A 
ATOM     30  O   UNL A   1      33.556  19.797  24.285  1.00  0.00    -0.269 OA
ENDBRANCH  14  17
ENDBRANCH  12  14
ENDBRANCH   7  12
ENDBRANCH   4   7
ENDBRANCH   2   3
ENDBRANCH   1   2
BRANCH   1  31
ATOM     31  C   UNL A   1      32.724  32.872  27.385  1.00  0.00     0.118 C 
BRANCH  31  32
ATOM     32  N   UNL A   1      32.505  34.287  27.651  1.00  0.00    -0.352 N 
ATOM     33  C   UNL A   1      33.026  35.045  28.671  1.00  0.00     0.251 C 
ATOM     34  H   UNL A   1      31.911  34.758  27.024  1.00  0.00     0.163 HD
ATOM     35  O   UNL A   1      32.562  36.150  28.927  1.00  0.00    -0.269 OA
BRANCH  33  36
ATOM     36  C   UNL A   1      34.141  34.487  29.459  1.00  0.00     0.039 A 
ATOM     37  C   UNL A   1      33.872  33.856  30.673  1.00  0.00     0.014 A 
ATOM     38  C   UNL A   1      35.446  34.557  28.959  1.00  0.00     0.014 A 
ATOM     39  C   UNL A   1      34.917  33.252  31.371  1.00  0.00     0.010 A 
ATOM     40  C   UNL A   1      36.471  33.894  29.620  1.00  0.00     0.010 A 
ATOM     41  C   UNL A   1      36.218  33.253  30.841  1.00  0.00    -0.014 A 
BRANCH  41  42
ATOM     42  C   UNL A   1      37.345  32.651  31.590  1.00  0.00     0.031 A 
ATOM     43  C   UNL A   1      38.035  31.442  31.024  1.00  0.00     0.074 A 
ATOM     44  C   UNL A   1      37.722  33.168  32.775  1.00  0.00     0.049 A 
ATOM     45  N   UNL A   1      39.021  30.746  31.526  1.00  0.00    -0.248 NA
ATOM     46  C   UNL A   1      37.544  30.937  29.729  1.00  0.00     0.031 C 
ATOM     47  C   UNL A   1      37.102  34.320  33.432  1.00  0.00     0.029 A 
ATOM     48  N   UNL A   1      38.715  32.787  33.640  1.00  0.00    -0.354 N 
ATOM     49  C   UNL A   1      39.269  29.732  30.611  1.00  0.00     0.074 A 
ATOM     50  C   UNL A   1      38.294  29.860  29.553  1.00  0.00     0.031 C 
ATOM     51  C   UNL A   1      37.742  34.562  34.588  1.00  0.00     0.029 A 
ATOM     52  C   UNL A   1      38.794  33.566  34.771  1.00  0.00     0.049 A 
ATOM     53  H   UNL A   1      39.317  32.027  33.468  1.00  0.00     0.167 HD
ATOM     54  C   UNL A   1      40.247  28.799  30.635  1.00  0.00     0.037 A 
ATOM     55  C   UNL A   1      39.619  33.480  35.834  1.00  0.00     0.037 A 
ATOM     56  C   UNL A   1      41.228  28.692  31.681  1.00  0.00     0.049 A 
ATOM     57  C   UNL A   1      40.673  32.401  35.854  1.00  0.00     0.074 A 
ATOM     58  C   UNL A   1      42.288  27.808  31.774  1.00  0.00     0.029 A 
ATOM     59  N   UNL A   1      41.270  29.491  32.813  1.00  0.00    -0.354 N 
ATOM     60  N   UNL A   1      40.939  31.491  34.947  1.00  0.00    -0.248 NA
ATOM     61  C   UNL A   1      41.543  32.340  37.038  1.00  0.00     0.031 C 
ATOM     62  C   UNL A   1      42.939  28.036  32.989  1.00  0.00     0.029 A 
ATOM     63  C   UNL A   1      42.320  29.100  33.626  1.00  0.00     0.049 A 
ATOM     64  H   UNL A   1      40.646  30.227  33.010  1.00  0.00     0.167 HD
ATOM     65  C   UNL A   1      42.019  30.767  35.439  1.00  0.00     0.074 A 
ATOM     66  C   UNL A   1      42.370  31.355  36.714  1.00  0.00     0.031 C 
ATOM     67  C   UNL A   1      42.661  29.707  34.889  1.00  0.00     0.037 A 
BRANCH  54  68
ATOM     68  C   UNL A   1      40.328  27.830  29.491  1.00  0.00     0.058 A 
ATOM     69  C   UNL A   1      41.238  28.016  28.439  1.00  0.00     0.135 A 
ATOM     70  C   UNL A   1      39.556  26.656  29.492  1.00  0.00     0.135 A 
ATOM     71  F   UNL A   1      41.983  29.131  28.378  1.00  0.00    -0.206 F 
ATOM     72  C   UNL A   1      41.384  27.072  27.429  1.00  0.00     0.059 A 
ATOM     73  C   UNL A   1      39.705  25.686  28.506  1.00  0.00     0.059 A 
ATOM     74  F   UNL A   1      38.664  26.436  30.471  1.00  0.00    -0.206 F 
ATOM     75  C   UNL A   1      40.622  25.903  27.479  1.00  0.00     0.060 A 
BRANCH  75  76
ATOM     76  S   UNL A   1      40.873  24.662  26.193  1.00  0.00     0.124 S 
ATOM     77  O   UNL A   1      41.649  23.653  26.907  1.00  0.00    -0.237 OA
ATOM     78  O   UNL A   1      39.503  24.287  25.858  1.00  0.00    -0.237 OA
ATOM     79  O   UNL A   1      41.595  25.389  25.153  1.00  0.00    -0.744 OA
ENDBRANCH  75  76
ENDBRANCH  54  68
BRANCH  55  80
ATOM     80  C   UNL A   1      39.496  34.444  36.962  1.00  0.00     0.058 A 
ATOM     81  C   UNL A   1      40.060  35.725  36.884  1.00  0.00     0.135 A 
ATOM     82  C   UNL A   1      38.822  34.100  38.145  1.00  0.00     0.135 A 
ATOM     83  F   UNL A   1      40.721  36.101  35.778  1.00  0.00    -0.206 F 
ATOM     84  C   UNL A   1      39.986  36.623  37.945  1.00  0.00     0.059 A 
ATOM     85  C   UNL A   1      38.708  34.990  39.208  1.00  0.00     0.059 A 
ATOM     86  F   UNL A   1      38.250  32.892  38.266  1.00  0.00    -0.206 F 
ATOM     87  C   UNL A   1      39.305  36.246  39.104  1.00  0.00     0.060 A 
BRANCH  87  88
ATOM     88  S   UNL A   1      39.193  37.428  40.464  1.00  0.00     0.124 S 
ATOM     89  O   UNL A   1      38.681  36.591  41.541  1.00  0.00    -0.237 OA
ATOM     90  O   UNL A   1      40.578  37.869  40.597  1.00  0.00    -0.237 OA
ATOM     91  O   UNL A   1      38.268  38.438  39.956  1.00  0.00    -0.744 OA
ENDBRANCH  87  88
ENDBRANCH  55  80
BRANCH  67  92
ATOM     92  C   UNL A   1      43.822  29.118  35.643  1.00  0.00     0.058 A 
ATOM     93  C   UNL A   1      45.120  29.632  35.508  1.00  0.00     0.135 A 
ATOM     94  C   UNL A   1      43.616  28.090  36.577  1.00  0.00     0.135 A 
ATOM     95  F   UNL A   1      45.371  30.612  34.625  1.00  0.00    -0.206 F 
ATOM     96  C   UNL A   1      46.177  29.140  36.266  1.00  0.00     0.059 A 
ATOM     97  C   UNL A   1      44.652  27.603  37.369  1.00  0.00     0.059 A 
ATOM     98  F   UNL A   1      42.390  27.571  36.754  1.00  0.00    -0.206 F 
ATOM     99  C   UNL A   1      45.931  28.131  37.200  1.00  0.00     0.060 A 
BRANCH  99 100
ATOM    100  S   UNL A   1      47.306  27.541  38.210  1.00  0.00     0.124 S 
ATOM    101  O   UNL A   1      47.111  28.299  39.442  1.00  0.00    -0.237 OA
ATOM    102  O   UNL A   1      47.034  26.110  38.297  1.00  0.00    -0.237 OA
ATOM    103  O   UNL A   1      48.484  27.905  37.430  1.00  0.00    -0.744 OA
ENDBRANCH  99 100
ENDBRANCH  67  92
ENDBRANCH  41  42
ENDBRANCH  33  36
ENDBRANCH  31  32
ENDBRANCH   1  31
TORSDOF 19
ENDMDL
