MODEL 1
REMARK VINA RESULT:     -12.2      0.000      0.000
REMARK SMILES COc1ccc([C@@H](CC(=O)NCCCNC(=O)c2ccc(-c3c4nc(c(-c5c(F)cc(S(=O)(=O)[O-])cc5F)c5ccc([nH]5)c(-c5c(F)cc(S(=O)(=O)[O-])cc5F)c5nc(c(-c6c(F)cc(S(=O)(=O)[O-])cc6F)c6ccc3[nH]6)C=C5)C=C4)cc2)NC(=O)c2ccc(Cl)c([N+](=O)[O-])c2)cc1
REMARK SMILES IDX 12 1 11 2 9 3 10 4 8 6 7 7 6 8 3 9 4 10 98 11 5 12 97 13
REMARK SMILES IDX 2 14 1 15 84 16 85 17 86 19 87 20 88 21 96 22 89 23 92 24
REMARK SMILES IDX 90 25 91 26 93 27 94 28 95 29 13 30 14 31 15 32 16 33 17 35
REMARK SMILES IDX 18 36 19 37 83 38 20 39 82 40 21 41 22 42 23 43 76 44 24 45
REMARK SMILES IDX 81 46 75 47 77 48 25 49 80 50 74 51 73 52 26 54 60 55 39 56
REMARK SMILES IDX 59 57 40 58 43 59 58 60 78 61 41 62 42 63 57 65 79 66 44 67
REMARK SMILES IDX 27 68 28 69 37 70 29 71 30 72 36 73 38 74 31 75 32 76 33 77
REMARK SMILES IDX 34 78 35 79 61 80 62 81 71 82 63 83 64 84 70 85 72 86 65 87
REMARK SMILES IDX 66 88 67 89 68 90 69 91 45 92 46 93 55 94 47 95 48 96 54 97
REMARK SMILES IDX 56 98 49 99 50 100 51 101 52 102 53 103
REMARK H PARENT 11 5 84 18 15 34 77 53 43 64
REMARK Flexibility Score: inf
ROOT
ATOM      1  C   UNL A   1      36.223  22.849  25.910  1.00  0.00     0.117 C 
ENDROOT
BRANCH   1   2
ATOM      2  N   UNL A   1      35.727  23.705  24.841  1.00  0.00    -0.356 N 
ATOM      3  C   UNL A   1      34.670  24.565  24.832  1.00  0.00     0.222 C 
ATOM      4  O   UNL A   1      34.253  24.953  23.738  1.00  0.00    -0.275 OA
ATOM      5  H   UNL A   1      36.233  23.656  23.998  1.00  0.00     0.163 HD
BRANCH   3   6
ATOM      6  C   UNL A   1      34.064  25.090  26.117  1.00  0.00     0.129 C 
BRANCH   6   7
ATOM      7  C   UNL A   1      32.726  25.841  25.958  1.00  0.00     0.122 C 
BRANCH   7   8
ATOM      8  C   UNL A   1      32.866  27.348  26.108  1.00  0.00    -0.025 A 
ATOM      9  C   UNL A   1      33.166  30.058  26.790  1.00  0.00     0.118 A 
ATOM     10  C   UNL A   1      31.933  29.583  26.347  1.00  0.00     0.047 A 
ATOM     11  C   UNL A   1      34.275  29.219  26.811  1.00  0.00     0.047 A 
ATOM     12  C   UNL A   1      31.786  28.237  25.991  1.00  0.00     0.010 A 
ATOM     13  C   UNL A   1      34.127  27.876  26.459  1.00  0.00     0.010 A 
BRANCH   9  14
ATOM     14  O   UNL A   1      33.203  31.273  27.415  1.00  0.00    -0.497 OA
ATOM     15  C   UNL A   1      34.515  31.624  27.839  1.00  0.00     0.278 C 
ENDBRANCH   9  14
ENDBRANCH   7   8
BRANCH   7  16
ATOM     16  N   UNL A   1      31.662  25.262  26.782  1.00  0.00    -0.345 N 
ATOM     17  C   UNL A   1      30.810  24.224  26.510  1.00  0.00     0.252 C 
ATOM     18  H   UNL A   1      31.541  25.682  27.663  1.00  0.00     0.164 HD
ATOM     19  O   UNL A   1      29.826  23.999  27.204  1.00  0.00    -0.269 OA
BRANCH  17  20
ATOM     20  C   UNL A   1      31.097  23.339  25.367  1.00  0.00     0.046 A 
ATOM     21  C   UNL A   1      30.757  23.748  24.075  1.00  0.00     0.016 A 
ATOM     22  C   UNL A   1      31.691  22.095  25.583  1.00  0.00     0.101 A 
ATOM     23  C   UNL A   1      31.085  22.939  22.982  1.00  0.00     0.028 A 
ATOM     24  C   UNL A   1      32.033  21.306  24.478  1.00  0.00     0.288 A 
ATOM     25  C   UNL A   1      31.748  21.719  23.173  1.00  0.00     0.118 A 
ATOM     26  Cl  UNL A   1      32.217  20.842  21.764  1.00  0.00    -0.077 Cl
BRANCH  24  27
ATOM     27  N   UNL A   1      32.755  20.078  24.744  1.00  0.00     0.064 N 
ATOM     28  O   UNL A   1      32.109  19.095  25.127  1.00  0.00    -0.258 OA
ATOM     29  O   UNL A   1      33.989  20.124  24.625  1.00  0.00    -0.258 OA
ENDBRANCH  24  27
ENDBRANCH  17  20
ENDBRANCH   7  16
ENDBRANCH   6   7
ENDBRANCH   3   6
ENDBRANCH   1   2
BRANCH   1  30
ATOM     30  C   UNL A   1      37.746  22.808  25.894  1.00  0.00     0.042 C 
BRANCH  30  31
ATOM     31  C   UNL A   1      38.438  24.163  25.957  1.00  0.00     0.118 C 
BRANCH  31  32
ATOM     32  N   UNL A   1      39.878  24.027  26.048  1.00  0.00    -0.352 N 
ATOM     33  C   UNL A   1      40.834  24.757  26.712  1.00  0.00     0.251 C 
ATOM     34  H   UNL A   1      40.240  23.266  25.539  1.00  0.00     0.163 HD
ATOM     35  O   UNL A   1      42.007  24.561  26.382  1.00  0.00    -0.269 OA
BRANCH  33  36
ATOM     36  C   UNL A   1      40.544  25.747  27.790  1.00  0.00     0.039 A 
ATOM     37  C   UNL A   1      41.493  26.758  28.004  1.00  0.00     0.014 A 
ATOM     38  C   UNL A   1      39.469  25.657  28.678  1.00  0.00     0.014 A 
ATOM     39  C   UNL A   1      41.365  27.655  29.073  1.00  0.00     0.010 A 
ATOM     40  C   UNL A   1      39.294  26.608  29.698  1.00  0.00     0.010 A 
ATOM     41  C   UNL A   1      40.253  27.604  29.927  1.00  0.00    -0.014 A 
BRANCH  41  42
ATOM     42  C   UNL A   1      40.123  28.573  31.057  1.00  0.00     0.031 A 
ATOM     43  C   UNL A   1      41.002  28.474  32.282  1.00  0.00     0.074 A 
ATOM     44  C   UNL A   1      39.211  29.565  30.985  1.00  0.00     0.049 A 
ATOM     45  N   UNL A   1      41.052  29.261  33.330  1.00  0.00    -0.248 NA
ATOM     46  C   UNL A   1      41.931  27.337  32.350  1.00  0.00     0.031 C 
ATOM     47  C   UNL A   1      38.257  29.754  29.889  1.00  0.00     0.029 A 
ATOM     48  N   UNL A   1      38.940  30.603  31.842  1.00  0.00    -0.354 N 
ATOM     49  C   UNL A   1      42.004  28.711  34.183  1.00  0.00     0.074 A 
ATOM     50  C   UNL A   1      42.473  27.496  33.550  1.00  0.00     0.031 C 
ATOM     51  C   UNL A   1      37.536  30.862  30.121  1.00  0.00     0.029 A 
ATOM     52  C   UNL A   1      37.952  31.448  31.393  1.00  0.00     0.049 A 
ATOM     53  H   UNL A   1      39.410  30.732  32.697  1.00  0.00     0.167 HD
ATOM     54  C   UNL A   1      42.464  29.179  35.371  1.00  0.00     0.037 A 
ATOM     55  C   UNL A   1      37.438  32.570  31.935  1.00  0.00     0.037 A 
ATOM     56  C   UNL A   1      42.024  30.402  35.994  1.00  0.00     0.049 A 
ATOM     57  C   UNL A   1      37.988  33.089  33.235  1.00  0.00     0.074 A 
ATOM     58  C   UNL A   1      42.479  30.985  37.165  1.00  0.00     0.029 A 
ATOM     59  N   UNL A   1      41.030  31.233  35.499  1.00  0.00    -0.354 N 
ATOM     60  N   UNL A   1      38.932  32.584  33.992  1.00  0.00    -0.248 NA
ATOM     61  C   UNL A   1      37.409  34.338  33.748  1.00  0.00     0.031 C 
ATOM     62  C   UNL A   1      41.736  32.149  37.397  1.00  0.00     0.029 A 
ATOM     63  C   UNL A   1      40.846  32.313  36.349  1.00  0.00     0.049 A 
ATOM     64  H   UNL A   1      40.528  31.079  34.667  1.00  0.00     0.167 HD
ATOM     65  C   UNL A   1      39.070  33.462  35.062  1.00  0.00     0.074 A 
ATOM     66  C   UNL A   1      38.130  34.540  34.842  1.00  0.00     0.031 C 
ATOM     67  C   UNL A   1      39.901  33.379  36.132  1.00  0.00     0.037 A 
BRANCH  54  68
ATOM     68  C   UNL A   1      43.513  28.365  36.082  1.00  0.00     0.058 A 
ATOM     69  C   UNL A   1      43.171  27.269  36.890  1.00  0.00     0.135 A 
ATOM     70  C   UNL A   1      44.877  28.655  35.918  1.00  0.00     0.135 A 
ATOM     71  F   UNL A   1      41.882  26.952  37.091  1.00  0.00    -0.206 F 
ATOM     72  C   UNL A   1      44.142  26.507  37.534  1.00  0.00     0.059 A 
ATOM     73  C   UNL A   1      45.867  27.892  36.532  1.00  0.00     0.059 A 
ATOM     74  F   UNL A   1      45.261  29.689  35.153  1.00  0.00    -0.206 F 
ATOM     75  C   UNL A   1      45.488  26.829  37.352  1.00  0.00     0.060 A 
BRANCH  75  76
ATOM     76  S   UNL A   1      46.737  25.831  38.192  1.00  0.00     0.124 S 
ATOM     77  O   UNL A   1      46.031  24.564  38.359  1.00  0.00    -0.237 OA
ATOM     78  O   UNL A   1      47.832  25.822  37.228  1.00  0.00    -0.237 OA
ATOM     79  O   UNL A   1      46.995  26.573  39.421  1.00  0.00    -0.744 OA
ENDBRANCH  75  76
ENDBRANCH  54  68
BRANCH  55  80
ATOM     80  C   UNL A   1      36.357  33.302  31.225  1.00  0.00     0.058 A 
ATOM     81  C   UNL A   1      35.037  33.279  31.700  1.00  0.00     0.135 A 
ATOM     82  C   UNL A   1      36.625  34.052  30.070  1.00  0.00     0.135 A 
ATOM     83  F   UNL A   1      34.732  32.569  32.796  1.00  0.00    -0.206 F 
ATOM     84  C   UNL A   1      34.017  33.965  31.049  1.00  0.00     0.059 A 
ATOM     85  C   UNL A   1      35.626  34.764  29.415  1.00  0.00     0.059 A 
ATOM     86  F   UNL A   1      37.874  34.118  29.586  1.00  0.00    -0.206 F 
ATOM     87  C   UNL A   1      34.323  34.708  29.909  1.00  0.00     0.060 A 
BRANCH  87  88
ATOM     88  S   UNL A   1      33.009  35.654  29.108  1.00  0.00     0.124 S 
ATOM     89  O   UNL A   1      32.219  36.087  30.254  1.00  0.00    -0.237 OA
ATOM     90  O   UNL A   1      33.758  36.698  28.415  1.00  0.00    -0.237 OA
ATOM     91  O   UNL A   1      32.374  34.669  28.237  1.00  0.00    -0.744 OA
ENDBRANCH  87  88
ENDBRANCH  55  80
BRANCH  67  92
ATOM     92  C   UNL A   1      39.835  34.497  37.135  1.00  0.00     0.058 A 
ATOM     93  C   UNL A   1      39.091  34.379  38.322  1.00  0.00     0.135 A 
ATOM     94  C   UNL A   1      40.519  35.702  36.909  1.00  0.00     0.135 A 
ATOM     95  F   UNL A   1      38.416  33.249  38.585  1.00  0.00    -0.206 F 
ATOM     96  C   UNL A   1      38.991  35.432  39.225  1.00  0.00     0.059 A 
ATOM     97  C   UNL A   1      40.452  36.760  37.812  1.00  0.00     0.059 A 
ATOM     98  F   UNL A   1      41.255  35.864  35.798  1.00  0.00    -0.206 F 
ATOM     99  C   UNL A   1      39.668  36.623  38.956  1.00  0.00     0.060 A 
BRANCH  99 100
ATOM    100  S   UNL A   1      39.518  37.993  40.124  1.00  0.00     0.124 S 
ATOM    101  O   UNL A   1      39.317  37.284  41.382  1.00  0.00    -0.237 OA
ATOM    102  O   UNL A   1      40.800  38.674  39.978  1.00  0.00    -0.237 OA
ATOM    103  O   UNL A   1      38.362  38.735  39.628  1.00  0.00    -0.744 OA
ENDBRANCH  99 100
ENDBRANCH  67  92
ENDBRANCH  41  42
ENDBRANCH  33  36
ENDBRANCH  31  32
ENDBRANCH  30  31
ENDBRANCH   1  30
TORSDOF 19
ENDMDL
MODEL 2
REMARK VINA RESULT:     -12.1      1.677      4.105
REMARK SMILES COc1ccc([C@@H](CC(=O)NCCCNC(=O)c2ccc(-c3c4nc(c(-c5c(F)cc(S(=O)(=O)[O-])cc5F)c5ccc([nH]5)c(-c5c(F)cc(S(=O)(=O)[O-])cc5F)c5nc(c(-c6c(F)cc(S(=O)(=O)[O-])cc6F)c6ccc3[nH]6)C=C5)C=C4)cc2)NC(=O)c2ccc(Cl)c([N+](=O)[O-])c2)cc1
REMARK SMILES IDX 12 1 11 2 9 3 10 4 8 6 7 7 6 8 3 9 4 10 98 11 5 12 97 13
REMARK SMILES IDX 2 14 1 15 84 16 85 17 86 19 87 20 88 21 96 22 89 23 92 24
REMARK SMILES IDX 90 25 91 26 93 27 94 28 95 29 13 30 14 31 15 32 16 33 17 35
REMARK SMILES IDX 18 36 19 37 83 38 20 39 82 40 21 41 22 42 23 43 76 44 24 45
REMARK SMILES IDX 81 46 75 47 77 48 25 49 80 50 74 51 73 52 26 54 60 55 39 56
REMARK SMILES IDX 59 57 40 58 43 59 58 60 78 61 41 62 42 63 57 65 79 66 44 67
REMARK SMILES IDX 27 68 28 69 37 70 29 71 30 72 36 73 38 74 31 75 32 76 33 77
REMARK SMILES IDX 34 78 35 79 61 80 62 81 71 82 63 83 64 84 70 85 72 86 65 87
REMARK SMILES IDX 66 88 67 89 68 90 69 91 45 92 46 93 55 94 47 95 48 96 54 97
REMARK SMILES IDX 56 98 49 99 50 100 51 101 52 102 53 103
REMARK H PARENT 11 5 84 18 15 34 77 53 43 64
REMARK Flexibility Score: inf
ROOT
ATOM      1  C   UNL A   1      38.095  22.613  26.129  1.00  0.00     0.117 C 
ENDROOT
BRANCH   1   2
ATOM      2  N   UNL A   1      37.792  22.792  24.715  1.00  0.00    -0.356 N 
ATOM      3  C   UNL A   1      36.663  23.269  24.118  1.00  0.00     0.222 C 
ATOM      4  O   UNL A   1      36.513  23.048  22.915  1.00  0.00    -0.275 OA
ATOM      5  H   UNL A   1      38.513  22.530  24.097  1.00  0.00     0.163 HD
BRANCH   3   6
ATOM      6  C   UNL A   1      35.655  24.103  24.881  1.00  0.00     0.129 C 
BRANCH   6   7
ATOM      7  C   UNL A   1      34.215  24.063  24.332  1.00  0.00     0.122 C 
BRANCH   7   8
ATOM      8  C   UNL A   1      33.532  22.720  24.543  1.00  0.00    -0.025 A 
ATOM      9  C   UNL A   1      32.654  20.082  24.950  1.00  0.00     0.118 A 
ATOM     10  C   UNL A   1      32.457  20.699  23.717  1.00  0.00     0.047 A 
ATOM     11  C   UNL A   1      33.201  20.794  26.012  1.00  0.00     0.047 A 
ATOM     12  C   UNL A   1      32.880  22.019  23.516  1.00  0.00     0.010 A 
ATOM     13  C   UNL A   1      33.625  22.109  25.811  1.00  0.00     0.010 A 
BRANCH   9  14
ATOM     14  O   UNL A   1      32.521  18.723  25.021  1.00  0.00    -0.497 OA
ATOM     15  C   UNL A   1      33.476  18.043  24.214  1.00  0.00     0.278 C 
ENDBRANCH   9  14
ENDBRANCH   7   8
BRANCH   7  16
ATOM     16  N   UNL A   1      34.131  24.558  22.956  1.00  0.00    -0.345 N 
ATOM     17  C   UNL A   1      33.583  25.719  22.474  1.00  0.00     0.252 C 
ATOM     18  H   UNL A   1      34.526  23.968  22.275  1.00  0.00     0.164 HD
ATOM     19  O   UNL A   1      33.389  25.891  21.278  1.00  0.00    -0.269 OA
BRANCH  17  20
ATOM     20  C   UNL A   1      33.244  26.799  23.418  1.00  0.00     0.046 A 
ATOM     21  C   UNL A   1      33.665  28.104  23.153  1.00  0.00     0.016 A 
ATOM     22  C   UNL A   1      32.519  26.509  24.575  1.00  0.00     0.101 A 
ATOM     23  C   UNL A   1      33.290  29.141  24.014  1.00  0.00     0.028 A 
ATOM     24  C   UNL A   1      32.134  27.560  25.415  1.00  0.00     0.288 A 
ATOM     25  C   UNL A   1      32.500  28.881  25.142  1.00  0.00     0.118 A 
ATOM     26  Cl  UNL A   1      31.989  30.234  26.082  1.00  0.00    -0.077 Cl
BRANCH  24  27
ATOM     27  N   UNL A   1      31.282  27.227  26.539  1.00  0.00     0.064 N 
ATOM     28  O   UNL A   1      31.550  27.724  27.639  1.00  0.00    -0.258 OA
ATOM     29  O   UNL A   1      30.375  26.408  26.323  1.00  0.00    -0.258 OA
ENDBRANCH  24  27
ENDBRANCH  17  20
ENDBRANCH   7  16
ENDBRANCH   6   7
ENDBRANCH   3   6
ENDBRANCH   1   2
BRANCH   1  30
ATOM     30  C   UNL A   1      39.486  22.016  26.302  1.00  0.00     0.042 C 
BRANCH  30  31
ATOM     31  C   UNL A   1      40.485  22.890  27.049  1.00  0.00     0.118 C 
BRANCH  31  32
ATOM     32  N   UNL A   1      41.194  23.781  26.153  1.00  0.00    -0.352 N 
ATOM     33  C   UNL A   1      41.325  25.148  26.124  1.00  0.00     0.251 C 
ATOM     34  H   UNL A   1      41.674  23.320  25.428  1.00  0.00     0.163 HD
ATOM     35  O   UNL A   1      41.768  25.640  25.082  1.00  0.00    -0.269 OA
BRANCH  33  36
ATOM     36  C   UNL A   1      40.977  26.055  27.257  1.00  0.00     0.039 A 
ATOM     37  C   UNL A   1      41.792  27.181  27.451  1.00  0.00     0.014 A 
ATOM     38  C   UNL A   1      39.987  25.790  28.207  1.00  0.00     0.014 A 
ATOM     39  C   UNL A   1      41.615  28.018  28.561  1.00  0.00     0.010 A 
ATOM     40  C   UNL A   1      39.753  26.675  29.273  1.00  0.00     0.010 A 
ATOM     41  C   UNL A   1      40.581  27.787  29.481  1.00  0.00    -0.014 A 
BRANCH  41  42
ATOM     42  C   UNL A   1      40.397  28.694  30.655  1.00  0.00     0.031 A 
ATOM     43  C   UNL A   1      41.254  28.561  31.891  1.00  0.00     0.074 A 
ATOM     44  C   UNL A   1      39.455  29.658  30.612  1.00  0.00     0.049 A 
ATOM     45  N   UNL A   1      41.258  29.295  32.978  1.00  0.00    -0.248 NA
ATOM     46  C   UNL A   1      42.219  27.451  31.923  1.00  0.00     0.031 C 
ATOM     47  C   UNL A   1      38.518  29.873  29.507  1.00  0.00     0.029 A 
ATOM     48  N   UNL A   1      39.134  30.643  31.514  1.00  0.00    -0.354 N 
ATOM     49  C   UNL A   1      42.211  28.732  33.823  1.00  0.00     0.074 A 
ATOM     50  C   UNL A   1      42.731  27.566  33.141  1.00  0.00     0.031 C 
ATOM     51  C   UNL A   1      37.756  30.944  29.778  1.00  0.00     0.029 A 
ATOM     52  C   UNL A   1      38.127  31.478  31.086  1.00  0.00     0.049 A 
ATOM     53  H   UNL A   1      39.582  30.743  32.384  1.00  0.00     0.167 HD
ATOM     54  C   UNL A   1      42.631  29.155  35.042  1.00  0.00     0.037 A 
ATOM     55  C   UNL A   1      37.567  32.555  31.672  1.00  0.00     0.037 A 
ATOM     56  C   UNL A   1      42.139  30.330  35.715  1.00  0.00     0.049 A 
ATOM     57  C   UNL A   1      38.073  33.025  33.008  1.00  0.00     0.074 A 
ATOM     58  C   UNL A   1      42.552  30.868  36.924  1.00  0.00     0.029 A 
ATOM     59  N   UNL A   1      41.129  31.153  35.241  1.00  0.00    -0.354 N 
ATOM     60  N   UNL A   1      39.018  32.512  33.758  1.00  0.00    -0.248 NA
ATOM     61  C   UNL A   1      37.444  34.227  33.570  1.00  0.00     0.031 C 
ATOM     62  C   UNL A   1      41.767  31.994  37.197  1.00  0.00     0.029 A 
ATOM     63  C   UNL A   1      40.893  32.183  36.140  1.00  0.00     0.049 A 
ATOM     64  H   UNL A   1      40.649  31.026  34.392  1.00  0.00     0.167 HD
ATOM     65  C   UNL A   1      39.106  33.339  34.874  1.00  0.00     0.074 A 
ATOM     66  C   UNL A   1      38.136  34.397  34.688  1.00  0.00     0.031 C 
ATOM     67  C   UNL A   1      39.918  33.228  35.956  1.00  0.00     0.037 A 
BRANCH  54  68
ATOM     68  C   UNL A   1      43.692  28.340  35.734  1.00  0.00     0.058 A 
ATOM     69  C   UNL A   1      45.059  28.584  35.527  1.00  0.00     0.135 A 
ATOM     70  C   UNL A   1      43.340  27.334  36.648  1.00  0.00     0.135 A 
ATOM     71  F   UNL A   1      45.454  29.527  34.656  1.00  0.00    -0.206 F 
ATOM     72  C   UNL A   1      46.040  27.842  36.180  1.00  0.00     0.059 A 
ATOM     73  C   UNL A   1      44.303  26.596  37.332  1.00  0.00     0.059 A 
ATOM     74  F   UNL A   1      42.048  27.061  36.888  1.00  0.00    -0.206 F 
ATOM     75  C   UNL A   1      45.651  26.846  37.078  1.00  0.00     0.060 A 
BRANCH  75  76
ATOM     76  S   UNL A   1      46.933  25.892  37.919  1.00  0.00     0.124 S 
ATOM     77  O   UNL A   1      48.098  26.754  37.743  1.00  0.00    -0.237 OA
ATOM     78  O   UNL A   1      46.415  25.801  39.280  1.00  0.00    -0.237 OA
ATOM     79  O   UNL A   1      46.963  24.637  37.178  1.00  0.00    -0.744 OA
ENDBRANCH  75  76
ENDBRANCH  54  68
BRANCH  55  80
ATOM     80  C   UNL A   1      36.476  33.287  30.977  1.00  0.00     0.058 A 
ATOM     81  C   UNL A   1      36.750  34.119  29.881  1.00  0.00     0.135 A 
ATOM     82  C   UNL A   1      35.140  33.157  31.384  1.00  0.00     0.135 A 
ATOM     83  F   UNL A   1      38.013  34.282  29.461  1.00  0.00    -0.206 F 
ATOM     84  C   UNL A   1      35.737  34.806  29.218  1.00  0.00     0.059 A 
ATOM     85  C   UNL A   1      34.109  33.815  30.723  1.00  0.00     0.059 A 
ATOM     86  F   UNL A   1      34.827  32.360  32.417  1.00  0.00    -0.206 F 
ATOM     87  C   UNL A   1      34.419  34.643  29.644  1.00  0.00     0.060 A 
BRANCH  87  88
ATOM     88  S   UNL A   1      33.101  35.480  28.736  1.00  0.00     0.124 S 
ATOM     89  O   UNL A   1      33.855  36.450  27.952  1.00  0.00    -0.237 OA
ATOM     90  O   UNL A   1      32.497  34.382  27.987  1.00  0.00    -0.237 OA
ATOM     91  O   UNL A   1      32.266  36.034  29.798  1.00  0.00    -0.744 OA
ENDBRANCH  87  88
ENDBRANCH  55  80
BRANCH  67  92
ATOM     92  C   UNL A   1      39.796  34.291  37.012  1.00  0.00     0.058 A 
ATOM     93  C   UNL A   1      40.436  35.535  36.883  1.00  0.00     0.135 A 
ATOM     94  C   UNL A   1      39.036  34.064  38.171  1.00  0.00     0.135 A 
ATOM     95  F   UNL A   1      41.179  35.802  35.797  1.00  0.00    -0.206 F 
ATOM     96  C   UNL A   1      40.363  36.499  37.884  1.00  0.00     0.059 A 
ATOM     97  C   UNL A   1      38.929  35.024  39.174  1.00  0.00     0.059 A 
ATOM     98  F   UNL A   1      38.393  32.898  38.340  1.00  0.00    -0.206 F 
ATOM     99  C   UNL A   1      39.615  36.229  39.031  1.00  0.00     0.060 A 
BRANCH  99 100
ATOM    100  S   UNL A   1      39.540  37.477  40.335  1.00  0.00     0.124 S 
ATOM    101  O   UNL A   1      38.868  36.744  41.403  1.00  0.00    -0.237 OA
ATOM    102  O   UNL A   1      40.949  37.780  40.564  1.00  0.00    -0.237 OA
ATOM    103  O   UNL A   1      38.765  38.555  39.727  1.00  0.00    -0.744 OA
ENDBRANCH  99 100
ENDBRANCH  67  92
ENDBRANCH  41  42
ENDBRANCH  33  36
ENDBRANCH  31  32
ENDBRANCH  30  31
ENDBRANCH   1  30
TORSDOF 19
ENDMDL
MODEL 3
REMARK VINA RESULT:     -12.0      1.269      2.020
REMARK SMILES COc1ccc([C@@H](CC(=O)NCCCNC(=O)c2ccc(-c3c4nc(c(-c5c(F)cc(S(=O)(=O)[O-])cc5F)c5ccc([nH]5)c(-c5c(F)cc(S(=O)(=O)[O-])cc5F)c5nc(c(-c6c(F)cc(S(=O)(=O)[O-])cc6F)c6ccc3[nH]6)C=C5)C=C4)cc2)NC(=O)c2ccc(Cl)c([N+](=O)[O-])c2)cc1
REMARK SMILES IDX 12 1 11 2 9 3 10 4 8 6 7 7 6 8 3 9 4 10 98 11 5 12 97 13
REMARK SMILES IDX 2 14 1 15 84 16 85 17 86 19 87 20 88 21 96 22 89 23 92 24
REMARK SMILES IDX 90 25 91 26 93 27 94 28 95 29 13 30 14 31 15 32 16 33 17 35
REMARK SMILES IDX 18 36 19 37 83 38 20 39 82 40 21 41 22 42 23 43 76 44 24 45
REMARK SMILES IDX 81 46 75 47 77 48 25 49 80 50 74 51 73 52 26 54 60 55 39 56
REMARK SMILES IDX 59 57 40 58 43 59 58 60 78 61 41 62 42 63 57 65 79 66 44 67
REMARK SMILES IDX 27 68 28 69 37 70 29 71 30 72 36 73 38 74 31 75 32 76 33 77
REMARK SMILES IDX 34 78 35 79 61 80 62 81 71 82 63 83 64 84 70 85 72 86 65 87
REMARK SMILES IDX 66 88 67 89 68 90 69 91 45 92 46 93 55 94 47 95 48 96 54 97
REMARK SMILES IDX 56 98 49 99 50 100 51 101 52 102 53 103
REMARK H PARENT 11 5 84 18 15 34 77 53 43 64
REMARK Flexibility Score: inf
ROOT
ATOM      1  C   UNL A   1      37.869  21.541  25.706  1.00  0.00     0.117 C 
ENDROOT
BRANCH   1   2
ATOM      2  N   UNL A   1      37.630  22.078  24.373  1.00  0.00    -0.356 N 
ATOM      3  C   UNL A   1      36.759  23.044  23.965  1.00  0.00     0.222 C 
ATOM      4  O   UNL A   1      36.511  23.122  22.760  1.00  0.00    -0.275 OA
ATOM      5  H   UNL A   1      38.181  21.684  23.659  1.00  0.00     0.163 HD
BRANCH   3   6
ATOM      6  C   UNL A   1      36.165  24.040  24.941  1.00  0.00     0.129 C 
BRANCH   6   7
ATOM      7  C   UNL A   1      34.655  23.882  25.207  1.00  0.00     0.122 C 
BRANCH   7   8
ATOM      8  C   UNL A   1      33.865  25.155  24.937  1.00  0.00    -0.025 A 
ATOM      9  C   UNL A   1      32.775  27.685  24.387  1.00  0.00     0.118 A 
ATOM     10  C   UNL A   1      32.687  27.153  25.672  1.00  0.00     0.047 A 
ATOM     11  C   UNL A   1      33.319  26.933  23.352  1.00  0.00     0.047 A 
ATOM     12  C   UNL A   1      33.216  25.885  25.944  1.00  0.00     0.010 A 
ATOM     13  C   UNL A   1      33.848  25.670  23.623  1.00  0.00     0.010 A 
BRANCH   9  14
ATOM     14  O   UNL A   1      32.538  29.022  24.225  1.00  0.00    -0.497 OA
ATOM     15  C   UNL A   1      32.912  29.780  25.369  1.00  0.00     0.278 C 
ENDBRANCH   9  14
ENDBRANCH   7   8
BRANCH   7  16
ATOM     16  N   UNL A   1      34.380  23.284  26.515  1.00  0.00    -0.345 N 
ATOM     17  C   UNL A   1      33.633  22.181  26.835  1.00  0.00     0.252 C 
ATOM     18  H   UNL A   1      34.794  23.744  27.280  1.00  0.00     0.164 HD
ATOM     19  O   UNL A   1      33.311  21.933  27.989  1.00  0.00    -0.269 OA
BRANCH  17  20
ATOM     20  C   UNL A   1      33.227  21.253  25.763  1.00  0.00     0.046 A 
ATOM     21  C   UNL A   1      32.538  21.743  24.651  1.00  0.00     0.016 A 
ATOM     22  C   UNL A   1      33.518  19.893  25.874  1.00  0.00     0.101 A 
ATOM     23  C   UNL A   1      32.207  20.877  23.603  1.00  0.00     0.028 A 
ATOM     24  C   UNL A   1      33.200  19.043  24.808  1.00  0.00     0.288 A 
ATOM     25  C   UNL A   1      32.557  19.521  23.663  1.00  0.00     0.118 A 
ATOM     26  Cl  UNL A   1      32.213  18.552  22.278  1.00  0.00    -0.077 Cl
BRANCH  24  27
ATOM     27  N   UNL A   1      33.628  17.662  24.917  1.00  0.00     0.064 N 
ATOM     28  O   UNL A   1      32.816  16.834  25.345  1.00  0.00    -0.258 OA
ATOM     29  O   UNL A   1      34.810  17.424  24.626  1.00  0.00    -0.258 OA
ENDBRANCH  24  27
ENDBRANCH  17  20
ENDBRANCH   7  16
ENDBRANCH   6   7
ENDBRANCH   3   6
ENDBRANCH   1   2
BRANCH   1  30
ATOM     30  C   UNL A   1      39.329  21.726  26.099  1.00  0.00     0.042 C 
BRANCH  30  31
ATOM     31  C   UNL A   1      39.660  23.042  26.791  1.00  0.00     0.118 C 
BRANCH  31  32
ATOM     32  N   UNL A   1      40.797  23.700  26.177  1.00  0.00    -0.352 N 
ATOM     33  C   UNL A   1      41.316  24.964  26.315  1.00  0.00     0.251 C 
ATOM     34  H   UNL A   1      41.291  23.133  25.542  1.00  0.00     0.163 HD
ATOM     35  O   UNL A   1      42.128  25.325  25.460  1.00  0.00    -0.269 OA
BRANCH  33  36
ATOM     36  C   UNL A   1      40.968  25.905  27.420  1.00  0.00     0.039 A 
ATOM     37  C   UNL A   1      41.806  27.015  27.605  1.00  0.00     0.014 A 
ATOM     38  C   UNL A   1      39.953  25.685  28.356  1.00  0.00     0.014 A 
ATOM     39  C   UNL A   1      41.628  27.882  28.692  1.00  0.00     0.010 A 
ATOM     40  C   UNL A   1      39.721  26.600  29.397  1.00  0.00     0.010 A 
ATOM     41  C   UNL A   1      40.571  27.697  29.596  1.00  0.00    -0.014 A 
BRANCH  41  42
ATOM     42  C   UNL A   1      40.386  28.635  30.745  1.00  0.00     0.031 A 
ATOM     43  C   UNL A   1      41.246  28.538  31.983  1.00  0.00     0.074 A 
ATOM     44  C   UNL A   1      39.441  29.595  30.677  1.00  0.00     0.049 A 
ATOM     45  N   UNL A   1      41.249  29.302  33.049  1.00  0.00    -0.248 NA
ATOM     46  C   UNL A   1      42.213  27.432  32.043  1.00  0.00     0.031 C 
ATOM     47  C   UNL A   1      38.501  29.777  29.568  1.00  0.00     0.029 A 
ATOM     48  N   UNL A   1      39.119  30.603  31.552  1.00  0.00    -0.354 N 
ATOM     49  C   UNL A   1      42.204  28.765  33.908  1.00  0.00     0.074 A 
ATOM     50  C   UNL A   1      42.727  27.582  33.257  1.00  0.00     0.031 C 
ATOM     51  C   UNL A   1      37.737  30.853  29.811  1.00  0.00     0.029 A 
ATOM     52  C   UNL A   1      38.109  31.423  31.104  1.00  0.00     0.049 A 
ATOM     53  H   UNL A   1      39.568  30.728  32.419  1.00  0.00     0.167 HD
ATOM     54  C   UNL A   1      42.626  29.221  35.114  1.00  0.00     0.037 A 
ATOM     55  C   UNL A   1      37.547  32.514  31.661  1.00  0.00     0.037 A 
ATOM     56  C   UNL A   1      42.131  30.414  35.756  1.00  0.00     0.049 A 
ATOM     57  C   UNL A   1      38.054  33.022  32.983  1.00  0.00     0.074 A 
ATOM     58  C   UNL A   1      42.544  30.985  36.949  1.00  0.00     0.029 A 
ATOM     59  N   UNL A   1      41.118  31.221  35.261  1.00  0.00    -0.354 N 
ATOM     60  N   UNL A   1      39.001  32.532  33.745  1.00  0.00    -0.248 NA
ATOM     61  C   UNL A   1      37.422  34.237  33.513  1.00  0.00     0.031 C 
ATOM     62  C   UNL A   1      41.756  32.116  37.192  1.00  0.00     0.029 A 
ATOM     63  C   UNL A   1      40.880  32.274  36.132  1.00  0.00     0.049 A 
ATOM     64  H   UNL A   1      40.637  31.068  34.416  1.00  0.00     0.167 HD
ATOM     65  C   UNL A   1      39.088  33.389  34.838  1.00  0.00     0.074 A 
ATOM     66  C   UNL A   1      38.115  34.439  34.625  1.00  0.00     0.031 C 
ATOM     67  C   UNL A   1      39.902  33.311  35.921  1.00  0.00     0.037 A 
BRANCH  54  68
ATOM     68  C   UNL A   1      43.690  28.429  35.826  1.00  0.00     0.058 A 
ATOM     69  C   UNL A   1      45.055  28.698  35.641  1.00  0.00     0.135 A 
ATOM     70  C   UNL A   1      43.341  27.420  36.739  1.00  0.00     0.135 A 
ATOM     71  F   UNL A   1      45.447  29.645  34.773  1.00  0.00    -0.206 F 
ATOM     72  C   UNL A   1      46.038  27.976  36.313  1.00  0.00     0.059 A 
ATOM     73  C   UNL A   1      44.306  26.702  37.441  1.00  0.00     0.059 A 
ATOM     74  F   UNL A   1      42.051  27.124  36.959  1.00  0.00    -0.206 F 
ATOM     75  C   UNL A   1      45.654  26.977  37.208  1.00  0.00     0.060 A 
BRANCH  75  76
ATOM     76  S   UNL A   1      46.939  26.050  38.074  1.00  0.00     0.124 S 
ATOM     77  O   UNL A   1      46.146  25.056  38.792  1.00  0.00    -0.237 OA
ATOM     78  O   UNL A   1      47.750  25.537  36.975  1.00  0.00    -0.237 OA
ATOM     79  O   UNL A   1      47.584  27.059  38.906  1.00  0.00    -0.744 OA
ENDBRANCH  75  76
ENDBRANCH  54  68
BRANCH  55  80
ATOM     80  C   UNL A   1      36.453  33.224  30.948  1.00  0.00     0.058 A 
ATOM     81  C   UNL A   1      35.126  33.142  31.395  1.00  0.00     0.135 A 
ATOM     82  C   UNL A   1      36.715  34.012  29.817  1.00  0.00     0.135 A 
ATOM     83  F   UNL A   1      34.826  32.393  32.467  1.00  0.00    -0.206 F 
ATOM     84  C   UNL A   1      34.094  33.806  30.740  1.00  0.00     0.059 A 
ATOM     85  C   UNL A   1      35.704  34.703  29.159  1.00  0.00     0.059 A 
ATOM     86  F   UNL A   1      37.971  34.135  29.360  1.00  0.00    -0.206 F 
ATOM     87  C   UNL A   1      34.394  34.588  29.625  1.00  0.00     0.060 A 
BRANCH  87  88
ATOM     88  S   UNL A   1      33.063  35.506  28.821  1.00  0.00     0.124 S 
ATOM     89  O   UNL A   1      32.311  35.998  29.969  1.00  0.00    -0.237 OA
ATOM     90  O   UNL A   1      33.797  36.511  28.058  1.00  0.00    -0.237 OA
ATOM     91  O   UNL A   1      32.396  34.486  28.016  1.00  0.00    -0.744 OA
ENDBRANCH  87  88
ENDBRANCH  55  80
BRANCH  67  92
ATOM     92  C   UNL A   1      39.779  34.402  36.948  1.00  0.00     0.058 A 
ATOM     93  C   UNL A   1      40.537  35.581  36.865  1.00  0.00     0.135 A 
ATOM     94  C   UNL A   1      38.896  34.266  38.032  1.00  0.00     0.135 A 
ATOM     95  F   UNL A   1      41.399  35.758  35.851  1.00  0.00    -0.206 F 
ATOM     96  C   UNL A   1      40.459  36.568  37.843  1.00  0.00     0.059 A 
ATOM     97  C   UNL A   1      38.784  35.253  39.009  1.00  0.00     0.059 A 
ATOM     98  F   UNL A   1      38.138  33.166  38.154  1.00  0.00    -0.206 F 
ATOM     99  C   UNL A   1      39.586  36.389  38.917  1.00  0.00     0.060 A 
BRANCH  99 100
ATOM    100  S   UNL A   1      39.503  37.665  40.193  1.00  0.00     0.124 S 
ATOM    101  O   UNL A   1      39.359  36.861  41.402  1.00  0.00    -0.237 OA
ATOM    102  O   UNL A   1      40.781  38.352  40.037  1.00  0.00    -0.237 OA
ATOM    103  O   UNL A   1      38.329  38.446  39.814  1.00  0.00    -0.744 OA
ENDBRANCH  99 100
ENDBRANCH  67  92
ENDBRANCH  41  42
ENDBRANCH  33  36
ENDBRANCH  31  32
ENDBRANCH  30  31
ENDBRANCH   1  30
TORSDOF 19
ENDMDL
