MODEL 1
REMARK VINA RESULT:     -10.5      0.000      0.000
REMARK SMILES CC(C)(C)C(=O)N1CCCC[C@@H]1C(=O)NCCCNC(=O)c1ccc(-c2c3nc(c(-c4c(F)cc(S(=O)(=O)[O-])cc4F)c4ccc([nH]4)c(-c4c(F)cc(S(=O)(=O)[O-])cc4F)c4nc(c(-c5c(F)cc(S(=O)(=O)[O-])cc5F)c5ccc2[nH]5)C=C4)C=C3)cc1
REMARK SMILES IDX 17 1 16 2 15 3 13 4 14 5 12 7 7 8 8 9 9 10 11 11 10 12 5 13
REMARK SMILES IDX 6 14 2 15 1 16 3 17 4 18 18 19 19 20 20 21 21 23 22 24 23 25
REMARK SMILES IDX 87 26 24 27 86 28 25 29 26 30 27 31 80 32 28 33 85 34 79 35
REMARK SMILES IDX 81 36 29 37 84 38 78 39 77 40 30 42 64 43 43 44 63 45 44 46
REMARK SMILES IDX 47 47 62 48 82 49 45 50 46 51 61 53 83 54 48 55 31 56 32 57
REMARK SMILES IDX 41 58 33 59 34 60 40 61 42 62 35 63 36 64 37 65 38 66 39 67
REMARK SMILES IDX 65 68 66 69 75 70 67 71 68 72 74 73 76 74 69 75 70 76 71 77
REMARK SMILES IDX 72 78 73 79 49 80 50 81 59 82 51 83 52 84 58 85 60 86 53 87
REMARK SMILES IDX 54 88 55 89 56 90 57 91
REMARK H PARENT 15 6 19 22 81 41 47 52
REMARK Flexibility Score: inf
ROOT
ATOM      1  C   UNL A   1      35.684  23.659  25.924  1.00  0.00     0.042 C 
ENDROOT
BRANCH   1   2
ATOM      2  C   UNL A   1      34.359  23.948  25.231  1.00  0.00     0.117 C 
BRANCH   2   3
ATOM      3  N   UNL A   1      34.449  25.160  24.432  1.00  0.00    -0.354 N 
ATOM      4  C   UNL A   1      33.948  26.404  24.663  1.00  0.00     0.242 C 
ATOM      5  O   UNL A   1      33.872  27.171  23.698  1.00  0.00    -0.273 OA
ATOM      6  H   UNL A   1      34.951  25.065  23.591  1.00  0.00     0.163 HD
BRANCH   4   7
ATOM      7  C   UNL A   1      33.375  26.816  26.036  1.00  0.00     0.174 C 
ATOM      8  N   UNL A   1      31.908  27.001  26.068  1.00  0.00    -0.330 N 
ATOM      9  C   UNL A   1      31.365  27.868  27.116  1.00  0.00     0.120 C 
ATOM     10  C   UNL A   1      32.108  29.181  27.273  1.00  0.00     0.022 C 
ATOM     11  C   UNL A   1      34.160  28.109  26.380  1.00  0.00     0.035 C 
ATOM     12  C   UNL A   1      33.580  28.913  27.529  1.00  0.00     0.004 C 
BRANCH   8  13
ATOM     13  C   UNL A   1      30.960  26.206  25.432  1.00  0.00     0.228 C 
ATOM     14  O   UNL A   1      30.806  25.050  25.853  1.00  0.00    -0.274 OA
BRANCH  13  15
ATOM     15  C   UNL A   1      30.276  26.616  24.096  1.00  0.00     0.041 C 
ATOM     16  C   UNL A   1      28.760  26.327  24.243  1.00  0.00     0.021 C 
ATOM     17  C   UNL A   1      30.840  25.703  22.996  1.00  0.00     0.021 C 
ATOM     18  C   UNL A   1      30.386  28.067  23.635  1.00  0.00     0.021 C 
ENDBRANCH  13  15
ENDBRANCH   8  13
ENDBRANCH   4   7
ENDBRANCH   2   3
ENDBRANCH   1   2
BRANCH   1  19
ATOM     19  C   UNL A   1      36.889  23.791  25.008  1.00  0.00     0.118 C 
BRANCH  19  20
ATOM     20  N   UNL A   1      37.903  22.777  25.263  1.00  0.00    -0.352 N 
ATOM     21  C   UNL A   1      39.084  22.908  25.953  1.00  0.00     0.251 C 
ATOM     22  H   UNL A   1      37.717  21.882  24.895  1.00  0.00     0.163 HD
ATOM     23  O   UNL A   1      39.913  22.009  25.948  1.00  0.00    -0.269 OA
BRANCH  21  24
ATOM     24  C   UNL A   1      39.348  24.170  26.677  1.00  0.00     0.039 A 
ATOM     25  C   UNL A   1      38.862  24.322  27.977  1.00  0.00     0.014 A 
ATOM     26  C   UNL A   1      40.117  25.175  26.083  1.00  0.00     0.014 A 
ATOM     27  C   UNL A   1      39.202  25.462  28.708  1.00  0.00     0.010 A 
ATOM     28  C   UNL A   1      40.520  26.269  26.840  1.00  0.00     0.010 A 
ATOM     29  C   UNL A   1      40.060  26.427  28.157  1.00  0.00    -0.014 A 
BRANCH  29  30
ATOM     30  C   UNL A   1      40.478  27.629  28.921  1.00  0.00     0.031 A 
ATOM     31  C   UNL A   1      41.787  27.616  29.661  1.00  0.00     0.074 A 
ATOM     32  C   UNL A   1      39.651  28.688  29.019  1.00  0.00     0.049 A 
ATOM     33  N   UNL A   1      42.277  28.499  30.492  1.00  0.00    -0.248 NA
ATOM     34  C   UNL A   1      42.645  26.435  29.466  1.00  0.00     0.031 C 
ATOM     35  C   UNL A   1      38.337  28.801  28.379  1.00  0.00     0.029 A 
ATOM     36  N   UNL A   1      39.784  29.865  29.711  1.00  0.00    -0.354 N 
ATOM     37  C   UNL A   1      43.483  27.970  30.938  1.00  0.00     0.074 A 
ATOM     38  C   UNL A   1      43.627  26.668  30.325  1.00  0.00     0.031 C 
ATOM     39  C   UNL A   1      37.793  29.987  28.699  1.00  0.00     0.029 A 
ATOM     40  C   UNL A   1      38.697  30.700  29.597  1.00  0.00     0.049 A 
ATOM     41  H   UNL A   1      40.582  30.092  30.241  1.00  0.00     0.167 HD
ATOM     42  C   UNL A   1      44.397  28.528  31.765  1.00  0.00     0.037 A 
ATOM     43  C   UNL A   1      38.449  31.897  30.165  1.00  0.00     0.037 A 
ATOM     44  C   UNL A   1      44.262  29.841  32.340  1.00  0.00     0.049 A 
ATOM     45  C   UNL A   1      39.484  32.503  31.076  1.00  0.00     0.074 A 
ATOM     46  C   UNL A   1      45.157  30.522  33.145  1.00  0.00     0.029 A 
ATOM     47  N   UNL A   1      43.164  30.670  32.167  1.00  0.00    -0.354 N 
ATOM     48  N   UNL A   1      40.642  32.011  31.448  1.00  0.00    -0.248 NA
ATOM     49  C   UNL A   1      39.183  33.826  31.640  1.00  0.00     0.031 C 
ATOM     50  C   UNL A   1      44.583  31.750  33.491  1.00  0.00     0.029 A 
ATOM     51  C   UNL A   1      43.353  31.853  32.862  1.00  0.00     0.049 A 
ATOM     52  H   UNL A   1      42.369  30.451  31.631  1.00  0.00     0.167 HD
ATOM     53  C   UNL A   1      41.223  32.977  32.262  1.00  0.00     0.074 A 
ATOM     54  C   UNL A   1      40.289  34.084  32.326  1.00  0.00     0.031 C 
ATOM     55  C   UNL A   1      42.420  32.953  32.896  1.00  0.00     0.037 A 
BRANCH  42  56
ATOM     56  C   UNL A   1      45.625  27.724  32.091  1.00  0.00     0.058 A 
ATOM     57  C   UNL A   1      45.677  26.880  33.213  1.00  0.00     0.135 A 
ATOM     58  C   UNL A   1      46.756  27.778  31.261  1.00  0.00     0.135 A 
ATOM     59  F   UNL A   1      44.630  26.803  34.050  1.00  0.00    -0.206 F 
ATOM     60  C   UNL A   1      46.816  26.144  33.517  1.00  0.00     0.059 A 
ATOM     61  C   UNL A   1      47.897  27.028  31.529  1.00  0.00     0.059 A 
ATOM     62  F   UNL A   1      46.761  28.571  30.177  1.00  0.00    -0.206 F 
ATOM     63  C   UNL A   1      47.923  26.225  32.669  1.00  0.00     0.060 A 
BRANCH  63  64
ATOM     64  S   UNL A   1      49.393  25.261  33.076  1.00  0.00     0.124 S 
ATOM     65  O   UNL A   1      50.184  26.237  33.820  1.00  0.00    -0.237 OA
ATOM     66  O   UNL A   1      48.840  24.163  33.863  1.00  0.00    -0.237 OA
ATOM     67  O   UNL A   1      49.925  24.885  31.770  1.00  0.00    -0.744 OA
ENDBRANCH  63  64
ENDBRANCH  42  56
BRANCH  43  68
ATOM     68  C   UNL A   1      37.177  32.611  29.872  1.00  0.00     0.058 A 
ATOM     69  C   UNL A   1      35.983  32.244  30.508  1.00  0.00     0.135 A 
ATOM     70  C   UNL A   1      37.133  33.681  28.965  1.00  0.00     0.135 A 
ATOM     71  F   UNL A   1      35.974  31.223  31.380  1.00  0.00    -0.206 F 
ATOM     72  C   UNL A   1      34.784  32.899  30.245  1.00  0.00     0.059 A 
ATOM     73  C   UNL A   1      35.951  34.368  28.702  1.00  0.00     0.059 A 
ATOM     74  F   UNL A   1      38.252  34.083  28.343  1.00  0.00    -0.206 F 
ATOM     75  C   UNL A   1      34.779  33.963  29.340  1.00  0.00     0.060 A 
BRANCH  75  76
ATOM     76  S   UNL A   1      33.228  34.837  29.040  1.00  0.00     0.124 S 
ATOM     77  O   UNL A   1      33.705  36.114  28.524  1.00  0.00    -0.237 OA
ATOM     78  O   UNL A   1      32.565  33.964  28.075  1.00  0.00    -0.237 OA
ATOM     79  O   UNL A   1      32.607  34.881  30.361  1.00  0.00    -0.744 OA
ENDBRANCH  75  76
ENDBRANCH  43  68
BRANCH  55  80
ATOM     80  C   UNL A   1      42.823  34.174  33.674  1.00  0.00     0.058 A 
ATOM     81  C   UNL A   1      42.615  34.269  35.059  1.00  0.00     0.135 A 
ATOM     82  C   UNL A   1      43.499  35.226  33.036  1.00  0.00     0.135 A 
ATOM     83  F   UNL A   1      41.967  33.294  35.714  1.00  0.00    -0.206 F 
ATOM     84  C   UNL A   1      43.053  35.374  35.782  1.00  0.00     0.059 A 
ATOM     85  C   UNL A   1      43.968  36.328  33.744  1.00  0.00     0.059 A 
ATOM     86  F   UNL A   1      43.731  35.178  31.714  1.00  0.00    -0.206 F 
ATOM     87  C   UNL A   1      43.735  36.395  35.116  1.00  0.00     0.060 A 
BRANCH  87  88
ATOM     88  S   UNL A   1      44.348  37.795  36.077  1.00  0.00     0.124 S 
ATOM     89  O   UNL A   1      44.082  38.910  35.174  1.00  0.00    -0.237 OA
ATOM     90  O   UNL A   1      43.520  37.739  37.277  1.00  0.00    -0.237 OA
ATOM     91  O   UNL A   1      45.758  37.475  36.281  1.00  0.00    -0.744 OA
ENDBRANCH  87  88
ENDBRANCH  55  80
ENDBRANCH  29  30
ENDBRANCH  21  24
ENDBRANCH  19  20
ENDBRANCH   1  19
TORSDOF 15
ENDMDL
MODEL 2
REMARK VINA RESULT:     -10.3      4.861     10.323
REMARK SMILES CC(C)(C)C(=O)N1CCCC[C@@H]1C(=O)NCCCNC(=O)c1ccc(-c2c3nc(c(-c4c(F)cc(S(=O)(=O)[O-])cc4F)c4ccc([nH]4)c(-c4c(F)cc(S(=O)(=O)[O-])cc4F)c4nc(c(-c5c(F)cc(S(=O)(=O)[O-])cc5F)c5ccc2[nH]5)C=C4)C=C3)cc1
REMARK SMILES IDX 17 1 16 2 15 3 13 4 14 5 12 7 7 8 8 9 9 10 11 11 10 12 5 13
REMARK SMILES IDX 6 14 2 15 1 16 3 17 4 18 18 19 19 20 20 21 21 23 22 24 23 25
REMARK SMILES IDX 87 26 24 27 86 28 25 29 26 30 27 31 80 32 28 33 85 34 79 35
REMARK SMILES IDX 81 36 29 37 84 38 78 39 77 40 30 42 64 43 43 44 63 45 44 46
REMARK SMILES IDX 47 47 62 48 82 49 45 50 46 51 61 53 83 54 48 55 31 56 32 57
REMARK SMILES IDX 41 58 33 59 34 60 40 61 42 62 35 63 36 64 37 65 38 66 39 67
REMARK SMILES IDX 65 68 66 69 75 70 67 71 68 72 74 73 76 74 69 75 70 76 71 77
REMARK SMILES IDX 72 78 73 79 49 80 50 81 59 82 51 83 52 84 58 85 60 86 53 87
REMARK SMILES IDX 54 88 55 89 56 90 57 91
REMARK H PARENT 15 6 19 22 81 41 47 52
REMARK Flexibility Score: inf
ROOT
ATOM      1  C   UNL A   1      34.192  28.747  26.997  1.00  0.00     0.042 C 
ENDROOT
BRANCH   1   2
ATOM      2  C   UNL A   1      33.282  29.768  26.328  1.00  0.00     0.117 C 
BRANCH   2   3
ATOM      3  N   UNL A   1      33.412  29.705  24.881  1.00  0.00    -0.354 N 
ATOM      4  C   UNL A   1      32.539  29.253  23.940  1.00  0.00     0.242 C 
ATOM      5  O   UNL A   1      32.997  28.997  22.821  1.00  0.00    -0.273 OA
ATOM      6  H   UNL A   1      34.266  30.043  24.527  1.00  0.00     0.163 HD
BRANCH   4   7
ATOM      7  C   UNL A   1      31.063  28.944  24.269  1.00  0.00     0.174 C 
ATOM      8  N   UNL A   1      30.658  27.538  24.051  1.00  0.00    -0.330 N 
ATOM      9  C   UNL A   1      29.235  27.279  23.826  1.00  0.00     0.120 C 
ATOM     10  C   UNL A   1      28.589  28.219  22.826  1.00  0.00     0.022 C 
ATOM     11  C   UNL A   1      30.279  29.948  23.386  1.00  0.00     0.035 C 
ATOM     12  C   UNL A   1      28.794  29.657  23.264  1.00  0.00     0.004 C 
BRANCH   8  13
ATOM     13  C   UNL A   1      31.408  26.404  24.350  1.00  0.00     0.228 C 
ATOM     14  O   UNL A   1      31.734  26.229  25.533  1.00  0.00    -0.274 OA
BRANCH  13  15
ATOM     15  C   UNL A   1      32.044  25.502  23.253  1.00  0.00     0.041 C 
ATOM     16  C   UNL A   1      31.399  24.097  23.378  1.00  0.00     0.021 C 
ATOM     17  C   UNL A   1      33.541  25.379  23.575  1.00  0.00     0.021 C 
ATOM     18  C   UNL A   1      31.887  25.909  21.791  1.00  0.00     0.021 C 
ENDBRANCH  13  15
ENDBRANCH   8  13
ENDBRANCH   4   7
ENDBRANCH   2   3
ENDBRANCH   1   2
BRANCH   1  19
ATOM     19  C   UNL A   1      35.477  29.346  27.546  1.00  0.00     0.118 C 
BRANCH  19  20
ATOM     20  N   UNL A   1      35.275  30.051  28.803  1.00  0.00    -0.352 N 
ATOM     21  C   UNL A   1      36.205  30.352  29.770  1.00  0.00     0.251 C 
ATOM     22  H   UNL A   1      34.354  30.351  28.984  1.00  0.00     0.163 HD
ATOM     23  O   UNL A   1      35.857  30.807  30.850  1.00  0.00    -0.269 OA
BRANCH  21  24
ATOM     24  C   UNL A   1      37.632  30.086  29.490  1.00  0.00     0.039 A 
ATOM     25  C   UNL A   1      38.483  29.761  30.548  1.00  0.00     0.014 A 
ATOM     26  C   UNL A   1      38.109  30.111  28.176  1.00  0.00     0.014 A 
ATOM     27  C   UNL A   1      39.804  29.397  30.279  1.00  0.00     0.010 A 
ATOM     28  C   UNL A   1      39.398  29.672  27.905  1.00  0.00     0.010 A 
ATOM     29  C   UNL A   1      40.261  29.318  28.954  1.00  0.00    -0.014 A 
BRANCH  29  30
ATOM     30  C   UNL A   1      41.646  28.893  28.629  1.00  0.00     0.031 A 
ATOM     31  C   UNL A   1      42.743  29.920  28.584  1.00  0.00     0.074 A 
ATOM     32  C   UNL A   1      41.898  27.613  28.293  1.00  0.00     0.049 A 
ATOM     33  N   UNL A   1      43.984  29.789  28.194  1.00  0.00    -0.248 NA
ATOM     34  C   UNL A   1      42.387  31.287  29.003  1.00  0.00     0.031 C 
ATOM     35  C   UNL A   1      40.908  26.533  28.260  1.00  0.00     0.029 A 
ATOM     36  N   UNL A   1      43.063  27.005  27.896  1.00  0.00    -0.354 N 
ATOM     37  C   UNL A   1      44.548  31.056  28.295  1.00  0.00     0.074 A 
ATOM     38  C   UNL A   1      43.501  31.952  28.735  1.00  0.00     0.031 C 
ATOM     39  C   UNL A   1      41.510  25.395  27.877  1.00  0.00     0.029 A 
ATOM     40  C   UNL A   1      42.917  25.670  27.598  1.00  0.00     0.049 A 
ATOM     41  H   UNL A   1      43.923  27.479  27.830  1.00  0.00     0.167 HD
ATOM     42  C   UNL A   1      45.826  31.435  28.063  1.00  0.00     0.037 A 
ATOM     43  C   UNL A   1      43.811  24.774  27.136  1.00  0.00     0.037 A 
ATOM     44  C   UNL A   1      46.870  30.528  27.662  1.00  0.00     0.049 A 
ATOM     45  C   UNL A   1      45.230  25.215  26.893  1.00  0.00     0.074 A 
ATOM     46  C   UNL A   1      48.211  30.799  27.457  1.00  0.00     0.029 A 
ATOM     47  N   UNL A   1      46.690  29.177  27.410  1.00  0.00    -0.354 N 
ATOM     48  N   UNL A   1      45.758  26.407  27.041  1.00  0.00    -0.248 NA
ATOM     49  C   UNL A   1      46.175  24.191  26.426  1.00  0.00     0.031 C 
ATOM     50  C   UNL A   1      48.834  29.618  27.043  1.00  0.00     0.029 A 
ATOM     51  C   UNL A   1      47.893  28.602  27.037  1.00  0.00     0.049 A 
ATOM     52  H   UNL A   1      45.833  28.697  27.484  1.00  0.00     0.167 HD
ATOM     53  C   UNL A   1      47.104  26.270  26.718  1.00  0.00     0.074 A 
ATOM     54  C   UNL A   1      47.310  24.878  26.370  1.00  0.00     0.031 C 
ATOM     55  C   UNL A   1      48.082  27.208  26.714  1.00  0.00     0.037 A 
BRANCH  42  56
ATOM     56  C   UNL A   1      46.168  32.887  28.245  1.00  0.00     0.058 A 
ATOM     57  C   UNL A   1      46.603  33.394  29.480  1.00  0.00     0.135 A 
ATOM     58  C   UNL A   1      46.084  33.781  27.165  1.00  0.00     0.135 A 
ATOM     59  F   UNL A   1      46.685  32.587  30.551  1.00  0.00    -0.206 F 
ATOM     60  C   UNL A   1      46.911  34.739  29.647  1.00  0.00     0.059 A 
ATOM     61  C   UNL A   1      46.415  35.126  27.302  1.00  0.00     0.059 A 
ATOM     62  F   UNL A   1      45.672  33.351  25.962  1.00  0.00    -0.206 F 
ATOM     63  C   UNL A   1      46.812  35.599  28.551  1.00  0.00     0.060 A 
BRANCH  63  64
ATOM     64  S   UNL A   1      47.218  37.342  28.784  1.00  0.00     0.124 S 
ATOM     65  O   UNL A   1      46.774  37.915  27.517  1.00  0.00    -0.237 OA
ATOM     66  O   UNL A   1      46.419  37.696  29.954  1.00  0.00    -0.237 OA
ATOM     67  O   UNL A   1      48.662  37.329  28.997  1.00  0.00    -0.744 OA
ENDBRANCH  63  64
ENDBRANCH  42  56
BRANCH  43  68
ATOM     68  C   UNL A   1      43.397  23.366  26.894  1.00  0.00     0.058 A 
ATOM     69  C   UNL A   1      43.267  22.868  25.590  1.00  0.00     0.135 A 
ATOM     70  C   UNL A   1      43.137  22.488  27.957  1.00  0.00     0.135 A 
ATOM     71  F   UNL A   1      43.499  23.671  24.540  1.00  0.00    -0.206 F 
ATOM     72  C   UNL A   1      42.878  21.555  25.345  1.00  0.00     0.059 A 
ATOM     73  C   UNL A   1      42.769  21.163  27.739  1.00  0.00     0.059 A 
ATOM     74  F   UNL A   1      43.263  22.910  29.225  1.00  0.00    -0.206 F 
ATOM     75  C   UNL A   1      42.633  20.708  26.428  1.00  0.00     0.060 A 
BRANCH  75  76
ATOM     76  S   UNL A   1      42.175  18.993  26.101  1.00  0.00     0.124 S 
ATOM     77  O   UNL A   1      43.075  18.651  25.006  1.00  0.00    -0.237 OA
ATOM     78  O   UNL A   1      42.453  18.351  27.382  1.00  0.00    -0.237 OA
ATOM     79  O   UNL A   1      40.760  19.085  25.751  1.00  0.00    -0.744 OA
ENDBRANCH  75  76
ENDBRANCH  43  68
BRANCH  55  80
ATOM     80  C   UNL A   1      49.475  26.763  26.372  1.00  0.00     0.058 A 
ATOM     81  C   UNL A   1      50.311  26.155  27.321  1.00  0.00     0.135 A 
ATOM     82  C   UNL A   1      49.948  26.875  25.055  1.00  0.00     0.135 A 
ATOM     83  F   UNL A   1      49.909  26.031  28.595  1.00  0.00    -0.206 F 
ATOM     84  C   UNL A   1      51.574  25.683  26.977  1.00  0.00     0.059 A 
ATOM     85  C   UNL A   1      51.196  26.388  24.683  1.00  0.00     0.059 A 
ATOM     86  F   UNL A   1      49.182  27.440  24.107  1.00  0.00    -0.206 F 
ATOM     87  C   UNL A   1      52.005  25.799  25.654  1.00  0.00     0.060 A 
BRANCH  87  88
ATOM     88  S   UNL A   1      53.622  25.132  25.209  1.00  0.00     0.124 S 
ATOM     89  O   UNL A   1      54.486  25.772  26.197  1.00  0.00    -0.237 OA
ATOM     90  O   UNL A   1      53.425  23.695  25.376  1.00  0.00    -0.237 OA
ATOM     91  O   UNL A   1      53.806  25.577  23.831  1.00  0.00    -0.744 OA
ENDBRANCH  87  88
ENDBRANCH  55  80
ENDBRANCH  29  30
ENDBRANCH  21  24
ENDBRANCH  19  20
ENDBRANCH   1  19
TORSDOF 15
ENDMDL
MODEL 3
REMARK VINA RESULT:     -10.2      3.082      4.317
REMARK SMILES CC(C)(C)C(=O)N1CCCC[C@@H]1C(=O)NCCCNC(=O)c1ccc(-c2c3nc(c(-c4c(F)cc(S(=O)(=O)[O-])cc4F)c4ccc([nH]4)c(-c4c(F)cc(S(=O)(=O)[O-])cc4F)c4nc(c(-c5c(F)cc(S(=O)(=O)[O-])cc5F)c5ccc2[nH]5)C=C4)C=C3)cc1
REMARK SMILES IDX 17 1 16 2 15 3 13 4 14 5 12 7 7 8 8 9 9 10 11 11 10 12 5 13
REMARK SMILES IDX 6 14 2 15 1 16 3 17 4 18 18 19 19 20 20 21 21 23 22 24 23 25
REMARK SMILES IDX 87 26 24 27 86 28 25 29 26 30 27 31 80 32 28 33 85 34 79 35
REMARK SMILES IDX 81 36 29 37 84 38 78 39 77 40 30 42 64 43 43 44 63 45 44 46
REMARK SMILES IDX 47 47 62 48 82 49 45 50 46 51 61 53 83 54 48 55 31 56 32 57
REMARK SMILES IDX 41 58 33 59 34 60 40 61 42 62 35 63 36 64 37 65 38 66 39 67
REMARK SMILES IDX 65 68 66 69 75 70 67 71 68 72 74 73 76 74 69 75 70 76 71 77
REMARK SMILES IDX 72 78 73 79 49 80 50 81 59 82 51 83 52 84 58 85 60 86 53 87
REMARK SMILES IDX 54 88 55 89 56 90 57 91
REMARK H PARENT 15 6 19 22 81 41 47 52
REMARK Flexibility Score: inf
ROOT
ATOM      1  C   UNL A   1      37.600  23.191  25.651  1.00  0.00     0.042 C 
ENDROOT
BRANCH   1   2
ATOM      2  C   UNL A   1      36.130  23.564  25.778  1.00  0.00     0.117 C 
BRANCH   2   3
ATOM      3  N   UNL A   1      35.471  22.734  26.775  1.00  0.00    -0.354 N 
ATOM      4  C   UNL A   1      34.550  21.745  26.624  1.00  0.00     0.242 C 
ATOM      5  O   UNL A   1      33.903  21.418  27.625  1.00  0.00    -0.273 OA
ATOM      6  H   UNL A   1      35.734  22.919  27.705  1.00  0.00     0.163 HD
BRANCH   4   7
ATOM      7  C   UNL A   1      34.220  21.132  25.247  1.00  0.00     0.174 C 
ATOM      8  N   UNL A   1      32.802  21.241  24.839  1.00  0.00    -0.330 N 
ATOM      9  C   UNL A   1      32.310  20.271  23.860  1.00  0.00     0.120 C 
ATOM     10  C   UNL A   1      32.707  18.838  24.161  1.00  0.00     0.022 C 
ATOM     11  C   UNL A   1      34.705  19.665  25.380  1.00  0.00     0.035 C 
ATOM     12  C   UNL A   1      34.217  18.736  24.282  1.00  0.00     0.004 C 
BRANCH   8  13
ATOM     13  C   UNL A   1      31.970  22.340  25.028  1.00  0.00     0.228 C 
ATOM     14  O   UNL A   1      30.969  22.184  25.743  1.00  0.00    -0.274 OA
BRANCH  13  15
ATOM     15  C   UNL A   1      32.107  23.653  24.203  1.00  0.00     0.041 C 
ATOM     16  C   UNL A   1      33.218  23.423  23.147  1.00  0.00     0.021 C 
ATOM     17  C   UNL A   1      32.576  24.751  25.170  1.00  0.00     0.021 C 
ATOM     18  C   UNL A   1      30.892  24.162  23.433  1.00  0.00     0.021 C 
ENDBRANCH  13  15
ENDBRANCH   8  13
ENDBRANCH   4   7
ENDBRANCH   2   3
ENDBRANCH   1   2
BRANCH   1  19
ATOM     19  C   UNL A   1      38.525  24.084  26.463  1.00  0.00     0.118 C 
BRANCH  19  20
ATOM     20  N   UNL A   1      39.927  23.902  26.117  1.00  0.00    -0.352 N 
ATOM     21  C   UNL A   1      41.002  24.680  26.479  1.00  0.00     0.251 C 
ATOM     22  H   UNL A   1      40.132  23.122  25.551  1.00  0.00     0.163 HD
ATOM     23  O   UNL A   1      42.102  24.495  25.978  1.00  0.00    -0.269 OA
BRANCH  21  24
ATOM     24  C   UNL A   1      40.795  25.762  27.464  1.00  0.00     0.039 A 
ATOM     25  C   UNL A   1      39.814  25.611  28.445  1.00  0.00     0.014 A 
ATOM     26  C   UNL A   1      41.607  26.900  27.440  1.00  0.00     0.014 A 
ATOM     27  C   UNL A   1      39.690  26.577  29.446  1.00  0.00     0.010 A 
ATOM     28  C   UNL A   1      41.535  27.817  28.481  1.00  0.00     0.010 A 
ATOM     29  C   UNL A   1      40.571  27.669  29.490  1.00  0.00    -0.014 A 
BRANCH  29  30
ATOM     30  C   UNL A   1      40.496  28.691  30.564  1.00  0.00     0.031 A 
ATOM     31  C   UNL A   1      41.380  28.559  31.773  1.00  0.00     0.074 A 
ATOM     32  C   UNL A   1      39.582  29.679  30.493  1.00  0.00     0.049 A 
ATOM     33  N   UNL A   1      41.381  29.258  32.878  1.00  0.00    -0.248 NA
ATOM     34  C   UNL A   1      42.376  27.474  31.748  1.00  0.00     0.031 C 
ATOM     35  C   UNL A   1      38.640  29.887  29.390  1.00  0.00     0.029 A 
ATOM     36  N   UNL A   1      39.281  30.684  31.378  1.00  0.00    -0.354 N 
ATOM     37  C   UNL A   1      42.353  28.682  33.688  1.00  0.00     0.074 A 
ATOM     38  C   UNL A   1      42.887  27.547  32.968  1.00  0.00     0.031 C 
ATOM     39  C   UNL A   1      37.878  30.959  29.658  1.00  0.00     0.029 A 
ATOM     40  C   UNL A   1      38.245  31.490  30.969  1.00  0.00     0.049 A 
ATOM     41  H   UNL A   1      39.761  30.816  32.227  1.00  0.00     0.167 HD
ATOM     42  C   UNL A   1      42.777  29.077  34.911  1.00  0.00     0.037 A 
ATOM     43  C   UNL A   1      37.648  32.529  31.586  1.00  0.00     0.037 A 
ATOM     44  C   UNL A   1      42.266  30.231  35.604  1.00  0.00     0.049 A 
ATOM     45  C   UNL A   1      38.142  32.956  32.943  1.00  0.00     0.074 A 
ATOM     46  C   UNL A   1      42.667  30.750  36.821  1.00  0.00     0.029 A 
ATOM     47  N   UNL A   1      41.245  31.044  35.136  1.00  0.00    -0.354 N 
ATOM     48  N   UNL A   1      39.096  32.431  33.673  1.00  0.00    -0.248 NA
ATOM     49  C   UNL A   1      37.483  34.117  33.556  1.00  0.00     0.031 C 
ATOM     50  C   UNL A   1      41.862  31.857  37.108  1.00  0.00     0.029 A 
ATOM     51  C   UNL A   1      40.993  32.056  36.048  1.00  0.00     0.049 A 
ATOM     52  H   UNL A   1      40.769  30.922  34.283  1.00  0.00     0.167 HD
ATOM     53  C   UNL A   1      39.176  33.217  34.818  1.00  0.00     0.074 A 
ATOM     54  C   UNL A   1      38.175  34.256  34.681  1.00  0.00     0.031 C 
ATOM     55  C   UNL A   1      40.005  33.094  35.883  1.00  0.00     0.037 A 
BRANCH  42  56
ATOM     56  C   UNL A   1      43.850  28.259  35.575  1.00  0.00     0.058 A 
ATOM     57  C   UNL A   1      43.539  27.216  36.462  1.00  0.00     0.135 A 
ATOM     58  C   UNL A   1      45.206  28.504  35.302  1.00  0.00     0.135 A 
ATOM     59  F   UNL A   1      42.260  26.950  36.772  1.00  0.00    -0.206 F 
ATOM     60  C   UNL A   1      44.534  26.467  37.080  1.00  0.00     0.059 A 
ATOM     61  C   UNL A   1      46.218  27.747  35.887  1.00  0.00     0.059 A 
ATOM     62  F   UNL A   1      45.559  29.490  34.463  1.00  0.00    -0.206 F 
ATOM     63  C   UNL A   1      45.872  26.741  36.787  1.00  0.00     0.060 A 
BRANCH  63  64
ATOM     64  S   UNL A   1      47.150  25.757  37.596  1.00  0.00     0.124 S 
ATOM     65  O   UNL A   1      47.735  26.734  38.509  1.00  0.00    -0.237 OA
ATOM     66  O   UNL A   1      46.375  24.690  38.222  1.00  0.00    -0.237 OA
ATOM     67  O   UNL A   1      48.007  25.338  36.491  1.00  0.00    -0.744 OA
ENDBRANCH  63  64
ENDBRANCH  42  56
BRANCH  43  68
ATOM     68  C   UNL A   1      36.532  33.251  30.917  1.00  0.00     0.058 A 
ATOM     69  C   UNL A   1      35.210  33.100  31.359  1.00  0.00     0.135 A 
ATOM     70  C   UNL A   1      36.765  34.114  29.836  1.00  0.00     0.135 A 
ATOM     71  F   UNL A   1      34.936  32.280  32.386  1.00  0.00    -0.206 F 
ATOM     72  C   UNL A   1      34.154  33.765  30.744  1.00  0.00     0.059 A 
ATOM     73  C   UNL A   1      35.728  34.809  29.219  1.00  0.00     0.059 A 
ATOM     74  F   UNL A   1      38.014  34.307  29.385  1.00  0.00    -0.206 F 
ATOM     75  C   UNL A   1      34.424  34.620  29.675  1.00  0.00     0.060 A 
BRANCH  75  76
ATOM     76  S   UNL A   1      33.053  35.515  28.913  1.00  0.00     0.124 S 
ATOM     77  O   UNL A   1      32.414  34.465  28.131  1.00  0.00    -0.237 OA
ATOM     78  O   UNL A   1      32.311  35.988  30.078  1.00  0.00    -0.237 OA
ATOM     79  O   UNL A   1      33.722  36.560  28.142  1.00  0.00    -0.744 OA
ENDBRANCH  75  76
ENDBRANCH  43  68
BRANCH  55  80
ATOM     80  C   UNL A   1      39.908  34.130  36.966  1.00  0.00     0.058 A 
ATOM     81  C   UNL A   1      40.542  35.377  36.856  1.00  0.00     0.135 A 
ATOM     82  C   UNL A   1      39.101  33.900  38.093  1.00  0.00     0.135 A 
ATOM     83  F   UNL A   1      41.329  35.644  35.802  1.00  0.00    -0.206 F 
ATOM     84  C   UNL A   1      40.389  36.356  37.833  1.00  0.00     0.059 A 
ATOM     85  C   UNL A   1      38.914  34.873  39.068  1.00  0.00     0.059 A 
ATOM     86  F   UNL A   1      38.465  32.727  38.240  1.00  0.00    -0.206 F 
ATOM     87  C   UNL A   1      39.568  36.097  38.932  1.00  0.00     0.060 A 
BRANCH  87  88
ATOM     88  S   UNL A   1      39.334  37.397  40.162  1.00  0.00     0.124 S 
ATOM     89  O   UNL A   1      40.703  37.857  40.369  1.00  0.00    -0.237 OA
ATOM     90  O   UNL A   1      38.450  38.329  39.469  1.00  0.00    -0.237 OA
ATOM     91  O   UNL A   1      38.731  36.693  41.290  1.00  0.00    -0.744 OA
ENDBRANCH  87  88
ENDBRANCH  55  80
ENDBRANCH  29  30
ENDBRANCH  21  24
ENDBRANCH  19  20
ENDBRANCH   1  19
TORSDOF 15
ENDMDL
