MODEL 1
REMARK VINA RESULT:     -11.8      0.000      0.000
REMARK SMILES O=C(NCCCNC(=O)C1([C@@H]2CCCC[C@H]2O)CCOCC1)c1ccc(-c2c3nc(c(-c4c(F)cc(S(=O)(=O)[O-])cc4F)c4ccc([nH]4)c(-c4c(F)cc(S(=O)(=O)[O-])cc4F)c4nc(c(-c5c(F)cc(S(=O)(=O)[O-])cc5F)c5ccc2[nH]5)C=C4)C=C3)cc1
REMARK SMILES IDX 4 1 3 2 1 3 2 4 23 6 24 7 88 8 25 9 87 10 26 11 27 12 28 13
REMARK SMILES IDX 81 14 29 15 86 16 80 17 82 18 30 19 85 20 79 21 78 22 31 24
REMARK SMILES IDX 65 25 44 26 64 27 45 28 48 29 63 30 83 31 46 32 47 33 62 35
REMARK SMILES IDX 84 36 49 37 32 38 33 39 42 40 34 41 35 42 41 43 43 44 36 45
REMARK SMILES IDX 37 46 38 47 39 48 40 49 66 50 67 51 76 52 68 53 69 54 75 55
REMARK SMILES IDX 77 56 70 57 71 58 72 59 73 60 74 61 50 62 51 63 60 64 52 65
REMARK SMILES IDX 53 66 59 67 61 68 54 69 55 70 56 71 57 72 58 73 5 74 6 75
REMARK SMILES IDX 7 76 8 77 9 79 10 80 18 81 22 82 19 83 21 84 20 85 11 86
REMARK SMILES IDX 12 87 16 88 13 89 15 90 14 91 17 92
REMARK H PARENT 3 5 82 23 48 34 7 78 17 93
REMARK Flexibility Score: inf
ROOT
ATOM      1  C   UNL A   1      38.371  24.199  26.489  1.00  0.00     0.118 C 
ENDROOT
BRANCH   1   2
ATOM      2  N   UNL A   1      39.774  24.042  26.132  1.00  0.00    -0.352 N 
ATOM      3  O   UNL A   1      41.956  24.558  25.973  1.00  0.00    -0.269 OA
ATOM      4  C   UNL A   1      40.890  24.731  26.553  1.00  0.00     0.251 C 
ATOM      5  H   UNL A   1      39.955  23.325  25.483  1.00  0.00     0.163 HD
BRANCH   4   6
ATOM      6  C   UNL A   1      40.802  25.693  27.675  1.00  0.00     0.039 A 
ATOM      7  C   UNL A   1      39.798  25.583  28.634  1.00  0.00     0.014 A 
ATOM      8  C   UNL A   1      41.760  26.706  27.789  1.00  0.00     0.014 A 
ATOM      9  C   UNL A   1      39.629  26.582  29.582  1.00  0.00     0.010 A 
ATOM     10  C   UNL A   1      41.665  27.642  28.826  1.00  0.00     0.010 A 
ATOM     11  C   UNL A   1      40.578  27.608  29.712  1.00  0.00    -0.014 A 
BRANCH  11  12
ATOM     12  C   UNL A   1      40.443  28.573  30.836  1.00  0.00     0.031 A 
ATOM     13  C   UNL A   1      41.352  28.513  32.032  1.00  0.00     0.074 A 
ATOM     14  C   UNL A   1      39.510  29.542  30.739  1.00  0.00     0.049 A 
ATOM     15  N   UNL A   1      41.372  29.288  33.087  1.00  0.00    -0.248 NA
ATOM     16  C   UNL A   1      42.363  27.444  32.058  1.00  0.00     0.031 C 
ATOM     17  C   UNL A   1      38.567  29.695  29.625  1.00  0.00     0.029 A 
ATOM     18  N   UNL A   1      39.213  30.594  31.565  1.00  0.00    -0.354 N 
ATOM     19  C   UNL A   1      42.379  28.795  33.909  1.00  0.00     0.074 A 
ATOM     20  C   UNL A   1      42.932  27.634  33.242  1.00  0.00     0.031 C 
ATOM     21  C   UNL A   1      37.847  30.809  29.805  1.00  0.00     0.029 A 
ATOM     22  C   UNL A   1      38.213  31.406  31.082  1.00  0.00     0.049 A 
ATOM     23  H   UNL A   1      39.672  30.755  32.422  1.00  0.00     0.167 HD
ATOM     24  C   UNL A   1      42.804  29.271  35.104  1.00  0.00     0.037 A 
ATOM     25  C   UNL A   1      37.634  32.497  31.616  1.00  0.00     0.037 A 
ATOM     26  C   UNL A   1      42.254  30.435  35.751  1.00  0.00     0.049 A 
ATOM     27  C   UNL A   1      38.104  32.984  32.954  1.00  0.00     0.074 A 
ATOM     28  C   UNL A   1      42.627  31.010  36.954  1.00  0.00     0.029 A 
ATOM     29  N   UNL A   1      41.213  31.206  35.250  1.00  0.00    -0.354 N 
ATOM     30  N   UNL A   1      39.061  32.506  33.712  1.00  0.00    -0.248 NA
ATOM     31  C   UNL A   1      37.410  34.149  33.516  1.00  0.00     0.031 C 
ATOM     32  C   UNL A   1      41.784  32.099  37.201  1.00  0.00     0.029 A 
ATOM     33  C   UNL A   1      40.918  32.236  36.128  1.00  0.00     0.049 A 
ATOM     34  H   UNL A   1      40.750  31.043  34.395  1.00  0.00     0.167 HD
ATOM     35  C   UNL A   1      39.096  33.321  34.836  1.00  0.00     0.074 A 
ATOM     36  C   UNL A   1      38.076  34.333  34.649  1.00  0.00     0.031 C 
ATOM     37  C   UNL A   1      39.898  33.236  35.926  1.00  0.00     0.037 A 
BRANCH  24  38
ATOM     38  C   UNL A   1      43.909  28.526  35.805  1.00  0.00     0.058 A 
ATOM     39  C   UNL A   1      45.260  28.858  35.619  1.00  0.00     0.135 A 
ATOM     40  C   UNL A   1      43.610  27.497  36.714  1.00  0.00     0.135 A 
ATOM     41  F   UNL A   1      45.606  29.823  34.752  1.00  0.00    -0.206 F 
ATOM     42  C   UNL A   1      46.276  28.183  36.290  1.00  0.00     0.059 A 
ATOM     43  C   UNL A   1      44.607  26.825  37.416  1.00  0.00     0.059 A 
ATOM     44  F   UNL A   1      42.335  27.138  36.932  1.00  0.00    -0.206 F 
ATOM     45  C   UNL A   1      45.940  27.167  37.187  1.00  0.00     0.060 A 
BRANCH  45  46
ATOM     46  S   UNL A   1      47.269  26.304  38.053  1.00  0.00     0.124 S 
ATOM     47  O   UNL A   1      47.653  25.298  37.067  1.00  0.00    -0.237 OA
ATOM     48  O   UNL A   1      48.239  27.370  38.279  1.00  0.00    -0.237 OA
ATOM     49  O   UNL A   1      46.617  25.789  39.253  1.00  0.00    -0.744 OA
ENDBRANCH  45  46
ENDBRANCH  24  38
BRANCH  25  50
ATOM     50  C   UNL A   1      36.540  33.185  30.881  1.00  0.00     0.058 A 
ATOM     51  C   UNL A   1      35.203  33.048  31.280  1.00  0.00     0.135 A 
ATOM     52  C   UNL A   1      36.814  34.023  29.789  1.00  0.00     0.135 A 
ATOM     53  F   UNL A   1      34.889  32.255  32.316  1.00  0.00    -0.206 F 
ATOM     54  C   UNL A   1      34.174  33.709  30.617  1.00  0.00     0.059 A 
ATOM     55  C   UNL A   1      35.807  34.718  29.129  1.00  0.00     0.059 A 
ATOM     56  F   UNL A   1      38.080  34.202  29.380  1.00  0.00    -0.206 F 
ATOM     57  C   UNL A   1      34.488  34.546  29.544  1.00  0.00     0.060 A 
BRANCH  57  58
ATOM     58  S   UNL A   1      33.153  35.444  28.725  1.00  0.00     0.124 S 
ATOM     59  O   UNL A   1      32.426  35.989  29.865  1.00  0.00    -0.237 OA
ATOM     60  O   UNL A   1      33.886  36.411  27.914  1.00  0.00    -0.237 OA
ATOM     61  O   UNL A   1      32.461  34.402  27.972  1.00  0.00    -0.744 OA
ENDBRANCH  57  58
ENDBRANCH  25  50
BRANCH  37  62
ATOM     62  C   UNL A   1      39.721  34.285  36.987  1.00  0.00     0.058 A 
ATOM     63  C   UNL A   1      38.939  34.052  38.129  1.00  0.00     0.135 A 
ATOM     64  C   UNL A   1      40.370  35.524  36.875  1.00  0.00     0.135 A 
ATOM     65  F   UNL A   1      38.290  32.886  38.277  1.00  0.00    -0.206 F 
ATOM     66  C   UNL A   1      38.787  35.022  39.113  1.00  0.00     0.059 A 
ATOM     67  C   UNL A   1      40.254  36.499  37.861  1.00  0.00     0.059 A 
ATOM     68  F   UNL A   1      41.135  35.794  35.805  1.00  0.00    -0.206 F 
ATOM     69  C   UNL A   1      39.450  36.242  38.971  1.00  0.00     0.060 A 
BRANCH  69  70
ATOM     70  S   UNL A   1      39.270  37.482  40.270  1.00  0.00     0.124 S 
ATOM     71  O   UNL A   1      40.640  37.968  40.403  1.00  0.00    -0.237 OA
ATOM     72  O   UNL A   1      38.320  38.419  39.680  1.00  0.00    -0.237 OA
ATOM     73  O   UNL A   1      38.763  36.715  41.405  1.00  0.00    -0.744 OA
ENDBRANCH  69  70
ENDBRANCH  37  62
ENDBRANCH  11  12
ENDBRANCH   4   6
ENDBRANCH   1   2
BRANCH   1  74
ATOM     74  C   UNL A   1      37.439  23.374  25.614  1.00  0.00     0.042 C 
BRANCH  74  75
ATOM     75  C   UNL A   1      35.970  23.751  25.739  1.00  0.00     0.117 C 
BRANCH  75  76
ATOM     76  N   UNL A   1      35.353  24.008  24.443  1.00  0.00    -0.356 N 
ATOM     77  C   UNL A   1      34.299  23.493  23.766  1.00  0.00     0.226 C 
ATOM     78  H   UNL A   1      35.810  24.723  23.944  1.00  0.00     0.163 HD
ATOM     79  O   UNL A   1      34.217  23.899  22.606  1.00  0.00    -0.274 OA
BRANCH  77  80
ATOM     80  C   UNL A   1      33.329  22.439  24.336  1.00  0.00     0.059 C 
ATOM     81  C   UNL A   1      34.062  21.538  25.386  1.00  0.00     0.046 C 
ATOM     82  C   UNL A   1      32.888  21.567  23.122  1.00  0.00     0.046 C 
ATOM     83  C   UNL A   1      33.407  20.177  25.592  1.00  0.00     0.161 C 
ATOM     84  C   UNL A   1      32.248  20.254  23.537  1.00  0.00     0.161 C 
ATOM     85  O   UNL A   1      33.153  19.523  24.357  1.00  0.00    -0.381 OA
BRANCH  80  86
ATOM     86  C   UNL A   1      32.051  23.080  25.081  1.00  0.00     0.033 C 
ATOM     87  C   UNL A   1      30.962  23.782  24.232  1.00  0.00     0.007 C 
ATOM     88  C   UNL A   1      32.336  23.927  26.357  1.00  0.00     0.118 C 
ATOM     89  C   UNL A   1      31.167  25.271  23.984  1.00  0.00     0.001 C 
ATOM     90  C   UNL A   1      32.523  25.428  26.145  1.00  0.00     0.032 C 
ATOM     91  C   UNL A   1      31.448  26.052  25.262  1.00  0.00     0.003 C 
BRANCH  88  92
ATOM     92  O   UNL A   1      31.204  23.792  27.239  1.00  0.00    -0.393 OA
ATOM     93  H   UNL A   1      30.532  24.453  27.007  1.00  0.00     0.210 HD
ENDBRANCH  88  92
ENDBRANCH  80  86
ENDBRANCH  77  80
ENDBRANCH  75  76
ENDBRANCH  74  75
ENDBRANCH   1  74
TORSDOF 15
ENDMDL
MODEL 2
REMARK VINA RESULT:     -11.8      6.826     12.236
REMARK SMILES O=C(NCCCNC(=O)C1([C@@H]2CCCC[C@H]2O)CCOCC1)c1ccc(-c2c3nc(c(-c4c(F)cc(S(=O)(=O)[O-])cc4F)c4ccc([nH]4)c(-c4c(F)cc(S(=O)(=O)[O-])cc4F)c4nc(c(-c5c(F)cc(S(=O)(=O)[O-])cc5F)c5ccc2[nH]5)C=C4)C=C3)cc1
REMARK SMILES IDX 4 1 3 2 1 3 2 4 23 6 24 7 88 8 25 9 87 10 26 11 27 12 28 13
REMARK SMILES IDX 81 14 29 15 86 16 80 17 82 18 30 19 85 20 79 21 78 22 31 24
REMARK SMILES IDX 65 25 44 26 64 27 45 28 48 29 63 30 83 31 46 32 47 33 62 35
REMARK SMILES IDX 84 36 49 37 32 38 33 39 42 40 34 41 35 42 41 43 43 44 36 45
REMARK SMILES IDX 37 46 38 47 39 48 40 49 66 50 67 51 76 52 68 53 69 54 75 55
REMARK SMILES IDX 77 56 70 57 71 58 72 59 73 60 74 61 50 62 51 63 60 64 52 65
REMARK SMILES IDX 53 66 59 67 61 68 54 69 55 70 56 71 57 72 58 73 5 74 6 75
REMARK SMILES IDX 7 76 8 77 9 79 10 80 18 81 22 82 19 83 21 84 20 85 11 86
REMARK SMILES IDX 12 87 16 88 13 89 15 90 14 91 17 92
REMARK H PARENT 3 5 82 23 48 34 7 78 17 93
REMARK Flexibility Score: inf
ROOT
ATOM      1  C   UNL A   1      35.206  29.368  27.702  1.00  0.00     0.118 C 
ENDROOT
BRANCH   1   2
ATOM      2  N   UNL A   1      35.217  30.098  28.962  1.00  0.00    -0.352 N 
ATOM      3  O   UNL A   1      35.980  30.816  30.950  1.00  0.00    -0.269 OA
ATOM      4  C   UNL A   1      36.240  30.341  29.850  1.00  0.00     0.251 C 
ATOM      5  H   UNL A   1      34.349  30.483  29.221  1.00  0.00     0.163 HD
BRANCH   4   6
ATOM      6  C   UNL A   1      37.638  30.005  29.498  1.00  0.00     0.039 A 
ATOM      7  C   UNL A   1      38.084  30.091  28.181  1.00  0.00     0.014 A 
ATOM      8  C   UNL A   1      38.530  29.627  30.507  1.00  0.00     0.014 A 
ATOM      9  C   UNL A   1      39.344  29.618  27.841  1.00  0.00     0.010 A 
ATOM     10  C   UNL A   1      39.845  29.272  30.180  1.00  0.00     0.010 A 
ATOM     11  C   UNL A   1      40.253  29.232  28.838  1.00  0.00    -0.014 A 
BRANCH  11  12
ATOM     12  C   UNL A   1      41.642  28.876  28.444  1.00  0.00     0.031 A 
ATOM     13  C   UNL A   1      42.753  29.889  28.487  1.00  0.00     0.074 A 
ATOM     14  C   UNL A   1      41.899  27.601  28.087  1.00  0.00     0.049 A 
ATOM     15  N   UNL A   1      44.017  29.734  28.189  1.00  0.00    -0.248 NA
ATOM     16  C   UNL A   1      42.403  31.255  28.910  1.00  0.00     0.031 C 
ATOM     17  C   UNL A   1      40.898  26.532  28.004  1.00  0.00     0.029 A 
ATOM     18  N   UNL A   1      43.073  26.976  27.757  1.00  0.00    -0.354 N 
ATOM     19  C   UNL A   1      44.611  30.978  28.367  1.00  0.00     0.074 A 
ATOM     20  C   UNL A   1      43.561  31.888  28.776  1.00  0.00     0.031 C 
ATOM     21  C   UNL A   1      41.508  25.376  27.712  1.00  0.00     0.029 A 
ATOM     22  C   UNL A   1      42.927  25.631  27.504  1.00  0.00     0.049 A 
ATOM     23  H   UNL A   1      43.938  27.444  27.704  1.00  0.00     0.167 HD
ATOM     24  C   UNL A   1      45.912  31.324  28.211  1.00  0.00     0.037 A 
ATOM     25  C   UNL A   1      43.828  24.707  27.124  1.00  0.00     0.037 A 
ATOM     26  C   UNL A   1      46.950  30.405  27.816  1.00  0.00     0.049 A 
ATOM     27  C   UNL A   1      45.255  25.125  26.929  1.00  0.00     0.074 A 
ATOM     28  C   UNL A   1      48.301  30.653  27.647  1.00  0.00     0.029 A 
ATOM     29  N   UNL A   1      46.754  29.060  27.528  1.00  0.00    -0.354 N 
ATOM     30  N   UNL A   1      45.797  26.305  27.109  1.00  0.00    -0.248 NA
ATOM     31  C   UNL A   1      46.190  24.092  26.468  1.00  0.00     0.031 C 
ATOM     32  C   UNL A   1      48.915  29.471  27.214  1.00  0.00     0.029 A 
ATOM     33  C   UNL A   1      47.955  28.472  27.163  1.00  0.00     0.049 A 
ATOM     34  H   UNL A   1      45.889  28.593  27.576  1.00  0.00     0.167 HD
ATOM     35  C   UNL A   1      47.142  26.155  26.798  1.00  0.00     0.074 A 
ATOM     36  C   UNL A   1      47.333  24.764  26.436  1.00  0.00     0.031 C 
ATOM     37  C   UNL A   1      48.128  27.085  26.807  1.00  0.00     0.037 A 
BRANCH  24  38
ATOM     38  C   UNL A   1      46.291  32.762  28.449  1.00  0.00     0.058 A 
ATOM     39  C   UNL A   1      46.728  33.214  29.703  1.00  0.00     0.135 A 
ATOM     40  C   UNL A   1      46.264  33.689  27.394  1.00  0.00     0.135 A 
ATOM     41  F   UNL A   1      46.760  32.375  30.752  1.00  0.00    -0.206 F 
ATOM     42  C   UNL A   1      47.101  34.540  29.911  1.00  0.00     0.059 A 
ATOM     43  C   UNL A   1      46.658  35.013  27.571  1.00  0.00     0.059 A 
ATOM     44  F   UNL A   1      45.857  33.312  26.172  1.00  0.00    -0.206 F 
ATOM     45  C   UNL A   1      47.063  35.432  28.838  1.00  0.00     0.060 A 
BRANCH  45  46
ATOM     46  S   UNL A   1      47.556  37.146  29.123  1.00  0.00     0.124 S 
ATOM     47  O   UNL A   1      47.626  37.658  27.757  1.00  0.00    -0.237 OA
ATOM     48  O   UNL A   1      46.456  37.658  29.934  1.00  0.00    -0.237 OA
ATOM     49  O   UNL A   1      48.836  37.023  29.813  1.00  0.00    -0.744 OA
ENDBRANCH  45  46
ENDBRANCH  24  38
BRANCH  25  50
ATOM     50  C   UNL A   1      43.392  23.304  26.894  1.00  0.00     0.058 A 
ATOM     51  C   UNL A   1      43.278  22.786  25.597  1.00  0.00     0.135 A 
ATOM     52  C   UNL A   1      43.118  22.444  27.969  1.00  0.00     0.135 A 
ATOM     53  F   UNL A   1      43.526  23.570  24.536  1.00  0.00    -0.206 F 
ATOM     54  C   UNL A   1      42.899  21.467  25.371  1.00  0.00     0.059 A 
ATOM     55  C   UNL A   1      42.766  21.114  27.771  1.00  0.00     0.059 A 
ATOM     56  F   UNL A   1      43.231  22.888  29.231  1.00  0.00    -0.206 F 
ATOM     57  C   UNL A   1      42.648  20.637  26.466  1.00  0.00     0.060 A 
BRANCH  57  58
ATOM     58  S   UNL A   1      42.211  18.911  26.166  1.00  0.00     0.124 S 
ATOM     59  O   UNL A   1      40.814  19.030  25.767  1.00  0.00    -0.237 OA
ATOM     60  O   UNL A   1      43.147  18.537  25.111  1.00  0.00    -0.237 OA
ATOM     61  O   UNL A   1      42.449  18.276  27.459  1.00  0.00    -0.744 OA
ENDBRANCH  57  58
ENDBRANCH  25  50
BRANCH  37  62
ATOM     62  C   UNL A   1      49.509  26.620  26.441  1.00  0.00     0.058 A 
ATOM     63  C   UNL A   1      50.333  25.963  27.367  1.00  0.00     0.135 A 
ATOM     64  C   UNL A   1      49.998  26.804  25.139  1.00  0.00     0.135 A 
ATOM     65  F   UNL A   1      49.915  25.771  28.628  1.00  0.00    -0.206 F 
ATOM     66  C   UNL A   1      51.606  25.524  27.021  1.00  0.00     0.059 A 
ATOM     67  C   UNL A   1      51.258  26.350  24.762  1.00  0.00     0.059 A 
ATOM     68  F   UNL A   1      49.246  27.422  24.213  1.00  0.00    -0.206 F 
ATOM     69  C   UNL A   1      52.059  25.721  25.715  1.00  0.00     0.060 A 
BRANCH  69  70
ATOM     70  S   UNL A   1      53.702  25.120  25.268  1.00  0.00     0.124 S 
ATOM     71  O   UNL A   1      54.532  25.748  26.291  1.00  0.00    -0.237 OA
ATOM     72  O   UNL A   1      53.546  23.673  25.378  1.00  0.00    -0.237 OA
ATOM     73  O   UNL A   1      53.890  25.623  23.910  1.00  0.00    -0.744 OA
ENDBRANCH  69  70
ENDBRANCH  37  62
ENDBRANCH  11  12
ENDBRANCH   4   6
ENDBRANCH   1   2
BRANCH   1  74
ATOM     74  C   UNL A   1      33.802  29.048  27.212  1.00  0.00     0.042 C 
BRANCH  74  75
ATOM     75  C   UNL A   1      33.751  28.007  26.102  1.00  0.00     0.117 C 
BRANCH  75  76
ATOM     76  N   UNL A   1      32.911  26.868  26.452  1.00  0.00    -0.356 N 
ATOM     77  C   UNL A   1      31.841  26.258  25.888  1.00  0.00     0.226 C 
ATOM     78  H   UNL A   1      33.187  26.442  27.296  1.00  0.00     0.163 HD
ATOM     79  O   UNL A   1      31.327  25.404  26.611  1.00  0.00    -0.274 OA
BRANCH  77  80
ATOM     80  C   UNL A   1      31.252  26.631  24.513  1.00  0.00     0.059 C 
ATOM     81  C   UNL A   1      31.545  28.134  24.186  1.00  0.00     0.046 C 
ATOM     82  C   UNL A   1      29.714  26.419  24.639  1.00  0.00     0.046 C 
ATOM     83  C   UNL A   1      30.582  28.742  23.173  1.00  0.00     0.161 C 
ATOM     84  C   UNL A   1      28.929  27.095  23.529  1.00  0.00     0.161 C 
ATOM     85  O   UNL A   1      29.228  28.487  23.516  1.00  0.00    -0.381 OA
BRANCH  80  86
ATOM     86  C   UNL A   1      31.857  25.761  23.298  1.00  0.00     0.033 C 
ATOM     87  C   UNL A   1      31.452  24.271  23.167  1.00  0.00     0.007 C 
ATOM     88  C   UNL A   1      33.385  25.905  23.025  1.00  0.00     0.118 C 
ATOM     89  C   UNL A   1      32.334  23.273  23.904  1.00  0.00     0.001 C 
ATOM     90  C   UNL A   1      34.295  24.903  23.732  1.00  0.00     0.032 C 
ATOM     91  C   UNL A   1      33.817  23.461  23.609  1.00  0.00     0.003 C 
BRANCH  88  92
ATOM     92  O   UNL A   1      33.602  25.709  21.615  1.00  0.00    -0.393 OA
ATOM     93  H   UNL A   1      33.039  26.319  21.112  1.00  0.00     0.210 HD
ENDBRANCH  88  92
ENDBRANCH  80  86
ENDBRANCH  77  80
ENDBRANCH  75  76
ENDBRANCH  74  75
ENDBRANCH   1  74
TORSDOF 15
ENDMDL
MODEL 3
REMARK VINA RESULT:     -11.8      0.897      2.372
REMARK SMILES O=C(NCCCNC(=O)C1([C@@H]2CCCC[C@H]2O)CCOCC1)c1ccc(-c2c3nc(c(-c4c(F)cc(S(=O)(=O)[O-])cc4F)c4ccc([nH]4)c(-c4c(F)cc(S(=O)(=O)[O-])cc4F)c4nc(c(-c5c(F)cc(S(=O)(=O)[O-])cc5F)c5ccc2[nH]5)C=C4)C=C3)cc1
REMARK SMILES IDX 4 1 3 2 1 3 2 4 23 6 24 7 88 8 25 9 87 10 26 11 27 12 28 13
REMARK SMILES IDX 81 14 29 15 86 16 80 17 82 18 30 19 85 20 79 21 78 22 31 24
REMARK SMILES IDX 65 25 44 26 64 27 45 28 48 29 63 30 83 31 46 32 47 33 62 35
REMARK SMILES IDX 84 36 49 37 32 38 33 39 42 40 34 41 35 42 41 43 43 44 36 45
REMARK SMILES IDX 37 46 38 47 39 48 40 49 66 50 67 51 76 52 68 53 69 54 75 55
REMARK SMILES IDX 77 56 70 57 71 58 72 59 73 60 74 61 50 62 51 63 60 64 52 65
REMARK SMILES IDX 53 66 59 67 61 68 54 69 55 70 56 71 57 72 58 73 5 74 6 75
REMARK SMILES IDX 7 76 8 77 9 79 10 80 18 81 22 82 19 83 21 84 20 85 11 86
REMARK SMILES IDX 12 87 16 88 13 89 15 90 14 91 17 92
REMARK H PARENT 3 5 82 23 48 34 7 78 17 93
REMARK Flexibility Score: inf
ROOT
ATOM      1  C   UNL A   1      38.148  24.083  26.466  1.00  0.00     0.118 C 
ENDROOT
BRANCH   1   2
ATOM      2  N   UNL A   1      39.556  23.975  26.112  1.00  0.00    -0.352 N 
ATOM      3  O   UNL A   1      41.716  24.574  25.937  1.00  0.00    -0.269 OA
ATOM      4  C   UNL A   1      40.644  24.717  26.515  1.00  0.00     0.251 C 
ATOM      5  H   UNL A   1      39.765  23.251  25.479  1.00  0.00     0.163 HD
BRANCH   4   6
ATOM      6  C   UNL A   1      40.518  25.700  27.614  1.00  0.00     0.039 A 
ATOM      7  C   UNL A   1      41.355  26.812  27.679  1.00  0.00     0.014 A 
ATOM      8  C   UNL A   1      39.522  25.526  28.582  1.00  0.00     0.014 A 
ATOM      9  C   UNL A   1      41.335  27.633  28.798  1.00  0.00     0.010 A 
ATOM     10  C   UNL A   1      39.417  26.431  29.645  1.00  0.00     0.010 A 
ATOM     11  C   UNL A   1      40.345  27.474  29.781  1.00  0.00    -0.014 A 
BRANCH  11  12
ATOM     12  C   UNL A   1      40.264  28.467  30.885  1.00  0.00     0.031 A 
ATOM     13  C   UNL A   1      41.201  28.410  32.060  1.00  0.00     0.074 A 
ATOM     14  C   UNL A   1      39.354  29.458  30.789  1.00  0.00     0.049 A 
ATOM     15  N   UNL A   1      41.268  29.208  33.095  1.00  0.00    -0.248 NA
ATOM     16  C   UNL A   1      42.184  27.316  32.085  1.00  0.00     0.031 C 
ATOM     17  C   UNL A   1      38.388  29.610  29.695  1.00  0.00     0.029 A 
ATOM     18  N   UNL A   1      39.105  30.536  31.597  1.00  0.00    -0.354 N 
ATOM     19  C   UNL A   1      42.281  28.707  33.903  1.00  0.00     0.074 A 
ATOM     20  C   UNL A   1      42.787  27.517  33.250  1.00  0.00     0.031 C 
ATOM     21  C   UNL A   1      37.701  30.747  29.866  1.00  0.00     0.029 A 
ATOM     22  C   UNL A   1      38.114  31.363  31.120  1.00  0.00     0.049 A 
ATOM     23  H   UNL A   1      39.589  30.704  32.438  1.00  0.00     0.167 HD
ATOM     24  C   UNL A   1      42.749  29.199  35.076  1.00  0.00     0.037 A 
ATOM     25  C   UNL A   1      37.577  32.481  31.642  1.00  0.00     0.037 A 
ATOM     26  C   UNL A   1      42.246  30.392  35.709  1.00  0.00     0.049 A 
ATOM     27  C   UNL A   1      38.094  32.985  32.957  1.00  0.00     0.074 A 
ATOM     28  C   UNL A   1      42.664  30.984  36.888  1.00  0.00     0.029 A 
ATOM     29  N   UNL A   1      41.212  31.178  35.216  1.00  0.00    -0.354 N 
ATOM     30  N   UNL A   1      39.057  32.500  33.702  1.00  0.00    -0.248 NA
ATOM     31  C   UNL A   1      37.445  34.181  33.508  1.00  0.00     0.031 C 
ATOM     32  C   UNL A   1      41.856  32.100  37.131  1.00  0.00     0.029 A 
ATOM     33  C   UNL A   1      40.966  32.236  36.077  1.00  0.00     0.049 A 
ATOM     34  H   UNL A   1      40.725  31.009  34.377  1.00  0.00     0.167 HD
ATOM     35  C   UNL A   1      39.141  33.339  34.805  1.00  0.00     0.074 A 
ATOM     36  C   UNL A   1      38.143  34.373  34.620  1.00  0.00     0.031 C 
ATOM     37  C   UNL A   1      39.968  33.257  35.877  1.00  0.00     0.037 A 
BRANCH  24  38
ATOM     38  C   UNL A   1      43.852  28.441  35.767  1.00  0.00     0.058 A 
ATOM     39  C   UNL A   1      45.206  28.741  35.549  1.00  0.00     0.135 A 
ATOM     40  C   UNL A   1      43.549  27.433  36.698  1.00  0.00     0.135 A 
ATOM     41  F   UNL A   1      45.555  29.685  34.660  1.00  0.00    -0.206 F 
ATOM     42  C   UNL A   1      46.220  28.054  36.211  1.00  0.00     0.059 A 
ATOM     43  C   UNL A   1      44.546  26.751  37.390  1.00  0.00     0.059 A 
ATOM     44  F   UNL A   1      42.271  27.105  36.947  1.00  0.00    -0.206 F 
ATOM     45  C   UNL A   1      45.880  27.060  37.130  1.00  0.00     0.060 A 
BRANCH  45  46
ATOM     46  S   UNL A   1      47.208  26.182  37.983  1.00  0.00     0.124 S 
ATOM     47  O   UNL A   1      48.215  27.232  38.111  1.00  0.00    -0.237 OA
ATOM     48  O   UNL A   1      46.563  25.770  39.225  1.00  0.00    -0.237 OA
ATOM     49  O   UNL A   1      47.545  25.098  37.065  1.00  0.00    -0.744 OA
ENDBRANCH  45  46
ENDBRANCH  24  38
BRANCH  25  50
ATOM     50  C   UNL A   1      36.483  33.180  30.919  1.00  0.00     0.058 A 
ATOM     51  C   UNL A   1      35.159  33.118  31.375  1.00  0.00     0.135 A 
ATOM     52  C   UNL A   1      36.747  33.956  29.779  1.00  0.00     0.135 A 
ATOM     53  F   UNL A   1      34.856  32.387  32.458  1.00  0.00    -0.206 F 
ATOM     54  C   UNL A   1      34.132  33.792  30.722  1.00  0.00     0.059 A 
ATOM     55  C   UNL A   1      35.743  34.662  29.126  1.00  0.00     0.059 A 
ATOM     56  F   UNL A   1      38.002  34.063  29.314  1.00  0.00    -0.206 F 
ATOM     57  C   UNL A   1      34.436  34.565  29.599  1.00  0.00     0.060 A 
BRANCH  57  58
ATOM     58  S   UNL A   1      33.107  35.482  28.791  1.00  0.00     0.124 S 
ATOM     59  O   UNL A   1      32.374  36.004  29.938  1.00  0.00    -0.237 OA
ATOM     60  O   UNL A   1      33.845  36.464  28.004  1.00  0.00    -0.237 OA
ATOM     61  O   UNL A   1      32.418  34.456  28.013  1.00  0.00    -0.744 OA
ENDBRANCH  57  58
ENDBRANCH  25  50
BRANCH  37  62
ATOM     62  C   UNL A   1      39.845  34.334  36.917  1.00  0.00     0.058 A 
ATOM     63  C   UNL A   1      40.529  35.554  36.799  1.00  0.00     0.135 A 
ATOM     64  C   UNL A   1      39.006  34.156  38.028  1.00  0.00     0.135 A 
ATOM     65  F   UNL A   1      41.351  35.769  35.760  1.00  0.00    -0.206 F 
ATOM     66  C   UNL A   1      40.403  36.552  37.759  1.00  0.00     0.059 A 
ATOM     67  C   UNL A   1      38.844  35.150  38.987  1.00  0.00     0.059 A 
ATOM     68  F   UNL A   1      38.324  33.009  38.184  1.00  0.00    -0.206 F 
ATOM     69  C   UNL A   1      39.557  36.341  38.848  1.00  0.00     0.060 A 
BRANCH  69  70
ATOM     70  S   UNL A   1      39.378  37.655  40.073  1.00  0.00     0.124 S 
ATOM     71  O   UNL A   1      40.650  38.357  39.939  1.00  0.00    -0.237 OA
ATOM     72  O   UNL A   1      38.204  38.375  39.590  1.00  0.00    -0.237 OA
ATOM     73  O   UNL A   1      39.189  36.930  41.326  1.00  0.00    -0.744 OA
ENDBRANCH  69  70
ENDBRANCH  37  62
ENDBRANCH  11  12
ENDBRANCH   4   6
ENDBRANCH   1   2
BRANCH   1  74
ATOM     74  C   UNL A   1      37.233  23.335  25.508  1.00  0.00     0.042 C 
BRANCH  74  75
ATOM     75  C   UNL A   1      35.941  24.069  25.178  1.00  0.00     0.117 C 
BRANCH  75  76
ATOM     76  N   UNL A   1      34.814  23.584  25.966  1.00  0.00    -0.356 N 
ATOM     77  C   UNL A   1      33.537  23.990  26.161  1.00  0.00     0.226 C 
ATOM     78  H   UNL A   1      35.034  22.770  26.476  1.00  0.00     0.163 HD
ATOM     79  O   UNL A   1      32.956  23.367  27.049  1.00  0.00    -0.274 OA
BRANCH  77  80
ATOM     80  C   UNL A   1      32.874  25.166  25.416  1.00  0.00     0.059 C 
ATOM     81  C   UNL A   1      33.949  26.237  25.027  1.00  0.00     0.046 C 
ATOM     82  C   UNL A   1      31.861  25.789  26.421  1.00  0.00     0.046 C 
ATOM     83  C   UNL A   1      33.374  27.631  24.803  1.00  0.00     0.161 C 
ATOM     84  C   UNL A   1      31.400  27.177  26.015  1.00  0.00     0.161 C 
ATOM     85  O   UNL A   1      32.531  28.031  25.873  1.00  0.00    -0.381 OA
BRANCH  80  86
ATOM     86  C   UNL A   1      32.137  24.727  24.051  1.00  0.00     0.033 C 
ATOM     87  C   UNL A   1      31.152  23.532  24.080  1.00  0.00     0.007 C 
ATOM     88  C   UNL A   1      33.026  24.631  22.774  1.00  0.00     0.118 C 
ATOM     89  C   UNL A   1      31.761  22.160  23.822  1.00  0.00     0.001 C 
ATOM     90  C   UNL A   1      33.632  23.261  22.473  1.00  0.00     0.032 C 
ATOM     91  C   UNL A   1      32.624  22.121  22.567  1.00  0.00     0.003 C 
BRANCH  88  92
ATOM     92  O   UNL A   1      32.202  24.955  21.637  1.00  0.00    -0.393 OA
ATOM     93  H   UNL A   1      32.127  25.920  21.556  1.00  0.00     0.210 HD
ENDBRANCH  88  92
ENDBRANCH  80  86
ENDBRANCH  77  80
ENDBRANCH  75  76
ENDBRANCH  74  75
ENDBRANCH   1  74
TORSDOF 15
ENDMDL
