MODEL 1
REMARK VINA RESULT:     -12.1      0.000      0.000
REMARK SMILES Cc1c(C)c2c(c(C)c1O)CC[C@@](C)(C(=O)NCCCNC(=O)c1ccc(-c3c4nc(c(-c5c(F)cc(S(=O)(=O)[O-])cc5F)c5ccc([nH]5)c(-c5c(F)cc(S(=O)(=O)[O-])cc5F)c5nc(c(-c6c(F)cc(S(=O)(=O)[O-])cc6F)c6ccc3[nH]6)C=C5)C=C4)cc1)O2
REMARK SMILES IDX 20 1 19 2 18 3 17 4 15 5 16 6 13 8 1 9 2 10 3 11 9 12 4 13
REMARK SMILES IDX 5 14 7 15 6 16 90 17 8 18 11 19 12 20 14 21 10 22 21 24
REMARK SMILES IDX 22 25 23 27 24 28 25 29 89 30 26 31 88 32 27 33 28 34 29 35
REMARK SMILES IDX 82 36 30 37 87 38 81 39 83 40 31 41 86 42 80 43 79 44 32 46
REMARK SMILES IDX 66 47 45 48 65 49 46 50 49 51 64 52 84 53 47 54 48 55 63 57
REMARK SMILES IDX 85 58 50 59 33 60 34 61 43 62 35 63 36 64 42 65 44 66 37 67
REMARK SMILES IDX 38 68 39 69 40 70 41 71 67 72 68 73 77 74 69 75 70 76 76 77
REMARK SMILES IDX 78 78 71 79 72 80 73 81 74 82 75 83 51 84 52 85 61 86 53 87
REMARK SMILES IDX 54 88 60 89 62 90 55 91 56 92 57 93 58 94 59 95
REMARK H PARENT 17 7 10 23 21 26 83 45 49 56
REMARK Flexibility Score: inf
ROOT
ATOM      1  C   UNL A   1      33.567  28.300  27.162  1.00  0.00     0.118 C 
ENDROOT
BRANCH   1   2
ATOM      2  C   UNL A   1      33.990  28.060  25.722  1.00  0.00     0.042 C 
BRANCH   2   3
ATOM      3  C   UNL A   1      33.330  26.841  25.092  1.00  0.00     0.118 C 
BRANCH   3   4
ATOM      4  N   UNL A   1      32.029  26.542  25.677  1.00  0.00    -0.353 N 
ATOM      5  C   UNL A   1      31.349  25.362  25.835  1.00  0.00     0.263 C 
ATOM      6  O   UNL A   1      30.249  25.438  26.392  1.00  0.00    -0.270 OA
ATOM      7  H   UNL A   1      31.553  27.331  26.023  1.00  0.00     0.163 HD
BRANCH   5   8
ATOM      8  C   UNL A   1      31.950  24.013  25.352  1.00  0.00     0.184 C 
ATOM      9  C   UNL A   1      37.509  21.487  25.136  1.00  0.00     0.049 C 
ATOM     10  C   UNL A   1      36.010  21.476  25.292  1.00  0.00    -0.002 A 
ATOM     11  C   UNL A   1      35.333  22.689  25.577  1.00  0.00    -0.002 A 
ATOM     12  C   UNL A   1      35.254  20.305  25.096  1.00  0.00     0.122 A 
ATOM     13  C   UNL A   1      36.111  23.966  25.783  1.00  0.00     0.049 C 
ATOM     14  C   UNL A   1      33.927  22.695  25.633  1.00  0.00     0.127 A 
ATOM     15  C   UNL A   1      33.854  20.301  25.172  1.00  0.00    -0.002 A 
ATOM     16  C   UNL A   1      33.189  21.508  25.465  1.00  0.00     0.001 A 
ATOM     17  O   UNL A   1      33.316  23.917  25.825  1.00  0.00    -0.477 OA
ATOM     18  C   UNL A   1      33.060  19.038  24.943  1.00  0.00     0.049 C 
ATOM     19  C   UNL A   1      31.685  21.534  25.539  1.00  0.00     0.044 C 
ATOM     20  C   UNL A   1      31.180  22.872  26.021  1.00  0.00     0.063 C 
ATOM     21  C   UNL A   1      32.017  24.055  23.812  1.00  0.00     0.067 C 
BRANCH  12  22
ATOM     22  O   UNL A   1      35.864  19.113  24.807  1.00  0.00    -0.507 OA
ATOM     23  H   UNL A   1      36.524  19.074  24.143  1.00  0.00     0.293 HD
ENDBRANCH  12  22
ENDBRANCH   5   8
ENDBRANCH   3   4
ENDBRANCH   2   3
ENDBRANCH   1   2
BRANCH   1  24
ATOM     24  N   UNL A   1      33.477  29.719  27.479  1.00  0.00    -0.352 N 
ATOM     25  C   UNL A   1      34.378  30.546  28.102  1.00  0.00     0.251 C 
ATOM     26  H   UNL A   1      32.637  30.153  27.205  1.00  0.00     0.163 HD
ATOM     27  O   UNL A   1      34.012  31.658  28.481  1.00  0.00    -0.269 OA
BRANCH  25  28
ATOM     28  C   UNL A   1      35.771  30.105  28.332  1.00  0.00     0.039 A 
ATOM     29  C   UNL A   1      36.686  30.172  27.279  1.00  0.00     0.014 A 
ATOM     30  C   UNL A   1      36.170  29.599  29.571  1.00  0.00     0.014 A 
ATOM     31  C   UNL A   1      38.013  29.792  27.489  1.00  0.00     0.010 A 
ATOM     32  C   UNL A   1      37.510  29.314  29.807  1.00  0.00     0.010 A 
ATOM     33  C   UNL A   1      38.442  29.391  28.765  1.00  0.00    -0.014 A 
BRANCH  33  34
ATOM     34  C   UNL A   1      39.858  29.021  29.020  1.00  0.00     0.031 A 
ATOM     35  C   UNL A   1      40.803  30.030  29.613  1.00  0.00     0.074 A 
ATOM     36  C   UNL A   1      40.302  27.799  28.670  1.00  0.00     0.049 A 
ATOM     37  N   UNL A   1      42.079  29.911  29.873  1.00  0.00    -0.248 NA
ATOM     38  C   UNL A   1      40.249  31.357  29.928  1.00  0.00     0.031 C 
ATOM     39  C   UNL A   1      39.492  26.754  28.041  1.00  0.00     0.029 A 
ATOM     40  N   UNL A   1      41.545  27.230  28.786  1.00  0.00    -0.354 N 
ATOM     41  C   UNL A   1      42.481  31.146  30.369  1.00  0.00     0.074 A 
ATOM     42  C   UNL A   1      41.329  32.019  30.315  1.00  0.00     0.031 C 
ATOM     43  C   UNL A   1      40.249  25.661  27.858  1.00  0.00     0.029 A 
ATOM     44  C   UNL A   1      41.607  25.938  28.319  1.00  0.00     0.049 A 
ATOM     45  H   UNL A   1      42.320  27.703  29.169  1.00  0.00     0.167 HD
ATOM     46  C   UNL A   1      43.691  31.510  30.854  1.00  0.00     0.037 A 
ATOM     47  C   UNL A   1      42.640  25.075  28.266  1.00  0.00     0.037 A 
ATOM     48  C   UNL A   1      44.825  30.627  30.926  1.00  0.00     0.049 A 
ATOM     49  C   UNL A   1      43.979  25.500  28.801  1.00  0.00     0.074 A 
ATOM     50  C   UNL A   1      46.075  30.875  31.463  1.00  0.00     0.029 A 
ATOM     51  N   UNL A   1      44.849  29.327  30.441  1.00  0.00    -0.354 N 
ATOM     52  N   UNL A   1      44.323  26.647  29.336  1.00  0.00    -0.248 NA
ATOM     53  C   UNL A   1      45.067  24.516  28.731  1.00  0.00     0.031 C 
ATOM     54  C   UNL A   1      46.872  29.745  31.254  1.00  0.00     0.029 A 
ATOM     55  C   UNL A   1      46.103  28.771  30.635  1.00  0.00     0.049 A 
ATOM     56  H   UNL A   1      44.087  28.867  30.020  1.00  0.00     0.167 HD
ATOM     57  C   UNL A   1      45.665  26.523  29.676  1.00  0.00     0.074 A 
ATOM     58  C   UNL A   1      46.065  25.181  29.302  1.00  0.00     0.031 C 
ATOM     59  C   UNL A   1      46.490  27.437  30.244  1.00  0.00     0.037 A 
BRANCH  46  60
ATOM     60  C   UNL A   1      43.846  32.924  31.343  1.00  0.00     0.058 A 
ATOM     61  C   UNL A   1      44.220  33.968  30.481  1.00  0.00     0.135 A 
ATOM     62  C   UNL A   1      43.603  33.246  32.689  1.00  0.00     0.135 A 
ATOM     63  F   UNL A   1      44.479  33.716  29.187  1.00  0.00    -0.206 F 
ATOM     64  C   UNL A   1      44.388  35.270  30.940  1.00  0.00     0.059 A 
ATOM     65  C   UNL A   1      43.733  34.547  33.165  1.00  0.00     0.059 A 
ATOM     66  F   UNL A   1      43.242  32.289  33.558  1.00  0.00    -0.206 F 
ATOM     67  C   UNL A   1      44.144  35.549  32.286  1.00  0.00     0.060 A 
BRANCH  67  68
ATOM     68  S   UNL A   1      44.382  37.241  32.868  1.00  0.00     0.124 S 
ATOM     69  O   UNL A   1      43.169  37.449  33.655  1.00  0.00    -0.237 OA
ATOM     70  O   UNL A   1      45.621  37.136  33.630  1.00  0.00    -0.237 OA
ATOM     71  O   UNL A   1      44.468  38.018  31.636  1.00  0.00    -0.744 OA
ENDBRANCH  67  68
ENDBRANCH  46  60
BRANCH  47  72
ATOM     72  C   UNL A   1      42.418  23.712  27.716  1.00  0.00     0.058 A 
ATOM     73  C   UNL A   1      42.422  23.487  26.332  1.00  0.00     0.135 A 
ATOM     74  C   UNL A   1      42.283  22.598  28.559  1.00  0.00     0.135 A 
ATOM     75  F   UNL A   1      42.540  24.520  25.485  1.00  0.00    -0.206 F 
ATOM     76  C   UNL A   1      42.315  22.205  25.802  1.00  0.00     0.059 A 
ATOM     77  C   UNL A   1      42.196  21.304  28.054  1.00  0.00     0.059 A 
ATOM     78  F   UNL A   1      42.287  22.760  29.892  1.00  0.00    -0.206 F 
ATOM     79  C   UNL A   1      42.218  21.117  26.673  1.00  0.00     0.060 A 
BRANCH  79  80
ATOM     80  S   UNL A   1      42.193  19.453  25.974  1.00  0.00     0.124 S 
ATOM     81  O   UNL A   1      40.776  19.277  25.678  1.00  0.00    -0.237 OA
ATOM     82  O   UNL A   1      43.074  19.596  24.818  1.00  0.00    -0.237 OA
ATOM     83  O   UNL A   1      42.720  18.625  27.055  1.00  0.00    -0.744 OA
ENDBRANCH  79  80
ENDBRANCH  47  72
BRANCH  59  84
ATOM     84  C   UNL A   1      47.915  27.029  30.498  1.00  0.00     0.058 A 
ATOM     85  C   UNL A   1      48.937  27.334  29.586  1.00  0.00     0.135 A 
ATOM     86  C   UNL A   1      48.277  26.407  31.704  1.00  0.00     0.135 A 
ATOM     87  F   UNL A   1      48.644  27.922  28.415  1.00  0.00    -0.206 F 
ATOM     88  C   UNL A   1      50.266  27.027  29.855  1.00  0.00     0.059 A 
ATOM     89  C   UNL A   1      49.603  26.116  32.006  1.00  0.00     0.059 A 
ATOM     90  F   UNL A   1      47.338  26.103  32.615  1.00  0.00    -0.206 F 
ATOM     91  C   UNL A   1      50.591  26.425  31.074  1.00  0.00     0.060 A 
BRANCH  91  92
ATOM     92  S   UNL A   1      52.327  26.083  31.429  1.00  0.00     0.124 S 
ATOM     93  O   UNL A   1      52.920  26.155  30.098  1.00  0.00    -0.237 OA
ATOM     94  O   UNL A   1      52.677  27.169  32.339  1.00  0.00    -0.237 OA
ATOM     95  O   UNL A   1      52.296  24.753  32.030  1.00  0.00    -0.744 OA
ENDBRANCH  91  92
ENDBRANCH  59  84
ENDBRANCH  33  34
ENDBRANCH  25  28
ENDBRANCH   1  24
TORSDOF 14
ENDMDL
MODEL 2
REMARK VINA RESULT:     -11.9      4.845     10.491
REMARK SMILES Cc1c(C)c2c(c(C)c1O)CC[C@@](C)(C(=O)NCCCNC(=O)c1ccc(-c3c4nc(c(-c5c(F)cc(S(=O)(=O)[O-])cc5F)c5ccc([nH]5)c(-c5c(F)cc(S(=O)(=O)[O-])cc5F)c5nc(c(-c6c(F)cc(S(=O)(=O)[O-])cc6F)c6ccc3[nH]6)C=C5)C=C4)cc1)O2
REMARK SMILES IDX 20 1 19 2 18 3 17 4 15 5 16 6 13 8 1 9 2 10 3 11 9 12 4 13
REMARK SMILES IDX 5 14 7 15 6 16 90 17 8 18 11 19 12 20 14 21 10 22 21 24
REMARK SMILES IDX 22 25 23 27 24 28 25 29 89 30 26 31 88 32 27 33 28 34 29 35
REMARK SMILES IDX 82 36 30 37 87 38 81 39 83 40 31 41 86 42 80 43 79 44 32 46
REMARK SMILES IDX 66 47 45 48 65 49 46 50 49 51 64 52 84 53 47 54 48 55 63 57
REMARK SMILES IDX 85 58 50 59 33 60 34 61 43 62 35 63 36 64 42 65 44 66 37 67
REMARK SMILES IDX 38 68 39 69 40 70 41 71 67 72 68 73 77 74 69 75 70 76 76 77
REMARK SMILES IDX 78 78 71 79 72 80 73 81 74 82 75 83 51 84 52 85 61 86 53 87
REMARK SMILES IDX 54 88 60 89 62 90 55 91 56 92 57 93 58 94 59 95
REMARK H PARENT 17 7 10 23 21 26 83 45 49 56
REMARK Flexibility Score: inf
ROOT
ATOM      1  C   UNL A   1      38.460  24.318  26.202  1.00  0.00     0.118 C 
ENDROOT
BRANCH   1   2
ATOM      2  C   UNL A   1      37.551  23.190  25.744  1.00  0.00     0.042 C 
BRANCH   2   3
ATOM      3  C   UNL A   1      36.094  23.389  26.135  1.00  0.00     0.118 C 
BRANCH   3   4
ATOM      4  N   UNL A   1      35.367  22.131  26.250  1.00  0.00    -0.353 N 
ATOM      5  C   UNL A   1      34.247  21.663  25.613  1.00  0.00     0.263 C 
ATOM      6  O   UNL A   1      33.877  20.527  25.926  1.00  0.00    -0.270 OA
ATOM      7  H   UNL A   1      35.751  21.502  26.902  1.00  0.00     0.163 HD
BRANCH   5   8
ATOM      8  C   UNL A   1      33.508  22.518  24.546  1.00  0.00     0.184 C 
ATOM      9  C   UNL A   1      30.559  27.868  24.451  1.00  0.00     0.049 C 
ATOM     10  C   UNL A   1      31.428  26.778  23.878  1.00  0.00    -0.002 A 
ATOM     11  C   UNL A   1      32.028  25.837  24.752  1.00  0.00    -0.002 A 
ATOM     12  C   UNL A   1      31.606  26.627  22.490  1.00  0.00     0.122 A 
ATOM     13  C   UNL A   1      31.850  25.963  26.246  1.00  0.00     0.049 C 
ATOM     14  C   UNL A   1      32.764  24.767  24.210  1.00  0.00     0.127 A 
ATOM     15  C   UNL A   1      32.357  25.575  21.946  1.00  0.00    -0.002 A 
ATOM     16  C   UNL A   1      32.959  24.650  22.821  1.00  0.00     0.001 A 
ATOM     17  O   UNL A   1      33.252  23.832  25.100  1.00  0.00    -0.477 OA
ATOM     18  C   UNL A   1      32.523  25.422  20.454  1.00  0.00     0.049 C 
ATOM     19  C   UNL A   1      33.758  23.503  22.262  1.00  0.00     0.044 C 
ATOM     20  C   UNL A   1      34.449  22.727  23.357  1.00  0.00     0.063 C 
ATOM     21  C   UNL A   1      32.133  21.868  24.295  1.00  0.00     0.067 C 
BRANCH  12  22
ATOM     22  O   UNL A   1      31.035  27.505  21.607  1.00  0.00    -0.507 OA
ATOM     23  H   UNL A   1      30.500  27.184  20.908  1.00  0.00     0.293 HD
ENDBRANCH  12  22
ENDBRANCH   5   8
ENDBRANCH   3   4
ENDBRANCH   2   3
ENDBRANCH   1   2
BRANCH   1  24
ATOM     24  N   UNL A   1      39.870  23.957  26.123  1.00  0.00    -0.352 N 
ATOM     25  C   UNL A   1      40.972  24.567  26.668  1.00  0.00     0.251 C 
ATOM     26  H   UNL A   1      40.062  23.148  25.596  1.00  0.00     0.163 HD
ATOM     27  O   UNL A   1      42.093  24.232  26.289  1.00  0.00    -0.269 OA
BRANCH  25  28
ATOM     28  C   UNL A   1      40.819  25.625  27.690  1.00  0.00     0.039 A 
ATOM     29  C   UNL A   1      39.726  25.576  28.558  1.00  0.00     0.014 A 
ATOM     30  C   UNL A   1      41.731  26.679  27.776  1.00  0.00     0.014 A 
ATOM     31  C   UNL A   1      39.586  26.549  29.551  1.00  0.00     0.010 A 
ATOM     32  C   UNL A   1      41.646  27.589  28.822  1.00  0.00     0.010 A 
ATOM     33  C   UNL A   1      40.564  27.544  29.711  1.00  0.00    -0.014 A 
BRANCH  33  34
ATOM     34  C   UNL A   1      40.456  28.564  30.785  1.00  0.00     0.031 A 
ATOM     35  C   UNL A   1      41.352  28.484  31.991  1.00  0.00     0.074 A 
ATOM     36  C   UNL A   1      39.518  29.527  30.700  1.00  0.00     0.049 A 
ATOM     37  N   UNL A   1      41.383  29.254  33.047  1.00  0.00    -0.248 NA
ATOM     38  C   UNL A   1      42.322  27.377  32.027  1.00  0.00     0.031 C 
ATOM     39  C   UNL A   1      38.558  29.676  29.604  1.00  0.00     0.029 A 
ATOM     40  N   UNL A   1      39.212  30.558  31.552  1.00  0.00    -0.354 N 
ATOM     41  C   UNL A   1      42.362  28.719  33.877  1.00  0.00     0.074 A 
ATOM     42  C   UNL A   1      42.858  27.523  33.229  1.00  0.00     0.031 C 
ATOM     43  C   UNL A   1      37.794  30.755  29.834  1.00  0.00     0.029 A 
ATOM     44  C   UNL A   1      38.181  31.352  31.109  1.00  0.00     0.049 A 
ATOM     45  H   UNL A   1      39.687  30.715  32.400  1.00  0.00     0.167 HD
ATOM     46  C   UNL A   1      42.828  29.196  35.055  1.00  0.00     0.037 A 
ATOM     47  C   UNL A   1      37.609  32.437  31.667  1.00  0.00     0.037 A 
ATOM     48  C   UNL A   1      42.345  30.399  35.679  1.00  0.00     0.049 A 
ATOM     49  C   UNL A   1      38.133  32.948  32.980  1.00  0.00     0.074 A 
ATOM     50  C   UNL A   1      42.796  31.007  36.836  1.00  0.00     0.029 A 
ATOM     51  N   UNL A   1      41.298  31.174  35.201  1.00  0.00    -0.354 N 
ATOM     52  N   UNL A   1      39.111  32.473  33.715  1.00  0.00    -0.248 NA
ATOM     53  C   UNL A   1      37.484  34.141  33.538  1.00  0.00     0.031 C 
ATOM     54  C   UNL A   1      41.986  32.119  37.088  1.00  0.00     0.029 A 
ATOM     55  C   UNL A   1      41.065  32.237  36.059  1.00  0.00     0.049 A 
ATOM     56  H   UNL A   1      40.794  30.996  34.374  1.00  0.00     0.167 HD
ATOM     57  C   UNL A   1      39.201  33.313  34.819  1.00  0.00     0.074 A 
ATOM     58  C   UNL A   1      38.191  34.337  34.645  1.00  0.00     0.031 C 
ATOM     59  C   UNL A   1      40.045  33.241  35.879  1.00  0.00     0.037 A 
BRANCH  46  60
ATOM     60  C   UNL A   1      43.913  28.412  35.741  1.00  0.00     0.058 A 
ATOM     61  C   UNL A   1      43.620  27.397  36.665  1.00  0.00     0.135 A 
ATOM     62  C   UNL A   1      45.266  28.669  35.460  1.00  0.00     0.135 A 
ATOM     63  F   UNL A   1      42.345  27.118  36.982  1.00  0.00    -0.206 F 
ATOM     64  C   UNL A   1      44.626  26.691  37.318  1.00  0.00     0.059 A 
ATOM     65  C   UNL A   1      46.289  27.955  36.077  1.00  0.00     0.059 A 
ATOM     66  F   UNL A   1      45.604  29.628  34.585  1.00  0.00    -0.206 F 
ATOM     67  C   UNL A   1      45.958  26.980  37.018  1.00  0.00     0.060 A 
BRANCH  67  68
ATOM     68  S   UNL A   1      47.250  26.066  37.886  1.00  0.00     0.124 S 
ATOM     69  O   UNL A   1      48.171  27.139  38.249  1.00  0.00    -0.237 OA
ATOM     70  O   UNL A   1      46.515  25.461  38.991  1.00  0.00    -0.237 OA
ATOM     71  O   UNL A   1      47.744  25.133  36.878  1.00  0.00    -0.744 OA
ENDBRANCH  67  68
ENDBRANCH  46  60
BRANCH  47  72
ATOM     72  C   UNL A   1      36.501  33.123  30.951  1.00  0.00     0.058 A 
ATOM     73  C   UNL A   1      35.188  33.065  31.437  1.00  0.00     0.135 A 
ATOM     74  C   UNL A   1      36.746  33.916  29.819  1.00  0.00     0.135 A 
ATOM     75  F   UNL A   1      34.902  32.313  32.510  1.00  0.00    -0.206 F 
ATOM     76  C   UNL A   1      34.157  33.781  30.836  1.00  0.00     0.059 A 
ATOM     77  C   UNL A   1      35.737  34.658  29.213  1.00  0.00     0.059 A 
ATOM     78  F   UNL A   1      37.990  34.015  29.323  1.00  0.00    -0.206 F 
ATOM     79  C   UNL A   1      34.445  34.587  29.733  1.00  0.00     0.060 A 
BRANCH  79  80
ATOM     80  S   UNL A   1      33.121  35.596  29.033  1.00  0.00     0.124 S 
ATOM     81  O   UNL A   1      32.447  34.640  28.163  1.00  0.00    -0.237 OA
ATOM     82  O   UNL A   1      32.385  36.001  30.229  1.00  0.00    -0.237 OA
ATOM     83  O   UNL A   1      33.838  36.672  28.354  1.00  0.00    -0.744 OA
ENDBRANCH  79  80
ENDBRANCH  47  72
BRANCH  59  84
ATOM     84  C   UNL A   1      39.915  34.294  36.946  1.00  0.00     0.058 A 
ATOM     85  C   UNL A   1      40.508  35.558  36.802  1.00  0.00     0.135 A 
ATOM     86  C   UNL A   1      39.117  34.069  38.079  1.00  0.00     0.135 A 
ATOM     87  F   UNL A   1      41.287  35.822  35.740  1.00  0.00    -0.206 F 
ATOM     88  C   UNL A   1      40.324  36.558  37.750  1.00  0.00     0.059 A 
ATOM     89  C   UNL A   1      38.897  35.063  39.026  1.00  0.00     0.059 A 
ATOM     90  F   UNL A   1      38.519  32.880  38.259  1.00  0.00    -0.206 F 
ATOM     91  C   UNL A   1      39.509  36.304  38.856  1.00  0.00     0.060 A 
BRANCH  91  92
ATOM     92  S   UNL A   1      39.238  37.631  40.048  1.00  0.00     0.124 S 
ATOM     93  O   UNL A   1      38.918  36.881  41.257  1.00  0.00    -0.237 OA
ATOM     94  O   UNL A   1      40.527  38.317  40.048  1.00  0.00    -0.237 OA
ATOM     95  O   UNL A   1      38.132  38.388  39.469  1.00  0.00    -0.744 OA
ENDBRANCH  91  92
ENDBRANCH  59  84
ENDBRANCH  33  34
ENDBRANCH  25  28
ENDBRANCH   1  24
TORSDOF 14
ENDMDL
MODEL 3
REMARK VINA RESULT:     -11.9      2.807      3.779
REMARK SMILES Cc1c(C)c2c(c(C)c1O)CC[C@@](C)(C(=O)NCCCNC(=O)c1ccc(-c3c4nc(c(-c5c(F)cc(S(=O)(=O)[O-])cc5F)c5ccc([nH]5)c(-c5c(F)cc(S(=O)(=O)[O-])cc5F)c5nc(c(-c6c(F)cc(S(=O)(=O)[O-])cc6F)c6ccc3[nH]6)C=C5)C=C4)cc1)O2
REMARK SMILES IDX 20 1 19 2 18 3 17 4 15 5 16 6 13 8 1 9 2 10 3 11 9 12 4 13
REMARK SMILES IDX 5 14 7 15 6 16 90 17 8 18 11 19 12 20 14 21 10 22 21 24
REMARK SMILES IDX 22 25 23 27 24 28 25 29 89 30 26 31 88 32 27 33 28 34 29 35
REMARK SMILES IDX 82 36 30 37 87 38 81 39 83 40 31 41 86 42 80 43 79 44 32 46
REMARK SMILES IDX 66 47 45 48 65 49 46 50 49 51 64 52 84 53 47 54 48 55 63 57
REMARK SMILES IDX 85 58 50 59 33 60 34 61 43 62 35 63 36 64 42 65 44 66 37 67
REMARK SMILES IDX 38 68 39 69 40 70 41 71 67 72 68 73 77 74 69 75 70 76 76 77
REMARK SMILES IDX 78 78 71 79 72 80 73 81 74 82 75 83 51 84 52 85 61 86 53 87
REMARK SMILES IDX 54 88 60 89 62 90 55 91 56 92 57 93 58 94 59 95
REMARK H PARENT 17 7 10 23 21 26 83 45 49 56
REMARK Flexibility Score: inf
ROOT
ATOM      1  C   UNL A   1      35.070  29.318  27.644  1.00  0.00     0.118 C 
ENDROOT
BRANCH   1   2
ATOM      2  C   UNL A   1      33.796  29.532  26.843  1.00  0.00     0.042 C 
BRANCH   2   3
ATOM      3  C   UNL A   1      33.698  28.642  25.612  1.00  0.00     0.118 C 
BRANCH   3   4
ATOM      4  N   UNL A   1      32.758  29.154  24.624  1.00  0.00    -0.353 N 
ATOM      5  C   UNL A   1      31.657  28.589  24.033  1.00  0.00     0.263 C 
ATOM      6  O   UNL A   1      31.047  29.299  23.227  1.00  0.00    -0.270 OA
ATOM      7  H   UNL A   1      32.947  30.073  24.327  1.00  0.00     0.163 HD
BRANCH   5   8
ATOM      8  C   UNL A   1      31.205  27.145  24.384  1.00  0.00     0.184 C 
ATOM      9  C   UNL A   1      33.556  21.531  23.847  1.00  0.00     0.049 C 
ATOM     10  C   UNL A   1      32.745  22.614  24.512  1.00  0.00    -0.002 A 
ATOM     11  C   UNL A   1      32.963  23.966  24.150  1.00  0.00    -0.002 A 
ATOM     12  C   UNL A   1      31.727  22.313  25.437  1.00  0.00     0.122 A 
ATOM     13  C   UNL A   1      34.039  24.325  23.153  1.00  0.00     0.049 C 
ATOM     14  C   UNL A   1      32.144  24.968  24.704  1.00  0.00     0.127 A 
ATOM     15  C   UNL A   1      30.923  23.309  26.010  1.00  0.00    -0.002 A 
ATOM     16  C   UNL A   1      31.152  24.652  25.652  1.00  0.00     0.001 A 
ATOM     17  O   UNL A   1      32.340  26.256  24.250  1.00  0.00    -0.477 OA
ATOM     18  C   UNL A   1      29.827  22.965  26.988  1.00  0.00     0.049 C 
ATOM     19  C   UNL A   1      30.293  25.739  26.240  1.00  0.00     0.044 C 
ATOM     20  C   UNL A   1      30.800  27.109  25.860  1.00  0.00     0.063 C 
ATOM     21  C   UNL A   1      30.172  26.707  23.325  1.00  0.00     0.067 C 
BRANCH  12  22
ATOM     22  O   UNL A   1      31.473  21.019  25.809  1.00  0.00    -0.507 OA
ATOM     23  H   UNL A   1      31.047  20.436  25.211  1.00  0.00     0.293 HD
ENDBRANCH  12  22
ENDBRANCH   5   8
ENDBRANCH   3   4
ENDBRANCH   2   3
ENDBRANCH   1   2
BRANCH   1  24
ATOM     24  N   UNL A   1      35.162  30.221  28.784  1.00  0.00    -0.352 N 
ATOM     25  C   UNL A   1      36.213  30.478  29.628  1.00  0.00     0.251 C 
ATOM     26  H   UNL A   1      34.340  30.726  28.981  1.00  0.00     0.163 HD
ATOM     27  O   UNL A   1      36.011  31.102  30.668  1.00  0.00    -0.269 OA
BRANCH  25  28
ATOM     28  C   UNL A   1      37.574  29.998  29.302  1.00  0.00     0.039 A 
ATOM     29  C   UNL A   1      37.988  29.986  27.968  1.00  0.00     0.014 A 
ATOM     30  C   UNL A   1      38.431  29.535  30.303  1.00  0.00     0.014 A 
ATOM     31  C   UNL A   1      39.281  29.568  27.649  1.00  0.00     0.010 A 
ATOM     32  C   UNL A   1      39.748  29.213  29.996  1.00  0.00     0.010 A 
ATOM     33  C   UNL A   1      40.183  29.210  28.664  1.00  0.00    -0.014 A 
BRANCH  33  34
ATOM     34  C   UNL A   1      41.575  28.802  28.349  1.00  0.00     0.031 A 
ATOM     35  C   UNL A   1      42.679  29.824  28.363  1.00  0.00     0.074 A 
ATOM     36  C   UNL A   1      41.835  27.528  28.000  1.00  0.00     0.049 A 
ATOM     37  N   UNL A   1      43.947  29.672  28.080  1.00  0.00    -0.248 NA
ATOM     38  C   UNL A   1      42.305  31.204  28.714  1.00  0.00     0.031 C 
ATOM     39  C   UNL A   1      40.838  26.459  27.902  1.00  0.00     0.029 A 
ATOM     40  N   UNL A   1      43.014  26.914  27.656  1.00  0.00    -0.354 N 
ATOM     41  C   UNL A   1      44.517  30.934  28.205  1.00  0.00     0.074 A 
ATOM     42  C   UNL A   1      43.446  31.851  28.529  1.00  0.00     0.031 C 
ATOM     43  C   UNL A   1      41.452  25.317  27.556  1.00  0.00     0.029 A 
ATOM     44  C   UNL A   1      42.877  25.577  27.370  1.00  0.00     0.049 A 
ATOM     45  H   UNL A   1      43.876  27.389  27.619  1.00  0.00     0.167 HD
ATOM     46  C   UNL A   1      45.817  31.291  28.091  1.00  0.00     0.037 A 
ATOM     47  C   UNL A   1      43.794  24.663  26.998  1.00  0.00     0.037 A 
ATOM     48  C   UNL A   1      46.879  30.367  27.793  1.00  0.00     0.049 A 
ATOM     49  C   UNL A   1      45.233  25.079  26.869  1.00  0.00     0.074 A 
ATOM     50  C   UNL A   1      48.238  30.612  27.723  1.00  0.00     0.029 A 
ATOM     51  N   UNL A   1      46.700  29.020  27.507  1.00  0.00    -0.354 N 
ATOM     52  N   UNL A   1      45.766  26.261  27.064  1.00  0.00    -0.248 NA
ATOM     53  C   UNL A   1      46.194  24.041  26.473  1.00  0.00     0.031 C 
ATOM     54  C   UNL A   1      48.876  29.427  27.343  1.00  0.00     0.029 A 
ATOM     55  C   UNL A   1      47.922  28.429  27.227  1.00  0.00     0.049 A 
ATOM     56  H   UNL A   1      45.834  28.554  27.503  1.00  0.00     0.167 HD
ATOM     57  C   UNL A   1      47.128  26.110  26.825  1.00  0.00     0.074 A 
ATOM     58  C   UNL A   1      47.337  24.716  26.489  1.00  0.00     0.031 C 
ATOM     59  C   UNL A   1      48.112  27.041  26.880  1.00  0.00     0.037 A 
BRANCH  46  60
ATOM     60  C   UNL A   1      46.159  32.742  28.292  1.00  0.00     0.058 A 
ATOM     61  C   UNL A   1      46.530  33.248  29.548  1.00  0.00     0.135 A 
ATOM     62  C   UNL A   1      46.130  33.639  27.210  1.00  0.00     0.135 A 
ATOM     63  F   UNL A   1      46.560  32.439  30.620  1.00  0.00    -0.206 F 
ATOM     64  C   UNL A   1      46.820  34.595  29.736  1.00  0.00     0.059 A 
ATOM     65  C   UNL A   1      46.447  34.984  27.368  1.00  0.00     0.059 A 
ATOM     66  F   UNL A   1      45.783  33.210  25.987  1.00  0.00    -0.206 F 
ATOM     67  C   UNL A   1      46.773  35.456  28.639  1.00  0.00     0.060 A 
BRANCH  67  68
ATOM     68  S   UNL A   1      47.137  37.204  28.904  1.00  0.00     0.124 S 
ATOM     69  O   UNL A   1      48.131  37.454  27.864  1.00  0.00    -0.237 OA
ATOM     70  O   UNL A   1      45.834  37.828  28.698  1.00  0.00    -0.237 OA
ATOM     71  O   UNL A   1      47.640  37.245  30.274  1.00  0.00    -0.744 OA
ENDBRANCH  67  68
ENDBRANCH  46  60
BRANCH  47  72
ATOM     72  C   UNL A   1      43.366  23.259  26.764  1.00  0.00     0.058 A 
ATOM     73  C   UNL A   1      43.357  22.717  25.471  1.00  0.00     0.135 A 
ATOM     74  C   UNL A   1      43.038  22.408  27.832  1.00  0.00     0.135 A 
ATOM     75  F   UNL A   1      43.655  23.491  24.417  1.00  0.00    -0.206 F 
ATOM     76  C   UNL A   1      43.055  21.378  25.245  1.00  0.00     0.059 A 
ATOM     77  C   UNL A   1      42.753  21.061  27.634  1.00  0.00     0.059 A 
ATOM     78  F   UNL A   1      43.046  22.877  29.091  1.00  0.00    -0.206 F 
ATOM     79  C   UNL A   1      42.769  20.553  26.335  1.00  0.00     0.060 A 
BRANCH  79  80
ATOM     80  S   UNL A   1      42.488  18.795  26.037  1.00  0.00     0.124 S 
ATOM     81  O   UNL A   1      42.819  18.218  27.334  1.00  0.00    -0.237 OA
ATOM     82  O   UNL A   1      41.074  18.773  25.669  1.00  0.00    -0.237 OA
ATOM     83  O   UNL A   1      43.414  18.484  24.952  1.00  0.00    -0.744 OA
ENDBRANCH  79  80
ENDBRANCH  47  72
BRANCH  59  84
ATOM     84  C   UNL A   1      49.514  26.594  26.564  1.00  0.00     0.058 A 
ATOM     85  C   UNL A   1      50.317  25.970  27.529  1.00  0.00     0.135 A 
ATOM     86  C   UNL A   1      50.024  26.710  25.260  1.00  0.00     0.135 A 
ATOM     87  F   UNL A   1      49.880  25.841  28.792  1.00  0.00    -0.206 F 
ATOM     88  C   UNL A   1      51.583  25.486  27.217  1.00  0.00     0.059 A 
ATOM     89  C   UNL A   1      51.276  26.208  24.919  1.00  0.00     0.059 A 
ATOM     90  F   UNL A   1      49.290  27.290  24.296  1.00  0.00    -0.206 F 
ATOM     91  C   UNL A   1      52.050  25.602  25.906  1.00  0.00     0.060 A 
BRANCH  91  92
ATOM     92  S   UNL A   1      53.673  24.919  25.507  1.00  0.00     0.124 S 
ATOM     93  O   UNL A   1      54.002  25.638  24.281  1.00  0.00    -0.237 OA
ATOM     94  O   UNL A   1      54.459  25.278  26.684  1.00  0.00    -0.237 OA
ATOM     95  O   UNL A   1      53.411  23.492  25.346  1.00  0.00    -0.744 OA
ENDBRANCH  91  92
ENDBRANCH  59  84
ENDBRANCH  33  34
ENDBRANCH  25  28
ENDBRANCH   1  24
TORSDOF 14
ENDMDL
