MODEL 1
REMARK VINA RESULT:     -11.1      0.000      0.000
REMARK SMILES C[C@H](C(=O)NCCCNC(=O)c1ccc(-c2c3nc(c(-c4c(F)cc(S(=O)(=O)[O-])cc4F)c4ccc([nH]4)c(-c4c(F)cc(S(=O)(=O)[O-])cc4F)c4nc(c(-c5c(F)cc(S(=O)(=O)[O-])cc5F)c5ccc2[nH]5)C=C4)C=C3)cc1)[C@@H](C)[NH2+]C[C@@H]1CCCC[C@@H]1CO
REMARK SMILES IDX 3 1 4 2 5 3 2 5 1 6 78 7 79 8 80 9 81 12 82 13 83 14 87 15
REMARK SMILES IDX 84 16 86 17 85 18 88 19 89 20 6 22 7 23 8 24 9 25 10 26
REMARK SMILES IDX 11 28 12 29 13 30 77 31 14 32 76 33 15 34 16 35 17 36 70 37
REMARK SMILES IDX 18 38 75 39 69 40 71 41 19 42 74 43 68 44 67 45 20 47 54 48
REMARK SMILES IDX 33 49 53 50 34 51 37 52 52 53 72 54 35 55 36 56 51 58 73 59
REMARK SMILES IDX 38 60 21 61 22 62 31 63 23 64 24 65 30 66 32 67 25 68 26 69
REMARK SMILES IDX 27 70 28 71 29 72 55 73 56 74 65 75 57 76 58 77 64 78 66 79
REMARK SMILES IDX 59 80 60 81 61 82 62 83 63 84 39 85 40 86 49 87 41 88 42 89
REMARK SMILES IDX 48 90 50 91 43 92 44 93 45 94 46 95 47 96
REMARK H PARENT 5 4 80 10 80 11 89 21 9 27 71 46 37 57
REMARK Flexibility Score: inf
ROOT
ATOM      1  C   UNL A   1      37.859  21.516  25.279  1.00  0.00     0.228 C 
ATOM      2  O   UNL A   1      37.629  20.456  24.675  1.00  0.00    -0.275 OA
ATOM      3  N   UNL A   1      38.956  21.476  26.079  1.00  0.00    -0.356 N 
ATOM      4  H   UNL A   1      39.214  20.555  26.313  1.00  0.00     0.163 HD
ENDROOT
BRANCH   1   5
ATOM      5  C   UNL A   1      36.841  22.677  25.138  1.00  0.00     0.133 C 
ATOM      6  C   UNL A   1      36.462  22.756  23.656  1.00  0.00     0.024 C 
BRANCH   5   7
ATOM      7  C   UNL A   1      35.674  22.672  26.154  1.00  0.00     0.191 C 
ATOM      8  C   UNL A   1      34.572  23.586  25.545  1.00  0.00     0.076 C 
BRANCH   7   9
ATOM      9  N   UNL A   1      35.077  21.380  26.572  1.00  0.00    -0.343 N 
ATOM     10  H   UNL A   1      34.935  21.403  27.583  1.00  0.00     0.346 HD
ATOM     11  H   UNL A   1      35.725  20.647  26.286  1.00  0.00     0.346 HD
BRANCH   9  12
ATOM     12  C   UNL A   1      33.767  21.084  25.921  1.00  0.00     0.264 C 
BRANCH  12  13
ATOM     13  C   UNL A   1      33.725  20.247  24.583  1.00  0.00     0.049 C 
ATOM     14  C   UNL A   1      32.534  20.621  23.696  1.00  0.00     0.010 C 
ATOM     15  C   UNL A   1      33.793  18.693  24.797  1.00  0.00     0.023 C 
ATOM     16  C   UNL A   1      32.251  19.773  22.467  1.00  0.00     0.001 C 
ATOM     17  C   UNL A   1      33.599  17.944  23.457  1.00  0.00     0.006 C 
ATOM     18  C   UNL A   1      32.282  18.293  22.776  1.00  0.00     0.000 C 
BRANCH  15  19
ATOM     19  C   UNL A   1      32.797  18.137  25.832  1.00  0.00     0.160 C 
BRANCH  19  20
ATOM     20  O   UNL A   1      33.188  16.841  26.261  1.00  0.00    -0.396 OA
ATOM     21  H   UNL A   1      32.478  16.447  26.791  1.00  0.00     0.210 HD
ENDBRANCH  19  20
ENDBRANCH  15  19
ENDBRANCH  12  13
ENDBRANCH   9  12
ENDBRANCH   7   9
ENDBRANCH   5   7
ENDBRANCH   1   5
BRANCH   3  22
ATOM     22  C   UNL A   1      39.844  22.463  26.674  1.00  0.00     0.117 C 
BRANCH  22  23
ATOM     23  C   UNL A   1      41.261  21.966  26.910  1.00  0.00     0.042 C 
BRANCH  23  24
ATOM     24  C   UNL A   1      42.233  23.119  27.106  1.00  0.00     0.118 C 
BRANCH  24  25
ATOM     25  N   UNL A   1      42.297  24.012  25.949  1.00  0.00    -0.352 N 
ATOM     26  C   UNL A   1      42.132  25.375  25.851  1.00  0.00     0.251 C 
ATOM     27  H   UNL A   1      42.492  23.561  25.096  1.00  0.00     0.163 HD
ATOM     28  O   UNL A   1      42.111  25.896  24.748  1.00  0.00    -0.269 OA
BRANCH  26  29
ATOM     29  C   UNL A   1      41.946  26.191  27.072  1.00  0.00     0.039 A 
ATOM     30  C   UNL A   1      42.804  27.268  27.305  1.00  0.00     0.014 A 
ATOM     31  C   UNL A   1      40.926  25.907  27.978  1.00  0.00     0.014 A 
ATOM     32  C   UNL A   1      42.590  28.094  28.411  1.00  0.00     0.010 A 
ATOM     33  C   UNL A   1      40.628  26.806  28.989  1.00  0.00     0.010 A 
ATOM     34  C   UNL A   1      41.474  27.894  29.240  1.00  0.00    -0.014 A 
BRANCH  34  35
ATOM     35  C   UNL A   1      41.197  28.766  30.407  1.00  0.00     0.031 A 
ATOM     36  C   UNL A   1      42.027  28.623  31.659  1.00  0.00     0.074 A 
ATOM     37  C   UNL A   1      40.163  29.629  30.371  1.00  0.00     0.049 A 
ATOM     38  N   UNL A   1      41.894  29.223  32.813  1.00  0.00    -0.248 NA
ATOM     39  C   UNL A   1      43.126  27.640  31.624  1.00  0.00     0.031 C 
ATOM     40  C   UNL A   1      39.242  29.804  29.244  1.00  0.00     0.029 A 
ATOM     41  N   UNL A   1      39.706  30.520  31.309  1.00  0.00    -0.354 N 
ATOM     42  C   UNL A   1      42.868  28.671  33.640  1.00  0.00     0.074 A 
ATOM     43  C   UNL A   1      43.528  27.634  32.884  1.00  0.00     0.031 C 
ATOM     44  C   UNL A   1      38.357  30.769  29.543  1.00  0.00     0.029 A 
ATOM     45  C   UNL A   1      38.620  31.253  30.894  1.00  0.00     0.049 A 
ATOM     46  H   UNL A   1      40.119  30.624  32.197  1.00  0.00     0.167 HD
ATOM     47  C   UNL A   1      43.209  29.025  34.901  1.00  0.00     0.037 A 
ATOM     48  C   UNL A   1      37.917  32.209  31.532  1.00  0.00     0.037 A 
ATOM     49  C   UNL A   1      42.578  30.095  35.626  1.00  0.00     0.049 A 
ATOM     50  C   UNL A   1      38.338  32.613  32.920  1.00  0.00     0.074 A 
ATOM     51  C   UNL A   1      42.886  30.584  36.882  1.00  0.00     0.029 A 
ATOM     52  N   UNL A   1      41.513  30.847  35.152  1.00  0.00    -0.354 N 
ATOM     53  N   UNL A   1      39.305  32.126  33.662  1.00  0.00    -0.248 NA
ATOM     54  C   UNL A   1      37.584  33.702  33.552  1.00  0.00     0.031 C 
ATOM     55  C   UNL A   1      41.981  31.605  37.185  1.00  0.00     0.029 A 
ATOM     56  C   UNL A   1      41.143  31.789  36.096  1.00  0.00     0.049 A 
ATOM     57  H   UNL A   1      41.083  30.728  34.274  1.00  0.00     0.167 HD
ATOM     58  C   UNL A   1      39.296  32.872  34.836  1.00  0.00     0.074 A 
ATOM     59  C   UNL A   1      38.235  33.850  34.697  1.00  0.00     0.031 C 
ATOM     60  C   UNL A   1      40.090  32.760  35.930  1.00  0.00     0.037 A 
BRANCH  47  61
ATOM     61  C   UNL A   1      44.326  28.262  35.561  1.00  0.00     0.058 A 
ATOM     62  C   UNL A   1      45.670  28.649  35.420  1.00  0.00     0.135 A 
ATOM     63  C   UNL A   1      44.053  27.140  36.360  1.00  0.00     0.135 A 
ATOM     64  F   UNL A   1      45.995  29.702  34.653  1.00  0.00    -0.206 F 
ATOM     65  C   UNL A   1      46.702  27.932  36.016  1.00  0.00     0.059 A 
ATOM     66  C   UNL A   1      45.067  26.427  36.993  1.00  0.00     0.059 A 
ATOM     67  F   UNL A   1      42.789  26.722  36.528  1.00  0.00    -0.206 F 
ATOM     68  C   UNL A   1      46.390  26.821  36.801  1.00  0.00     0.060 A 
BRANCH  68  69
ATOM     69  S   UNL A   1      47.743  25.908  37.573  1.00  0.00     0.124 S 
ATOM     70  O   UNL A   1      47.695  26.418  38.941  1.00  0.00    -0.237 OA
ATOM     71  O   UNL A   1      47.321  24.522  37.399  1.00  0.00    -0.237 OA
ATOM     72  O   UNL A   1      48.911  26.308  36.795  1.00  0.00    -0.744 OA
ENDBRANCH  68  69
ENDBRANCH  47  61
BRANCH  48  73
ATOM     73  C   UNL A   1      36.774  32.875  30.850  1.00  0.00     0.058 A 
ATOM     74  C   UNL A   1      35.450  32.573  31.199  1.00  0.00     0.135 A 
ATOM     75  C   UNL A   1      36.982  33.839  29.851  1.00  0.00     0.135 A 
ATOM     76  F   UNL A   1      35.198  31.657  32.146  1.00  0.00    -0.206 F 
ATOM     77  C   UNL A   1      34.370  33.185  30.569  1.00  0.00     0.059 A 
ATOM     78  C   UNL A   1      35.920  34.487  29.226  1.00  0.00     0.059 A 
ATOM     79  F   UNL A   1      38.230  34.182  29.496  1.00  0.00    -0.206 F 
ATOM     80  C   UNL A   1      34.616  34.144  29.585  1.00  0.00     0.060 A 
BRANCH  80  81
ATOM     81  S   UNL A   1      33.209  34.970  28.809  1.00  0.00     0.124 S 
ATOM     82  O   UNL A   1      32.345  35.218  29.956  1.00  0.00    -0.237 OA
ATOM     83  O   UNL A   1      33.836  36.146  28.214  1.00  0.00    -0.237 OA
ATOM     84  O   UNL A   1      32.725  33.978  27.854  1.00  0.00    -0.744 OA
ENDBRANCH  80  81
ENDBRANCH  48  73
BRANCH  60  85
ATOM     85  C   UNL A   1      39.875  33.748  37.042  1.00  0.00     0.058 A 
ATOM     86  C   UNL A   1      39.034  33.468  38.130  1.00  0.00     0.135 A 
ATOM     87  C   UNL A   1      40.557  34.976  37.038  1.00  0.00     0.135 A 
ATOM     88  F   UNL A   1      38.356  32.310  38.180  1.00  0.00    -0.206 F 
ATOM     89  C   UNL A   1      38.849  34.387  39.158  1.00  0.00     0.059 A 
ATOM     90  C   UNL A   1      40.413  35.895  38.072  1.00  0.00     0.059 A 
ATOM     91  F   UNL A   1      41.386  35.287  36.028  1.00  0.00    -0.206 F 
ATOM     92  C   UNL A   1      39.542  35.598  39.119  1.00  0.00     0.060 A 
BRANCH  92  93
ATOM     93  S   UNL A   1      39.307  36.773  40.468  1.00  0.00     0.124 S 
ATOM     94  O   UNL A   1      38.339  36.070  41.304  1.00  0.00    -0.237 OA
ATOM     95  O   UNL A   1      40.654  36.890  41.020  1.00  0.00    -0.237 OA
ATOM     96  O   UNL A   1      38.806  37.968  39.795  1.00  0.00    -0.744 OA
ENDBRANCH  92  93
ENDBRANCH  60  85
ENDBRANCH  34  35
ENDBRANCH  26  29
ENDBRANCH  24  25
ENDBRANCH  23  24
ENDBRANCH  22  23
ENDBRANCH   3  22
TORSDOF 19
ENDMDL
MODEL 2
REMARK VINA RESULT:     -10.6      1.354      2.328
REMARK SMILES C[C@H](C(=O)NCCCNC(=O)c1ccc(-c2c3nc(c(-c4c(F)cc(S(=O)(=O)[O-])cc4F)c4ccc([nH]4)c(-c4c(F)cc(S(=O)(=O)[O-])cc4F)c4nc(c(-c5c(F)cc(S(=O)(=O)[O-])cc5F)c5ccc2[nH]5)C=C4)C=C3)cc1)[C@@H](C)[NH2+]C[C@@H]1CCCC[C@@H]1CO
REMARK SMILES IDX 3 1 4 2 5 3 2 5 1 6 78 7 79 8 80 9 81 12 82 13 83 14 87 15
REMARK SMILES IDX 84 16 86 17 85 18 88 19 89 20 6 22 7 23 8 24 9 25 10 26
REMARK SMILES IDX 11 28 12 29 13 30 77 31 14 32 76 33 15 34 16 35 17 36 70 37
REMARK SMILES IDX 18 38 75 39 69 40 71 41 19 42 74 43 68 44 67 45 20 47 54 48
REMARK SMILES IDX 33 49 53 50 34 51 37 52 52 53 72 54 35 55 36 56 51 58 73 59
REMARK SMILES IDX 38 60 21 61 22 62 31 63 23 64 24 65 30 66 32 67 25 68 26 69
REMARK SMILES IDX 27 70 28 71 29 72 55 73 56 74 65 75 57 76 58 77 64 78 66 79
REMARK SMILES IDX 59 80 60 81 61 82 62 83 63 84 39 85 40 86 49 87 41 88 42 89
REMARK SMILES IDX 48 90 50 91 43 92 44 93 45 94 46 95 47 96
REMARK H PARENT 5 4 80 10 80 11 89 21 9 27 71 46 37 57
REMARK Flexibility Score: inf
ROOT
ATOM      1  C   UNL A   1      34.575  24.726  24.984  1.00  0.00     0.228 C 
ATOM      2  O   UNL A   1      34.226  25.901  25.186  1.00  0.00    -0.275 OA
ATOM      3  N   UNL A   1      35.676  24.343  25.682  1.00  0.00    -0.356 N 
ATOM      4  H   UNL A   1      36.214  25.111  25.981  1.00  0.00     0.163 HD
ENDROOT
BRANCH   1   5
ATOM      5  C   UNL A   1      33.805  23.904  23.918  1.00  0.00     0.133 C 
ATOM      6  C   UNL A   1      34.856  23.145  23.102  1.00  0.00     0.024 C 
BRANCH   5   7
ATOM      7  C   UNL A   1      32.606  23.081  24.445  1.00  0.00     0.191 C 
ATOM      8  C   UNL A   1      31.864  22.549  23.185  1.00  0.00     0.076 C 
BRANCH   7   9
ATOM      9  N   UNL A   1      32.848  21.963  25.390  1.00  0.00    -0.343 N 
ATOM     10  H   UNL A   1      32.534  22.252  26.317  1.00  0.00     0.346 HD
ATOM     11  H   UNL A   1      33.848  21.762  25.363  1.00  0.00     0.346 HD
BRANCH   9  12
ATOM     12  C   UNL A   1      32.139  20.701  25.025  1.00  0.00     0.264 C 
BRANCH  12  13
ATOM     13  C   UNL A   1      32.910  19.325  25.068  1.00  0.00     0.049 C 
ATOM     14  C   UNL A   1      34.420  19.493  24.877  1.00  0.00     0.010 C 
ATOM     15  C   UNL A   1      32.342  18.241  24.086  1.00  0.00     0.023 C 
ATOM     16  C   UNL A   1      35.272  18.247  24.703  1.00  0.00     0.001 C 
ATOM     17  C   UNL A   1      33.237  16.979  24.080  1.00  0.00     0.006 C 
ATOM     18  C   UNL A   1      34.679  17.285  23.699  1.00  0.00     0.000 C 
BRANCH  15  19
ATOM     19  C   UNL A   1      32.143  18.722  22.635  1.00  0.00     0.160 C 
BRANCH  19  20
ATOM     20  O   UNL A   1      31.719  17.651  21.804  1.00  0.00    -0.396 OA
ATOM     21  H   UNL A   1      32.215  17.671  20.971  1.00  0.00     0.210 HD
ENDBRANCH  19  20
ENDBRANCH  15  19
ENDBRANCH  12  13
ENDBRANCH   9  12
ENDBRANCH   7   9
ENDBRANCH   5   7
ENDBRANCH   1   5
BRANCH   3  22
ATOM     22  C   UNL A   1      36.255  23.074  26.093  1.00  0.00     0.117 C 
BRANCH  22  23
ATOM     23  C   UNL A   1      37.743  22.944  25.808  1.00  0.00     0.042 C 
BRANCH  23  24
ATOM     24  C   UNL A   1      38.535  24.072  26.450  1.00  0.00     0.118 C 
BRANCH  24  25
ATOM     25  N   UNL A   1      39.948  24.062  26.070  1.00  0.00    -0.352 N 
ATOM     26  C   UNL A   1      40.989  24.878  26.451  1.00  0.00     0.251 C 
ATOM     27  H   UNL A   1      40.196  23.352  25.435  1.00  0.00     0.163 HD
ATOM     28  O   UNL A   1      42.074  24.756  25.905  1.00  0.00    -0.269 OA
BRANCH  26  29
ATOM     29  C   UNL A   1      40.781  25.916  27.486  1.00  0.00     0.039 A 
ATOM     30  C   UNL A   1      39.812  25.707  28.470  1.00  0.00     0.014 A 
ATOM     31  C   UNL A   1      41.542  27.083  27.497  1.00  0.00     0.014 A 
ATOM     32  C   UNL A   1      39.660  26.641  29.498  1.00  0.00     0.010 A 
ATOM     33  C   UNL A   1      41.491  27.932  28.591  1.00  0.00     0.010 A 
ATOM     34  C   UNL A   1      40.527  27.742  29.589  1.00  0.00    -0.014 A 
BRANCH  34  35
ATOM     35  C   UNL A   1      40.416  28.740  30.682  1.00  0.00     0.031 A 
ATOM     36  C   UNL A   1      41.308  28.620  31.893  1.00  0.00     0.074 A 
ATOM     37  C   UNL A   1      39.475  29.702  30.620  1.00  0.00     0.049 A 
ATOM     38  N   UNL A   1      41.312  29.331  32.991  1.00  0.00    -0.248 NA
ATOM     39  C   UNL A   1      42.296  27.526  31.892  1.00  0.00     0.031 C 
ATOM     40  C   UNL A   1      38.505  29.873  29.535  1.00  0.00     0.029 A 
ATOM     41  N   UNL A   1      39.174  30.716  31.493  1.00  0.00    -0.354 N 
ATOM     42  C   UNL A   1      42.276  28.754  33.811  1.00  0.00     0.074 A 
ATOM     43  C   UNL A   1      42.776  27.589  33.123  1.00  0.00     0.031 C 
ATOM     44  C   UNL A   1      37.744  30.951  29.789  1.00  0.00     0.029 A 
ATOM     45  C   UNL A   1      38.143  31.522  31.071  1.00  0.00     0.049 A 
ATOM     46  H   UNL A   1      39.652  30.854  32.342  1.00  0.00     0.167 HD
ATOM     47  C   UNL A   1      42.733  29.181  35.012  1.00  0.00     0.037 A 
ATOM     48  C   UNL A   1      37.584  32.601  31.653  1.00  0.00     0.037 A 
ATOM     49  C   UNL A   1      42.262  30.372  35.665  1.00  0.00     0.049 A 
ATOM     50  C   UNL A   1      38.132  33.078  32.970  1.00  0.00     0.074 A 
ATOM     51  C   UNL A   1      42.699  30.935  36.850  1.00  0.00     0.029 A 
ATOM     52  N   UNL A   1      41.250  31.188  35.182  1.00  0.00    -0.354 N 
ATOM     53  N   UNL A   1      39.091  32.559  33.700  1.00  0.00    -0.248 NA
ATOM     54  C   UNL A   1      37.535  34.294  33.536  1.00  0.00     0.031 C 
ATOM     55  C   UNL A   1      41.924  32.070  37.104  1.00  0.00     0.029 A 
ATOM     56  C   UNL A   1      41.040  32.245  36.050  1.00  0.00     0.049 A 
ATOM     57  H   UNL A   1      40.754  31.038  34.344  1.00  0.00     0.167 HD
ATOM     58  C   UNL A   1      39.234  33.403  34.797  1.00  0.00     0.074 A 
ATOM     59  C   UNL A   1      38.272  34.473  34.624  1.00  0.00     0.031 C 
ATOM     60  C   UNL A   1      40.082  33.305  35.851  1.00  0.00     0.037 A 
BRANCH  47  61
ATOM     61  C   UNL A   1      43.807  28.364  35.679  1.00  0.00     0.058 A 
ATOM     62  C   UNL A   1      43.497  27.337  36.588  1.00  0.00     0.135 A 
ATOM     63  C   UNL A   1      45.162  28.594  35.395  1.00  0.00     0.135 A 
ATOM     64  F   UNL A   1      42.220  27.082  36.913  1.00  0.00    -0.206 F 
ATOM     65  C   UNL A   1      44.492  26.595  37.217  1.00  0.00     0.059 A 
ATOM     66  C   UNL A   1      46.173  27.842  35.988  1.00  0.00     0.059 A 
ATOM     67  F   UNL A   1      45.518  29.564  34.538  1.00  0.00    -0.206 F 
ATOM     68  C   UNL A   1      45.828  26.855  36.910  1.00  0.00     0.060 A 
BRANCH  68  69
ATOM     69  S   UNL A   1      47.104  25.877  37.730  1.00  0.00     0.124 S 
ATOM     70  O   UNL A   1      46.694  25.978  39.128  1.00  0.00    -0.237 OA
ATOM     71  O   UNL A   1      46.935  24.565  37.115  1.00  0.00    -0.237 OA
ATOM     72  O   UNL A   1      48.340  26.574  37.387  1.00  0.00    -0.744 OA
ENDBRANCH  68  69
ENDBRANCH  47  61
BRANCH  48  73
ATOM     73  C   UNL A   1      36.472  33.322  30.974  1.00  0.00     0.058 A 
ATOM     74  C   UNL A   1      36.712  34.123  29.848  1.00  0.00     0.135 A 
ATOM     75  C   UNL A   1      35.148  33.210  31.425  1.00  0.00     0.135 A 
ATOM     76  F   UNL A   1      37.962  34.263  29.379  1.00  0.00    -0.206 F 
ATOM     77  C   UNL A   1      35.684  34.805  29.204  1.00  0.00     0.059 A 
ATOM     78  C   UNL A   1      34.098  33.859  30.781  1.00  0.00     0.059 A 
ATOM     79  F   UNL A   1      34.860  32.438  32.484  1.00  0.00    -0.206 F 
ATOM     80  C   UNL A   1      34.379  34.664  29.677  1.00  0.00     0.060 A 
BRANCH  80  81
ATOM     81  S   UNL A   1      33.045  35.513  28.803  1.00  0.00     0.124 S 
ATOM     82  O   UNL A   1      32.482  34.431  28.003  1.00  0.00    -0.237 OA
ATOM     83  O   UNL A   1      32.216  35.992  29.904  1.00  0.00    -0.237 OA
ATOM     84  O   UNL A   1      33.744  36.554  28.056  1.00  0.00    -0.744 OA
ENDBRANCH  80  81
ENDBRANCH  48  73
BRANCH  60  85
ATOM     85  C   UNL A   1      40.042  34.405  36.874  1.00  0.00     0.058 A 
ATOM     86  C   UNL A   1      39.170  34.364  37.973  1.00  0.00     0.135 A 
ATOM     87  C   UNL A   1      40.921  35.496  36.774  1.00  0.00     0.135 A 
ATOM     88  F   UNL A   1      38.306  33.345  38.113  1.00  0.00    -0.206 F 
ATOM     89  C   UNL A   1      39.146  35.384  38.918  1.00  0.00     0.059 A 
ATOM     90  C   UNL A   1      40.938  36.509  37.725  1.00  0.00     0.059 A 
ATOM     91  F   UNL A   1      41.786  35.576  35.750  1.00  0.00    -0.206 F 
ATOM     92  C   UNL A   1      40.034  36.453  38.785  1.00  0.00     0.060 A 
BRANCH  92  93
ATOM     93  S   UNL A   1      40.006  37.760  40.028  1.00  0.00     0.124 S 
ATOM     94  O   UNL A   1      38.762  38.450  39.700  1.00  0.00    -0.237 OA
ATOM     95  O   UNL A   1      40.001  37.005  41.277  1.00  0.00    -0.237 OA
ATOM     96  O   UNL A   1      41.229  38.511  39.761  1.00  0.00    -0.744 OA
ENDBRANCH  92  93
ENDBRANCH  60  85
ENDBRANCH  34  35
ENDBRANCH  26  29
ENDBRANCH  24  25
ENDBRANCH  23  24
ENDBRANCH  22  23
ENDBRANCH   3  22
TORSDOF 19
ENDMDL
MODEL 3
REMARK VINA RESULT:     -10.5      5.982      8.419
REMARK SMILES C[C@H](C(=O)NCCCNC(=O)c1ccc(-c2c3nc(c(-c4c(F)cc(S(=O)(=O)[O-])cc4F)c4ccc([nH]4)c(-c4c(F)cc(S(=O)(=O)[O-])cc4F)c4nc(c(-c5c(F)cc(S(=O)(=O)[O-])cc5F)c5ccc2[nH]5)C=C4)C=C3)cc1)[C@@H](C)[NH2+]C[C@@H]1CCCC[C@@H]1CO
REMARK SMILES IDX 3 1 4 2 5 3 2 5 1 6 78 7 79 8 80 9 81 12 82 13 83 14 87 15
REMARK SMILES IDX 84 16 86 17 85 18 88 19 89 20 6 22 7 23 8 24 9 25 10 26
REMARK SMILES IDX 11 28 12 29 13 30 77 31 14 32 76 33 15 34 16 35 17 36 70 37
REMARK SMILES IDX 18 38 75 39 69 40 71 41 19 42 74 43 68 44 67 45 20 47 54 48
REMARK SMILES IDX 33 49 53 50 34 51 37 52 52 53 72 54 35 55 36 56 51 58 73 59
REMARK SMILES IDX 38 60 21 61 22 62 31 63 23 64 24 65 30 66 32 67 25 68 26 69
REMARK SMILES IDX 27 70 28 71 29 72 55 73 56 74 65 75 57 76 58 77 64 78 66 79
REMARK SMILES IDX 59 80 60 81 61 82 62 83 63 84 39 85 40 86 49 87 41 88 42 89
REMARK SMILES IDX 48 90 50 91 43 92 44 93 45 94 46 95 47 96
REMARK H PARENT 5 4 80 10 80 11 89 21 9 27 71 46 37 57
REMARK Flexibility Score: inf
ROOT
ATOM      1  C   UNL A   1      37.015  23.309  25.539  1.00  0.00     0.228 C 
ATOM      2  O   UNL A   1      37.661  24.148  26.185  1.00  0.00    -0.275 OA
ATOM      3  N   UNL A   1      37.644  22.114  25.388  1.00  0.00    -0.356 N 
ATOM      4  H   UNL A   1      38.617  22.185  25.521  1.00  0.00     0.163 HD
ENDROOT
BRANCH   1   5
ATOM      5  C   UNL A   1      35.665  23.745  24.911  1.00  0.00     0.133 C 
ATOM      6  C   UNL A   1      35.652  23.211  23.476  1.00  0.00     0.024 C 
BRANCH   5   7
ATOM      7  C   UNL A   1      34.407  23.465  25.768  1.00  0.00     0.191 C 
ATOM      8  C   UNL A   1      33.785  24.855  26.083  1.00  0.00     0.076 C 
BRANCH   7   9
ATOM      9  N   UNL A   1      33.358  22.555  25.247  1.00  0.00    -0.343 N 
ATOM     10  H   UNL A   1      33.262  22.715  24.244  1.00  0.00     0.346 HD
ATOM     11  H   UNL A   1      32.501  22.766  25.759  1.00  0.00     0.346 HD
BRANCH   9  12
ATOM     12  C   UNL A   1      33.651  21.108  25.467  1.00  0.00     0.264 C 
BRANCH  12  13
ATOM     13  C   UNL A   1      33.657  20.112  24.242  1.00  0.00     0.049 C 
ATOM     14  C   UNL A   1      32.467  20.332  23.303  1.00  0.00     0.010 C 
ATOM     15  C   UNL A   1      33.775  18.600  24.647  1.00  0.00     0.023 C 
ATOM     16  C   UNL A   1      32.230  19.329  22.186  1.00  0.00     0.001 C 
ATOM     17  C   UNL A   1      33.625  17.685  23.408  1.00  0.00     0.006 C 
ATOM     18  C   UNL A   1      32.307  17.901  22.676  1.00  0.00     0.000 C 
BRANCH  15  19
ATOM     19  C   UNL A   1      32.783  18.141  25.733  1.00  0.00     0.160 C 
BRANCH  19  20
ATOM     20  O   UNL A   1      33.188  16.900  26.291  1.00  0.00    -0.396 OA
ATOM     21  H   UNL A   1      32.883  16.843  27.210  1.00  0.00     0.210 HD
ENDBRANCH  19  20
ENDBRANCH  15  19
ENDBRANCH  12  13
ENDBRANCH   9  12
ENDBRANCH   7   9
ENDBRANCH   5   7
ENDBRANCH   1   5
BRANCH   3  22
ATOM     22  C   UNL A   1      37.231  20.754  25.079  1.00  0.00     0.117 C 
BRANCH  22  23
ATOM     23  C   UNL A   1      38.342  19.723  25.190  1.00  0.00     0.042 C 
BRANCH  23  24
ATOM     24  C   UNL A   1      39.570  20.297  25.879  1.00  0.00     0.118 C 
BRANCH  24  25
ATOM     25  N   UNL A   1      40.626  19.304  26.080  1.00  0.00    -0.352 N 
ATOM     26  C   UNL A   1      41.972  19.457  26.328  1.00  0.00     0.251 C 
ATOM     27  H   UNL A   1      40.323  18.369  26.029  1.00  0.00     0.163 HD
ATOM     28  O   UNL A   1      42.692  18.472  26.341  1.00  0.00    -0.269 OA
BRANCH  26  29
ATOM     29  C   UNL A   1      42.540  20.807  26.541  1.00  0.00     0.039 A 
ATOM     30  C   UNL A   1      42.926  21.562  25.431  1.00  0.00     0.014 A 
ATOM     31  C   UNL A   1      42.683  21.333  27.823  1.00  0.00     0.014 A 
ATOM     32  C   UNL A   1      43.390  22.868  25.612  1.00  0.00     0.010 A 
ATOM     33  C   UNL A   1      43.005  22.671  27.991  1.00  0.00     0.010 A 
ATOM     34  C   UNL A   1      43.394  23.447  26.892  1.00  0.00    -0.014 A 
BRANCH  34  35
ATOM     35  C   UNL A   1      43.853  24.839  27.122  1.00  0.00     0.031 A 
ATOM     36  C   UNL A   1      45.302  25.194  26.895  1.00  0.00     0.074 A 
ATOM     37  C   UNL A   1      42.992  25.760  27.598  1.00  0.00     0.049 A 
ATOM     38  N   UNL A   1      45.922  26.324  27.119  1.00  0.00    -0.248 NA
ATOM     39  C   UNL A   1      46.182  24.123  26.394  1.00  0.00     0.031 C 
ATOM     40  C   UNL A   1      41.584  25.518  27.927  1.00  0.00     0.029 A 
ATOM     41  N   UNL A   1      43.175  27.087  27.895  1.00  0.00    -0.354 N 
ATOM     42  C   UNL A   1      47.258  26.087  26.814  1.00  0.00     0.074 A 
ATOM     43  C   UNL A   1      47.374  24.691  26.470  1.00  0.00     0.031 C 
ATOM     44  C   UNL A   1      41.024  26.665  28.343  1.00  0.00     0.029 A 
ATOM     45  C   UNL A   1      42.039  27.714  28.349  1.00  0.00     0.049 A 
ATOM     46  H   UNL A   1      44.039  27.547  27.792  1.00  0.00     0.167 HD
ATOM     47  C   UNL A   1      48.288  26.965  26.782  1.00  0.00     0.037 A 
ATOM     48  C   UNL A   1      41.839  28.992  28.727  1.00  0.00     0.037 A 
ATOM     49  C   UNL A   1      48.150  28.365  27.078  1.00  0.00     0.049 A 
ATOM     50  C   UNL A   1      42.989  29.958  28.649  1.00  0.00     0.074 A 
ATOM     51  C   UNL A   1      49.111  29.358  27.014  1.00  0.00     0.029 A 
ATOM     52  N   UNL A   1      46.972  28.972  27.487  1.00  0.00    -0.354 N 
ATOM     53  N   UNL A   1      44.233  29.732  28.293  1.00  0.00    -0.248 NA
ATOM     54  C   UNL A   1      42.710  31.353  29.009  1.00  0.00     0.031 C 
ATOM     55  C   UNL A   1      48.523  30.558  27.423  1.00  0.00     0.029 A 
ATOM     56  C   UNL A   1      47.183  30.325  27.691  1.00  0.00     0.049 A 
ATOM     57  H   UNL A   1      46.112  28.508  27.614  1.00  0.00     0.167 HD
ATOM     58  C   UNL A   1      44.876  30.964  28.355  1.00  0.00     0.074 A 
ATOM     59  C   UNL A   1      43.879  31.931  28.770  1.00  0.00     0.031 C 
ATOM     60  C   UNL A   1      46.171  31.270  28.094  1.00  0.00     0.037 A 
BRANCH  47  61
ATOM     61  C   UNL A   1      49.644  26.435  26.395  1.00  0.00     0.058 A 
ATOM     62  C   UNL A   1      50.126  26.530  25.078  1.00  0.00     0.135 A 
ATOM     63  C   UNL A   1      50.480  25.840  27.353  1.00  0.00     0.135 A 
ATOM     64  F   UNL A   1      49.363  27.072  24.115  1.00  0.00    -0.206 F 
ATOM     65  C   UNL A   1      51.370  26.024  24.718  1.00  0.00     0.059 A 
ATOM     66  C   UNL A   1      51.744  25.357  27.023  1.00  0.00     0.059 A 
ATOM     67  F   UNL A   1      50.072  25.719  28.625  1.00  0.00    -0.206 F 
ATOM     68  C   UNL A   1      52.173  25.439  25.699  1.00  0.00     0.060 A 
BRANCH  68  69
ATOM     69  S   UNL A   1      53.788  24.795  25.215  1.00  0.00     0.124 S 
ATOM     70  O   UNL A   1      53.996  25.464  23.933  1.00  0.00    -0.237 OA
ATOM     71  O   UNL A   1      54.643  25.244  26.309  1.00  0.00    -0.237 OA
ATOM     72  O   UNL A   1      53.572  23.354  25.143  1.00  0.00    -0.744 OA
ENDBRANCH  68  69
ENDBRANCH  47  61
BRANCH  48  73
ATOM     73  C   UNL A   1      40.489  29.435  29.171  1.00  0.00     0.058 A 
ATOM     74  C   UNL A   1      39.450  29.621  28.248  1.00  0.00     0.135 A 
ATOM     75  C   UNL A   1      40.206  29.664  30.527  1.00  0.00     0.135 A 
ATOM     76  F   UNL A   1      39.670  29.417  26.940  1.00  0.00    -0.206 F 
ATOM     77  C   UNL A   1      38.183  30.037  28.647  1.00  0.00     0.059 A 
ATOM     78  C   UNL A   1      38.940  30.053  30.955  1.00  0.00     0.059 A 
ATOM     79  F   UNL A   1      41.159  29.479  31.454  1.00  0.00    -0.206 F 
ATOM     80  C   UNL A   1      37.937  30.248  30.005  1.00  0.00     0.060 A 
BRANCH  80  81
ATOM     81  S   UNL A   1      36.276  30.739  30.518  1.00  0.00     0.124 S 
ATOM     82  O   UNL A   1      36.485  32.132  30.896  1.00  0.00    -0.237 OA
ATOM     83  O   UNL A   1      35.503  30.516  29.301  1.00  0.00    -0.237 OA
ATOM     84  O   UNL A   1      35.981  29.824  31.616  1.00  0.00    -0.744 OA
ENDBRANCH  80  81
ENDBRANCH  48  73
BRANCH  60  85
ATOM     85  C   UNL A   1      46.575  32.714  28.203  1.00  0.00     0.058 A 
ATOM     86  C   UNL A   1      46.434  33.606  27.129  1.00  0.00     0.135 A 
ATOM     87  C   UNL A   1      47.069  33.220  29.417  1.00  0.00     0.135 A 
ATOM     88  F   UNL A   1      45.970  33.172  25.946  1.00  0.00    -0.206 F 
ATOM     89  C   UNL A   1      46.803  34.942  27.244  1.00  0.00     0.059 A 
ATOM     90  C   UNL A   1      47.413  34.559  29.564  1.00  0.00     0.059 A 
ATOM     91  F   UNL A   1      47.209  32.411  30.480  1.00  0.00    -0.206 F 
ATOM     92  C   UNL A   1      47.292  35.409  28.465  1.00  0.00     0.060 A 
BRANCH  92  93
ATOM     93  S   UNL A   1      47.751  37.148  28.606  1.00  0.00     0.124 S 
ATOM     94  O   UNL A   1      48.423  37.170  29.901  1.00  0.00    -0.237 OA
ATOM     95  O   UNL A   1      48.611  37.340  27.442  1.00  0.00    -0.237 OA
ATOM     96  O   UNL A   1      46.469  37.844  28.552  1.00  0.00    -0.744 OA
ENDBRANCH  92  93
ENDBRANCH  60  85
ENDBRANCH  34  35
ENDBRANCH  26  29
ENDBRANCH  24  25
ENDBRANCH  23  24
ENDBRANCH  22  23
ENDBRANCH   3  22
TORSDOF 19
ENDMDL
