MODEL 1
REMARK VINA RESULT:     -10.4      0.000      0.000
REMARK SMILES NS(=O)(=O)c1ccc(-n2nc(C(=O)NCCCCCCCCCCC(=O)NCCCNC(=O)c3ccc(-c4c5nc(c(-c6c(F)cc(S(=O)(=O)[O-])cc6F)c6ccc([nH]6)c(-c6c(F)cc(S(=O)(=O)[O-])cc6F)c6nc(c(-c7c(F)cc(S(=O)(=O)[O-])cc7F)c7ccc4[nH]7)C=C6)C=C5)cc3)cc2-c2ccccc2)cc1
REMARK SMILES IDX 21 1 20 2 19 3 18 4 17 5 16 6 15 7 14 8 12 9 13 10 11 12
REMARK SMILES IDX 9 13 10 14 101 15 100 16 8 17 5 18 6 19 109 20 7 21 108 22
REMARK SMILES IDX 2 23 3 24 4 25 1 26 102 29 103 30 107 31 104 32 106 33
REMARK SMILES IDX 105 34 22 35 23 36 24 37 25 38 26 39 27 40 28 42 29 43 30 44
REMARK SMILES IDX 31 45 32 46 33 48 34 49 35 50 99 51 36 52 98 53 37 54 38 55
REMARK SMILES IDX 39 56 92 57 40 58 97 59 91 60 93 61 41 62 96 63 90 64 89 65
REMARK SMILES IDX 42 67 76 68 55 69 75 70 56 71 59 72 74 73 94 74 57 75 58 76
REMARK SMILES IDX 73 78 95 79 60 80 43 81 44 82 53 83 45 84 46 85 52 86 54 87
REMARK SMILES IDX 47 88 48 89 49 90 50 91 51 92 77 93 78 94 87 95 79 96 80 97
REMARK SMILES IDX 86 98 88 99 81 100 82 101 83 102 84 103 85 104 61 105 62 106
REMARK SMILES IDX 71 107 63 108 64 109 70 110 72 111 65 112 66 113 67 114
REMARK SMILES IDX 68 115 69 116
REMARK H PARENT 14 11 1 27 1 28 27 41 31 47 93 66 59 77
REMARK Flexibility Score: inf
ROOT
ATOM      1  C   UNL A   1      32.615  27.148  26.867  1.00  0.00     0.000 C 
ENDROOT
BRANCH   1   2
ATOM      2  C   UNL A   1      31.623  27.115  25.717  1.00  0.00     0.000 C 
BRANCH   2   3
ATOM      3  C   UNL A   1      31.021  28.488  25.419  1.00  0.00     0.000 C 
BRANCH   3   4
ATOM      4  C   UNL A   1      31.343  29.020  24.015  1.00  0.00     0.000 C 
BRANCH   4   5
ATOM      5  C   UNL A   1      32.839  29.015  23.669  1.00  0.00     0.002 C 
BRANCH   5   6
ATOM      6  C   UNL A   1      33.184  28.122  22.472  1.00  0.00     0.021 C 
BRANCH   6   7
ATOM      7  C   UNL A   1      31.984  27.287  22.028  1.00  0.00     0.116 C 
BRANCH   7   8
ATOM      8  N   UNL A   1      32.351  26.430  20.932  1.00  0.00    -0.351 N 
ATOM      9  C   UNL A   1      32.872  25.164  20.886  1.00  0.00     0.271 C 
ATOM     10  O   UNL A   1      33.134  24.737  19.758  1.00  0.00    -0.267 OA
ATOM     11  H   UNL A   1      32.198  26.831  20.046  1.00  0.00     0.163 HD
BRANCH   9  12
ATOM     12  C   UNL A   1      33.047  24.344  22.103  1.00  0.00     0.151 A 
ATOM     13  N   UNL A   1      33.203  22.513  23.213  1.00  0.00    -0.232 N 
ATOM     14  N   UNL A   1      33.335  23.033  21.979  1.00  0.00    -0.162 NA
ATOM     15  C   UNL A   1      32.995  23.481  24.175  1.00  0.00     0.075 A 
ATOM     16  C   UNL A   1      32.991  24.669  23.480  1.00  0.00     0.065 A 
BRANCH  13  17
ATOM     17  C   UNL A   1      33.342  21.125  23.416  1.00  0.00     0.065 A 
ATOM     18  C   UNL A   1      33.408  18.461  24.138  1.00  0.00     0.082 A 
ATOM     19  C   UNL A   1      32.408  18.911  23.272  1.00  0.00     0.024 A 
ATOM     20  C   UNL A   1      34.423  19.317  24.583  1.00  0.00     0.024 A 
ATOM     21  C   UNL A   1      32.369  20.253  22.917  1.00  0.00     0.030 A 
ATOM     22  C   UNL A   1      34.405  20.657  24.199  1.00  0.00     0.030 A 
BRANCH  18  23
ATOM     23  S   UNL A   1      33.380  16.794  24.712  1.00  0.00     0.238 S 
ATOM     24  O   UNL A   1      33.292  15.923  23.549  1.00  0.00    -0.207 OA
ATOM     25  O   UNL A   1      32.495  16.688  25.832  1.00  0.00    -0.207 OA
BRANCH  23  26
ATOM     26  N   UNL A   1      34.926  16.563  25.333  1.00  0.00    -0.225 NA
ATOM     27  H   UNL A   1      35.154  15.569  25.314  1.00  0.00     0.137 HD
ATOM     28  H   UNL A   1      34.960  16.901  26.294  1.00  0.00     0.137 HD
ENDBRANCH  23  26
ENDBRANCH  18  23
ENDBRANCH  13  17
BRANCH  15  29
ATOM     29  C   UNL A   1      32.952  23.292  25.621  1.00  0.00     0.000 A 
ATOM     30  C   UNL A   1      31.729  23.133  26.283  1.00  0.00     0.010 A 
ATOM     31  C   UNL A   1      34.144  23.221  26.352  1.00  0.00     0.010 A 
ATOM     32  C   UNL A   1      31.698  22.918  27.661  1.00  0.00     0.001 A 
ATOM     33  C   UNL A   1      34.112  23.006  27.732  1.00  0.00     0.001 A 
ATOM     34  C   UNL A   1      32.888  22.854  28.385  1.00  0.00     0.000 A 
ENDBRANCH  15  29
ENDBRANCH   9  12
ENDBRANCH   7   8
ENDBRANCH   6   7
ENDBRANCH   5   6
ENDBRANCH   4   5
ENDBRANCH   3   4
ENDBRANCH   2   3
ENDBRANCH   1   2
BRANCH   1  35
ATOM     35  C   UNL A   1      32.811  28.554  27.444  1.00  0.00     0.001 C 
BRANCH  35  36
ATOM     36  C   UNL A   1      34.183  29.142  27.156  1.00  0.00     0.010 C 
BRANCH  36  37
ATOM     37  C   UNL A   1      34.300  30.648  27.387  1.00  0.00     0.100 C 
BRANCH  37  38
ATOM     38  C   UNL A   1      35.711  31.110  27.689  1.00  0.00     0.219 C 
ATOM     39  O   UNL A   1      36.653  30.326  27.569  1.00  0.00    -0.275 OA
ATOM     40  N   UNL A   1      35.983  32.386  28.089  1.00  0.00    -0.356 N 
ATOM     41  H   UNL A   1      36.925  32.538  28.334  1.00  0.00     0.163 HD
BRANCH  40  42
ATOM     42  C   UNL A   1      35.135  33.565  28.221  1.00  0.00     0.117 C 
BRANCH  42  43
ATOM     43  C   UNL A   1      34.934  34.027  29.678  1.00  0.00     0.042 C 
BRANCH  43  44
ATOM     44  C   UNL A   1      34.628  32.906  30.639  1.00  0.00     0.118 C 
BRANCH  44  45
ATOM     45  N   UNL A   1      34.817  33.244  32.059  1.00  0.00    -0.352 N 
ATOM     46  C   UNL A   1      35.868  32.841  32.888  1.00  0.00     0.251 C 
ATOM     47  H   UNL A   1      34.127  33.815  32.468  1.00  0.00     0.163 HD
ATOM     48  O   UNL A   1      35.754  32.854  34.107  1.00  0.00    -0.269 OA
BRANCH  46  49
ATOM     49  C   UNL A   1      37.121  32.404  32.240  1.00  0.00     0.039 A 
ATOM     50  C   UNL A   1      38.205  33.219  31.906  1.00  0.00     0.014 A 
ATOM     51  C   UNL A   1      37.236  31.039  32.111  1.00  0.00     0.014 A 
ATOM     52  C   UNL A   1      39.385  32.589  31.499  1.00  0.00     0.010 A 
ATOM     53  C   UNL A   1      38.471  30.530  32.311  1.00  0.00     0.010 A 
ATOM     54  C   UNL A   1      39.492  31.207  31.698  1.00  0.00    -0.014 A 
BRANCH  54  55
ATOM     55  C   UNL A   1      40.625  30.364  31.356  1.00  0.00     0.031 A 
ATOM     56  C   UNL A   1      41.489  30.032  32.503  1.00  0.00     0.074 A 
ATOM     57  C   UNL A   1      40.704  29.707  30.170  1.00  0.00     0.049 A 
ATOM     58  N   UNL A   1      42.638  30.540  32.790  1.00  0.00    -0.248 NA
ATOM     59  C   UNL A   1      40.924  29.185  33.566  1.00  0.00     0.031 C 
ATOM     60  C   UNL A   1      39.736  29.653  29.057  1.00  0.00     0.029 A 
ATOM     61  N   UNL A   1      41.668  28.851  29.741  1.00  0.00    -0.354 N 
ATOM     62  C   UNL A   1      43.062  29.865  33.925  1.00  0.00     0.074 A 
ATOM     63  C   UNL A   1      41.886  29.257  34.489  1.00  0.00     0.031 C 
ATOM     64  C   UNL A   1      40.060  28.653  28.206  1.00  0.00     0.029 A 
ATOM     65  C   UNL A   1      41.346  28.118  28.601  1.00  0.00     0.049 A 
ATOM     66  H   UNL A   1      42.532  28.754  30.203  1.00  0.00     0.167 HD
ATOM     67  C   UNL A   1      44.385  29.622  34.143  1.00  0.00     0.037 A 
ATOM     68  C   UNL A   1      42.095  27.135  28.035  1.00  0.00     0.037 A 
ATOM     69  C   UNL A   1      45.208  30.392  33.236  1.00  0.00     0.049 A 
ATOM     70  C   UNL A   1      43.487  27.338  28.526  1.00  0.00     0.074 A 
ATOM     71  C   UNL A   1      45.356  31.742  32.975  1.00  0.00     0.029 A 
ATOM     72  N   UNL A   1      45.713  29.745  32.131  1.00  0.00    -0.354 N 
ATOM     73  N   UNL A   1      44.202  28.396  28.240  1.00  0.00    -0.248 NA
ATOM     74  C   UNL A   1      43.876  26.636  29.741  1.00  0.00     0.031 C 
ATOM     75  C   UNL A   1      45.467  31.832  31.555  1.00  0.00     0.029 A 
ATOM     76  C   UNL A   1      45.468  30.536  31.035  1.00  0.00     0.049 A 
ATOM     77  H   UNL A   1      46.167  28.871  32.127  1.00  0.00     0.167 HD
ATOM     78  C   UNL A   1      44.841  28.734  29.428  1.00  0.00     0.074 A 
ATOM     79  C   UNL A   1      44.650  27.574  30.299  1.00  0.00     0.031 C 
ATOM     80  C   UNL A   1      45.203  30.024  29.703  1.00  0.00     0.037 A 
BRANCH  67  81
ATOM     81  C   UNL A   1      44.921  28.429  34.895  1.00  0.00     0.058 A 
ATOM     82  C   UNL A   1      44.521  27.137  34.501  1.00  0.00     0.135 A 
ATOM     83  C   UNL A   1      45.593  28.509  36.136  1.00  0.00     0.135 A 
ATOM     84  F   UNL A   1      43.869  26.947  33.343  1.00  0.00    -0.206 F 
ATOM     85  C   UNL A   1      44.714  26.018  35.311  1.00  0.00     0.059 A 
ATOM     86  C   UNL A   1      45.847  27.399  36.931  1.00  0.00     0.059 A 
ATOM     87  F   UNL A   1      45.950  29.674  36.687  1.00  0.00    -0.206 F 
ATOM     88  C   UNL A   1      45.366  26.164  36.532  1.00  0.00     0.060 A 
BRANCH  88  89
ATOM     89  S   UNL A   1      45.520  24.745  37.628  1.00  0.00     0.124 S 
ATOM     90  O   UNL A   1      46.160  23.771  36.752  1.00  0.00    -0.237 OA
ATOM     91  O   UNL A   1      46.348  25.282  38.703  1.00  0.00    -0.237 OA
ATOM     92  O   UNL A   1      44.138  24.453  37.996  1.00  0.00    -0.744 OA
ENDBRANCH  88  89
ENDBRANCH  67  81
BRANCH  68  93
ATOM     93  C   UNL A   1      41.607  25.845  27.465  1.00  0.00     0.058 A 
ATOM     94  C   UNL A   1      42.302  25.184  26.435  1.00  0.00     0.135 A 
ATOM     95  C   UNL A   1      40.604  25.095  28.113  1.00  0.00     0.135 A 
ATOM     96  F   UNL A   1      43.287  25.812  25.776  1.00  0.00    -0.206 F 
ATOM     97  C   UNL A   1      42.049  23.845  26.101  1.00  0.00     0.059 A 
ATOM     98  C   UNL A   1      40.330  23.764  27.793  1.00  0.00     0.059 A 
ATOM     99  F   UNL A   1      39.917  25.607  29.143  1.00  0.00    -0.206 F 
ATOM    100  C   UNL A   1      41.075  23.135  26.802  1.00  0.00     0.060 A 
BRANCH 100 101
ATOM    101  S   UNL A   1      40.866  21.363  26.499  1.00  0.00     0.124 S 
ATOM    102  O   UNL A   1      39.571  21.321  25.827  1.00  0.00    -0.237 OA
ATOM    103  O   UNL A   1      42.024  21.053  25.668  1.00  0.00    -0.237 OA
ATOM    104  O   UNL A   1      40.893  20.782  27.839  1.00  0.00    -0.744 OA
ENDBRANCH 100 101
ENDBRANCH  68  93
BRANCH  80 105
ATOM    105  C   UNL A   1      45.117  31.047  28.589  1.00  0.00     0.058 A 
ATOM    106  C   UNL A   1      46.074  31.198  27.568  1.00  0.00     0.135 A 
ATOM    107  C   UNL A   1      43.938  31.793  28.460  1.00  0.00     0.135 A 
ATOM    108  F   UNL A   1      47.184  30.452  27.549  1.00  0.00    -0.206 F 
ATOM    109  C   UNL A   1      45.888  32.077  26.496  1.00  0.00     0.059 A 
ATOM    110  C   UNL A   1      43.716  32.655  27.387  1.00  0.00     0.059 A 
ATOM    111  F   UNL A   1      42.953  31.651  29.363  1.00  0.00    -0.206 F 
ATOM    112  C   UNL A   1      44.702  32.802  26.414  1.00  0.00     0.060 A 
BRANCH 112 113
ATOM    113  S   UNL A   1      44.433  33.893  24.998  1.00  0.00     0.124 S 
ATOM    114  O   UNL A   1      43.977  32.960  23.974  1.00  0.00    -0.237 OA
ATOM    115  O   UNL A   1      43.426  34.824  25.501  1.00  0.00    -0.237 OA
ATOM    116  O   UNL A   1      45.749  34.481  24.765  1.00  0.00    -0.744 OA
ENDBRANCH 112 113
ENDBRANCH  80 105
ENDBRANCH  54  55
ENDBRANCH  46  49
ENDBRANCH  44  45
ENDBRANCH  43  44
ENDBRANCH  42  43
ENDBRANCH  40  42
ENDBRANCH  37  38
ENDBRANCH  36  37
ENDBRANCH  35  36
ENDBRANCH   1  35
TORSDOF 28
ENDMDL
MODEL 2
REMARK VINA RESULT:      -9.9      4.170      6.226
REMARK SMILES NS(=O)(=O)c1ccc(-n2nc(C(=O)NCCCCCCCCCCC(=O)NCCCNC(=O)c3ccc(-c4c5nc(c(-c6c(F)cc(S(=O)(=O)[O-])cc6F)c6ccc([nH]6)c(-c6c(F)cc(S(=O)(=O)[O-])cc6F)c6nc(c(-c7c(F)cc(S(=O)(=O)[O-])cc7F)c7ccc4[nH]7)C=C6)C=C5)cc3)cc2-c2ccccc2)cc1
REMARK SMILES IDX 21 1 20 2 19 3 18 4 17 5 16 6 15 7 14 8 12 9 13 10 11 12
REMARK SMILES IDX 9 13 10 14 101 15 100 16 8 17 5 18 6 19 109 20 7 21 108 22
REMARK SMILES IDX 2 23 3 24 4 25 1 26 102 29 103 30 107 31 104 32 106 33
REMARK SMILES IDX 105 34 22 35 23 36 24 37 25 38 26 39 27 40 28 42 29 43 30 44
REMARK SMILES IDX 31 45 32 46 33 48 34 49 35 50 99 51 36 52 98 53 37 54 38 55
REMARK SMILES IDX 39 56 92 57 40 58 97 59 91 60 93 61 41 62 96 63 90 64 89 65
REMARK SMILES IDX 42 67 76 68 55 69 75 70 56 71 59 72 74 73 94 74 57 75 58 76
REMARK SMILES IDX 73 78 95 79 60 80 43 81 44 82 53 83 45 84 46 85 52 86 54 87
REMARK SMILES IDX 47 88 48 89 49 90 50 91 51 92 77 93 78 94 87 95 79 96 80 97
REMARK SMILES IDX 86 98 88 99 81 100 82 101 83 102 84 103 85 104 61 105 62 106
REMARK SMILES IDX 71 107 63 108 64 109 70 110 72 111 65 112 66 113 67 114
REMARK SMILES IDX 68 115 69 116
REMARK H PARENT 14 11 1 27 1 28 27 41 31 47 93 66 59 77
REMARK Flexibility Score: inf
ROOT
ATOM      1  C   UNL A   1      34.779  28.771  26.545  1.00  0.00     0.000 C 
ENDROOT
BRANCH   1   2
ATOM      2  C   UNL A   1      33.466  28.565  27.278  1.00  0.00     0.000 C 
BRANCH   2   3
ATOM      3  C   UNL A   1      32.318  29.373  26.671  1.00  0.00     0.000 C 
BRANCH   3   4
ATOM      4  C   UNL A   1      31.374  28.548  25.784  1.00  0.00     0.000 C 
BRANCH   4   5
ATOM      5  C   UNL A   1      31.281  29.045  24.334  1.00  0.00     0.002 C 
BRANCH   5   6
ATOM      6  C   UNL A   1      32.059  28.175  23.341  1.00  0.00     0.021 C 
BRANCH   6   7
ATOM      7  C   UNL A   1      31.159  27.129  22.685  1.00  0.00     0.116 C 
BRANCH   7   8
ATOM      8  N   UNL A   1      31.739  26.677  21.448  1.00  0.00    -0.351 N 
ATOM      9  C   UNL A   1      32.613  25.664  21.155  1.00  0.00     0.271 C 
ATOM     10  O   UNL A   1      32.964  25.588  19.975  1.00  0.00    -0.267 OA
ATOM     11  H   UNL A   1      31.453  27.197  20.662  1.00  0.00     0.163 HD
BRANCH   9  12
ATOM     12  C   UNL A   1      33.054  24.690  22.176  1.00  0.00     0.151 A 
ATOM     13  N   UNL A   1      34.483  23.700  23.435  1.00  0.00    -0.232 N 
ATOM     14  N   UNL A   1      34.267  24.834  22.743  1.00  0.00    -0.162 NA
ATOM     15  C   UNL A   1      33.370  22.883  23.469  1.00  0.00     0.075 A 
ATOM     16  C   UNL A   1      32.417  23.559  22.743  1.00  0.00     0.065 A 
BRANCH  13  17
ATOM     17  C   UNL A   1      35.720  23.485  24.076  1.00  0.00     0.065 A 
ATOM     18  C   UNL A   1      37.954  22.799  25.547  1.00  0.00     0.082 A 
ATOM     19  C   UNL A   1      37.719  22.167  24.322  1.00  0.00     0.024 A 
ATOM     20  C   UNL A   1      37.121  23.828  26.004  1.00  0.00     0.024 A 
ATOM     21  C   UNL A   1      36.590  22.506  23.588  1.00  0.00     0.030 A 
ATOM     22  C   UNL A   1      36.007  24.192  25.251  1.00  0.00     0.030 A 
BRANCH  18  23
ATOM     23  S   UNL A   1      39.301  22.274  26.556  1.00  0.00     0.238 S 
ATOM     24  O   UNL A   1      39.188  20.834  26.738  1.00  0.00    -0.207 OA
ATOM     25  O   UNL A   1      39.465  23.185  27.648  1.00  0.00    -0.207 OA
BRANCH  23  26
ATOM     26  N   UNL A   1      40.645  22.500  25.571  1.00  0.00    -0.225 NA
ATOM     27  H   UNL A   1      40.442  23.221  24.879  1.00  0.00     0.137 HD
ATOM     28  H   UNL A   1      40.869  21.626  25.096  1.00  0.00     0.137 HD
ENDBRANCH  23  26
ENDBRANCH  18  23
ENDBRANCH  13  17
BRANCH  15  29
ATOM     29  C   UNL A   1      33.202  21.656  24.240  1.00  0.00     0.000 A 
ATOM     30  C   UNL A   1      32.854  20.458  23.607  1.00  0.00     0.010 A 
ATOM     31  C   UNL A   1      33.434  21.661  25.622  1.00  0.00     0.010 A 
ATOM     32  C   UNL A   1      32.729  19.281  24.346  1.00  0.00     0.001 A 
ATOM     33  C   UNL A   1      33.307  20.483  26.361  1.00  0.00     0.001 A 
ATOM     34  C   UNL A   1      32.955  19.294  25.722  1.00  0.00     0.000 A 
ENDBRANCH  15  29
ENDBRANCH   9  12
ENDBRANCH   7   8
ENDBRANCH   6   7
ENDBRANCH   5   6
ENDBRANCH   4   5
ENDBRANCH   3   4
ENDBRANCH   2   3
ENDBRANCH   1   2
BRANCH   1  35
ATOM     35  C   UNL A   1      35.855  29.424  27.420  1.00  0.00     0.001 C 
BRANCH  35  36
ATOM     36  C   UNL A   1      35.303  30.068  28.681  1.00  0.00     0.010 C 
BRANCH  36  37
ATOM     37  C   UNL A   1      36.359  30.528  29.685  1.00  0.00     0.100 C 
BRANCH  37  38
ATOM     38  C   UNL A   1      37.502  31.297  29.055  1.00  0.00     0.219 C 
ATOM     39  O   UNL A   1      38.650  30.856  29.121  1.00  0.00    -0.275 OA
ATOM     40  N   UNL A   1      37.305  32.478  28.400  1.00  0.00    -0.356 N 
ATOM     41  H   UNL A   1      38.135  32.921  28.110  1.00  0.00     0.163 HD
BRANCH  40  42
ATOM     42  C   UNL A   1      36.089  33.206  28.053  1.00  0.00     0.117 C 
BRANCH  42  43
ATOM     43  C   UNL A   1      35.584  34.141  29.169  1.00  0.00     0.042 C 
BRANCH  43  44
ATOM     44  C   UNL A   1      34.260  33.728  29.763  1.00  0.00     0.118 C 
BRANCH  44  45
ATOM     45  N   UNL A   1      33.614  34.754  30.598  1.00  0.00    -0.352 N 
ATOM     46  C   UNL A   1      33.625  34.834  31.993  1.00  0.00     0.251 C 
ATOM     47  H   UNL A   1      33.119  35.459  30.121  1.00  0.00     0.163 HD
ATOM     48  O   UNL A   1      32.778  35.478  32.599  1.00  0.00    -0.269 OA
BRANCH  46  49
ATOM     49  C   UNL A   1      34.699  34.115  32.711  1.00  0.00     0.039 A 
ATOM     50  C   UNL A   1      34.913  32.735  32.704  1.00  0.00     0.014 A 
ATOM     51  C   UNL A   1      35.626  34.941  33.301  1.00  0.00     0.014 A 
ATOM     52  C   UNL A   1      36.105  32.265  33.264  1.00  0.00     0.010 A 
ATOM     53  C   UNL A   1      36.909  34.521  33.249  1.00  0.00     0.010 A 
ATOM     54  C   UNL A   1      37.107  33.200  33.554  1.00  0.00    -0.014 A 
BRANCH  54  55
ATOM     55  C   UNL A   1      38.413  32.926  34.129  1.00  0.00     0.031 A 
ATOM     56  C   UNL A   1      38.583  33.450  35.496  1.00  0.00     0.074 A 
ATOM     57  C   UNL A   1      39.267  32.022  33.583  1.00  0.00     0.049 A 
ATOM     58  N   UNL A   1      39.239  34.499  35.856  1.00  0.00    -0.248 NA
ATOM     59  C   UNL A   1      37.765  32.857  36.566  1.00  0.00     0.031 C 
ATOM     60  C   UNL A   1      39.087  31.146  32.409  1.00  0.00     0.029 A 
ATOM     61  N   UNL A   1      40.485  31.629  34.039  1.00  0.00    -0.354 N 
ATOM     62  C   UNL A   1      39.143  34.534  37.239  1.00  0.00     0.074 A 
ATOM     63  C   UNL A   1      38.036  33.680  37.582  1.00  0.00     0.031 C 
ATOM     64  C   UNL A   1      40.045  30.192  32.388  1.00  0.00     0.029 A 
ATOM     65  C   UNL A   1      41.008  30.491  33.427  1.00  0.00     0.049 A 
ATOM     66  H   UNL A   1      40.963  32.111  34.752  1.00  0.00     0.167 HD
ATOM     67  C   UNL A   1      40.159  35.028  38.000  1.00  0.00     0.037 A 
ATOM     68  C   UNL A   1      42.155  29.847  33.768  1.00  0.00     0.037 A 
ATOM     69  C   UNL A   1      41.122  35.732  37.182  1.00  0.00     0.049 A 
ATOM     70  C   UNL A   1      42.973  30.831  34.531  1.00  0.00     0.074 A 
ATOM     71  C   UNL A   1      41.054  36.813  36.323  1.00  0.00     0.029 A 
ATOM     72  N   UNL A   1      42.277  35.063  36.843  1.00  0.00    -0.354 N 
ATOM     73  N   UNL A   1      43.449  31.931  34.005  1.00  0.00    -0.248 NA
ATOM     74  C   UNL A   1      42.813  30.855  35.978  1.00  0.00     0.031 C 
ATOM     75  C   UNL A   1      41.878  36.455  35.213  1.00  0.00     0.029 A 
ATOM     76  C   UNL A   1      42.470  35.221  35.492  1.00  0.00     0.049 A 
ATOM     77  H   UNL A   1      42.860  34.562  37.458  1.00  0.00     0.167 HD
ATOM     78  C   UNL A   1      43.254  32.910  34.972  1.00  0.00     0.074 A 
ATOM     79  C   UNL A   1      42.916  32.171  36.190  1.00  0.00     0.031 C 
ATOM     80  C   UNL A   1      43.088  34.226  34.636  1.00  0.00     0.037 A 
BRANCH  67  81
ATOM     81  C   UNL A   1      40.483  34.562  39.398  1.00  0.00     0.058 A 
ATOM     82  C   UNL A   1      40.947  33.246  39.589  1.00  0.00     0.135 A 
ATOM     83  C   UNL A   1      40.112  35.255  40.572  1.00  0.00     0.135 A 
ATOM     84  F   UNL A   1      41.320  32.494  38.541  1.00  0.00    -0.206 F 
ATOM     85  C   UNL A   1      40.976  32.641  40.845  1.00  0.00     0.059 A 
ATOM     86  C   UNL A   1      40.188  34.692  41.840  1.00  0.00     0.059 A 
ATOM     87  F   UNL A   1      39.565  36.476  40.545  1.00  0.00    -0.206 F 
ATOM     88  C   UNL A   1      40.580  33.370  41.963  1.00  0.00     0.060 A 
BRANCH  88  89
ATOM     89  S   UNL A   1      40.511  32.561  43.569  1.00  0.00     0.124 S 
ATOM     90  O   UNL A   1      39.581  33.423  44.288  1.00  0.00    -0.237 OA
ATOM     91  O   UNL A   1      40.014  31.234  43.216  1.00  0.00    -0.237 OA
ATOM     92  O   UNL A   1      41.896  32.604  44.027  1.00  0.00    -0.744 OA
ENDBRANCH  88  89
ENDBRANCH  67  81
BRANCH  68  93
ATOM     93  C   UNL A   1      42.376  28.373  33.832  1.00  0.00     0.058 A 
ATOM     94  C   UNL A   1      43.246  27.718  32.941  1.00  0.00     0.135 A 
ATOM     95  C   UNL A   1      41.955  27.621  34.948  1.00  0.00     0.135 A 
ATOM     96  F   UNL A   1      43.715  28.361  31.862  1.00  0.00    -0.206 F 
ATOM     97  C   UNL A   1      43.708  26.413  33.170  1.00  0.00     0.059 A 
ATOM     98  C   UNL A   1      42.395  26.319  35.193  1.00  0.00     0.059 A 
ATOM     99  F   UNL A   1      41.168  28.164  35.888  1.00  0.00    -0.206 F 
ATOM    100  C   UNL A   1      43.293  25.728  34.312  1.00  0.00     0.060 A 
BRANCH 100 101
ATOM    101  S   UNL A   1      44.020  24.117  34.704  1.00  0.00     0.124 S 
ATOM    102  O   UNL A   1      44.653  24.376  35.993  1.00  0.00    -0.237 OA
ATOM    103  O   UNL A   1      42.849  23.248  34.733  1.00  0.00    -0.237 OA
ATOM    104  O   UNL A   1      44.940  23.879  33.594  1.00  0.00    -0.744 OA
ENDBRANCH 100 101
ENDBRANCH  68  93
BRANCH  80 105
ATOM    105  C   UNL A   1      43.363  34.640  33.205  1.00  0.00     0.058 A 
ATOM    106  C   UNL A   1      42.396  34.669  32.182  1.00  0.00     0.135 A 
ATOM    107  C   UNL A   1      44.618  35.181  32.898  1.00  0.00     0.135 A 
ATOM    108  F   UNL A   1      41.140  34.271  32.411  1.00  0.00    -0.206 F 
ATOM    109  C   UNL A   1      42.675  35.173  30.907  1.00  0.00     0.059 A 
ATOM    110  C   UNL A   1      44.913  35.715  31.644  1.00  0.00     0.059 A 
ATOM    111  F   UNL A   1      45.569  35.246  33.845  1.00  0.00    -0.206 F 
ATOM    112  C   UNL A   1      43.939  35.695  30.648  1.00  0.00     0.060 A 
BRANCH 112 113
ATOM    113  S   UNL A   1      44.284  36.402  29.021  1.00  0.00     0.124 S 
ATOM    114  O   UNL A   1      43.151  37.300  28.829  1.00  0.00    -0.237 OA
ATOM    115  O   UNL A   1      45.578  37.048  29.222  1.00  0.00    -0.237 OA
ATOM    116  O   UNL A   1      44.311  35.236  28.140  1.00  0.00    -0.744 OA
ENDBRANCH 112 113
ENDBRANCH  80 105
ENDBRANCH  54  55
ENDBRANCH  46  49
ENDBRANCH  44  45
ENDBRANCH  43  44
ENDBRANCH  42  43
ENDBRANCH  40  42
ENDBRANCH  37  38
ENDBRANCH  36  37
ENDBRANCH  35  36
ENDBRANCH   1  35
TORSDOF 28
ENDMDL
MODEL 3
REMARK VINA RESULT:      -9.4      2.982      4.285
REMARK SMILES NS(=O)(=O)c1ccc(-n2nc(C(=O)NCCCCCCCCCCC(=O)NCCCNC(=O)c3ccc(-c4c5nc(c(-c6c(F)cc(S(=O)(=O)[O-])cc6F)c6ccc([nH]6)c(-c6c(F)cc(S(=O)(=O)[O-])cc6F)c6nc(c(-c7c(F)cc(S(=O)(=O)[O-])cc7F)c7ccc4[nH]7)C=C6)C=C5)cc3)cc2-c2ccccc2)cc1
REMARK SMILES IDX 21 1 20 2 19 3 18 4 17 5 16 6 15 7 14 8 12 9 13 10 11 12
REMARK SMILES IDX 9 13 10 14 101 15 100 16 8 17 5 18 6 19 109 20 7 21 108 22
REMARK SMILES IDX 2 23 3 24 4 25 1 26 102 29 103 30 107 31 104 32 106 33
REMARK SMILES IDX 105 34 22 35 23 36 24 37 25 38 26 39 27 40 28 42 29 43 30 44
REMARK SMILES IDX 31 45 32 46 33 48 34 49 35 50 99 51 36 52 98 53 37 54 38 55
REMARK SMILES IDX 39 56 92 57 40 58 97 59 91 60 93 61 41 62 96 63 90 64 89 65
REMARK SMILES IDX 42 67 76 68 55 69 75 70 56 71 59 72 74 73 94 74 57 75 58 76
REMARK SMILES IDX 73 78 95 79 60 80 43 81 44 82 53 83 45 84 46 85 52 86 54 87
REMARK SMILES IDX 47 88 48 89 49 90 50 91 51 92 77 93 78 94 87 95 79 96 80 97
REMARK SMILES IDX 86 98 88 99 81 100 82 101 83 102 84 103 85 104 61 105 62 106
REMARK SMILES IDX 71 107 63 108 64 109 70 110 72 111 65 112 66 113 67 114
REMARK SMILES IDX 68 115 69 116
REMARK H PARENT 14 11 1 27 1 28 27 41 31 47 93 66 59 77
REMARK Flexibility Score: inf
ROOT
ATOM      1  C   UNL A   1      33.263  33.798  27.977  1.00  0.00     0.000 C 
ENDROOT
BRANCH   1   2
ATOM      2  C   UNL A   1      32.372  32.760  27.315  1.00  0.00     0.000 C 
BRANCH   2   3
ATOM      3  C   UNL A   1      32.906  31.337  27.475  1.00  0.00     0.000 C 
BRANCH   3   4
ATOM      4  C   UNL A   1      32.397  30.355  26.410  1.00  0.00     0.000 C 
BRANCH   4   5
ATOM      5  C   UNL A   1      31.884  29.023  26.978  1.00  0.00     0.002 C 
BRANCH   5   6
ATOM      6  C   UNL A   1      32.061  27.842  26.017  1.00  0.00     0.021 C 
BRANCH   6   7
ATOM      7  C   UNL A   1      31.276  26.617  26.482  1.00  0.00     0.116 C 
BRANCH   7   8
ATOM      8  N   UNL A   1      30.338  26.212  25.469  1.00  0.00    -0.351 N 
ATOM      9  C   UNL A   1      30.388  25.244  24.500  1.00  0.00     0.271 C 
ATOM     10  O   UNL A   1      29.419  25.203  23.738  1.00  0.00    -0.267 OA
ATOM     11  H   UNL A   1      29.502  26.730  25.472  1.00  0.00     0.163 HD
BRANCH   9  12
ATOM     12  C   UNL A   1      31.502  24.275  24.417  1.00  0.00     0.151 A 
ATOM     13  N   UNL A   1      32.399  22.327  24.503  1.00  0.00    -0.232 N 
ATOM     14  N   UNL A   1      31.224  22.959  24.325  1.00  0.00    -0.162 NA
ATOM     15  C   UNL A   1      33.467  23.200  24.547  1.00  0.00     0.075 A 
ATOM     16  C   UNL A   1      32.907  24.447  24.395  1.00  0.00     0.065 A 
BRANCH  13  17
ATOM     17  C   UNL A   1      32.444  20.919  24.562  1.00  0.00     0.065 A 
ATOM     18  C   UNL A   1      32.910  18.198  24.593  1.00  0.00     0.082 A 
ATOM     19  C   UNL A   1      32.969  18.917  25.791  1.00  0.00     0.024 A 
ATOM     20  C   UNL A   1      32.543  18.816  23.392  1.00  0.00     0.024 A 
ATOM     21  C   UNL A   1      32.744  20.287  25.772  1.00  0.00     0.030 A 
ATOM     22  C   UNL A   1      32.283  20.185  23.379  1.00  0.00     0.030 A 
BRANCH  18  23
ATOM     23  S   UNL A   1      33.339  16.487  24.581  1.00  0.00     0.238 S 
ATOM     24  O   UNL A   1      34.344  16.271  25.612  1.00  0.00    -0.207 OA
ATOM     25  O   UNL A   1      33.504  16.045  23.229  1.00  0.00    -0.207 OA
BRANCH  23  26
ATOM     26  N   UNL A   1      31.948  15.727  25.141  1.00  0.00    -0.225 NA
ATOM     27  H   UNL A   1      31.299  16.426  25.501  1.00  0.00     0.137 HD
ATOM     28  H   UNL A   1      32.193  15.075  25.885  1.00  0.00     0.137 HD
ENDBRANCH  23  26
ENDBRANCH  18  23
ENDBRANCH  13  17
BRANCH  15  29
ATOM     29  C   UNL A   1      34.885  22.856  24.583  1.00  0.00     0.000 A 
ATOM     30  C   UNL A   1      35.446  22.264  25.721  1.00  0.00     0.010 A 
ATOM     31  C   UNL A   1      35.687  23.075  23.456  1.00  0.00     0.010 A 
ATOM     32  C   UNL A   1      36.794  21.907  25.735  1.00  0.00     0.001 A 
ATOM     33  C   UNL A   1      37.037  22.717  23.472  1.00  0.00     0.001 A 
ATOM     34  C   UNL A   1      37.589  22.133  24.612  1.00  0.00     0.000 A 
ENDBRANCH  15  29
ENDBRANCH   9  12
ENDBRANCH   7   8
ENDBRANCH   6   7
ENDBRANCH   5   6
ENDBRANCH   4   5
ENDBRANCH   3   4
ENDBRANCH   2   3
ENDBRANCH   1   2
BRANCH   1  35
ATOM     35  C   UNL A   1      34.618  33.230  28.411  1.00  0.00     0.001 C 
BRANCH  35  36
ATOM     36  C   UNL A   1      34.907  33.413  29.892  1.00  0.00     0.010 C 
BRANCH  36  37
ATOM     37  C   UNL A   1      35.298  32.137  30.635  1.00  0.00     0.100 C 
BRANCH  37  38
ATOM     38  C   UNL A   1      35.763  32.379  32.057  1.00  0.00     0.219 C 
ATOM     39  O   UNL A   1      34.937  32.500  32.962  1.00  0.00    -0.275 OA
ATOM     40  N   UNL A   1      37.087  32.462  32.379  1.00  0.00    -0.356 N 
ATOM     41  H   UNL A   1      37.256  32.705  33.319  1.00  0.00     0.163 HD
BRANCH  40  42
ATOM     42  C   UNL A   1      38.295  32.258  31.588  1.00  0.00     0.117 C 
BRANCH  42  43
ATOM     43  C   UNL A   1      38.885  30.839  31.709  1.00  0.00     0.042 C 
BRANCH  43  44
ATOM     44  C   UNL A   1      38.507  30.125  32.982  1.00  0.00     0.118 C 
BRANCH  44  45
ATOM     45  N   UNL A   1      39.021  30.748  34.212  1.00  0.00    -0.352 N 
ATOM     46  C   UNL A   1      40.093  30.310  34.994  1.00  0.00     0.251 C 
ATOM     47  H   UNL A   1      38.557  31.561  34.518  1.00  0.00     0.163 HD
ATOM     48  O   UNL A   1      40.210  30.657  36.163  1.00  0.00    -0.269 OA
BRANCH  46  49
ATOM     49  C   UNL A   1      41.083  29.416  34.358  1.00  0.00     0.039 A 
ATOM     50  C   UNL A   1      40.913  28.056  34.090  1.00  0.00     0.014 A 
ATOM     51  C   UNL A   1      42.194  30.068  33.875  1.00  0.00     0.014 A 
ATOM     52  C   UNL A   1      41.874  27.432  33.288  1.00  0.00     0.010 A 
ATOM     53  C   UNL A   1      42.685  29.608  32.703  1.00  0.00     0.010 A 
ATOM     54  C   UNL A   1      42.784  28.246  32.602  1.00  0.00    -0.014 A 
BRANCH  54  55
ATOM     55  C   UNL A   1      43.850  27.805  31.718  1.00  0.00     0.031 A 
ATOM     56  C   UNL A   1      45.133  27.568  32.405  1.00  0.00     0.074 A 
ATOM     57  C   UNL A   1      43.608  27.367  30.456  1.00  0.00     0.049 A 
ATOM     58  N   UNL A   1      46.173  28.328  32.403  1.00  0.00    -0.248 NA
ATOM     59  C   UNL A   1      45.201  26.459  33.369  1.00  0.00     0.031 C 
ATOM     60  C   UNL A   1      42.324  27.203  29.747  1.00  0.00     0.029 A 
ATOM     61  N   UNL A   1      44.491  26.879  29.547  1.00  0.00    -0.354 N 
ATOM     62  C   UNL A   1      47.126  27.645  33.146  1.00  0.00     0.074 A 
ATOM     63  C   UNL A   1      46.403  26.664  33.912  1.00  0.00     0.031 C 
ATOM     64  C   UNL A   1      42.500  26.460  28.630  1.00  0.00     0.029 A 
ATOM     65  C   UNL A   1      43.920  26.251  28.442  1.00  0.00     0.049 A 
ATOM     66  H   UNL A   1      45.466  26.961  29.661  1.00  0.00     0.167 HD
ATOM     67  C   UNL A   1      48.452  27.749  32.850  1.00  0.00     0.037 A 
ATOM     68  C   UNL A   1      44.584  25.602  27.450  1.00  0.00     0.037 A 
ATOM     69  C   UNL A   1      48.691  28.835  31.925  1.00  0.00     0.049 A 
ATOM     70  C   UNL A   1      45.983  26.112  27.484  1.00  0.00     0.074 A 
ATOM     71  C   UNL A   1      48.448  30.196  31.948  1.00  0.00     0.029 A 
ATOM     72  N   UNL A   1      48.861  28.513  30.597  1.00  0.00    -0.354 N 
ATOM     73  N   UNL A   1      46.302  27.355  27.229  1.00  0.00    -0.248 NA
ATOM     74  C   UNL A   1      46.940  25.383  28.304  1.00  0.00     0.031 C 
ATOM     75  C   UNL A   1      47.990  30.511  30.633  1.00  0.00     0.029 A 
ATOM     76  C   UNL A   1      48.062  29.351  29.858  1.00  0.00     0.049 A 
ATOM     77  H   UNL A   1      49.450  27.808  30.242  1.00  0.00     0.167 HD
ATOM     78  C   UNL A   1      47.259  27.688  28.181  1.00  0.00     0.074 A 
ATOM     79  C   UNL A   1      47.657  26.410  28.774  1.00  0.00     0.031 C 
ATOM     80  C   UNL A   1      47.424  28.976  28.610  1.00  0.00     0.037 A 
BRANCH  67  81
ATOM     81  C   UNL A   1      49.466  26.658  33.086  1.00  0.00     0.058 A 
ATOM     82  C   UNL A   1      49.349  25.450  32.370  1.00  0.00     0.135 A 
ATOM     83  C   UNL A   1      50.383  26.644  34.161  1.00  0.00     0.135 A 
ATOM     84  F   UNL A   1      48.502  25.349  31.333  1.00  0.00    -0.206 F 
ATOM     85  C   UNL A   1      50.040  24.295  32.739  1.00  0.00     0.059 A 
ATOM     86  C   UNL A   1      51.125  25.523  34.509  1.00  0.00     0.059 A 
ATOM     87  F   UNL A   1      50.535  27.684  34.990  1.00  0.00    -0.206 F 
ATOM     88  C   UNL A   1      50.916  24.340  33.820  1.00  0.00     0.060 A 
BRANCH  88  89
ATOM     89  S   UNL A   1      51.725  22.829  34.366  1.00  0.00     0.124 S 
ATOM     90  O   UNL A   1      53.131  23.198  34.257  1.00  0.00    -0.237 OA
ATOM     91  O   UNL A   1      51.204  22.681  35.722  1.00  0.00    -0.237 OA
ATOM     92  O   UNL A   1      51.256  21.832  33.409  1.00  0.00    -0.744 OA
ENDBRANCH  88  89
ENDBRANCH  67  81
BRANCH  68  93
ATOM     93  C   UNL A   1      44.194  24.321  26.792  1.00  0.00     0.058 A 
ATOM     94  C   UNL A   1      44.275  24.152  25.398  1.00  0.00     0.135 A 
ATOM     95  C   UNL A   1      44.003  23.144  27.546  1.00  0.00     0.135 A 
ATOM     96  F   UNL A   1      44.476  25.213  24.601  1.00  0.00    -0.206 F 
ATOM     97  C   UNL A   1      44.217  22.888  24.792  1.00  0.00     0.059 A 
ATOM     98  C   UNL A   1      43.936  21.877  26.965  1.00  0.00     0.059 A 
ATOM     99  F   UNL A   1      43.965  23.182  28.885  1.00  0.00    -0.206 F 
ATOM    100  C   UNL A   1      44.070  21.752  25.587  1.00  0.00     0.060 A 
BRANCH 100 101
ATOM    101  S   UNL A   1      44.173  20.110  24.831  1.00  0.00     0.124 S 
ATOM    102  O   UNL A   1      45.251  19.492  25.596  1.00  0.00    -0.237 OA
ATOM    103  O   UNL A   1      42.836  19.576  25.069  1.00  0.00    -0.237 OA
ATOM    104  O   UNL A   1      44.485  20.397  23.433  1.00  0.00    -0.744 OA
ENDBRANCH 100 101
ENDBRANCH  68  93
BRANCH  80 105
ATOM    105  C   UNL A   1      46.713  30.080  27.855  1.00  0.00     0.058 A 
ATOM    106  C   UNL A   1      45.369  30.448  28.055  1.00  0.00     0.135 A 
ATOM    107  C   UNL A   1      47.470  30.903  27.010  1.00  0.00     0.135 A 
ATOM    108  F   UNL A   1      44.596  29.785  28.924  1.00  0.00    -0.206 F 
ATOM    109  C   UNL A   1      44.795  31.552  27.417  1.00  0.00     0.059 A 
ATOM    110  C   UNL A   1      46.929  32.025  26.383  1.00  0.00     0.059 A 
ATOM    111  F   UNL A   1      48.776  30.651  26.823  1.00  0.00    -0.206 F 
ATOM    112  C   UNL A   1      45.585  32.337  26.581  1.00  0.00     0.060 A 
BRANCH 112 113
ATOM    113  S   UNL A   1      44.863  33.799  25.803  1.00  0.00     0.124 S 
ATOM    114  O   UNL A   1      44.155  33.224  24.665  1.00  0.00    -0.237 OA
ATOM    115  O   UNL A   1      44.021  34.342  26.866  1.00  0.00    -0.237 OA
ATOM    116  O   UNL A   1      46.026  34.616  25.465  1.00  0.00    -0.744 OA
ENDBRANCH 112 113
ENDBRANCH  80 105
ENDBRANCH  54  55
ENDBRANCH  46  49
ENDBRANCH  44  45
ENDBRANCH  43  44
ENDBRANCH  42  43
ENDBRANCH  40  42
ENDBRANCH  37  38
ENDBRANCH  36  37
ENDBRANCH  35  36
ENDBRANCH   1  35
TORSDOF 28
ENDMDL
