MODEL 1
REMARK VINA RESULT:     -13.1      0.000      0.000
REMARK SMILES Cc1ccnc(C(=O)c2[nH]c3ccc(C(C)(C)C)cc3c2CC(=O)NCCCNC(=O)c2ccc(-c3c4nc(c(-c5c(F)cc(S(=O)(=O)[O-])cc5F)c5ccc([nH]5)c(-c5c(F)cc(S(=O)(=O)[O-])cc5F)c5nc(c(-c6c(F)cc(S(=O)(=O)[O-])cc6F)c6ccc3[nH]6)C=C5)C=C4)cc2)c1
REMARK SMILES IDX 27 1 26 2 25 3 23 4 24 5 22 7 21 8 9 9 10 10 11 11 20 13
REMARK SMILES IDX 12 14 19 15 13 16 14 17 7 18 8 19 6 20 1 21 2 22 3 23 98 24
REMARK SMILES IDX 4 25 5 26 15 27 16 28 17 29 18 30 28 31 29 32 30 33 31 35
REMARK SMILES IDX 32 36 33 37 97 38 34 39 96 40 35 41 36 42 37 43 90 44 38 45
REMARK SMILES IDX 95 46 89 47 91 48 39 49 94 50 88 51 87 52 40 54 74 55 53 56
REMARK SMILES IDX 73 57 54 58 57 59 72 60 92 61 55 62 56 63 71 65 93 66 58 67
REMARK SMILES IDX 41 68 42 69 51 70 43 71 44 72 50 73 52 74 45 75 46 76 47 77
REMARK SMILES IDX 48 78 49 79 75 80 76 81 85 82 77 83 78 84 84 85 86 86 79 87
REMARK SMILES IDX 80 88 81 89 82 90 83 91 59 92 60 93 69 94 61 95 62 96 68 97
REMARK SMILES IDX 70 98 63 99 64 100 65 101 66 102 67 103
REMARK H PARENT 25 6 10 12 29 34 91 53 57 64
REMARK Flexibility Score: inf
ROOT
ATOM      1  C   UNL A   1      39.235  22.302  26.624  1.00  0.00     0.042 C 
ENDROOT
BRANCH   1   2
ATOM      2  C   UNL A   1      37.976  23.002  26.122  1.00  0.00     0.117 C 
BRANCH   2   3
ATOM      3  N   UNL A   1      37.808  22.948  24.683  1.00  0.00    -0.356 N 
ATOM      4  C   UNL A   1      36.710  23.230  23.921  1.00  0.00     0.224 C 
ATOM      5  O   UNL A   1      36.863  23.327  22.700  1.00  0.00    -0.275 OA
ATOM      6  H   UNL A   1      38.605  22.665  24.179  1.00  0.00     0.163 HD
BRANCH   4   7
ATOM      7  C   UNL A   1      35.370  23.550  24.563  1.00  0.00     0.138 C 
BRANCH   7   8
ATOM      8  C   UNL A   1      34.163  23.186  23.748  1.00  0.00    -0.002 A 
ATOM      9  C   UNL A   1      33.333  24.043  23.029  1.00  0.00     0.093 A 
ATOM     10  N   UNL A   1      32.398  23.264  22.385  1.00  0.00    -0.352 N 
ATOM     11  C   UNL A   1      32.524  21.949  22.756  1.00  0.00     0.046 A 
ATOM     12  H   UNL A   1      31.732  23.604  21.746  1.00  0.00     0.167 HD
ATOM     13  C   UNL A   1      33.611  21.868  23.618  1.00  0.00     0.004 A 
ATOM     14  C   UNL A   1      31.776  20.832  22.378  1.00  0.00     0.027 A 
ATOM     15  C   UNL A   1      33.956  20.599  24.135  1.00  0.00     0.015 A 
ATOM     16  C   UNL A   1      32.150  19.587  22.902  1.00  0.00     0.006 A 
ATOM     17  C   UNL A   1      33.233  19.438  23.782  1.00  0.00    -0.042 A 
BRANCH   9  18
ATOM     18  C   UNL A   1      33.416  25.483  22.864  1.00  0.00     0.227 C 
ATOM     19  O   UNL A   1      33.887  25.976  21.841  1.00  0.00    -0.285 OA
BRANCH  18  20
ATOM     20  C   UNL A   1      32.891  26.369  23.971  1.00  0.00     0.113 A 
ATOM     21  C   UNL A   1      34.061  28.578  26.827  1.00  0.00     0.044 C 
ATOM     22  C   UNL A   1      33.189  27.837  25.858  1.00  0.00    -0.047 A 
ATOM     23  C   UNL A   1      31.800  27.932  25.950  1.00  0.00     0.023 A 
ATOM     24  C   UNL A   1      33.742  27.056  24.838  1.00  0.00     0.036 A 
ATOM     25  C   UNL A   1      31.028  27.232  25.039  1.00  0.00     0.112 A 
ATOM     26  N   UNL A   1      31.538  26.454  24.065  1.00  0.00    -0.253 NA
ENDBRANCH  18  20
ENDBRANCH   9  18
BRANCH  17  27
ATOM     27  C   UNL A   1      33.666  18.070  24.342  1.00  0.00    -0.013 C 
ATOM     28  C   UNL A   1      32.925  17.807  25.671  1.00  0.00     0.016 C 
ATOM     29  C   UNL A   1      33.315  16.952  23.335  1.00  0.00     0.016 C 
ATOM     30  C   UNL A   1      35.181  17.964  24.628  1.00  0.00     0.016 C 
ENDBRANCH  17  27
ENDBRANCH   7   8
ENDBRANCH   4   7
ENDBRANCH   2   3
ENDBRANCH   1   2
BRANCH   1  31
ATOM     31  C   UNL A   1      40.325  23.231  27.156  1.00  0.00     0.118 C 
BRANCH  31  32
ATOM     32  N   UNL A   1      40.870  24.106  26.130  1.00  0.00    -0.352 N 
ATOM     33  C   UNL A   1      41.065  25.465  26.128  1.00  0.00     0.251 C 
ATOM     34  H   UNL A   1      41.144  23.650  25.301  1.00  0.00     0.163 HD
ATOM     35  O   UNL A   1      41.389  26.017  25.078  1.00  0.00    -0.269 OA
BRANCH  33  36
ATOM     36  C   UNL A   1      40.878  26.279  27.354  1.00  0.00     0.039 A 
ATOM     37  C   UNL A   1      41.805  27.294  27.624  1.00  0.00     0.014 A 
ATOM     38  C   UNL A   1      39.858  26.013  28.271  1.00  0.00     0.014 A 
ATOM     39  C   UNL A   1      41.678  28.075  28.777  1.00  0.00     0.010 A 
ATOM     40  C   UNL A   1      39.710  26.816  29.406  1.00  0.00     0.010 A 
ATOM     41  C   UNL A   1      40.617  27.854  29.666  1.00  0.00    -0.014 A 
BRANCH  41  42
ATOM     42  C   UNL A   1      40.439  28.703  30.870  1.00  0.00     0.031 A 
ATOM     43  C   UNL A   1      39.388  29.777  30.897  1.00  0.00     0.074 A 
ATOM     44  C   UNL A   1      41.258  28.545  31.927  1.00  0.00     0.049 A 
ATOM     45  N   UNL A   1      39.171  30.694  31.804  1.00  0.00    -0.248 NA
ATOM     46  C   UNL A   1      38.472  29.831  29.748  1.00  0.00     0.031 C 
ATOM     47  C   UNL A   1      42.330  27.553  32.026  1.00  0.00     0.029 A 
ATOM     48  N   UNL A   1      41.325  29.230  33.114  1.00  0.00    -0.354 N 
ATOM     49  C   UNL A   1      38.121  31.462  31.321  1.00  0.00     0.074 A 
ATOM     50  C   UNL A   1      37.735  30.892  30.045  1.00  0.00     0.031 C 
ATOM     51  C   UNL A   1      42.944  27.689  33.213  1.00  0.00     0.029 A 
ATOM     52  C   UNL A   1      42.327  28.793  33.944  1.00  0.00     0.049 A 
ATOM     53  H   UNL A   1      40.712  29.963  33.348  1.00  0.00     0.167 HD
ATOM     54  C   UNL A   1      37.534  32.546  31.883  1.00  0.00     0.037 A 
ATOM     55  C   UNL A   1      42.719  29.242  35.152  1.00  0.00     0.037 A 
ATOM     56  C   UNL A   1      37.883  33.097  33.165  1.00  0.00     0.049 A 
ATOM     57  C   UNL A   1      42.020  30.410  35.781  1.00  0.00     0.074 A 
ATOM     58  C   UNL A   1      37.326  34.183  33.819  1.00  0.00     0.029 A 
ATOM     59  N   UNL A   1      38.873  32.595  33.994  1.00  0.00    -0.354 N 
ATOM     60  N   UNL A   1      41.039  31.134  35.301  1.00  0.00    -0.248 NA
ATOM     61  C   UNL A   1      42.488  30.827  37.110  1.00  0.00     0.031 C 
ATOM     62  C   UNL A   1      37.983  34.338  35.048  1.00  0.00     0.029 A 
ATOM     63  C   UNL A   1      38.943  33.346  35.156  1.00  0.00     0.049 A 
ATOM     64  H   UNL A   1      39.443  31.820  33.788  1.00  0.00     0.167 HD
ATOM     65  C   UNL A   1      40.775  32.098  36.265  1.00  0.00     0.074 A 
ATOM     66  C   UNL A   1      41.691  31.858  37.363  1.00  0.00     0.031 C 
ATOM     67  C   UNL A   1      39.859  33.095  36.239  1.00  0.00     0.037 A 
BRANCH  54  68
ATOM     68  C   UNL A   1      36.457  33.215  31.086  1.00  0.00     0.058 A 
ATOM     69  C   UNL A   1      36.760  34.003  29.966  1.00  0.00     0.135 A 
ATOM     70  C   UNL A   1      35.111  33.078  31.456  1.00  0.00     0.135 A 
ATOM     71  F   UNL A   1      38.036  34.174  29.587  1.00  0.00    -0.206 F 
ATOM     72  C   UNL A   1      35.762  34.655  29.250  1.00  0.00     0.059 A 
ATOM     73  C   UNL A   1      34.097  33.717  30.750  1.00  0.00     0.059 A 
ATOM     74  F   UNL A   1      34.776  32.341  32.526  1.00  0.00    -0.206 F 
ATOM     75  C   UNL A   1      34.435  34.517  29.658  1.00  0.00     0.060 A 
BRANCH  75  76
ATOM     76  S   UNL A   1      33.131  35.382  28.756  1.00  0.00     0.124 S 
ATOM     77  O   UNL A   1      32.312  35.891  29.852  1.00  0.00    -0.237 OA
ATOM     78  O   UNL A   1      33.868  36.390  27.999  1.00  0.00    -0.237 OA
ATOM     79  O   UNL A   1      32.528  34.322  27.956  1.00  0.00    -0.744 OA
ENDBRANCH  75  76
ENDBRANCH  54  68
BRANCH  55  80
ATOM     80  C   UNL A   1      43.849  28.574  35.839  1.00  0.00     0.058 A 
ATOM     81  C   UNL A   1      45.165  29.007  35.638  1.00  0.00     0.135 A 
ATOM     82  C   UNL A   1      43.624  27.533  36.749  1.00  0.00     0.135 A 
ATOM     83  F   UNL A   1      45.421  30.001  34.773  1.00  0.00    -0.206 F 
ATOM     84  C   UNL A   1      46.228  28.436  36.329  1.00  0.00     0.059 A 
ATOM     85  C   UNL A   1      44.669  26.950  37.455  1.00  0.00     0.059 A 
ATOM     86  F   UNL A   1      42.375  27.096  36.976  1.00  0.00    -0.206 F 
ATOM     87  C   UNL A   1      45.969  27.410  37.239  1.00  0.00     0.060 A 
BRANCH  87  88
ATOM     88  S   UNL A   1      47.322  26.725  38.222  1.00  0.00     0.124 S 
ATOM     89  O   UNL A   1      47.281  27.571  39.408  1.00  0.00    -0.237 OA
ATOM     90  O   UNL A   1      46.914  25.337  38.413  1.00  0.00    -0.237 OA
ATOM     91  O   UNL A   1      48.477  26.911  37.346  1.00  0.00    -0.744 OA
ENDBRANCH  87  88
ENDBRANCH  55  80
BRANCH  67  92
ATOM     92  C   UNL A   1      39.806  34.000  37.431  1.00  0.00     0.058 A 
ATOM     93  C   UNL A   1      38.993  33.695  38.532  1.00  0.00     0.135 A 
ATOM     94  C   UNL A   1      40.585  35.165  37.485  1.00  0.00     0.135 A 
ATOM     95  F   UNL A   1      38.226  32.593  38.521  1.00  0.00    -0.206 F 
ATOM     96  C   UNL A   1      38.949  34.521  39.651  1.00  0.00     0.059 A 
ATOM     97  C   UNL A   1      40.558  36.003  38.595  1.00  0.00     0.059 A 
ATOM     98  F   UNL A   1      41.375  35.496  36.452  1.00  0.00    -0.206 F 
ATOM     99  C   UNL A   1      39.729  35.677  39.669  1.00  0.00     0.060 A 
BRANCH  99 100
ATOM    100  S   UNL A   1      39.696  36.747  41.125  1.00  0.00     0.124 S 
ATOM    101  O   UNL A   1      41.117  37.006  41.330  1.00  0.00    -0.237 OA
ATOM    102  O   UNL A   1      38.903  37.887  40.674  1.00  0.00    -0.237 OA
ATOM    103  O   UNL A   1      39.055  35.909  42.134  1.00  0.00    -0.744 OA
ENDBRANCH  99 100
ENDBRANCH  67  92
ENDBRANCH  41  42
ENDBRANCH  33  36
ENDBRANCH  31  32
ENDBRANCH   1  31
TORSDOF 17
ENDMDL
MODEL 2
REMARK VINA RESULT:     -13.1      6.515     11.235
REMARK SMILES Cc1ccnc(C(=O)c2[nH]c3ccc(C(C)(C)C)cc3c2CC(=O)NCCCNC(=O)c2ccc(-c3c4nc(c(-c5c(F)cc(S(=O)(=O)[O-])cc5F)c5ccc([nH]5)c(-c5c(F)cc(S(=O)(=O)[O-])cc5F)c5nc(c(-c6c(F)cc(S(=O)(=O)[O-])cc6F)c6ccc3[nH]6)C=C5)C=C4)cc2)c1
REMARK SMILES IDX 27 1 26 2 25 3 23 4 24 5 22 7 21 8 9 9 10 10 11 11 20 13
REMARK SMILES IDX 12 14 19 15 13 16 14 17 7 18 8 19 6 20 1 21 2 22 3 23 98 24
REMARK SMILES IDX 4 25 5 26 15 27 16 28 17 29 18 30 28 31 29 32 30 33 31 35
REMARK SMILES IDX 32 36 33 37 97 38 34 39 96 40 35 41 36 42 37 43 90 44 38 45
REMARK SMILES IDX 95 46 89 47 91 48 39 49 94 50 88 51 87 52 40 54 74 55 53 56
REMARK SMILES IDX 73 57 54 58 57 59 72 60 92 61 55 62 56 63 71 65 93 66 58 67
REMARK SMILES IDX 41 68 42 69 51 70 43 71 44 72 50 73 52 74 45 75 46 76 47 77
REMARK SMILES IDX 48 78 49 79 75 80 76 81 85 82 77 83 78 84 84 85 86 86 79 87
REMARK SMILES IDX 80 88 81 89 82 90 83 91 59 92 60 93 69 94 61 95 62 96 68 97
REMARK SMILES IDX 70 98 63 99 64 100 65 101 66 102 67 103
REMARK H PARENT 25 6 10 12 29 34 91 53 57 64
REMARK Flexibility Score: inf
ROOT
ATOM      1  C   UNL A   1      34.329  29.080  27.327  1.00  0.00     0.042 C 
ENDROOT
BRANCH   1   2
ATOM      2  C   UNL A   1      32.868  29.454  27.093  1.00  0.00     0.117 C 
BRANCH   2   3
ATOM      3  N   UNL A   1      31.937  28.375  27.355  1.00  0.00    -0.356 N 
ATOM      4  C   UNL A   1      31.520  27.365  26.536  1.00  0.00     0.224 C 
ATOM      5  O   UNL A   1      30.890  26.432  27.044  1.00  0.00    -0.275 OA
ATOM      6  H   UNL A   1      31.546  28.370  28.259  1.00  0.00     0.163 HD
BRANCH   4   7
ATOM      7  C   UNL A   1      31.932  27.318  25.074  1.00  0.00     0.138 C 
BRANCH   7   8
ATOM      8  C   UNL A   1      31.498  26.093  24.322  1.00  0.00    -0.002 A 
ATOM      9  C   UNL A   1      30.254  25.847  23.746  1.00  0.00     0.093 A 
ATOM     10  N   UNL A   1      30.331  24.630  23.107  1.00  0.00    -0.352 N 
ATOM     11  C   UNL A   1      31.541  24.031  23.349  1.00  0.00     0.046 A 
ATOM     12  H   UNL A   1      29.616  24.243  22.552  1.00  0.00     0.167 HD
ATOM     13  C   UNL A   1      32.290  24.915  24.117  1.00  0.00     0.004 A 
ATOM     14  C   UNL A   1      32.032  22.793  22.930  1.00  0.00     0.027 A 
ATOM     15  C   UNL A   1      33.596  24.528  24.492  1.00  0.00     0.015 A 
ATOM     16  C   UNL A   1      33.335  22.443  23.313  1.00  0.00     0.006 A 
ATOM     17  C   UNL A   1      34.140  23.287  24.093  1.00  0.00    -0.042 A 
BRANCH   9  18
ATOM     18  C   UNL A   1      29.073  26.692  23.703  1.00  0.00     0.227 C 
ATOM     19  O   UNL A   1      27.989  26.284  24.114  1.00  0.00    -0.285 OA
BRANCH  18  20
ATOM     20  C   UNL A   1      29.209  28.096  23.159  1.00  0.00     0.113 A 
ATOM     21  C   UNL A   1      27.622  31.539  23.368  1.00  0.00     0.044 C 
ATOM     22  C   UNL A   1      28.522  30.400  22.991  1.00  0.00    -0.047 A 
ATOM     23  C   UNL A   1      29.559  30.597  22.077  1.00  0.00     0.023 A 
ATOM     24  C   UNL A   1      28.359  29.130  23.555  1.00  0.00     0.036 A 
ATOM     25  C   UNL A   1      30.368  29.522  21.752  1.00  0.00     0.112 A 
ATOM     26  N   UNL A   1      30.212  28.285  22.263  1.00  0.00    -0.253 NA
ENDBRANCH  18  20
ENDBRANCH   9  18
BRANCH  17  27
ATOM     27  C   UNL A   1      35.581  22.921  24.495  1.00  0.00    -0.013 C 
ATOM     28  C   UNL A   1      36.495  23.020  23.254  1.00  0.00     0.016 C 
ATOM     29  C   UNL A   1      36.090  23.898  25.579  1.00  0.00     0.016 C 
ATOM     30  C   UNL A   1      35.728  21.493  25.066  1.00  0.00     0.016 C 
ENDBRANCH  17  27
ENDBRANCH   7   8
ENDBRANCH   4   7
ENDBRANCH   2   3
ENDBRANCH   1   2
BRANCH   1  31
ATOM     31  C   UNL A   1      35.266  30.257  27.590  1.00  0.00     0.118 C 
BRANCH  31  32
ATOM     32  N   UNL A   1      35.216  30.720  28.967  1.00  0.00    -0.352 N 
ATOM     33  C   UNL A   1      36.153  30.646  29.969  1.00  0.00     0.251 C 
ATOM     34  H   UNL A   1      34.372  31.159  29.225  1.00  0.00     0.163 HD
ATOM     35  O   UNL A   1      35.826  30.959  31.113  1.00  0.00    -0.269 OA
BRANCH  33  36
ATOM     36  C   UNL A   1      37.537  30.184  29.705  1.00  0.00     0.039 A 
ATOM     37  C   UNL A   1      37.990  30.167  28.380  1.00  0.00     0.014 A 
ATOM     38  C   UNL A   1      38.363  29.700  30.723  1.00  0.00     0.014 A 
ATOM     39  C   UNL A   1      39.282  29.723  28.082  1.00  0.00     0.010 A 
ATOM     40  C   UNL A   1      39.667  29.288  30.431  1.00  0.00     0.010 A 
ATOM     41  C   UNL A   1      40.138  29.299  29.110  1.00  0.00    -0.014 A 
BRANCH  41  42
ATOM     42  C   UNL A   1      41.527  28.868  28.819  1.00  0.00     0.031 A 
ATOM     43  C   UNL A   1      42.659  29.854  28.879  1.00  0.00     0.074 A 
ATOM     44  C   UNL A   1      41.768  27.596  28.448  1.00  0.00     0.049 A 
ATOM     45  N   UNL A   1      43.911  29.692  28.536  1.00  0.00    -0.248 NA
ATOM     46  C   UNL A   1      42.336  31.198  29.380  1.00  0.00     0.031 C 
ATOM     47  C   UNL A   1      40.761  26.542  28.333  1.00  0.00     0.029 A 
ATOM     48  N   UNL A   1      42.940  26.981  28.084  1.00  0.00    -0.354 N 
ATOM     49  C   UNL A   1      44.520  30.923  28.739  1.00  0.00     0.074 A 
ATOM     50  C   UNL A   1      43.501  31.818  29.250  1.00  0.00     0.031 C 
ATOM     51  C   UNL A   1      41.358  25.407  27.932  1.00  0.00     0.029 A 
ATOM     52  C   UNL A   1      42.783  25.662  27.738  1.00  0.00     0.049 A 
ATOM     53  H   UNL A   1      43.810  27.441  28.074  1.00  0.00     0.167 HD
ATOM     54  C   UNL A   1      45.807  31.279  28.515  1.00  0.00     0.037 A 
ATOM     55  C   UNL A   1      43.681  24.762  27.295  1.00  0.00     0.037 A 
ATOM     56  C   UNL A   1      46.836  30.391  28.045  1.00  0.00     0.049 A 
ATOM     57  C   UNL A   1      45.114  25.163  27.106  1.00  0.00     0.074 A 
ATOM     58  C   UNL A   1      48.173  30.664  27.809  1.00  0.00     0.029 A 
ATOM     59  N   UNL A   1      46.644  29.050  27.750  1.00  0.00    -0.354 N 
ATOM     60  N   UNL A   1      45.667  26.336  27.287  1.00  0.00    -0.248 NA
ATOM     61  C   UNL A   1      46.040  24.119  26.642  1.00  0.00     0.031 C 
ATOM     62  C   UNL A   1      48.791  29.485  27.369  1.00  0.00     0.029 A 
ATOM     63  C   UNL A   1      47.837  28.480  27.337  1.00  0.00     0.049 A 
ATOM     64  H   UNL A   1      45.786  28.574  27.822  1.00  0.00     0.167 HD
ATOM     65  C   UNL A   1      47.007  26.177  26.955  1.00  0.00     0.074 A 
ATOM     66  C   UNL A   1      47.183  24.790  26.572  1.00  0.00     0.031 C 
ATOM     67  C   UNL A   1      47.997  27.100  26.960  1.00  0.00     0.037 A 
BRANCH  54  68
ATOM     68  C   UNL A   1      46.161  32.713  28.766  1.00  0.00     0.058 A 
ATOM     69  C   UNL A   1      46.598  33.147  30.026  1.00  0.00     0.135 A 
ATOM     70  C   UNL A   1      46.046  33.663  27.740  1.00  0.00     0.135 A 
ATOM     71  F   UNL A   1      46.706  32.275  31.041  1.00  0.00    -0.206 F 
ATOM     72  C   UNL A   1      46.889  34.485  30.268  1.00  0.00     0.059 A 
ATOM     73  C   UNL A   1      46.337  35.004  27.960  1.00  0.00     0.059 A 
ATOM     74  F   UNL A   1      45.623  33.292  26.521  1.00  0.00    -0.206 F 
ATOM     75  C   UNL A   1      46.742  35.409  29.233  1.00  0.00     0.060 A 
BRANCH  75  76
ATOM     76  S   UNL A   1      47.087  37.155  29.539  1.00  0.00     0.124 S 
ATOM     77  O   UNL A   1      47.716  37.549  28.282  1.00  0.00    -0.237 OA
ATOM     78  O   UNL A   1      45.760  37.714  29.783  1.00  0.00    -0.237 OA
ATOM     79  O   UNL A   1      47.967  37.116  30.702  1.00  0.00    -0.744 OA
ENDBRANCH  75  76
ENDBRANCH  54  68
BRANCH  55  80
ATOM     80  C   UNL A   1      43.233  23.383  26.992  1.00  0.00     0.058 A 
ATOM     81  C   UNL A   1      43.070  22.959  25.667  1.00  0.00     0.135 A 
ATOM     82  C   UNL A   1      43.017  22.454  28.018  1.00  0.00     0.135 A 
ATOM     83  F   UNL A   1      43.266  23.820  24.657  1.00  0.00    -0.206 F 
ATOM     84  C   UNL A   1      42.717  21.648  25.365  1.00  0.00     0.059 A 
ATOM     85  C   UNL A   1      42.670  21.137  27.741  1.00  0.00     0.059 A 
ATOM     86  F   UNL A   1      43.173  22.820  29.300  1.00  0.00    -0.206 F 
ATOM     87  C   UNL A   1      42.523  20.743  26.410  1.00  0.00     0.060 A 
BRANCH  87  88
ATOM     88  S   UNL A   1      42.165  19.011  26.037  1.00  0.00     0.124 S 
ATOM     89  O   UNL A   1      43.043  18.769  24.898  1.00  0.00    -0.237 OA
ATOM     90  O   UNL A   1      42.526  18.331  27.277  1.00  0.00    -0.237 OA
ATOM     91  O   UNL A   1      40.734  19.038  25.744  1.00  0.00    -0.744 OA
ENDBRANCH  87  88
ENDBRANCH  55  80
BRANCH  67  92
ATOM     92  C   UNL A   1      49.358  26.638  26.538  1.00  0.00     0.058 A 
ATOM     93  C   UNL A   1      50.211  25.988  27.443  1.00  0.00     0.135 A 
ATOM     94  C   UNL A   1      49.805  26.825  25.223  1.00  0.00     0.135 A 
ATOM     95  F   UNL A   1      49.826  25.794  28.714  1.00  0.00    -0.206 F 
ATOM     96  C   UNL A   1      51.471  25.540  27.057  1.00  0.00     0.059 A 
ATOM     97  C   UNL A   1      51.060  26.383  24.815  1.00  0.00     0.059 A 
ATOM     98  F   UNL A   1      49.023  27.445  24.326  1.00  0.00    -0.206 F 
ATOM     99  C   UNL A   1      51.889  25.750  25.742  1.00  0.00     0.060 A 
BRANCH  99 100
ATOM    100  S   UNL A   1      53.514  25.156  25.224  1.00  0.00     0.124 S 
ATOM    101  O   UNL A   1      53.588  25.661  23.857  1.00  0.00    -0.237 OA
ATOM    102  O   UNL A   1      54.415  25.789  26.182  1.00  0.00    -0.237 OA
ATOM    103  O   UNL A   1      53.393  23.707  25.355  1.00  0.00    -0.744 OA
ENDBRANCH  99 100
ENDBRANCH  67  92
ENDBRANCH  41  42
ENDBRANCH  33  36
ENDBRANCH  31  32
ENDBRANCH   1  31
TORSDOF 17
ENDMDL
MODEL 3
REMARK VINA RESULT:     -13.0      6.158      9.228
REMARK SMILES Cc1ccnc(C(=O)c2[nH]c3ccc(C(C)(C)C)cc3c2CC(=O)NCCCNC(=O)c2ccc(-c3c4nc(c(-c5c(F)cc(S(=O)(=O)[O-])cc5F)c5ccc([nH]5)c(-c5c(F)cc(S(=O)(=O)[O-])cc5F)c5nc(c(-c6c(F)cc(S(=O)(=O)[O-])cc6F)c6ccc3[nH]6)C=C5)C=C4)cc2)c1
REMARK SMILES IDX 27 1 26 2 25 3 23 4 24 5 22 7 21 8 9 9 10 10 11 11 20 13
REMARK SMILES IDX 12 14 19 15 13 16 14 17 7 18 8 19 6 20 1 21 2 22 3 23 98 24
REMARK SMILES IDX 4 25 5 26 15 27 16 28 17 29 18 30 28 31 29 32 30 33 31 35
REMARK SMILES IDX 32 36 33 37 97 38 34 39 96 40 35 41 36 42 37 43 90 44 38 45
REMARK SMILES IDX 95 46 89 47 91 48 39 49 94 50 88 51 87 52 40 54 74 55 53 56
REMARK SMILES IDX 73 57 54 58 57 59 72 60 92 61 55 62 56 63 71 65 93 66 58 67
REMARK SMILES IDX 41 68 42 69 51 70 43 71 44 72 50 73 52 74 45 75 46 76 47 77
REMARK SMILES IDX 48 78 49 79 75 80 76 81 85 82 77 83 78 84 84 85 86 86 79 87
REMARK SMILES IDX 80 88 81 89 82 90 83 91 59 92 60 93 69 94 61 95 62 96 68 97
REMARK SMILES IDX 70 98 63 99 64 100 65 101 66 102 67 103
REMARK H PARENT 25 6 10 12 29 34 91 53 57 64
REMARK Flexibility Score: inf
ROOT
ATOM      1  C   UNL A   1      37.869  19.982  24.991  1.00  0.00     0.042 C 
ENDROOT
BRANCH   1   2
ATOM      2  C   UNL A   1      36.555  20.729  25.196  1.00  0.00     0.117 C 
BRANCH   2   3
ATOM      3  N   UNL A   1      36.276  21.718  24.173  1.00  0.00    -0.356 N 
ATOM      4  C   UNL A   1      35.827  23.002  24.300  1.00  0.00     0.224 C 
ATOM      5  O   UNL A   1      35.871  23.730  23.304  1.00  0.00    -0.275 OA
ATOM      6  H   UNL A   1      36.433  21.419  23.248  1.00  0.00     0.163 HD
BRANCH   4   7
ATOM      7  C   UNL A   1      35.414  23.559  25.652  1.00  0.00     0.138 C 
BRANCH   7   8
ATOM      8  C   UNL A   1      33.934  23.686  25.870  1.00  0.00    -0.002 A 
ATOM      9  C   UNL A   1      33.018  22.662  26.098  1.00  0.00     0.093 A 
ATOM     10  N   UNL A   1      31.790  23.249  26.307  1.00  0.00    -0.352 N 
ATOM     11  C   UNL A   1      31.859  24.605  26.106  1.00  0.00     0.046 A 
ATOM     12  H   UNL A   1      30.974  22.763  26.565  1.00  0.00     0.167 HD
ATOM     13  C   UNL A   1      33.185  24.909  25.819  1.00  0.00     0.004 A 
ATOM     14  C   UNL A   1      30.861  25.578  26.179  1.00  0.00     0.027 A 
ATOM     15  C   UNL A   1      33.520  26.261  25.582  1.00  0.00     0.015 A 
ATOM     16  C   UNL A   1      31.229  26.910  25.946  1.00  0.00     0.006 A 
ATOM     17  C   UNL A   1      32.547  27.284  25.645  1.00  0.00    -0.042 A 
BRANCH   9  18
ATOM     18  C   UNL A   1      33.241  21.231  26.199  1.00  0.00     0.227 C 
ATOM     19  O   UNL A   1      33.636  20.726  27.248  1.00  0.00    -0.285 OA
BRANCH  18  20
ATOM     20  C   UNL A   1      32.957  20.368  24.991  1.00  0.00     0.113 A 
ATOM     21  C   UNL A   1      33.303  16.805  23.726  1.00  0.00     0.044 C 
ATOM     22  C   UNL A   1      32.987  18.269  23.807  1.00  0.00    -0.047 A 
ATOM     23  C   UNL A   1      32.403  18.923  22.721  1.00  0.00     0.023 A 
ATOM     24  C   UNL A   1      33.250  19.004  24.968  1.00  0.00     0.036 A 
ATOM     25  C   UNL A   1      32.128  20.275  22.832  1.00  0.00     0.112 A 
ATOM     26  N   UNL A   1      32.397  21.006  23.931  1.00  0.00    -0.253 NA
ENDBRANCH  18  20
ENDBRANCH   9  18
BRANCH  17  27
ATOM     27  C   UNL A   1      32.964  28.748  25.414  1.00  0.00    -0.013 C 
ATOM     28  C   UNL A   1      34.236  29.050  26.237  1.00  0.00     0.016 C 
ATOM     29  C   UNL A   1      33.262  28.982  23.916  1.00  0.00     0.016 C 
ATOM     30  C   UNL A   1      31.889  29.777  25.829  1.00  0.00     0.016 C 
ENDBRANCH  17  27
ENDBRANCH   7   8
ENDBRANCH   4   7
ENDBRANCH   2   3
ENDBRANCH   1   2
BRANCH   1  31
ATOM     31  C   UNL A   1      39.017  20.428  25.894  1.00  0.00     0.118 C 
BRANCH  31  32
ATOM     32  N   UNL A   1      40.088  19.447  25.971  1.00  0.00    -0.352 N 
ATOM     33  C   UNL A   1      41.444  19.615  26.110  1.00  0.00     0.251 C 
ATOM     34  H   UNL A   1      39.793  18.509  25.915  1.00  0.00     0.163 HD
ATOM     35  O   UNL A   1      42.180  18.637  25.983  1.00  0.00    -0.269 OA
BRANCH  33  36
ATOM     36  C   UNL A   1      42.038  20.945  26.389  1.00  0.00     0.039 A 
ATOM     37  C   UNL A   1      42.294  21.290  27.722  1.00  0.00     0.014 A 
ATOM     38  C   UNL A   1      42.275  21.878  25.376  1.00  0.00     0.014 A 
ATOM     39  C   UNL A   1      42.838  22.540  28.034  1.00  0.00     0.010 A 
ATOM     40  C   UNL A   1      42.851  23.114  25.684  1.00  0.00     0.010 A 
ATOM     41  C   UNL A   1      43.139  23.454  27.014  1.00  0.00    -0.014 A 
BRANCH  41  42
ATOM     42  C   UNL A   1      43.759  24.766  27.321  1.00  0.00     0.031 A 
ATOM     43  C   UNL A   1      42.926  25.895  27.859  1.00  0.00     0.074 A 
ATOM     44  C   UNL A   1      45.066  24.963  27.067  1.00  0.00     0.049 A 
ATOM     45  N   UNL A   1      43.264  27.142  28.066  1.00  0.00    -0.248 NA
ATOM     46  C   UNL A   1      41.530  25.581  28.199  1.00  0.00     0.031 C 
ATOM     47  C   UNL A   1      45.985  23.960  26.529  1.00  0.00     0.029 A 
ATOM     48  N   UNL A   1      45.844  26.084  27.214  1.00  0.00    -0.354 N 
ATOM     49  C   UNL A   1      42.115  27.774  28.520  1.00  0.00     0.074 A 
ATOM     50  C   UNL A   1      41.074  26.768  28.573  1.00  0.00     0.031 C 
ATOM     51  C   UNL A   1      47.205  24.508  26.397  1.00  0.00     0.029 A 
ATOM     52  C   UNL A   1      47.145  25.906  26.816  1.00  0.00     0.049 A 
ATOM     53  H   UNL A   1      45.502  26.935  27.573  1.00  0.00     0.167 HD
ATOM     54  C   UNL A   1      41.940  29.074  28.857  1.00  0.00     0.037 A 
ATOM     55  C   UNL A   1      48.174  26.775  26.774  1.00  0.00     0.037 A 
ATOM     56  C   UNL A   1      42.974  30.074  28.844  1.00  0.00     0.049 A 
ATOM     57  C   UNL A   1      47.971  28.197  27.203  1.00  0.00     0.074 A 
ATOM     58  C   UNL A   1      42.887  31.412  29.189  1.00  0.00     0.029 A 
ATOM     59  N   UNL A   1      44.290  29.840  28.478  1.00  0.00    -0.354 N 
ATOM     60  N   UNL A   1      46.873  28.781  27.614  1.00  0.00    -0.248 NA
ATOM     61  C   UNL A   1      49.145  29.081  27.152  1.00  0.00     0.031 C 
ATOM     62  C   UNL A   1      44.155  31.989  29.030  1.00  0.00     0.029 A 
ATOM     63  C   UNL A   1      45.028  31.006  28.591  1.00  0.00     0.049 A 
ATOM     64  H   UNL A   1      44.647  28.972  28.181  1.00  0.00     0.167 HD
ATOM     65  C   UNL A   1      47.219  30.102  27.867  1.00  0.00     0.074 A 
ATOM     66  C   UNL A   1      48.633  30.230  27.573  1.00  0.00     0.031 C 
ATOM     67  C   UNL A   1      46.433  31.118  28.296  1.00  0.00     0.037 A 
BRANCH  54  68
ATOM     68  C   UNL A   1      40.554  29.485  29.251  1.00  0.00     0.058 A 
ATOM     69  C   UNL A   1      39.538  29.637  28.297  1.00  0.00     0.135 A 
ATOM     70  C   UNL A   1      40.245  29.742  30.595  1.00  0.00     0.135 A 
ATOM     71  F   UNL A   1      39.794  29.417  26.997  1.00  0.00    -0.206 F 
ATOM     72  C   UNL A   1      38.262  30.055  28.659  1.00  0.00     0.059 A 
ATOM     73  C   UNL A   1      38.975  30.156  30.980  1.00  0.00     0.059 A 
ATOM     74  F   UNL A   1      41.190  29.618  31.541  1.00  0.00    -0.206 F 
ATOM     75  C   UNL A   1      37.994  30.325  30.001  1.00  0.00     0.060 A 
BRANCH  75  76
ATOM     76  S   UNL A   1      36.351  30.898  30.484  1.00  0.00     0.124 S 
ATOM     77  O   UNL A   1      36.635  32.266  30.908  1.00  0.00    -0.237 OA
ATOM     78  O   UNL A   1      35.582  30.767  29.250  1.00  0.00    -0.237 OA
ATOM     79  O   UNL A   1      35.980  29.970  31.547  1.00  0.00    -0.744 OA
ENDBRANCH  75  76
ENDBRANCH  54  68
BRANCH  55  80
ATOM     80  C   UNL A   1      49.495  26.308  26.293  1.00  0.00     0.058 A 
ATOM     81  C   UNL A   1      49.936  26.619  25.001  1.00  0.00     0.135 A 
ATOM     82  C   UNL A   1      50.358  25.597  27.137  1.00  0.00     0.135 A 
ATOM     83  F   UNL A   1      49.137  27.298  24.164  1.00  0.00    -0.206 F 
ATOM     84  C   UNL A   1      51.201  26.248  24.560  1.00  0.00     0.059 A 
ATOM     85  C   UNL A   1      51.629  25.220  26.720  1.00  0.00     0.059 A 
ATOM     86  F   UNL A   1      49.975  25.289  28.386  1.00  0.00    -0.206 F 
ATOM     87  C   UNL A   1      52.043  25.552  25.429  1.00  0.00     0.060 A 
BRANCH  87  88
ATOM     88  S   UNL A   1      53.727  25.150  24.912  1.00  0.00     0.124 S 
ATOM     89  O   UNL A   1      53.796  25.800  23.609  1.00  0.00    -0.237 OA
ATOM     90  O   UNL A   1      54.541  25.746  25.966  1.00  0.00    -0.237 OA
ATOM     91  O   UNL A   1      53.715  23.689  24.895  1.00  0.00    -0.744 OA
ENDBRANCH  87  88
ENDBRANCH  55  80
BRANCH  67  92
ATOM     92  C   UNL A   1      47.086  32.455  28.472  1.00  0.00     0.058 A 
ATOM     93  C   UNL A   1      47.755  32.779  29.661  1.00  0.00     0.135 A 
ATOM     94  C   UNL A   1      47.063  33.406  27.443  1.00  0.00     0.135 A 
ATOM     95  F   UNL A   1      47.795  31.900  30.675  1.00  0.00    -0.206 F 
ATOM     96  C   UNL A   1      48.378  34.012  29.828  1.00  0.00     0.059 A 
ATOM     97  C   UNL A   1      47.683  34.644  27.588  1.00  0.00     0.059 A 
ATOM     98  F   UNL A   1      46.433  33.139  26.289  1.00  0.00    -0.206 F 
ATOM     99  C   UNL A   1      48.330  34.941  28.788  1.00  0.00     0.060 A 
BRANCH  99 100
ATOM    100  S   UNL A   1      49.153  36.536  28.986  1.00  0.00     0.124 S 
ATOM    101  O   UNL A   1      49.168  36.680  30.438  1.00  0.00    -0.237 OA
ATOM    102  O   UNL A   1      50.453  36.314  28.359  1.00  0.00    -0.237 OA
ATOM    103  O   UNL A   1      48.271  37.453  28.270  1.00  0.00    -0.744 OA
ENDBRANCH  99 100
ENDBRANCH  67  92
ENDBRANCH  41  42
ENDBRANCH  33  36
ENDBRANCH  31  32
ENDBRANCH   1  31
TORSDOF 17
ENDMDL
