MODEL 1
REMARK VINA RESULT:     -12.0      0.000      0.000
REMARK SMILES COC(=O)[C@H]1CN(C(=O)[C@@H]2CC=CC[C@@H]2C(=O)NCCCNC(=O)c2ccc(-c3c4nc(c(-c5c(F)cc(S(=O)(=O)[O-])cc5F)c5ccc([nH]5)c(-c5c(F)cc(S(=O)(=O)[O-])cc5F)c5nc(c(-c6c(F)cc(S(=O)(=O)[O-])cc6F)c6ccc3[nH]6)C=C5)C=C4)cc2)C[C@H]1C
REMARK SMILES IDX 19 1 18 2 16 3 17 4 15 6 10 7 11 8 12 9 14 10 13 11 8 12
REMARK SMILES IDX 9 13 7 14 5 15 6 16 92 17 91 18 93 19 3 20 4 21 2 22 1 23
REMARK SMILES IDX 20 24 21 25 22 26 23 27 24 29 25 30 26 31 90 32 27 33 89 34
REMARK SMILES IDX 28 35 29 36 30 37 83 38 31 39 88 40 82 41 84 42 32 43 87 44
REMARK SMILES IDX 81 45 80 46 33 48 67 49 46 50 66 51 47 52 50 53 65 54 85 55
REMARK SMILES IDX 48 56 49 57 64 59 86 60 51 61 34 62 35 63 44 64 36 65 37 66
REMARK SMILES IDX 43 67 45 68 38 69 39 70 40 71 41 72 42 73 68 74 69 75 78 76
REMARK SMILES IDX 70 77 71 78 77 79 79 80 72 81 73 82 74 83 75 84 76 85 52 86
REMARK SMILES IDX 53 87 62 88 54 89 55 90 61 91 63 92 56 93 57 94 58 95 59 96
REMARK SMILES IDX 60 97
REMARK H PARENT 18 5 22 28 84 47 50 58
REMARK Flexibility Score: inf
ROOT
ATOM      1  C   UNL A   1      37.398  22.849  25.580  1.00  0.00     0.117 C 
ENDROOT
BRANCH   1   2
ATOM      2  N   UNL A   1      36.461  22.136  26.420  1.00  0.00    -0.356 N 
ATOM      3  C   UNL A   1      35.215  21.689  26.135  1.00  0.00     0.224 C 
ATOM      4  O   UNL A   1      34.433  21.808  27.070  1.00  0.00    -0.275 OA
ATOM      5  H   UNL A   1      36.776  21.948  27.333  1.00  0.00     0.163 HD
BRANCH   3   6
ATOM      6  C   UNL A   1      34.829  21.154  24.763  1.00  0.00     0.095 C 
ATOM      7  C   UNL A   1      34.063  22.132  23.814  1.00  0.00     0.095 C 
ATOM      8  C   UNL A   1      32.525  22.201  23.946  1.00  0.00     0.041 C 
ATOM      9  C   UNL A   1      31.886  21.081  24.696  1.00  0.00    -0.030 C 
ATOM     10  C   UNL A   1      34.030  19.834  24.904  1.00  0.00     0.041 C 
ATOM     11  C   UNL A   1      32.560  20.010  25.125  1.00  0.00    -0.030 C 
BRANCH   7  12
ATOM     12  C   UNL A   1      34.677  23.510  23.479  1.00  0.00     0.226 C 
ATOM     13  O   UNL A   1      35.590  23.559  22.645  1.00  0.00    -0.275 OA
BRANCH  12  14
ATOM     14  N   UNL A   1      34.119  24.672  23.971  1.00  0.00    -0.341 N 
ATOM     15  C   UNL A   1      32.602  26.455  24.050  1.00  0.00     0.123 C 
ATOM     16  C   UNL A   1      33.535  25.684  23.109  1.00  0.00     0.135 C 
ATOM     17  C   UNL A   1      33.220  26.291  25.463  1.00  0.00     0.021 C 
ATOM     18  C   UNL A   1      34.336  25.273  25.266  1.00  0.00     0.123 C 
ATOM     19  C   UNL A   1      33.799  27.532  26.143  1.00  0.00     0.010 C 
BRANCH  15  20
ATOM     20  C   UNL A   1      32.369  27.882  23.615  1.00  0.00     0.310 C 
ATOM     21  O   UNL A   1      33.145  28.566  22.979  1.00  0.00    -0.252 OA
BRANCH  20  22
ATOM     22  O   UNL A   1      31.133  28.282  24.039  1.00  0.00    -0.469 OA
ATOM     23  C   UNL A   1      30.052  27.917  23.180  1.00  0.00     0.282 C 
ENDBRANCH  20  22
ENDBRANCH  15  20
ENDBRANCH  12  14
ENDBRANCH   7  12
ENDBRANCH   3   6
ENDBRANCH   1   2
BRANCH   1  24
ATOM     24  C   UNL A   1      38.132  23.935  26.363  1.00  0.00     0.042 C 
BRANCH  24  25
ATOM     25  C   UNL A   1      39.488  23.523  26.941  1.00  0.00     0.118 C 
BRANCH  25  26
ATOM     26  N   UNL A   1      40.620  23.969  26.141  1.00  0.00    -0.352 N 
ATOM     27  C   UNL A   1      41.448  25.053  26.290  1.00  0.00     0.251 C 
ATOM     28  H   UNL A   1      40.825  23.399  25.364  1.00  0.00     0.163 HD
ATOM     29  O   UNL A   1      42.265  25.307  25.409  1.00  0.00    -0.269 OA
BRANCH  27  30
ATOM     30  C   UNL A   1      41.341  25.932  27.475  1.00  0.00     0.039 A 
ATOM     31  C   UNL A   1      42.322  26.908  27.670  1.00  0.00     0.014 A 
ATOM     32  C   UNL A   1      40.304  25.791  28.400  1.00  0.00     0.014 A 
ATOM     33  C   UNL A   1      42.222  27.789  28.748  1.00  0.00     0.010 A 
ATOM     34  C   UNL A   1      40.165  26.715  29.434  1.00  0.00     0.010 A 
ATOM     35  C   UNL A   1      41.121  27.725  29.619  1.00  0.00    -0.014 A 
BRANCH  35  36
ATOM     36  C   UNL A   1      40.949  28.718  30.711  1.00  0.00     0.031 A 
ATOM     37  C   UNL A   1      41.793  28.638  31.954  1.00  0.00     0.074 A 
ATOM     38  C   UNL A   1      39.985  29.653  30.610  1.00  0.00     0.049 A 
ATOM     39  N   UNL A   1      41.744  29.376  33.033  1.00  0.00    -0.248 NA
ATOM     40  C   UNL A   1      42.806  27.572  32.001  1.00  0.00     0.031 C 
ATOM     41  C   UNL A   1      39.061  29.798  29.482  1.00  0.00     0.029 A 
ATOM     42  N   UNL A   1      39.610  30.652  31.474  1.00  0.00    -0.354 N 
ATOM     43  C   UNL A   1      42.700  28.854  33.895  1.00  0.00     0.074 A 
ATOM     44  C   UNL A   1      43.287  27.710  33.229  1.00  0.00     0.031 C 
ATOM     45  C   UNL A   1      38.238  30.833  29.716  1.00  0.00     0.029 A 
ATOM     46  C   UNL A   1      38.553  31.406  31.022  1.00  0.00     0.049 A 
ATOM     47  H   UNL A   1      40.056  30.813  32.337  1.00  0.00     0.167 HD
ATOM     48  C   UNL A   1      43.070  29.297  35.121  1.00  0.00     0.037 A 
ATOM     49  C   UNL A   1      37.905  32.440  31.594  1.00  0.00     0.037 A 
ATOM     50  C   UNL A   1      42.508  30.455  35.765  1.00  0.00     0.049 A 
ATOM     51  C   UNL A   1      38.357  32.936  32.939  1.00  0.00     0.074 A 
ATOM     52  C   UNL A   1      42.867  31.027  36.974  1.00  0.00     0.029 A 
ATOM     53  N   UNL A   1      41.467  31.219  35.256  1.00  0.00    -0.354 N 
ATOM     54  N   UNL A   1      39.312  32.473  33.708  1.00  0.00    -0.248 NA
ATOM     55  C   UNL A   1      37.650  34.100  33.490  1.00  0.00     0.031 C 
ATOM     56  C   UNL A   1      42.021  32.117  37.211  1.00  0.00     0.029 A 
ATOM     57  C   UNL A   1      41.162  32.247  36.133  1.00  0.00     0.049 A 
ATOM     58  H   UNL A   1      41.014  31.054  34.398  1.00  0.00     0.167 HD
ATOM     59  C   UNL A   1      39.336  33.300  34.825  1.00  0.00     0.074 A 
ATOM     60  C   UNL A   1      38.307  34.301  34.624  1.00  0.00     0.031 C 
ATOM     61  C   UNL A   1      40.136  33.238  35.918  1.00  0.00     0.037 A 
BRANCH  48  62
ATOM     62  C   UNL A   1      44.140  28.526  35.844  1.00  0.00     0.058 A 
ATOM     63  C   UNL A   1      43.826  27.485  36.732  1.00  0.00     0.135 A 
ATOM     64  C   UNL A   1      45.497  28.816  35.630  1.00  0.00     0.135 A 
ATOM     65  F   UNL A   1      42.544  27.175  36.983  1.00  0.00    -0.206 F 
ATOM     66  C   UNL A   1      44.817  26.779  37.406  1.00  0.00     0.059 A 
ATOM     67  C   UNL A   1      46.507  28.106  36.275  1.00  0.00     0.059 A 
ATOM     68  F   UNL A   1      45.854  29.802  34.792  1.00  0.00    -0.206 F 
ATOM     69  C   UNL A   1      46.155  27.100  37.175  1.00  0.00     0.060 A 
BRANCH  69  70
ATOM     70  S   UNL A   1      47.431  26.180  38.061  1.00  0.00     0.124 S 
ATOM     71  O   UNL A   1      46.681  25.675  39.206  1.00  0.00    -0.237 OA
ATOM     72  O   UNL A   1      47.837  25.180  37.079  1.00  0.00    -0.237 OA
ATOM     73  O   UNL A   1      48.433  27.197  38.365  1.00  0.00    -0.744 OA
ENDBRANCH  69  70
ENDBRANCH  48  62
BRANCH  49  74
ATOM     74  C   UNL A   1      36.777  33.089  30.878  1.00  0.00     0.058 A 
ATOM     75  C   UNL A   1      35.448  32.844  31.255  1.00  0.00     0.135 A 
ATOM     76  C   UNL A   1      37.004  33.988  29.825  1.00  0.00     0.135 A 
ATOM     77  F   UNL A   1      35.182  31.987  32.252  1.00  0.00    -0.206 F 
ATOM     78  C   UNL A   1      34.382  33.459  30.607  1.00  0.00     0.059 A 
ATOM     79  C   UNL A   1      35.955  34.633  29.175  1.00  0.00     0.059 A 
ATOM     80  F   UNL A   1      38.259  34.269  29.439  1.00  0.00    -0.206 F 
ATOM     81  C   UNL A   1      34.647  34.355  29.570  1.00  0.00     0.060 A 
BRANCH  81  82
ATOM     82  S   UNL A   1      33.260  35.200  28.778  1.00  0.00     0.124 S 
ATOM     83  O   UNL A   1      32.497  35.658  29.934  1.00  0.00    -0.237 OA
ATOM     84  O   UNL A   1      33.933  36.239  28.004  1.00  0.00    -0.237 OA
ATOM     85  O   UNL A   1      32.635  34.146  27.985  1.00  0.00    -0.744 OA
ENDBRANCH  81  82
ENDBRANCH  49  74
BRANCH  61  86
ATOM     86  C   UNL A   1      39.950  34.295  36.969  1.00  0.00     0.058 A 
ATOM     87  C   UNL A   1      40.660  35.505  36.929  1.00  0.00     0.135 A 
ATOM     88  C   UNL A   1      39.021  34.112  38.005  1.00  0.00     0.135 A 
ATOM     89  F   UNL A   1      41.565  35.727  35.962  1.00  0.00    -0.206 F 
ATOM     90  C   UNL A   1      40.473  36.488  37.896  1.00  0.00     0.059 A 
ATOM     91  C   UNL A   1      38.801  35.091  38.968  1.00  0.00     0.059 A 
ATOM     92  F   UNL A   1      38.309  32.976  38.082  1.00  0.00    -0.206 F 
ATOM     93  C   UNL A   1      39.542  36.271  38.913  1.00  0.00     0.060 A 
BRANCH  93  94
ATOM     94  S   UNL A   1      39.288  37.563  40.149  1.00  0.00     0.124 S 
ATOM     95  O   UNL A   1      40.595  38.213  40.166  1.00  0.00    -0.237 OA
ATOM     96  O   UNL A   1      38.199  38.343  39.570  1.00  0.00    -0.237 OA
ATOM     97  O   UNL A   1      38.943  36.815  41.354  1.00  0.00    -0.744 OA
ENDBRANCH  93  94
ENDBRANCH  61  86
ENDBRANCH  35  36
ENDBRANCH  27  30
ENDBRANCH  25  26
ENDBRANCH  24  25
ENDBRANCH   1  24
TORSDOF 17
ENDMDL
MODEL 2
REMARK VINA RESULT:     -11.8      6.446     12.026
REMARK SMILES COC(=O)[C@H]1CN(C(=O)[C@@H]2CC=CC[C@@H]2C(=O)NCCCNC(=O)c2ccc(-c3c4nc(c(-c5c(F)cc(S(=O)(=O)[O-])cc5F)c5ccc([nH]5)c(-c5c(F)cc(S(=O)(=O)[O-])cc5F)c5nc(c(-c6c(F)cc(S(=O)(=O)[O-])cc6F)c6ccc3[nH]6)C=C5)C=C4)cc2)C[C@H]1C
REMARK SMILES IDX 19 1 18 2 16 3 17 4 15 6 10 7 11 8 12 9 14 10 13 11 8 12
REMARK SMILES IDX 9 13 7 14 5 15 6 16 92 17 91 18 93 19 3 20 4 21 2 22 1 23
REMARK SMILES IDX 20 24 21 25 22 26 23 27 24 29 25 30 26 31 90 32 27 33 89 34
REMARK SMILES IDX 28 35 29 36 30 37 83 38 31 39 88 40 82 41 84 42 32 43 87 44
REMARK SMILES IDX 81 45 80 46 33 48 67 49 46 50 66 51 47 52 50 53 65 54 85 55
REMARK SMILES IDX 48 56 49 57 64 59 86 60 51 61 34 62 35 63 44 64 36 65 37 66
REMARK SMILES IDX 43 67 45 68 38 69 39 70 40 71 41 72 42 73 68 74 69 75 78 76
REMARK SMILES IDX 70 77 71 78 77 79 79 80 72 81 73 82 74 83 75 84 76 85 52 86
REMARK SMILES IDX 53 87 62 88 54 89 55 90 61 91 63 92 56 93 57 94 58 95 59 96
REMARK SMILES IDX 60 97
REMARK H PARENT 18 5 22 28 84 47 50 58
REMARK Flexibility Score: inf
ROOT
ATOM      1  C   UNL A   1      33.412  29.986  27.024  1.00  0.00     0.117 C 
ENDROOT
BRANCH   1   2
ATOM      2  N   UNL A   1      33.469  30.060  25.581  1.00  0.00    -0.356 N 
ATOM      3  C   UNL A   1      32.721  29.415  24.654  1.00  0.00     0.224 C 
ATOM      4  O   UNL A   1      33.362  29.070  23.669  1.00  0.00    -0.275 OA
ATOM      5  H   UNL A   1      34.153  30.667  25.219  1.00  0.00     0.163 HD
BRANCH   3   6
ATOM      6  C   UNL A   1      31.245  29.104  24.864  1.00  0.00     0.095 C 
ATOM      7  C   UNL A   1      30.850  27.595  24.974  1.00  0.00     0.095 C 
ATOM      8  C   UNL A   1      30.571  26.829  23.661  1.00  0.00     0.041 C 
ATOM      9  C   UNL A   1      30.347  27.673  22.452  1.00  0.00    -0.030 C 
ATOM     10  C   UNL A   1      30.390  29.786  23.766  1.00  0.00     0.041 C 
ATOM     11  C   UNL A   1      30.259  29.005  22.496  1.00  0.00    -0.030 C 
BRANCH   7  12
ATOM     12  C   UNL A   1      31.538  26.701  26.031  1.00  0.00     0.226 C 
ATOM     13  O   UNL A   1      31.127  26.748  27.197  1.00  0.00    -0.275 OA
BRANCH  12  14
ATOM     14  N   UNL A   1      32.473  25.757  25.659  1.00  0.00    -0.341 N 
ATOM     15  C   UNL A   1      33.264  23.829  24.589  1.00  0.00     0.123 C 
ATOM     16  C   UNL A   1      32.143  24.353  25.494  1.00  0.00     0.135 C 
ATOM     17  C   UNL A   1      34.478  24.755  24.866  1.00  0.00     0.021 C 
ATOM     18  C   UNL A   1      33.910  25.861  25.745  1.00  0.00     0.123 C 
ATOM     19  C   UNL A   1      35.699  24.150  25.561  1.00  0.00     0.010 C 
BRANCH  15  20
ATOM     20  C   UNL A   1      33.530  22.354  24.769  1.00  0.00     0.310 C 
ATOM     21  O   UNL A   1      34.133  21.641  23.992  1.00  0.00    -0.252 OA
BRANCH  20  22
ATOM     22  O   UNL A   1      32.995  21.946  25.958  1.00  0.00    -0.469 OA
ATOM     23  C   UNL A   1      33.561  20.751  26.497  1.00  0.00     0.282 C 
ENDBRANCH  20  22
ENDBRANCH  15  20
ENDBRANCH  12  14
ENDBRANCH   7  12
ENDBRANCH   3   6
ENDBRANCH   1   2
BRANCH   1  24
ATOM     24  C   UNL A   1      34.791  29.719  27.622  1.00  0.00     0.042 C 
BRANCH  24  25
ATOM     25  C   UNL A   1      35.532  30.954  28.138  1.00  0.00     0.118 C 
BRANCH  25  26
ATOM     26  N   UNL A   1      35.525  31.071  29.590  1.00  0.00    -0.352 N 
ATOM     27  C   UNL A   1      36.454  30.681  30.523  1.00  0.00     0.251 C 
ATOM     28  H   UNL A   1      34.722  31.499  29.965  1.00  0.00     0.163 HD
ATOM     29  O   UNL A   1      36.174  30.762  31.716  1.00  0.00    -0.269 OA
BRANCH  27  30
ATOM     30  C   UNL A   1      37.764  30.133  30.106  1.00  0.00     0.039 A 
ATOM     31  C   UNL A   1      38.110  30.193  28.754  1.00  0.00     0.014 A 
ATOM     32  C   UNL A   1      38.637  29.545  31.025  1.00  0.00     0.014 A 
ATOM     33  C   UNL A   1      39.360  29.734  28.335  1.00  0.00     0.010 A 
ATOM     34  C   UNL A   1      39.911  29.153  30.618  1.00  0.00     0.010 A 
ATOM     35  C   UNL A   1      40.288  29.245  29.270  1.00  0.00    -0.014 A 
BRANCH  35  36
ATOM     36  C   UNL A   1      41.657  28.846  28.854  1.00  0.00     0.031 A 
ATOM     37  C   UNL A   1      42.761  29.866  28.783  1.00  0.00     0.074 A 
ATOM     38  C   UNL A   1      41.890  27.574  28.475  1.00  0.00     0.049 A 
ATOM     39  N   UNL A   1      43.998  29.716  28.386  1.00  0.00    -0.248 NA
ATOM     40  C   UNL A   1      42.422  31.239  29.187  1.00  0.00     0.031 C 
ATOM     41  C   UNL A   1      40.889  26.504  28.442  1.00  0.00     0.029 A 
ATOM     42  N   UNL A   1      43.038  26.966  28.032  1.00  0.00    -0.354 N 
ATOM     43  C   UNL A   1      44.580  30.976  28.469  1.00  0.00     0.074 A 
ATOM     44  C   UNL A   1      43.547  31.886  28.917  1.00  0.00     0.031 C 
ATOM     45  C   UNL A   1      41.470  25.371  28.017  1.00  0.00     0.029 A 
ATOM     46  C   UNL A   1      42.874  25.637  27.719  1.00  0.00     0.049 A 
ATOM     47  H   UNL A   1      43.898  27.437  27.947  1.00  0.00     0.167 HD
ATOM     48  C   UNL A   1      45.860  31.337  28.215  1.00  0.00     0.037 A 
ATOM     49  C   UNL A   1      43.752  24.734  27.240  1.00  0.00     0.037 A 
ATOM     50  C   UNL A   1      46.892  30.423  27.802  1.00  0.00     0.049 A 
ATOM     51  C   UNL A   1      45.177  25.150  27.000  1.00  0.00     0.074 A 
ATOM     52  C   UNL A   1      48.236  30.679  27.591  1.00  0.00     0.029 A 
ATOM     53  N   UNL A   1      46.697  29.075  27.536  1.00  0.00    -0.354 N 
ATOM     54  N   UNL A   1      45.726  26.332  27.154  1.00  0.00    -0.248 NA
ATOM     55  C   UNL A   1      46.103  24.112  26.530  1.00  0.00     0.031 C 
ATOM     56  C   UNL A   1      48.846  29.493  27.166  1.00  0.00     0.029 A 
ATOM     57  C   UNL A   1      47.891  28.490  27.149  1.00  0.00     0.049 A 
ATOM     58  H   UNL A   1      45.835  28.604  27.612  1.00  0.00     0.167 HD
ATOM     59  C   UNL A   1      47.065  26.174  26.819  1.00  0.00     0.074 A 
ATOM     60  C   UNL A   1      47.247  24.780  26.468  1.00  0.00     0.031 C 
ATOM     61  C   UNL A   1      48.057  27.099  26.804  1.00  0.00     0.037 A 
BRANCH  48  62
ATOM     62  C   UNL A   1      46.218  32.789  28.382  1.00  0.00     0.058 A 
ATOM     63  C   UNL A   1      46.687  33.296  29.604  1.00  0.00     0.135 A 
ATOM     64  C   UNL A   1      46.113  33.679  27.301  1.00  0.00     0.135 A 
ATOM     65  F   UNL A   1      46.793  32.492  30.673  1.00  0.00    -0.206 F 
ATOM     66  C   UNL A   1      47.009  34.641  29.758  1.00  0.00     0.059 A 
ATOM     67  C   UNL A   1      46.455  35.023  27.426  1.00  0.00     0.059 A 
ATOM     68  F   UNL A   1      45.670  33.247  26.109  1.00  0.00    -0.206 F 
ATOM     69  C   UNL A   1      46.886  35.498  28.664  1.00  0.00     0.060 A 
BRANCH  69  70
ATOM     70  S   UNL A   1      47.302  37.241  28.880  1.00  0.00     0.124 S 
ATOM     71  O   UNL A   1      48.711  37.158  29.254  1.00  0.00    -0.237 OA
ATOM     72  O   UNL A   1      47.030  37.796  27.558  1.00  0.00    -0.237 OA
ATOM     73  O   UNL A   1      46.397  37.678  29.939  1.00  0.00    -0.744 OA
ENDBRANCH  69  70
ENDBRANCH  48  62
BRANCH  49  74
ATOM     74  C   UNL A   1      43.309  23.339  26.985  1.00  0.00     0.058 A 
ATOM     75  C   UNL A   1      43.118  22.872  25.676  1.00  0.00     0.135 A 
ATOM     76  C   UNL A   1      43.098  22.438  28.039  1.00  0.00     0.135 A 
ATOM     77  F   UNL A   1      43.302  23.699  24.636  1.00  0.00    -0.206 F 
ATOM     78  C   UNL A   1      42.723  21.564  25.420  1.00  0.00     0.059 A 
ATOM     79  C   UNL A   1      42.723  21.118  27.808  1.00  0.00     0.059 A 
ATOM     80  F   UNL A   1      43.286  22.833  29.309  1.00  0.00    -0.206 F 
ATOM     81  C   UNL A   1      42.530  20.693  26.494  1.00  0.00     0.060 A 
BRANCH  81  82
ATOM     82  S   UNL A   1      42.081  18.977  26.150  1.00  0.00     0.124 S 
ATOM     83  O   UNL A   1      42.989  18.650  25.056  1.00  0.00    -0.237 OA
ATOM     84  O   UNL A   1      42.358  18.324  27.426  1.00  0.00    -0.237 OA
ATOM     85  O   UNL A   1      40.668  19.067  25.795  1.00  0.00    -0.744 OA
ENDBRANCH  81  82
ENDBRANCH  49  74
BRANCH  61  86
ATOM     86  C   UNL A   1      49.431  26.630  26.421  1.00  0.00     0.058 A 
ATOM     87  C   UNL A   1      49.932  26.803  25.121  1.00  0.00     0.135 A 
ATOM     88  C   UNL A   1      50.272  26.036  27.376  1.00  0.00     0.135 A 
ATOM     89  F   UNL A   1      49.165  27.359  24.170  1.00  0.00    -0.206 F 
ATOM     90  C   UNL A   1      51.211  26.380  24.775  1.00  0.00     0.059 A 
ATOM     91  C   UNL A   1      51.563  25.628  27.057  1.00  0.00     0.059 A 
ATOM     92  F   UNL A   1      49.844  25.857  28.636  1.00  0.00    -0.206 F 
ATOM     93  C   UNL A   1      52.019  25.792  25.750  1.00  0.00     0.060 A 
BRANCH  93  94
ATOM     94  S   UNL A   1      53.687  25.269  25.297  1.00  0.00     0.124 S 
ATOM     95  O   UNL A   1      54.497  25.995  26.271  1.00  0.00    -0.237 OA
ATOM     96  O   UNL A   1      53.624  23.823  25.477  1.00  0.00    -0.237 OA
ATOM     97  O   UNL A   1      53.817  25.717  23.914  1.00  0.00    -0.744 OA
ENDBRANCH  93  94
ENDBRANCH  61  86
ENDBRANCH  35  36
ENDBRANCH  27  30
ENDBRANCH  25  26
ENDBRANCH  24  25
ENDBRANCH   1  24
TORSDOF 17
ENDMDL
MODEL 3
REMARK VINA RESULT:     -11.6      6.308     11.727
REMARK SMILES COC(=O)[C@H]1CN(C(=O)[C@@H]2CC=CC[C@@H]2C(=O)NCCCNC(=O)c2ccc(-c3c4nc(c(-c5c(F)cc(S(=O)(=O)[O-])cc5F)c5ccc([nH]5)c(-c5c(F)cc(S(=O)(=O)[O-])cc5F)c5nc(c(-c6c(F)cc(S(=O)(=O)[O-])cc6F)c6ccc3[nH]6)C=C5)C=C4)cc2)C[C@H]1C
REMARK SMILES IDX 19 1 18 2 16 3 17 4 15 6 10 7 11 8 12 9 14 10 13 11 8 12
REMARK SMILES IDX 9 13 7 14 5 15 6 16 92 17 91 18 93 19 3 20 4 21 2 22 1 23
REMARK SMILES IDX 20 24 21 25 22 26 23 27 24 29 25 30 26 31 90 32 27 33 89 34
REMARK SMILES IDX 28 35 29 36 30 37 83 38 31 39 88 40 82 41 84 42 32 43 87 44
REMARK SMILES IDX 81 45 80 46 33 48 67 49 46 50 66 51 47 52 50 53 65 54 85 55
REMARK SMILES IDX 48 56 49 57 64 59 86 60 51 61 34 62 35 63 44 64 36 65 37 66
REMARK SMILES IDX 43 67 45 68 38 69 39 70 40 71 41 72 42 73 68 74 69 75 78 76
REMARK SMILES IDX 70 77 71 78 77 79 79 80 72 81 73 82 74 83 75 84 76 85 52 86
REMARK SMILES IDX 53 87 62 88 54 89 55 90 61 91 63 92 56 93 57 94 58 95 59 96
REMARK SMILES IDX 60 97
REMARK H PARENT 18 5 22 28 84 47 50 58
REMARK Flexibility Score: inf
ROOT
ATOM      1  C   UNL A   1      34.553  28.712  26.650  1.00  0.00     0.117 C 
ENDROOT
BRANCH   1   2
ATOM      2  N   UNL A   1      34.240  29.107  25.294  1.00  0.00    -0.356 N 
ATOM      3  C   UNL A   1      33.656  28.395  24.301  1.00  0.00     0.224 C 
ATOM      4  O   UNL A   1      34.139  28.619  23.198  1.00  0.00    -0.275 OA
ATOM      5  H   UNL A   1      34.487  30.030  25.059  1.00  0.00     0.163 HD
BRANCH   3   6
ATOM      6  C   UNL A   1      32.556  27.375  24.561  1.00  0.00     0.095 C 
ATOM      7  C   UNL A   1      32.346  26.270  23.475  1.00  0.00     0.095 C 
ATOM      8  C   UNL A   1      31.418  26.602  22.285  1.00  0.00     0.041 C 
ATOM      9  C   UNL A   1      30.530  27.787  22.463  1.00  0.00    -0.030 C 
ATOM     10  C   UNL A   1      31.211  28.094  24.837  1.00  0.00     0.041 C 
ATOM     11  C   UNL A   1      30.430  28.459  23.614  1.00  0.00    -0.030 C 
BRANCH   7  12
ATOM     12  C   UNL A   1      33.537  25.381  23.050  1.00  0.00     0.226 C 
ATOM     13  O   UNL A   1      33.977  25.500  21.901  1.00  0.00    -0.275 OA
BRANCH  12  14
ATOM     14  N   UNL A   1      34.195  24.593  23.972  1.00  0.00    -0.341 N 
ATOM     15  C   UNL A   1      36.048  23.703  25.095  1.00  0.00     0.123 C 
ATOM     16  C   UNL A   1      35.484  23.982  23.697  1.00  0.00     0.135 C 
ATOM     17  C   UNL A   1      34.808  23.533  26.010  1.00  0.00     0.021 C 
ATOM     18  C   UNL A   1      33.634  23.929  25.124  1.00  0.00     0.123 C 
ATOM     19  C   UNL A   1      34.535  22.148  26.600  1.00  0.00     0.010 C 
BRANCH  15  20
ATOM     20  C   UNL A   1      37.026  22.552  25.120  1.00  0.00     0.310 C 
ATOM     21  O   UNL A   1      37.056  21.629  24.333  1.00  0.00    -0.252 OA
BRANCH  20  22
ATOM     22  O   UNL A   1      37.888  22.721  26.168  1.00  0.00    -0.469 OA
ATOM     23  C   UNL A   1      38.453  24.028  26.280  1.00  0.00     0.282 C 
ENDBRANCH  20  22
ENDBRANCH  15  20
ENDBRANCH  12  14
ENDBRANCH   7  12
ENDBRANCH   3   6
ENDBRANCH   1   2
BRANCH   1  24
ATOM     24  C   UNL A   1      34.208  29.817  27.645  1.00  0.00     0.042 C 
BRANCH  24  25
ATOM     25  C   UNL A   1      35.398  30.622  28.170  1.00  0.00     0.118 C 
BRANCH  25  26
ATOM     26  N   UNL A   1      35.338  30.879  29.602  1.00  0.00    -0.352 N 
ATOM     27  C   UNL A   1      36.307  30.781  30.570  1.00  0.00     0.251 C 
ATOM     28  H   UNL A   1      34.457  31.172  29.932  1.00  0.00     0.163 HD
ATOM     29  O   UNL A   1      35.992  30.922  31.748  1.00  0.00    -0.269 OA
BRANCH  27  30
ATOM     30  C   UNL A   1      37.708  30.471  30.211  1.00  0.00     0.039 A 
ATOM     31  C   UNL A   1      38.523  29.866  31.172  1.00  0.00     0.014 A 
ATOM     32  C   UNL A   1      38.229  30.787  28.954  1.00  0.00     0.014 A 
ATOM     33  C   UNL A   1      39.833  29.511  30.849  1.00  0.00     0.010 A 
ATOM     34  C   UNL A   1      39.513  30.369  28.609  1.00  0.00     0.010 A 
ATOM     35  C   UNL A   1      40.329  29.725  29.552  1.00  0.00    -0.014 A 
BRANCH  35  36
ATOM     36  C   UNL A   1      41.687  29.262  29.165  1.00  0.00     0.031 A 
ATOM     37  C   UNL A   1      42.842  30.226  29.141  1.00  0.00     0.074 A 
ATOM     38  C   UNL A   1      41.865  27.987  28.769  1.00  0.00     0.049 A 
ATOM     39  N   UNL A   1      44.081  30.020  28.773  1.00  0.00    -0.248 NA
ATOM     40  C   UNL A   1      42.563  31.608  29.560  1.00  0.00     0.031 C 
ATOM     41  C   UNL A   1      40.813  26.970  28.691  1.00  0.00     0.029 A 
ATOM     42  N   UNL A   1      42.992  27.328  28.346  1.00  0.00    -0.354 N 
ATOM     43  C   UNL A   1      44.723  31.246  28.895  1.00  0.00     0.074 A 
ATOM     44  C   UNL A   1      43.726  32.201  29.332  1.00  0.00     0.031 C 
ATOM     45  C   UNL A   1      41.346  25.816  28.262  1.00  0.00     0.029 A 
ATOM     46  C   UNL A   1      42.770  26.015  28.005  1.00  0.00     0.049 A 
ATOM     47  H   UNL A   1      43.877  27.756  28.292  1.00  0.00     0.167 HD
ATOM     48  C   UNL A   1      46.026  31.546  28.680  1.00  0.00     0.037 A 
ATOM     49  C   UNL A   1      43.613  25.076  27.534  1.00  0.00     0.037 A 
ATOM     50  C   UNL A   1      47.021  30.586  28.279  1.00  0.00     0.049 A 
ATOM     51  C   UNL A   1      45.063  25.423  27.338  1.00  0.00     0.074 A 
ATOM     52  C   UNL A   1      48.382  30.776  28.108  1.00  0.00     0.029 A 
ATOM     53  N   UNL A   1      46.765  29.255  27.984  1.00  0.00    -0.354 N 
ATOM     54  N   UNL A   1      45.667  26.571  27.527  1.00  0.00    -0.248 NA
ATOM     55  C   UNL A   1      45.948  24.346  26.874  1.00  0.00     0.031 C 
ATOM     56  C   UNL A   1      48.943  29.568  27.678  1.00  0.00     0.029 A 
ATOM     57  C   UNL A   1      47.939  28.616  27.617  1.00  0.00     0.049 A 
ATOM     58  H   UNL A   1      45.879  28.828  28.029  1.00  0.00     0.167 HD
ATOM     59  C   UNL A   1      47.005  26.351  27.225  1.00  0.00     0.074 A 
ATOM     60  C   UNL A   1      47.125  24.955  26.854  1.00  0.00     0.031 C 
ATOM     61  C   UNL A   1      48.043  27.224  27.253  1.00  0.00     0.037 A 
BRANCH  48  62
ATOM     62  C   UNL A   1      46.453  32.974  28.883  1.00  0.00     0.058 A 
ATOM     63  C   UNL A   1      46.437  33.904  27.832  1.00  0.00     0.135 A 
ATOM     64  C   UNL A   1      46.861  33.425  30.149  1.00  0.00     0.135 A 
ATOM     65  F   UNL A   1      46.069  33.523  26.598  1.00  0.00    -0.206 F 
ATOM     66  C   UNL A   1      46.840  35.222  28.019  1.00  0.00     0.059 A 
ATOM     67  C   UNL A   1      47.243  34.746  30.366  1.00  0.00     0.059 A 
ATOM     68  F   UNL A   1      46.894  32.577  31.190  1.00  0.00    -0.206 F 
ATOM     69  C   UNL A   1      47.246  35.633  29.290  1.00  0.00     0.060 A 
BRANCH  69  70
ATOM     70  S   UNL A   1      47.772  37.345  29.518  1.00  0.00     0.124 S 
ATOM     71  O   UNL A   1      48.872  37.186  30.463  1.00  0.00    -0.237 OA
ATOM     72  O   UNL A   1      48.152  37.740  28.165  1.00  0.00    -0.237 OA
ATOM     73  O   UNL A   1      46.579  37.999  30.046  1.00  0.00    -0.744 OA
ENDBRANCH  69  70
ENDBRANCH  48  62
BRANCH  49  74
ATOM     74  C   UNL A   1      43.107  23.710  27.242  1.00  0.00     0.058 A 
ATOM     75  C   UNL A   1      42.766  23.332  25.935  1.00  0.00     0.135 A 
ATOM     76  C   UNL A   1      42.983  22.748  28.256  1.00  0.00     0.135 A 
ATOM     77  F   UNL A   1      42.863  24.220  24.934  1.00  0.00    -0.206 F 
ATOM     78  C   UNL A   1      42.310  22.052  25.643  1.00  0.00     0.059 A 
ATOM     79  C   UNL A   1      42.549  21.453  27.985  1.00  0.00     0.059 A 
ATOM     80  F   UNL A   1      43.314  23.056  29.519  1.00  0.00    -0.206 F 
ATOM     81  C   UNL A   1      42.207  21.117  26.676  1.00  0.00     0.060 A 
BRANCH  81  82
ATOM     82  S   UNL A   1      41.677  19.437  26.277  1.00  0.00     0.124 S 
ATOM     83  O   UNL A   1      40.256  19.633  26.013  1.00  0.00    -0.237 OA
ATOM     84  O   UNL A   1      42.504  19.119  25.117  1.00  0.00    -0.237 OA
ATOM     85  O   UNL A   1      41.998  18.690  27.489  1.00  0.00    -0.744 OA
ENDBRANCH  81  82
ENDBRANCH  49  74
BRANCH  61  86
ATOM     86  C   UNL A   1      49.401  26.691  26.897  1.00  0.00     0.058 A 
ATOM     87  C   UNL A   1      49.827  26.592  25.564  1.00  0.00     0.135 A 
ATOM     88  C   UNL A   1      50.303  26.313  27.905  1.00  0.00     0.135 A 
ATOM     89  F   UNL A   1      49.000  26.935  24.563  1.00  0.00    -0.206 F 
ATOM     90  C   UNL A   1      51.092  26.112  25.240  1.00  0.00     0.059 A 
ATOM     91  C   UNL A   1      51.581  25.854  27.605  1.00  0.00     0.059 A 
ATOM     92  F   UNL A   1      49.948  26.399  29.197  1.00  0.00    -0.206 F 
ATOM     93  C   UNL A   1      51.962  25.743  26.268  1.00  0.00     0.060 A 
BRANCH  93  94
ATOM     94  S   UNL A   1      53.611  25.145  25.839  1.00  0.00     0.124 S 
ATOM     95  O   UNL A   1      53.314  23.815  25.317  1.00  0.00    -0.237 OA
ATOM     96  O   UNL A   1      54.056  26.128  24.855  1.00  0.00    -0.237 OA
ATOM     97  O   UNL A   1      54.323  25.176  27.112  1.00  0.00    -0.744 OA
ENDBRANCH  93  94
ENDBRANCH  61  86
ENDBRANCH  35  36
ENDBRANCH  27  30
ENDBRANCH  25  26
ENDBRANCH  24  25
ENDBRANCH   1  24
TORSDOF 17
ENDMDL
