MODEL 1
REMARK VINA RESULT:     -12.1      0.000      0.000
REMARK SMILES CCOC(=O)c1c(NC(=O)/C=C/C(=O)NCCCNC(=O)c2ccc(-c3c4nc(c(-c5c(F)cc(S(=O)(=O)[O-])cc5F)c5ccc([nH]5)c(-c5c(F)cc(S(=O)(=O)[O-])cc5F)c5nc(c(-c6c(F)cc(S(=O)(=O)[O-])cc6F)c6ccc3[nH]6)C=C5)C=C4)cc2)sc(C)c1-c1ccc(C)c(C)c1
REMARK SMILES IDX 16 1 15 2 13 3 14 4 12 6 11 7 9 8 8 9 10 11 7 12 6 13 91 14
REMARK SMILES IDX 88 15 89 16 90 17 4 18 5 19 3 20 2 21 1 22 92 23 93 24 99 25
REMARK SMILES IDX 94 26 97 27 95 28 98 29 96 30 17 31 18 32 19 33 20 34 21 36
REMARK SMILES IDX 22 37 23 38 87 39 24 40 86 41 25 42 26 43 27 44 80 45 28 46
REMARK SMILES IDX 85 47 79 48 81 49 29 50 84 51 78 52 77 53 30 55 64 56 43 57
REMARK SMILES IDX 63 58 44 59 47 60 62 61 82 62 45 63 46 64 61 66 83 67 48 68
REMARK SMILES IDX 31 69 32 70 41 71 33 72 34 73 40 74 42 75 35 76 36 77 37 78
REMARK SMILES IDX 38 79 39 80 65 81 66 82 75 83 67 84 68 85 74 86 76 87 69 88
REMARK SMILES IDX 70 89 71 90 72 91 73 92 49 93 50 94 59 95 51 96 52 97 58 98
REMARK SMILES IDX 60 99 53 100 54 101 55 102 56 103 57 104
REMARK H PARENT 15 5 8 10 19 35 81 54 47 65
REMARK Flexibility Score: inf
ROOT
ATOM      1  C   UNL A   1      36.540  22.886  26.094  1.00  0.00     0.118 C 
ENDROOT
BRANCH   1   2
ATOM      2  N   UNL A   1      36.855  21.652  25.397  1.00  0.00    -0.352 N 
ATOM      3  C   UNL A   1      35.998  20.648  25.071  1.00  0.00     0.244 C 
ATOM      4  O   UNL A   1      36.416  19.520  24.833  1.00  0.00    -0.270 OA
ATOM      5  H   UNL A   1      37.794  21.527  25.131  1.00  0.00     0.163 HD
BRANCH   3   6
ATOM      6  C   UNL A   1      34.554  20.942  24.988  1.00  0.00     0.077 C 
ATOM      7  C   UNL A   1      34.174  21.887  24.116  1.00  0.00     0.077 C 
BRANCH   7   8
ATOM      8  C   UNL A   1      32.773  22.029  23.714  1.00  0.00     0.249 C 
ATOM      9  N   UNL A   1      32.205  23.263  23.577  1.00  0.00    -0.313 N 
ATOM     10  H   UNL A   1      31.235  23.234  23.412  1.00  0.00     0.171 HD
ATOM     11  O   UNL A   1      32.099  21.014  23.551  1.00  0.00    -0.270 OA
BRANCH   9  12
ATOM     12  C   UNL A   1      32.725  24.549  23.626  1.00  0.00     0.111 A 
ATOM     13  C   UNL A   1      32.687  25.411  24.713  1.00  0.00     0.102 A 
ATOM     14  C   UNL A   1      33.042  26.761  24.314  1.00  0.00     0.012 A 
ATOM     15  S   UNL A   1      33.545  25.259  22.332  1.00  0.00    -0.122 S 
ATOM     16  C   UNL A   1      33.454  26.818  22.993  1.00  0.00     0.012 A 
ATOM     17  C   UNL A   1      33.848  27.965  22.118  1.00  0.00     0.057 C 
BRANCH  13  18
ATOM     18  C   UNL A   1      32.300  24.935  26.036  1.00  0.00     0.341 C 
ATOM     19  O   UNL A   1      31.323  25.372  26.621  1.00  0.00    -0.246 OA
BRANCH  18  20
ATOM     20  O   UNL A   1      33.143  23.993  26.548  1.00  0.00    -0.462 OA
BRANCH  20  21
ATOM     21  C   UNL A   1      32.537  23.052  27.444  1.00  0.00     0.230 C 
ATOM     22  C   UNL A   1      33.542  22.075  28.032  1.00  0.00     0.049 C 
ENDBRANCH  20  21
ENDBRANCH  18  20
ENDBRANCH  13  18
BRANCH  14  23
ATOM     23  C   UNL A   1      33.062  27.947  25.157  1.00  0.00    -0.016 A 
ATOM     24  C   UNL A   1      31.989  28.836  25.117  1.00  0.00     0.009 A 
ATOM     25  C   UNL A   1      34.141  28.197  26.014  1.00  0.00     0.012 A 
ATOM     26  C   UNL A   1      32.000  29.970  25.923  1.00  0.00     0.004 A 
ATOM     27  C   UNL A   1      34.151  29.327  26.848  1.00  0.00    -0.048 A 
ATOM     28  C   UNL A   1      33.070  30.228  26.796  1.00  0.00    -0.048 A 
ATOM     29  C   UNL A   1      35.321  29.531  27.773  1.00  0.00     0.044 C 
ATOM     30  C   UNL A   1      33.008  31.487  27.616  1.00  0.00     0.044 C 
ENDBRANCH  14  23
ENDBRANCH   9  12
ENDBRANCH   7   8
ENDBRANCH   3   6
ENDBRANCH   1   2
BRANCH   1  31
ATOM     31  C   UNL A   1      37.530  23.982  25.722  1.00  0.00     0.042 C 
BRANCH  31  32
ATOM     32  C   UNL A   1      38.595  24.187  26.793  1.00  0.00     0.118 C 
BRANCH  32  33
ATOM     33  N   UNL A   1      39.936  24.175  26.221  1.00  0.00    -0.352 N 
ATOM     34  C   UNL A   1      40.950  25.089  26.368  1.00  0.00     0.251 C 
ATOM     35  H   UNL A   1      40.144  23.403  25.647  1.00  0.00     0.163 HD
ATOM     36  O   UNL A   1      41.884  25.098  25.574  1.00  0.00    -0.269 OA
BRANCH  34  37
ATOM     37  C   UNL A   1      40.904  26.052  27.485  1.00  0.00     0.039 A 
ATOM     38  C   UNL A   1      41.797  27.126  27.504  1.00  0.00     0.014 A 
ATOM     39  C   UNL A   1      39.990  25.875  28.527  1.00  0.00     0.014 A 
ATOM     40  C   UNL A   1      41.733  28.055  28.546  1.00  0.00     0.010 A 
ATOM     41  C   UNL A   1      39.868  26.846  29.511  1.00  0.00     0.010 A 
ATOM     42  C   UNL A   1      40.748  27.937  29.541  1.00  0.00    -0.014 A 
BRANCH  42  43
ATOM     43  C   UNL A   1      40.625  28.927  30.639  1.00  0.00     0.031 A 
ATOM     44  C   UNL A   1      41.474  28.780  31.872  1.00  0.00     0.074 A 
ATOM     45  C   UNL A   1      39.691  29.894  30.562  1.00  0.00     0.049 A 
ATOM     46  N   UNL A   1      41.437  29.462  32.987  1.00  0.00    -0.248 NA
ATOM     47  C   UNL A   1      42.474  27.697  31.866  1.00  0.00     0.031 C 
ATOM     48  C   UNL A   1      38.771  30.097  29.439  1.00  0.00     0.029 A 
ATOM     49  N   UNL A   1      39.344  30.877  31.454  1.00  0.00    -0.354 N 
ATOM     50  C   UNL A   1      42.383  28.875  33.821  1.00  0.00     0.074 A 
ATOM     51  C   UNL A   1      42.943  27.753  33.104  1.00  0.00     0.031 C 
ATOM     52  C   UNL A   1      37.978  31.147  29.703  1.00  0.00     0.029 A 
ATOM     53  C   UNL A   1      38.302  31.667  31.028  1.00  0.00     0.049 A 
ATOM     54  H   UNL A   1      39.799  31.005  32.318  1.00  0.00     0.167 HD
ATOM     55  C   UNL A   1      42.764  29.254  35.064  1.00  0.00     0.037 A 
ATOM     56  C   UNL A   1      37.671  32.687  31.643  1.00  0.00     0.037 A 
ATOM     57  C   UNL A   1      42.228  30.401  35.749  1.00  0.00     0.049 A 
ATOM     58  C   UNL A   1      38.131  33.104  33.014  1.00  0.00     0.074 A 
ATOM     59  C   UNL A   1      42.600  30.921  36.976  1.00  0.00     0.029 A 
ATOM     60  N   UNL A   1      41.205  31.205  35.265  1.00  0.00    -0.354 N 
ATOM     61  N   UNL A   1      39.078  32.585  33.759  1.00  0.00    -0.248 NA
ATOM     62  C   UNL A   1      37.442  34.248  33.626  1.00  0.00     0.031 C 
ATOM     63  C   UNL A   1      41.775  32.016  37.253  1.00  0.00     0.029 A 
ATOM     64  C   UNL A   1      40.920  32.206  36.178  1.00  0.00     0.049 A 
ATOM     65  H   UNL A   1      40.751  31.082  34.402  1.00  0.00     0.167 HD
ATOM     66  C   UNL A   1      39.117  33.356  34.916  1.00  0.00     0.074 A 
ATOM     67  C   UNL A   1      38.106  34.383  34.766  1.00  0.00     0.031 C 
ATOM     68  C   UNL A   1      39.917  33.226  36.003  1.00  0.00     0.037 A 
BRANCH  55  69
ATOM     69  C   UNL A   1      43.812  28.430  35.759  1.00  0.00     0.058 A 
ATOM     70  C   UNL A   1      45.183  28.671  35.579  1.00  0.00     0.135 A 
ATOM     71  C   UNL A   1      43.440  27.406  36.648  1.00  0.00     0.135 A 
ATOM     72  F   UNL A   1      45.595  29.626  34.729  1.00  0.00    -0.206 F 
ATOM     73  C   UNL A   1      46.148  27.913  36.233  1.00  0.00     0.059 A 
ATOM     74  C   UNL A   1      44.389  26.655  37.335  1.00  0.00     0.059 A 
ATOM     75  F   UNL A   1      42.144  27.130  36.857  1.00  0.00    -0.206 F 
ATOM     76  C   UNL A   1      45.742  26.906  37.110  1.00  0.00     0.060 A 
BRANCH  76  77
ATOM     77  S   UNL A   1      47.008  25.940  37.959  1.00  0.00     0.124 S 
ATOM     78  O   UNL A   1      47.191  26.714  39.183  1.00  0.00    -0.237 OA
ATOM     79  O   UNL A   1      46.356  24.644  38.122  1.00  0.00    -0.237 OA
ATOM     80  O   UNL A   1      48.132  25.960  37.029  1.00  0.00    -0.744 OA
ENDBRANCH  76  77
ENDBRANCH  55  69
BRANCH  56  81
ATOM     81  C   UNL A   1      36.554  33.392  30.960  1.00  0.00     0.058 A 
ATOM     82  C   UNL A   1      35.231  33.242  31.400  1.00  0.00     0.135 A 
ATOM     83  C   UNL A   1      36.786  34.237  29.864  1.00  0.00     0.135 A 
ATOM     84  F   UNL A   1      34.958  32.442  32.442  1.00  0.00    -0.206 F 
ATOM     85  C   UNL A   1      34.174  33.885  30.766  1.00  0.00     0.059 A 
ATOM     86  C   UNL A   1      35.749  34.912  29.229  1.00  0.00     0.059 A 
ATOM     87  F   UNL A   1      38.037  34.430  29.415  1.00  0.00    -0.206 F 
ATOM     88  C   UNL A   1      34.444  34.720  29.680  1.00  0.00     0.060 A 
BRANCH  88  89
ATOM     89  S   UNL A   1      33.068  35.581  28.888  1.00  0.00     0.124 S 
ATOM     90  O   UNL A   1      32.464  34.510  28.105  1.00  0.00    -0.237 OA
ATOM     91  O   UNL A   1      32.296  36.048  30.034  1.00  0.00    -0.237 OA
ATOM     92  O   UNL A   1      33.729  36.631  28.117  1.00  0.00    -0.744 OA
ENDBRANCH  88  89
ENDBRANCH  56  81
BRANCH  68  93
ATOM     93  C   UNL A   1      39.759  34.239  37.102  1.00  0.00     0.058 A 
ATOM     94  C   UNL A   1      38.993  33.972  38.245  1.00  0.00     0.135 A 
ATOM     95  C   UNL A   1      40.440  35.466  37.036  1.00  0.00     0.135 A 
ATOM     96  F   UNL A   1      38.318  32.817  38.353  1.00  0.00    -0.206 F 
ATOM     97  C   UNL A   1      38.891  34.896  39.281  1.00  0.00     0.059 A 
ATOM     98  C   UNL A   1      40.374  36.393  38.071  1.00  0.00     0.059 A 
ATOM     99  F   UNL A   1      41.195  35.765  35.967  1.00  0.00    -0.206 F 
ATOM    100  C   UNL A   1      39.588  36.102  39.186  1.00  0.00     0.060 A 
BRANCH 100 101
ATOM    101  S   UNL A   1      39.484  37.272  40.557  1.00  0.00     0.124 S 
ATOM    102  O   UNL A   1      38.793  38.395  39.932  1.00  0.00    -0.237 OA
ATOM    103  O   UNL A   1      38.714  36.525  41.547  1.00  0.00    -0.237 OA
ATOM    104  O   UNL A   1      40.881  37.509  40.908  1.00  0.00    -0.744 OA
ENDBRANCH 100 101
ENDBRANCH  68  93
ENDBRANCH  42  43
ENDBRANCH  34  37
ENDBRANCH  32  33
ENDBRANCH  31  32
ENDBRANCH   1  31
TORSDOF 19
ENDMDL
MODEL 2
REMARK VINA RESULT:     -11.4      6.493     12.067
REMARK SMILES CCOC(=O)c1c(NC(=O)/C=C/C(=O)NCCCNC(=O)c2ccc(-c3c4nc(c(-c5c(F)cc(S(=O)(=O)[O-])cc5F)c5ccc([nH]5)c(-c5c(F)cc(S(=O)(=O)[O-])cc5F)c5nc(c(-c6c(F)cc(S(=O)(=O)[O-])cc6F)c6ccc3[nH]6)C=C5)C=C4)cc2)sc(C)c1-c1ccc(C)c(C)c1
REMARK SMILES IDX 16 1 15 2 13 3 14 4 12 6 11 7 9 8 8 9 10 11 7 12 6 13 91 14
REMARK SMILES IDX 88 15 89 16 90 17 4 18 5 19 3 20 2 21 1 22 92 23 93 24 99 25
REMARK SMILES IDX 94 26 97 27 95 28 98 29 96 30 17 31 18 32 19 33 20 34 21 36
REMARK SMILES IDX 22 37 23 38 87 39 24 40 86 41 25 42 26 43 27 44 80 45 28 46
REMARK SMILES IDX 85 47 79 48 81 49 29 50 84 51 78 52 77 53 30 55 64 56 43 57
REMARK SMILES IDX 63 58 44 59 47 60 62 61 82 62 45 63 46 64 61 66 83 67 48 68
REMARK SMILES IDX 31 69 32 70 41 71 33 72 34 73 40 74 42 75 35 76 36 77 37 78
REMARK SMILES IDX 38 79 39 80 65 81 66 82 75 83 67 84 68 85 74 86 76 87 69 88
REMARK SMILES IDX 70 89 71 90 72 91 73 92 49 93 50 94 59 95 51 96 52 97 58 98
REMARK SMILES IDX 60 99 53 100 54 101 55 102 56 103 57 104
REMARK H PARENT 15 5 8 10 19 35 81 54 47 65
REMARK Flexibility Score: inf
ROOT
ATOM      1  C   UNL A   1      33.065  29.654  26.472  1.00  0.00     0.118 C 
ENDROOT
BRANCH   1   2
ATOM      2  N   UNL A   1      33.590  29.722  25.120  1.00  0.00    -0.352 N 
ATOM      3  C   UNL A   1      33.137  29.056  24.025  1.00  0.00     0.244 C 
ATOM      4  O   UNL A   1      33.860  28.891  23.048  1.00  0.00    -0.270 OA
ATOM      5  H   UNL A   1      34.363  30.316  24.980  1.00  0.00     0.163 HD
BRANCH   3   6
ATOM      6  C   UNL A   1      31.751  28.549  24.023  1.00  0.00     0.077 C 
ATOM      7  C   UNL A   1      31.588  27.220  24.065  1.00  0.00     0.077 C 
BRANCH   7   8
ATOM      8  C   UNL A   1      30.292  26.624  24.395  1.00  0.00     0.249 C 
ATOM      9  N   UNL A   1      30.211  25.378  24.945  1.00  0.00    -0.313 N 
ATOM     10  H   UNL A   1      29.290  25.038  25.022  1.00  0.00     0.171 HD
ATOM     11  O   UNL A   1      29.267  27.247  24.120  1.00  0.00    -0.270 OA
BRANCH   9  12
ATOM     12  C   UNL A   1      31.172  24.494  25.417  1.00  0.00     0.111 A 
ATOM     13  C   UNL A   1      31.713  23.420  24.726  1.00  0.00     0.102 A 
ATOM     14  C   UNL A   1      32.447  22.545  25.622  1.00  0.00     0.012 A 
ATOM     15  S   UNL A   1      31.877  24.633  26.946  1.00  0.00    -0.122 S 
ATOM     16  C   UNL A   1      32.534  23.070  26.901  1.00  0.00     0.012 A 
ATOM     17  C   UNL A   1      33.116  22.527  28.167  1.00  0.00     0.057 C 
BRANCH  13  18
ATOM     18  C   UNL A   1      31.492  23.261  23.293  1.00  0.00     0.341 C 
ATOM     19  O   UNL A   1      30.396  23.426  22.785  1.00  0.00    -0.246 OA
BRANCH  18  20
ATOM     20  O   UNL A   1      32.609  22.889  22.604  1.00  0.00    -0.462 OA
BRANCH  20  21
ATOM     21  C   UNL A   1      33.014  23.790  21.563  1.00  0.00     0.230 C 
ATOM     22  C   UNL A   1      33.526  25.115  22.104  1.00  0.00     0.049 C 
ENDBRANCH  20  21
ENDBRANCH  18  20
ENDBRANCH  13  18
BRANCH  14  23
ATOM     23  C   UNL A   1      33.105  21.293  25.281  1.00  0.00    -0.016 A 
ATOM     24  C   UNL A   1      34.483  21.279  25.067  1.00  0.00     0.009 A 
ATOM     25  C   UNL A   1      32.374  20.104  25.179  1.00  0.00     0.012 A 
ATOM     26  C   UNL A   1      35.121  20.084  24.745  1.00  0.00     0.004 A 
ATOM     27  C   UNL A   1      33.011  18.889  24.876  1.00  0.00    -0.048 A 
ATOM     28  C   UNL A   1      34.401  18.882  24.650  1.00  0.00    -0.048 A 
ATOM     29  C   UNL A   1      32.182  17.636  24.810  1.00  0.00     0.044 C 
ATOM     30  C   UNL A   1      35.167  17.643  24.278  1.00  0.00     0.044 C 
ENDBRANCH  14  23
ENDBRANCH   9  12
ENDBRANCH   7   8
ENDBRANCH   3   6
ENDBRANCH   1   2
BRANCH   1  31
ATOM     31  C   UNL A   1      33.938  28.763  27.345  1.00  0.00     0.042 C 
BRANCH  31  32
ATOM     32  C   UNL A   1      35.301  29.386  27.626  1.00  0.00     0.118 C 
BRANCH  32  33
ATOM     33  N   UNL A   1      35.314  30.089  28.902  1.00  0.00    -0.352 N 
ATOM     34  C   UNL A   1      36.286  30.110  29.871  1.00  0.00     0.251 C 
ATOM     35  H   UNL A   1      34.512  30.625  29.098  1.00  0.00     0.163 HD
ATOM     36  O   UNL A   1      36.009  30.481  31.007  1.00  0.00    -0.269 OA
BRANCH  34  37
ATOM     37  C   UNL A   1      37.659  29.686  29.534  1.00  0.00     0.039 A 
ATOM     38  C   UNL A   1      38.117  29.821  28.221  1.00  0.00     0.014 A 
ATOM     39  C   UNL A   1      38.483  29.131  30.516  1.00  0.00     0.014 A 
ATOM     40  C   UNL A   1      39.427  29.449  27.908  1.00  0.00     0.010 A 
ATOM     41  C   UNL A   1      39.810  28.846  30.224  1.00  0.00     0.010 A 
ATOM     42  C   UNL A   1      40.291  28.986  28.914  1.00  0.00    -0.014 A 
BRANCH  42  43
ATOM     43  C   UNL A   1      41.700  28.621  28.626  1.00  0.00     0.031 A 
ATOM     44  C   UNL A   1      42.759  29.689  28.619  1.00  0.00     0.074 A 
ATOM     45  C   UNL A   1      42.003  27.353  28.286  1.00  0.00     0.049 A 
ATOM     46  N   UNL A   1      44.019  29.602  28.278  1.00  0.00    -0.248 NA
ATOM     47  C   UNL A   1      42.338  31.046  29.010  1.00  0.00     0.031 C 
ATOM     48  C   UNL A   1      41.046  26.246  28.203  1.00  0.00     0.029 A 
ATOM     49  N   UNL A   1      43.197  26.785  27.923  1.00  0.00    -0.354 N 
ATOM     50  C   UNL A   1      44.530  30.890  28.386  1.00  0.00     0.074 A 
ATOM     51  C   UNL A   1      43.436  31.750  28.777  1.00  0.00     0.031 C 
ATOM     52  C   UNL A   1      41.694  25.131  27.831  1.00  0.00     0.029 A 
ATOM     53  C   UNL A   1      43.101  25.450  27.608  1.00  0.00     0.049 A 
ATOM     54  H   UNL A   1      44.045  27.286  27.892  1.00  0.00     0.167 HD
ATOM     55  C   UNL A   1      45.803  31.312  28.197  1.00  0.00     0.037 A 
ATOM     56  C   UNL A   1      44.040  24.585  27.176  1.00  0.00     0.037 A 
ATOM     57  C   UNL A   1      46.892  30.437  27.851  1.00  0.00     0.049 A 
ATOM     58  C   UNL A   1      45.452  25.073  27.000  1.00  0.00     0.074 A 
ATOM     59  C   UNL A   1      48.233  30.746  27.715  1.00  0.00     0.029 A 
ATOM     60  N   UNL A   1      46.763  29.081  27.586  1.00  0.00    -0.354 N 
ATOM     61  N   UNL A   1      45.934  26.280  27.178  1.00  0.00    -0.248 NA
ATOM     62  C   UNL A   1      46.449  24.084  26.569  1.00  0.00     0.031 C 
ATOM     63  C   UNL A   1      48.910  29.585  27.328  1.00  0.00     0.029 A 
ATOM     64  C   UNL A   1      47.998  28.543  27.268  1.00  0.00     0.049 A 
ATOM     65  H   UNL A   1      45.919  28.577  27.618  1.00  0.00     0.167 HD
ATOM     66  C   UNL A   1      47.296  26.189  26.908  1.00  0.00     0.074 A 
ATOM     67  C   UNL A   1      47.560  24.806  26.565  1.00  0.00     0.031 C 
ATOM     68  C   UNL A   1      48.241  27.160  26.941  1.00  0.00     0.037 A 
BRANCH  55  69
ATOM     69  C   UNL A   1      46.089  32.778  28.369  1.00  0.00     0.058 A 
ATOM     70  C   UNL A   1      46.471  33.318  29.607  1.00  0.00     0.135 A 
ATOM     71  C   UNL A   1      46.017  33.653  27.271  1.00  0.00     0.135 A 
ATOM     72  F   UNL A   1      46.541  32.532  30.694  1.00  0.00    -0.206 F 
ATOM     73  C   UNL A   1      46.746  34.673  29.759  1.00  0.00     0.059 A 
ATOM     74  C   UNL A   1      46.315  35.006  27.393  1.00  0.00     0.059 A 
ATOM     75  F   UNL A   1      45.655  33.193  26.063  1.00  0.00    -0.206 F 
ATOM     76  C   UNL A   1      46.665  35.511  28.645  1.00  0.00     0.060 A 
BRANCH  76  77
ATOM     77  S   UNL A   1      47.037  37.264  28.856  1.00  0.00     0.124 S 
ATOM     78  O   UNL A   1      46.004  37.882  28.031  1.00  0.00    -0.237 OA
ATOM     79  O   UNL A   1      46.888  37.444  30.297  1.00  0.00    -0.237 OA
ATOM     80  O   UNL A   1      48.401  37.386  28.350  1.00  0.00    -0.744 OA
ENDBRANCH  76  77
ENDBRANCH  55  69
BRANCH  56  81
ATOM     81  C   UNL A   1      43.677  23.169  26.901  1.00  0.00     0.058 A 
ATOM     82  C   UNL A   1      43.389  22.282  27.949  1.00  0.00     0.135 A 
ATOM     83  C   UNL A   1      43.598  22.677  25.590  1.00  0.00     0.135 A 
ATOM     84  F   UNL A   1      43.454  22.705  29.222  1.00  0.00    -0.206 F 
ATOM     85  C   UNL A   1      43.058  20.953  27.711  1.00  0.00     0.059 A 
ATOM     86  C   UNL A   1      43.244  21.357  25.324  1.00  0.00     0.059 A 
ATOM     87  F   UNL A   1      43.844  23.489  24.550  1.00  0.00    -0.206 F 
ATOM     88  C   UNL A   1      42.988  20.500  26.392  1.00  0.00     0.060 A 
BRANCH  88  89
ATOM     89  S   UNL A   1      42.519  18.781  26.092  1.00  0.00     0.124 S 
ATOM     90  O   UNL A   1      42.736  18.186  27.405  1.00  0.00    -0.237 OA
ATOM     91  O   UNL A   1      41.129  18.910  25.670  1.00  0.00    -0.237 OA
ATOM     92  O   UNL A   1      43.447  18.359  25.046  1.00  0.00    -0.744 OA
ENDBRANCH  88  89
ENDBRANCH  56  81
BRANCH  68  93
ATOM     93  C   UNL A   1      49.656  26.759  26.635  1.00  0.00     0.058 A 
ATOM     94  C   UNL A   1      50.550  26.379  27.646  1.00  0.00     0.135 A 
ATOM     95  C   UNL A   1      50.100  26.692  25.304  1.00  0.00     0.135 A 
ATOM     96  F   UNL A   1      50.176  26.431  28.934  1.00  0.00    -0.206 F 
ATOM     97  C   UNL A   1      51.844  25.962  27.351  1.00  0.00     0.059 A 
ATOM     98  C   UNL A   1      51.380  26.252  24.983  1.00  0.00     0.059 A 
ATOM     99  F   UNL A   1      49.279  27.035  24.299  1.00  0.00    -0.206 F 
ATOM    100  C   UNL A   1      52.249  25.898  26.016  1.00  0.00     0.060 A 
BRANCH 100 101
ATOM    101  S   UNL A   1      53.915  25.313  25.643  1.00  0.00     0.124 S 
ATOM    102  O   UNL A   1      53.659  24.370  24.559  1.00  0.00    -0.237 OA
ATOM    103  O   UNL A   1      54.602  26.544  25.264  1.00  0.00    -0.237 OA
ATOM    104  O   UNL A   1      54.355  24.719  26.901  1.00  0.00    -0.744 OA
ENDBRANCH 100 101
ENDBRANCH  68  93
ENDBRANCH  42  43
ENDBRANCH  34  37
ENDBRANCH  32  33
ENDBRANCH  31  32
ENDBRANCH   1  31
TORSDOF 19
ENDMDL
MODEL 3
REMARK VINA RESULT:     -11.2      6.638     11.630
REMARK SMILES CCOC(=O)c1c(NC(=O)/C=C/C(=O)NCCCNC(=O)c2ccc(-c3c4nc(c(-c5c(F)cc(S(=O)(=O)[O-])cc5F)c5ccc([nH]5)c(-c5c(F)cc(S(=O)(=O)[O-])cc5F)c5nc(c(-c6c(F)cc(S(=O)(=O)[O-])cc6F)c6ccc3[nH]6)C=C5)C=C4)cc2)sc(C)c1-c1ccc(C)c(C)c1
REMARK SMILES IDX 16 1 15 2 13 3 14 4 12 6 11 7 9 8 8 9 10 11 7 12 6 13 91 14
REMARK SMILES IDX 88 15 89 16 90 17 4 18 5 19 3 20 2 21 1 22 92 23 93 24 99 25
REMARK SMILES IDX 94 26 97 27 95 28 98 29 96 30 17 31 18 32 19 33 20 34 21 36
REMARK SMILES IDX 22 37 23 38 87 39 24 40 86 41 25 42 26 43 27 44 80 45 28 46
REMARK SMILES IDX 85 47 79 48 81 49 29 50 84 51 78 52 77 53 30 55 64 56 43 57
REMARK SMILES IDX 63 58 44 59 47 60 62 61 82 62 45 63 46 64 61 66 83 67 48 68
REMARK SMILES IDX 31 69 32 70 41 71 33 72 34 73 40 74 42 75 35 76 36 77 37 78
REMARK SMILES IDX 38 79 39 80 65 81 66 82 75 83 67 84 68 85 74 86 76 87 69 88
REMARK SMILES IDX 70 89 71 90 72 91 73 92 49 93 50 94 59 95 51 96 52 97 58 98
REMARK SMILES IDX 60 99 53 100 54 101 55 102 56 103 57 104
REMARK H PARENT 15 5 8 10 19 35 81 54 47 65
REMARK Flexibility Score: inf
ROOT
ATOM      1  C   UNL A   1      33.136  29.636  26.345  1.00  0.00     0.118 C 
ENDROOT
BRANCH   1   2
ATOM      2  N   UNL A   1      33.737  29.641  25.023  1.00  0.00    -0.352 N 
ATOM      3  C   UNL A   1      33.321  28.954  23.927  1.00  0.00     0.244 C 
ATOM      4  O   UNL A   1      34.090  28.733  22.997  1.00  0.00    -0.270 OA
ATOM      5  H   UNL A   1      34.536  30.205  24.908  1.00  0.00     0.163 HD
BRANCH   3   6
ATOM      6  C   UNL A   1      31.920  28.494  23.863  1.00  0.00     0.077 C 
ATOM      7  C   UNL A   1      31.715  27.169  23.853  1.00  0.00     0.077 C 
BRANCH   7   8
ATOM      8  C   UNL A   1      30.390  26.605  24.121  1.00  0.00     0.249 C 
ATOM      9  N   UNL A   1      30.254  25.380  24.706  1.00  0.00    -0.313 N 
ATOM     10  H   UNL A   1      29.324  25.057  24.736  1.00  0.00     0.171 HD
ATOM     11  O   UNL A   1      29.396  27.234  23.762  1.00  0.00    -0.270 OA
BRANCH   9  12
ATOM     12  C   UNL A   1      31.169  24.498  25.266  1.00  0.00     0.111 A 
ATOM     13  C   UNL A   1      31.813  23.456  24.614  1.00  0.00     0.102 A 
ATOM     14  C   UNL A   1      32.450  22.565  25.566  1.00  0.00     0.012 A 
ATOM     15  S   UNL A   1      31.676  24.599  26.873  1.00  0.00    -0.122 S 
ATOM     16  C   UNL A   1      32.367  23.050  26.862  1.00  0.00     0.012 A 
ATOM     17  C   UNL A   1      32.801  22.476  28.173  1.00  0.00     0.057 C 
BRANCH  13  18
ATOM     18  C   UNL A   1      31.774  23.342  23.160  1.00  0.00     0.341 C 
ATOM     19  O   UNL A   1      30.836  22.824  22.578  1.00  0.00    -0.246 OA
BRANCH  18  20
ATOM     20  O   UNL A   1      32.884  23.836  22.541  1.00  0.00    -0.462 OA
BRANCH  20  21
ATOM     21  C   UNL A   1      32.743  24.076  21.134  1.00  0.00     0.230 C 
ATOM     22  C   UNL A   1      32.660  25.556  20.800  1.00  0.00     0.049 C 
ENDBRANCH  20  21
ENDBRANCH  18  20
ENDBRANCH  13  18
BRANCH  14  23
ATOM     23  C   UNL A   1      33.172  21.338  25.271  1.00  0.00    -0.016 A 
ATOM     24  C   UNL A   1      32.460  20.169  25.008  1.00  0.00     0.009 A 
ATOM     25  C   UNL A   1      34.572  21.321  25.236  1.00  0.00     0.012 A 
ATOM     26  C   UNL A   1      33.144  18.991  24.720  1.00  0.00     0.004 A 
ATOM     27  C   UNL A   1      35.272  20.144  24.925  1.00  0.00    -0.048 A 
ATOM     28  C   UNL A   1      34.548  18.963  24.671  1.00  0.00    -0.048 A 
ATOM     29  C   UNL A   1      36.774  20.191  24.871  1.00  0.00     0.044 C 
ATOM     30  C   UNL A   1      35.204  17.644  24.372  1.00  0.00     0.044 C 
ENDBRANCH  14  23
ENDBRANCH   9  12
ENDBRANCH   7   8
ENDBRANCH   3   6
ENDBRANCH   1   2
BRANCH   1  31
ATOM     31  C   UNL A   1      33.900  28.707  27.280  1.00  0.00     0.042 C 
BRANCH  31  32
ATOM     32  C   UNL A   1      35.307  29.213  27.574  1.00  0.00     0.118 C 
BRANCH  32  33
ATOM     33  N   UNL A   1      35.381  29.860  28.878  1.00  0.00    -0.352 N 
ATOM     34  C   UNL A   1      36.420  29.891  29.774  1.00  0.00     0.251 C 
ATOM     35  H   UNL A   1      34.570  30.343  29.156  1.00  0.00     0.163 HD
ATOM     36  O   UNL A   1      36.211  30.197  30.942  1.00  0.00    -0.269 OA
BRANCH  34  37
ATOM     37  C   UNL A   1      37.784  29.556  29.317  1.00  0.00     0.039 A 
ATOM     38  C   UNL A   1      38.128  29.753  27.977  1.00  0.00     0.014 A 
ATOM     39  C   UNL A   1      38.713  29.025  30.214  1.00  0.00     0.014 A 
ATOM     40  C   UNL A   1      39.427  29.465  27.553  1.00  0.00     0.010 A 
ATOM     41  C   UNL A   1      40.027  28.826  29.811  1.00  0.00     0.010 A 
ATOM     42  C   UNL A   1      40.393  29.028  28.473  1.00  0.00    -0.014 A 
BRANCH  42  43
ATOM     43  C   UNL A   1      41.793  28.752  28.066  1.00  0.00     0.031 A 
ATOM     44  C   UNL A   1      42.196  27.353  27.687  1.00  0.00     0.074 A 
ATOM     45  C   UNL A   1      42.710  29.737  28.124  1.00  0.00     0.049 A 
ATOM     46  N   UNL A   1      43.385  26.880  27.417  1.00  0.00    -0.248 NA
ATOM     47  C   UNL A   1      41.125  26.341  27.644  1.00  0.00     0.031 C 
ATOM     48  C   UNL A   1      42.445  31.119  28.533  1.00  0.00     0.029 A 
ATOM     49  N   UNL A   1      44.056  29.723  27.861  1.00  0.00    -0.354 N 
ATOM     50  C   UNL A   1      43.209  25.517  27.201  1.00  0.00     0.074 A 
ATOM     51  C   UNL A   1      41.810  25.229  27.418  1.00  0.00     0.031 C 
ATOM     52  C   UNL A   1      43.588  31.822  28.478  1.00  0.00     0.029 A 
ATOM     53  C   UNL A   1      44.673  30.935  28.071  1.00  0.00     0.049 A 
ATOM     54  H   UNL A   1      44.537  28.921  27.551  1.00  0.00     0.167 HD
ATOM     55  C   UNL A   1      44.130  24.595  26.833  1.00  0.00     0.037 A 
ATOM     56  C   UNL A   1      45.969  31.285  27.960  1.00  0.00     0.037 A 
ATOM     57  C   UNL A   1      45.513  24.904  26.577  1.00  0.00     0.049 A 
ATOM     58  C   UNL A   1      46.968  30.248  27.524  1.00  0.00     0.074 A 
ATOM     59  C   UNL A   1      46.512  24.062  26.121  1.00  0.00     0.029 A 
ATOM     60  N   UNL A   1      46.090  26.154  26.755  1.00  0.00    -0.354 N 
ATOM     61  N   UNL A   1      46.773  28.980  27.252  1.00  0.00    -0.248 NA
ATOM     62  C   UNL A   1      48.362  30.688  27.375  1.00  0.00     0.031 C 
ATOM     63  C   UNL A   1      47.703  24.793  26.062  1.00  0.00     0.029 A 
ATOM     64  C   UNL A   1      47.436  26.101  26.437  1.00  0.00     0.049 A 
ATOM     65  H   UNL A   1      45.613  26.957  27.063  1.00  0.00     0.167 HD
ATOM     66  C   UNL A   1      48.013  28.477  26.872  1.00  0.00     0.074 A 
ATOM     67  C   UNL A   1      48.948  29.581  26.941  1.00  0.00     0.031 C 
ATOM     68  C   UNL A   1      48.347  27.217  26.501  1.00  0.00     0.037 A 
BRANCH  55  69
ATOM     69  C   UNL A   1      43.674  23.171  26.676  1.00  0.00     0.058 A 
ATOM     70  C   UNL A   1      43.289  22.392  27.779  1.00  0.00     0.135 A 
ATOM     71  C   UNL A   1      43.584  22.586  25.401  1.00  0.00     0.135 A 
ATOM     72  F   UNL A   1      43.369  22.894  29.022  1.00  0.00    -0.206 F 
ATOM     73  C   UNL A   1      42.856  21.079  27.628  1.00  0.00     0.059 A 
ATOM     74  C   UNL A   1      43.128  21.284  25.225  1.00  0.00     0.059 A 
ATOM     75  F   UNL A   1      43.942  23.283  24.312  1.00  0.00    -0.206 F 
ATOM     76  C   UNL A   1      42.779  20.532  26.346  1.00  0.00     0.060 A 
BRANCH  76  77
ATOM     77  S   UNL A   1      42.205  18.831  26.168  1.00  0.00     0.124 S 
ATOM     78  O   UNL A   1      43.069  18.343  25.096  1.00  0.00    -0.237 OA
ATOM     79  O   UNL A   1      42.463  18.273  27.491  1.00  0.00    -0.237 OA
ATOM     80  O   UNL A   1      40.796  18.982  25.818  1.00  0.00    -0.744 OA
ENDBRANCH  76  77
ENDBRANCH  55  69
BRANCH  56  81
ATOM     81  C   UNL A   1      46.389  32.683  28.247  1.00  0.00     0.058 A 
ATOM     82  C   UNL A   1      46.424  33.648  27.230  1.00  0.00     0.135 A 
ATOM     83  C   UNL A   1      46.752  33.085  29.542  1.00  0.00     0.135 A 
ATOM     84  F   UNL A   1      46.089  33.311  25.975  1.00  0.00    -0.206 F 
ATOM     85  C   UNL A   1      46.824  34.956  27.479  1.00  0.00     0.059 A 
ATOM     86  C   UNL A   1      47.131  34.395  29.821  1.00  0.00     0.059 A 
ATOM     87  F   UNL A   1      46.717  32.205  30.555  1.00  0.00    -0.206 F 
ATOM     88  C   UNL A   1      47.175  35.320  28.780  1.00  0.00     0.060 A 
BRANCH  88  89
ATOM     89  S   UNL A   1      47.656  37.032  29.099  1.00  0.00     0.124 S 
ATOM     90  O   UNL A   1      48.151  37.445  27.792  1.00  0.00    -0.237 OA
ATOM     91  O   UNL A   1      46.397  37.631  29.526  1.00  0.00    -0.237 OA
ATOM     92  O   UNL A   1      48.667  36.906  30.146  1.00  0.00    -0.744 OA
ENDBRANCH  88  89
ENDBRANCH  56  81
BRANCH  68  93
ATOM     93  C   UNL A   1      49.775  26.969  26.103  1.00  0.00     0.058 A 
ATOM     94  C   UNL A   1      50.736  26.547  27.034  1.00  0.00     0.135 A 
ATOM     95  C   UNL A   1      50.168  27.093  24.761  1.00  0.00     0.135 A 
ATOM     96  F   UNL A   1      50.412  26.419  28.330  1.00  0.00    -0.206 F 
ATOM     97  C   UNL A   1      52.045  26.272  26.650  1.00  0.00     0.059 A 
ATOM     98  C   UNL A   1      51.463  26.798  24.350  1.00  0.00     0.059 A 
ATOM     99  F   UNL A   1      49.283  27.484  23.830  1.00  0.00    -0.206 F 
ATOM    100  C   UNL A   1      52.398  26.397  25.304  1.00  0.00     0.060 A 
BRANCH 100 101
ATOM    101  S   UNL A   1      54.087  25.994  24.812  1.00  0.00     0.124 S 
ATOM    102  O   UNL A   1      54.865  26.785  25.759  1.00  0.00    -0.237 OA
ATOM    103  O   UNL A   1      54.132  24.548  25.006  1.00  0.00    -0.237 OA
ATOM    104  O   UNL A   1      54.150  26.437  23.422  1.00  0.00    -0.744 OA
ENDBRANCH 100 101
ENDBRANCH  68  93
ENDBRANCH  42  43
ENDBRANCH  34  37
ENDBRANCH  32  33
ENDBRANCH  31  32
ENDBRANCH   1  31
TORSDOF 19
ENDMDL
