MODEL 1
REMARK VINA RESULT:     -12.5      0.000      0.000
REMARK SMILES CC(C)[C@H](C(=O)NCCCNC(=O)c1ccc(-c2c3nc(c(-c4c(F)cc(S(=O)(=O)[O-])cc4F)c4ccc([nH]4)c(-c4c(F)cc(S(=O)(=O)[O-])cc4F)c4nc(c(-c5c(F)cc(S(=O)(=O)[O-])cc5F)c5ccc2[nH]5)C=C4)C=C3)cc1)N1C(=O)/C(=C/c2ccccc2Cl)SC1=S
REMARK SMILES IDX 9 1 8 2 7 3 5 4 6 5 4 7 2 8 1 9 3 10 80 11 81 12 93 13 82 14
REMARK SMILES IDX 83 15 92 16 94 17 84 18 85 19 86 20 90 21 87 22 89 23 91 24
REMARK SMILES IDX 88 25 10 26 11 27 12 28 13 30 14 31 15 32 79 33 16 34 78 35
REMARK SMILES IDX 17 36 18 37 19 38 72 39 20 40 77 41 71 42 73 43 21 44 76 45
REMARK SMILES IDX 70 46 69 47 22 49 56 50 35 51 55 52 36 53 39 54 54 55 74 56
REMARK SMILES IDX 37 57 38 58 53 60 75 61 40 62 23 63 24 64 33 65 25 66 26 67
REMARK SMILES IDX 32 68 34 69 27 70 28 71 29 72 30 73 31 74 57 75 58 76 67 77
REMARK SMILES IDX 59 78 60 79 66 80 68 81 61 82 62 83 63 84 64 85 65 86 41 87
REMARK SMILES IDX 42 88 51 89 43 90 44 91 50 92 52 93 45 94 46 95 47 96 48 97
REMARK SMILES IDX 49 98
REMARK H PARENT 7 6 11 29 73 48 39 59
REMARK Flexibility Score: inf
ROOT
ATOM      1  C   UNL A   1      34.769  29.321  27.282  1.00  0.00     0.042 C 
ENDROOT
BRANCH   1   2
ATOM      2  C   UNL A   1      33.354  29.507  26.718  1.00  0.00     0.117 C 
BRANCH   2   3
ATOM      3  N   UNL A   1      33.408  29.796  25.292  1.00  0.00    -0.354 N 
ATOM      4  C   UNL A   1      32.930  29.121  24.208  1.00  0.00     0.243 C 
ATOM      5  O   UNL A   1      33.490  29.365  23.134  1.00  0.00    -0.273 OA
ATOM      6  H   UNL A   1      33.876  30.634  25.070  1.00  0.00     0.163 HD
BRANCH   4   7
ATOM      7  C   UNL A   1      31.765  28.089  24.297  1.00  0.00     0.184 C 
BRANCH   7   8
ATOM      8  C   UNL A   1      30.777  28.470  23.130  1.00  0.00     0.015 C 
ATOM      9  C   UNL A   1      29.651  27.514  22.746  1.00  0.00     0.010 C 
ATOM     10  C   UNL A   1      30.132  29.833  23.467  1.00  0.00     0.010 C 
ENDBRANCH   7   8
BRANCH   7  11
ATOM     11  N   UNL A   1      32.420  26.759  24.395  1.00  0.00    -0.280 N 
ATOM     12  C   UNL A   1      33.219  26.169  23.431  1.00  0.00     0.266 C 
ATOM     13  C   UNL A   1      32.413  26.048  25.584  1.00  0.00     0.149 C 
ATOM     14  O   UNL A   1      33.336  26.470  22.253  1.00  0.00    -0.268 OA
ATOM     15  C   UNL A   1      33.931  24.986  24.014  1.00  0.00     0.081 C 
ATOM     16  S   UNL A   1      33.911  25.147  25.720  1.00  0.00    -0.054 SA
ATOM     17  S   UNL A   1      31.180  25.887  26.695  1.00  0.00    -0.052 S 
ATOM     18  C   UNL A   1      34.383  23.945  23.298  1.00  0.00     0.031 C 
BRANCH  18  19
ATOM     19  C   UNL A   1      35.090  22.763  23.832  1.00  0.00    -0.006 A 
ATOM     20  C   UNL A   1      36.494  22.815  23.799  1.00  0.00     0.010 A 
ATOM     21  C   UNL A   1      34.479  21.609  24.361  1.00  0.00     0.048 A 
ATOM     22  C   UNL A   1      37.265  21.775  24.326  1.00  0.00     0.001 A 
ATOM     23  C   UNL A   1      35.256  20.588  24.925  1.00  0.00     0.021 A 
ATOM     24  Cl  UNL A   1      32.770  21.338  24.285  1.00  0.00    -0.084 Cl
ATOM     25  C   UNL A   1      36.646  20.673  24.908  1.00  0.00     0.002 A 
ENDBRANCH  18  19
ENDBRANCH   7  11
ENDBRANCH   4   7
ENDBRANCH   2   3
ENDBRANCH   1   2
BRANCH   1  26
ATOM     26  C   UNL A   1      35.394  30.600  27.839  1.00  0.00     0.118 C 
BRANCH  26  27
ATOM     27  N   UNL A   1      35.385  30.628  29.292  1.00  0.00    -0.352 N 
ATOM     28  C   UNL A   1      36.325  30.198  30.198  1.00  0.00     0.251 C 
ATOM     29  H   UNL A   1      34.574  31.017  29.693  1.00  0.00     0.163 HD
ATOM     30  O   UNL A   1      36.008  30.122  31.383  1.00  0.00    -0.269 OA
BRANCH  28  31
ATOM     31  C   UNL A   1      37.700  29.818  29.782  1.00  0.00     0.039 A 
ATOM     32  C   UNL A   1      38.601  29.393  30.765  1.00  0.00     0.014 A 
ATOM     33  C   UNL A   1      38.138  29.943  28.461  1.00  0.00     0.014 A 
ATOM     34  C   UNL A   1      39.915  29.053  30.418  1.00  0.00     0.010 A 
ATOM     35  C   UNL A   1      39.425  29.533  28.104  1.00  0.00     0.010 A 
ATOM     36  C   UNL A   1      40.334  29.095  29.080  1.00  0.00    -0.014 A 
BRANCH  36  37
ATOM     37  C   UNL A   1      41.713  28.690  28.691  1.00  0.00     0.031 A 
ATOM     38  C   UNL A   1      42.822  29.708  28.619  1.00  0.00     0.074 A 
ATOM     39  C   UNL A   1      41.960  27.413  28.338  1.00  0.00     0.049 A 
ATOM     40  N   UNL A   1      44.070  29.549  28.254  1.00  0.00    -0.248 NA
ATOM     41  C   UNL A   1      42.477  31.091  28.977  1.00  0.00     0.031 C 
ATOM     42  C   UNL A   1      40.964  26.341  28.300  1.00  0.00     0.029 A 
ATOM     43  N   UNL A   1      43.120  26.803  27.926  1.00  0.00    -0.354 N 
ATOM     44  C   UNL A   1      44.649  30.812  28.311  1.00  0.00     0.074 A 
ATOM     45  C   UNL A   1      43.604  31.733  28.705  1.00  0.00     0.031 C 
ATOM     46  C   UNL A   1      41.555  25.205  27.900  1.00  0.00     0.029 A 
ATOM     47  C   UNL A   1      42.964  25.471  27.621  1.00  0.00     0.049 A 
ATOM     48  H   UNL A   1      43.981  27.274  27.856  1.00  0.00     0.167 HD
ATOM     49  C   UNL A   1      45.934  31.171  28.074  1.00  0.00     0.037 A 
ATOM     50  C   UNL A   1      43.847  24.564  27.160  1.00  0.00     0.037 A 
ATOM     51  C   UNL A   1      46.979  30.246  27.713  1.00  0.00     0.049 A 
ATOM     52  C   UNL A   1      45.278  24.971  26.943  1.00  0.00     0.074 A 
ATOM     53  C   UNL A   1      48.330  30.498  27.545  1.00  0.00     0.029 A 
ATOM     54  N   UNL A   1      46.790  28.896  27.455  1.00  0.00    -0.354 N 
ATOM     55  N   UNL A   1      45.828  26.153  27.088  1.00  0.00    -0.248 NA
ATOM     56  C   UNL A   1      46.211  23.922  26.508  1.00  0.00     0.031 C 
ATOM     57  C   UNL A   1      48.950  29.310  27.139  1.00  0.00     0.029 A 
ATOM     58  C   UNL A   1      47.994  28.306  27.101  1.00  0.00     0.049 A 
ATOM     59  H   UNL A   1      45.928  28.426  27.514  1.00  0.00     0.167 HD
ATOM     60  C   UNL A   1      47.174  25.988  26.778  1.00  0.00     0.074 A 
ATOM     61  C   UNL A   1      47.356  24.588  26.452  1.00  0.00     0.031 C 
ATOM     62  C   UNL A   1      48.165  26.913  26.766  1.00  0.00     0.037 A 
BRANCH  49  63
ATOM     63  C   UNL A   1      46.279  32.633  28.187  1.00  0.00     0.058 A 
ATOM     64  C   UNL A   1      46.741  33.195  29.389  1.00  0.00     0.135 A 
ATOM     65  C   UNL A   1      46.149  33.484  27.077  1.00  0.00     0.135 A 
ATOM     66  F   UNL A   1      46.878  32.431  30.485  1.00  0.00    -0.206 F 
ATOM     67  C   UNL A   1      47.013  34.556  29.500  1.00  0.00     0.059 A 
ATOM     68  C   UNL A   1      46.443  34.842  27.158  1.00  0.00     0.059 A 
ATOM     69  F   UNL A   1      45.718  32.999  25.902  1.00  0.00    -0.206 F 
ATOM     70  C   UNL A   1      46.851  35.373  28.379  1.00  0.00     0.060 A 
BRANCH  70  71
ATOM     71  S   UNL A   1      47.172  37.142  28.546  1.00  0.00     0.124 S 
ATOM     72  O   UNL A   1      45.828  37.695  28.404  1.00  0.00    -0.237 OA
ATOM     73  O   UNL A   1      47.757  37.232  29.881  1.00  0.00    -0.237 OA
ATOM     74  O   UNL A   1      48.087  37.426  27.445  1.00  0.00    -0.744 OA
ENDBRANCH  70  71
ENDBRANCH  49  63
BRANCH  50  75
ATOM     75  C   UNL A   1      43.392  23.174  26.898  1.00  0.00     0.058 A 
ATOM     76  C   UNL A   1      43.287  22.682  25.589  1.00  0.00     0.135 A 
ATOM     77  C   UNL A   1      43.122  22.290  27.955  1.00  0.00     0.135 A 
ATOM     78  F   UNL A   1      43.527  23.493  24.547  1.00  0.00    -0.206 F 
ATOM     79  C   UNL A   1      42.934  21.361  25.334  1.00  0.00     0.059 A 
ATOM     80  C   UNL A   1      42.790  20.959  27.726  1.00  0.00     0.059 A 
ATOM     81  F   UNL A   1      43.224  22.710  29.225  1.00  0.00    -0.206 F 
ATOM     82  C   UNL A   1      42.698  20.503  26.411  1.00  0.00     0.060 A 
BRANCH  82  83
ATOM     83  S   UNL A   1      42.337  18.765  26.073  1.00  0.00     0.124 S 
ATOM     84  O   UNL A   1      40.922  18.821  25.727  1.00  0.00    -0.237 OA
ATOM     85  O   UNL A   1      43.252  18.471  24.974  1.00  0.00    -0.237 OA
ATOM     86  O   UNL A   1      42.654  18.106  27.336  1.00  0.00    -0.744 OA
ENDBRANCH  82  83
ENDBRANCH  50  75
BRANCH  62  87
ATOM     87  C   UNL A   1      49.545  26.443  26.399  1.00  0.00     0.058 A 
ATOM     88  C   UNL A   1      50.006  26.475  25.073  1.00  0.00     0.135 A 
ATOM     89  C   UNL A   1      50.436  26.000  27.390  1.00  0.00     0.135 A 
ATOM     90  F   UNL A   1      49.194  26.883  24.085  1.00  0.00    -0.206 F 
ATOM     91  C   UNL A   1      51.292  26.062  24.740  1.00  0.00     0.059 A 
ATOM     92  C   UNL A   1      51.736  25.607  27.084  1.00  0.00     0.059 A 
ATOM     93  F   UNL A   1      50.051  25.960  28.676  1.00  0.00    -0.206 F 
ATOM     94  C   UNL A   1      52.150  25.630  25.753  1.00  0.00     0.060 A 
BRANCH  94  95
ATOM     95  S   UNL A   1      53.827  25.123  25.313  1.00  0.00     0.124 S 
ATOM     96  O   UNL A   1      54.529  25.300  26.579  1.00  0.00    -0.237 OA
ATOM     97  O   UNL A   1      53.634  23.742  24.883  1.00  0.00    -0.237 OA
ATOM     98  O   UNL A   1      54.197  26.056  24.254  1.00  0.00    -0.744 OA
ENDBRANCH  94  95
ENDBRANCH  62  87
ENDBRANCH  36  37
ENDBRANCH  28  31
ENDBRANCH  26  27
ENDBRANCH   1  26
TORSDOF 16
ENDMDL
MODEL 2
REMARK VINA RESULT:     -11.4      3.104      9.383
REMARK SMILES CC(C)[C@H](C(=O)NCCCNC(=O)c1ccc(-c2c3nc(c(-c4c(F)cc(S(=O)(=O)[O-])cc4F)c4ccc([nH]4)c(-c4c(F)cc(S(=O)(=O)[O-])cc4F)c4nc(c(-c5c(F)cc(S(=O)(=O)[O-])cc5F)c5ccc2[nH]5)C=C4)C=C3)cc1)N1C(=O)/C(=C/c2ccccc2Cl)SC1=S
REMARK SMILES IDX 9 1 8 2 7 3 5 4 6 5 4 7 2 8 1 9 3 10 80 11 81 12 93 13 82 14
REMARK SMILES IDX 83 15 92 16 94 17 84 18 85 19 86 20 90 21 87 22 89 23 91 24
REMARK SMILES IDX 88 25 10 26 11 27 12 28 13 30 14 31 15 32 79 33 16 34 78 35
REMARK SMILES IDX 17 36 18 37 19 38 72 39 20 40 77 41 71 42 73 43 21 44 76 45
REMARK SMILES IDX 70 46 69 47 22 49 56 50 35 51 55 52 36 53 39 54 54 55 74 56
REMARK SMILES IDX 37 57 38 58 53 60 75 61 40 62 23 63 24 64 33 65 25 66 26 67
REMARK SMILES IDX 32 68 34 69 27 70 28 71 29 72 30 73 31 74 57 75 58 76 67 77
REMARK SMILES IDX 59 78 60 79 66 80 68 81 61 82 62 83 63 84 64 85 65 86 41 87
REMARK SMILES IDX 42 88 51 89 43 90 44 91 50 92 52 93 45 94 46 95 47 96 48 97
REMARK SMILES IDX 49 98
REMARK H PARENT 7 6 11 29 73 48 39 59
REMARK Flexibility Score: inf
ROOT
ATOM      1  C   UNL A   1      36.425  22.815  24.220  1.00  0.00     0.042 C 
ENDROOT
BRANCH   1   2
ATOM      2  C   UNL A   1      34.926  23.137  24.173  1.00  0.00     0.117 C 
BRANCH   2   3
ATOM      3  N   UNL A   1      34.612  23.930  22.993  1.00  0.00    -0.354 N 
ATOM      4  C   UNL A   1      33.439  24.455  22.534  1.00  0.00     0.243 C 
ATOM      5  O   UNL A   1      33.395  24.693  21.323  1.00  0.00    -0.273 OA
ATOM      6  H   UNL A   1      35.390  24.123  22.421  1.00  0.00     0.163 HD
BRANCH   4   7
ATOM      7  C   UNL A   1      32.214  24.729  23.458  1.00  0.00     0.184 C 
BRANCH   7   8
ATOM      8  C   UNL A   1      31.909  23.356  24.168  1.00  0.00     0.015 C 
ATOM      9  C   UNL A   1      30.814  23.277  25.229  1.00  0.00     0.010 C 
ATOM     10  C   UNL A   1      31.574  22.312  23.079  1.00  0.00     0.010 C 
ENDBRANCH   7   8
BRANCH   7  11
ATOM     11  N   UNL A   1      32.553  25.965  24.209  1.00  0.00    -0.280 N 
ATOM     12  C   UNL A   1      33.209  26.028  25.426  1.00  0.00     0.266 C 
ATOM     13  C   UNL A   1      32.374  27.216  23.640  1.00  0.00     0.149 C 
ATOM     14  O   UNL A   1      33.403  25.130  26.232  1.00  0.00    -0.268 OA
ATOM     15  C   UNL A   1      33.631  27.439  25.705  1.00  0.00     0.081 C 
ATOM     16  S   UNL A   1      33.629  28.293  24.220  1.00  0.00    -0.054 SA
ATOM     17  S   UNL A   1      31.124  27.753  22.674  1.00  0.00    -0.052 S 
ATOM     18  C   UNL A   1      33.845  27.936  26.933  1.00  0.00     0.031 C 
BRANCH  18  19
ATOM     19  C   UNL A   1      34.263  29.318  27.251  1.00  0.00    -0.006 A 
ATOM     20  C   UNL A   1      35.613  29.490  27.603  1.00  0.00     0.010 A 
ATOM     21  C   UNL A   1      33.431  30.454  27.232  1.00  0.00     0.048 A 
ATOM     22  C   UNL A   1      36.130  30.760  27.872  1.00  0.00     0.001 A 
ATOM     23  C   UNL A   1      33.962  31.729  27.463  1.00  0.00     0.021 A 
ATOM     24  Cl  UNL A   1      31.716  30.352  27.004  1.00  0.00    -0.084 Cl
ATOM     25  C   UNL A   1      35.310  31.881  27.781  1.00  0.00     0.002 A 
ENDBRANCH  18  19
ENDBRANCH   7  11
ENDBRANCH   4   7
ENDBRANCH   2   3
ENDBRANCH   1   2
BRANCH   1  26
ATOM     26  C   UNL A   1      37.100  23.169  25.544  1.00  0.00     0.118 C 
BRANCH  26  27
ATOM     27  N   UNL A   1      38.024  22.136  25.983  1.00  0.00    -0.352 N 
ATOM     28  C   UNL A   1      39.307  22.235  26.468  1.00  0.00     0.251 C 
ATOM     29  H   UNL A   1      37.676  21.217  25.922  1.00  0.00     0.163 HD
ATOM     30  O   UNL A   1      39.977  21.209  26.571  1.00  0.00    -0.269 OA
BRANCH  28  31
ATOM     31  C   UNL A   1      39.899  23.539  26.861  1.00  0.00     0.039 A 
ATOM     32  C   UNL A   1      40.562  23.629  28.090  1.00  0.00     0.014 A 
ATOM     33  C   UNL A   1      39.750  24.688  26.078  1.00  0.00     0.014 A 
ATOM     34  C   UNL A   1      41.110  24.848  28.509  1.00  0.00     0.010 A 
ATOM     35  C   UNL A   1      40.361  25.885  26.462  1.00  0.00     0.010 A 
ATOM     36  C   UNL A   1      41.038  25.983  27.688  1.00  0.00    -0.014 A 
BRANCH  36  37
ATOM     37  C   UNL A   1      41.659  27.273  28.100  1.00  0.00     0.031 A 
ATOM     38  C   UNL A   1      43.142  27.494  27.950  1.00  0.00     0.074 A 
ATOM     39  C   UNL A   1      40.899  28.228  28.671  1.00  0.00     0.049 A 
ATOM     40  N   UNL A   1      43.864  28.529  28.299  1.00  0.00    -0.248 NA
ATOM     41  C   UNL A   1      43.920  26.396  27.359  1.00  0.00     0.031 C 
ATOM     42  C   UNL A   1      39.463  28.118  28.934  1.00  0.00     0.029 A 
ATOM     43  N   UNL A   1      41.229  29.473  29.149  1.00  0.00    -0.354 N 
ATOM     44  C   UNL A   1      45.180  28.198  27.996  1.00  0.00     0.074 A 
ATOM     45  C   UNL A   1      45.161  26.848  27.474  1.00  0.00     0.031 C 
ATOM     46  C   UNL A   1      39.034  29.250  29.514  1.00  0.00     0.029 A 
ATOM     47  C   UNL A   1      40.167  30.154  29.696  1.00  0.00     0.049 A 
ATOM     48  H   UNL A   1      42.140  29.842  29.106  1.00  0.00     0.167 HD
ATOM     49  C   UNL A   1      46.299  28.952  28.123  1.00  0.00     0.037 A 
ATOM     50  C   UNL A   1      40.107  31.364  30.285  1.00  0.00     0.037 A 
ATOM     51  C   UNL A   1      46.310  30.307  28.612  1.00  0.00     0.049 A 
ATOM     52  C   UNL A   1      41.350  32.203  30.380  1.00  0.00     0.074 A 
ATOM     53  C   UNL A   1      47.378  31.186  28.689  1.00  0.00     0.029 A 
ATOM     54  N   UNL A   1      45.205  30.978  29.117  1.00  0.00    -0.354 N 
ATOM     55  N   UNL A   1      42.572  31.907  30.005  1.00  0.00    -0.248 NA
ATOM     56  C   UNL A   1      41.208  33.542  30.968  1.00  0.00     0.031 C 
ATOM     57  C   UNL A   1      46.928  32.371  29.284  1.00  0.00     0.029 A 
ATOM     58  C   UNL A   1      45.570  32.250  29.534  1.00  0.00     0.049 A 
ATOM     59  H   UNL A   1      44.296  30.606  29.171  1.00  0.00     0.167 HD
ATOM     60  C   UNL A   1      43.342  33.028  30.297  1.00  0.00     0.074 A 
ATOM     61  C   UNL A   1      42.444  34.012  30.866  1.00  0.00     0.031 C 
ATOM     62  C   UNL A   1      44.671  33.220  30.110  1.00  0.00     0.037 A 
BRANCH  49  63
ATOM     63  C   UNL A   1      47.610  28.320  27.735  1.00  0.00     0.058 A 
ATOM     64  C   UNL A   1      48.421  27.659  28.673  1.00  0.00     0.135 A 
ATOM     65  C   UNL A   1      48.061  28.373  26.406  1.00  0.00     0.135 A 
ATOM     66  F   UNL A   1      48.044  27.584  29.959  1.00  0.00    -0.206 F 
ATOM     67  C   UNL A   1      49.653  27.118  28.317  1.00  0.00     0.059 A 
ATOM     68  C   UNL A   1      49.276  27.813  26.023  1.00  0.00     0.059 A 
ATOM     69  F   UNL A   1      47.324  28.985  25.466  1.00  0.00    -0.206 F 
ATOM     70  C   UNL A   1      50.077  27.209  26.990  1.00  0.00     0.060 A 
BRANCH  70  71
ATOM     71  S   UNL A   1      51.693  26.535  26.551  1.00  0.00     0.124 S 
ATOM     72  O   UNL A   1      51.564  25.154  27.006  1.00  0.00    -0.237 OA
ATOM     73  O   UNL A   1      51.731  26.725  25.104  1.00  0.00    -0.237 OA
ATOM     74  O   UNL A   1      52.624  27.361  27.312  1.00  0.00    -0.744 OA
ENDBRANCH  70  71
ENDBRANCH  49  63
BRANCH  50  75
ATOM     75  C   UNL A   1      38.805  31.852  30.810  1.00  0.00     0.058 A 
ATOM     76  C   UNL A   1      38.293  31.381  32.027  1.00  0.00     0.135 A 
ATOM     77  C   UNL A   1      38.083  32.852  30.137  1.00  0.00     0.135 A 
ATOM     78  F   UNL A   1      38.942  30.420  32.701  1.00  0.00    -0.206 F 
ATOM     79  C   UNL A   1      37.113  31.887  32.564  1.00  0.00     0.059 A 
ATOM     80  C   UNL A   1      36.914  33.389  30.665  1.00  0.00     0.059 A 
ATOM     81  F   UNL A   1      38.540  33.345  28.976  1.00  0.00    -0.206 F 
ATOM     82  C   UNL A   1      36.436  32.899  31.880  1.00  0.00     0.060 A 
BRANCH  82  83
ATOM     83  S   UNL A   1      34.958  33.616  32.633  1.00  0.00     0.124 S 
ATOM     84  O   UNL A   1      35.348  33.688  34.036  1.00  0.00    -0.237 OA
ATOM     85  O   UNL A   1      34.849  34.894  31.934  1.00  0.00    -0.237 OA
ATOM     86  O   UNL A   1      33.915  32.646  32.314  1.00  0.00    -0.744 OA
ENDBRANCH  82  83
ENDBRANCH  50  75
BRANCH  62  87
ATOM     87  C   UNL A   1      45.240  34.553  30.512  1.00  0.00     0.058 A 
ATOM     88  C   UNL A   1      45.773  34.770  31.794  1.00  0.00     0.135 A 
ATOM     89  C   UNL A   1      45.297  35.611  29.592  1.00  0.00     0.135 A 
ATOM     90  F   UNL A   1      45.737  33.793  32.714  1.00  0.00    -0.206 F 
ATOM     91  C   UNL A   1      46.321  35.997  32.154  1.00  0.00     0.059 A 
ATOM     92  C   UNL A   1      45.865  36.839  29.923  1.00  0.00     0.059 A 
ATOM     93  F   UNL A   1      44.813  35.455  28.350  1.00  0.00    -0.206 F 
ATOM     94  C   UNL A   1      46.362  37.026  31.212  1.00  0.00     0.060 A 
BRANCH  94  95
ATOM     95  S   UNL A   1      47.101  38.605  31.683  1.00  0.00     0.124 S 
ATOM     96  O   UNL A   1      47.457  39.163  30.383  1.00  0.00    -0.237 OA
ATOM     97  O   UNL A   1      46.003  39.270  32.378  1.00  0.00    -0.237 OA
ATOM     98  O   UNL A   1      48.225  38.215  32.528  1.00  0.00    -0.744 OA
ENDBRANCH  94  95
ENDBRANCH  62  87
ENDBRANCH  36  37
ENDBRANCH  28  31
ENDBRANCH  26  27
ENDBRANCH   1  26
TORSDOF 16
ENDMDL
MODEL 3
REMARK VINA RESULT:     -11.2      0.652      8.219
REMARK SMILES CC(C)[C@H](C(=O)NCCCNC(=O)c1ccc(-c2c3nc(c(-c4c(F)cc(S(=O)(=O)[O-])cc4F)c4ccc([nH]4)c(-c4c(F)cc(S(=O)(=O)[O-])cc4F)c4nc(c(-c5c(F)cc(S(=O)(=O)[O-])cc5F)c5ccc2[nH]5)C=C4)C=C3)cc1)N1C(=O)/C(=C/c2ccccc2Cl)SC1=S
REMARK SMILES IDX 9 1 8 2 7 3 5 4 6 5 4 7 2 8 1 9 3 10 80 11 81 12 93 13 82 14
REMARK SMILES IDX 83 15 92 16 94 17 84 18 85 19 86 20 90 21 87 22 89 23 91 24
REMARK SMILES IDX 88 25 10 26 11 27 12 28 13 30 14 31 15 32 79 33 16 34 78 35
REMARK SMILES IDX 17 36 18 37 19 38 72 39 20 40 77 41 71 42 73 43 21 44 76 45
REMARK SMILES IDX 70 46 69 47 22 49 56 50 35 51 55 52 36 53 39 54 54 55 74 56
REMARK SMILES IDX 37 57 38 58 53 60 75 61 40 62 23 63 24 64 33 65 25 66 26 67
REMARK SMILES IDX 32 68 34 69 27 70 28 71 29 72 30 73 31 74 57 75 58 76 67 77
REMARK SMILES IDX 59 78 60 79 66 80 68 81 61 82 62 83 63 84 64 85 65 86 41 87
REMARK SMILES IDX 42 88 51 89 43 90 44 91 50 92 52 93 45 94 46 95 47 96 48 97
REMARK SMILES IDX 49 98
REMARK H PARENT 7 6 11 29 73 48 39 59
REMARK Flexibility Score: inf
ROOT
ATOM      1  C   UNL A   1      33.931  28.914  27.395  1.00  0.00     0.042 C 
ENDROOT
BRANCH   1   2
ATOM      2  C   UNL A   1      32.828  29.725  26.702  1.00  0.00     0.117 C 
BRANCH   2   3
ATOM      3  N   UNL A   1      33.145  29.917  25.294  1.00  0.00    -0.354 N 
ATOM      4  C   UNL A   1      32.905  29.147  24.194  1.00  0.00     0.243 C 
ATOM      5  O   UNL A   1      33.653  29.340  23.230  1.00  0.00    -0.273 OA
ATOM      6  H   UNL A   1      33.622  30.757  25.101  1.00  0.00     0.163 HD
BRANCH   4   7
ATOM      7  C   UNL A   1      31.777  28.073  24.141  1.00  0.00     0.184 C 
BRANCH   7   8
ATOM      8  C   UNL A   1      30.916  28.432  22.871  1.00  0.00     0.015 C 
ATOM      9  C   UNL A   1      29.827  27.472  22.396  1.00  0.00     0.010 C 
ATOM     10  C   UNL A   1      30.250  29.805  23.110  1.00  0.00     0.010 C 
ENDBRANCH   7   8
BRANCH   7  11
ATOM     11  N   UNL A   1      32.466  26.766  24.303  1.00  0.00    -0.280 N 
ATOM     12  C   UNL A   1      33.241  26.128  23.351  1.00  0.00     0.266 C 
ATOM     13  C   UNL A   1      32.519  26.138  25.537  1.00  0.00     0.149 C 
ATOM     14  O   UNL A   1      33.307  26.349  22.151  1.00  0.00    -0.268 OA
ATOM     15  C   UNL A   1      34.001  25.002  23.985  1.00  0.00     0.081 C 
ATOM     16  S   UNL A   1      34.041  25.279  25.675  1.00  0.00    -0.054 SA
ATOM     17  S   UNL A   1      31.332  26.028  26.704  1.00  0.00    -0.052 S 
ATOM     18  C   UNL A   1      34.450  23.924  23.323  1.00  0.00     0.031 C 
BRANCH  18  19
ATOM     19  C   UNL A   1      35.204  22.796  23.909  1.00  0.00    -0.006 A 
ATOM     20  C   UNL A   1      36.598  22.955  23.982  1.00  0.00     0.010 A 
ATOM     21  C   UNL A   1      34.645  21.595  24.389  1.00  0.00     0.048 A 
ATOM     22  C   UNL A   1      37.405  21.974  24.565  1.00  0.00     0.001 A 
ATOM     23  C   UNL A   1      35.453  20.633  25.008  1.00  0.00     0.021 A 
ATOM     24  Cl  UNL A   1      32.972  21.194  24.183  1.00  0.00    -0.084 Cl
ATOM     25  C   UNL A   1      36.830  20.824  25.098  1.00  0.00     0.002 A 
ENDBRANCH  18  19
ENDBRANCH   7  11
ENDBRANCH   4   7
ENDBRANCH   2   3
ENDBRANCH   1   2
BRANCH   1  26
ATOM     26  C   UNL A   1      35.251  29.665  27.560  1.00  0.00     0.118 C 
BRANCH  26  27
ATOM     27  N   UNL A   1      35.293  30.438  28.791  1.00  0.00    -0.352 N 
ATOM     28  C   UNL A   1      36.318  30.635  29.686  1.00  0.00     0.251 C 
ATOM     29  H   UNL A   1      34.451  30.894  29.021  1.00  0.00     0.163 HD
ATOM     30  O   UNL A   1      36.060  31.150  30.772  1.00  0.00    -0.269 OA
BRANCH  28  31
ATOM     31  C   UNL A   1      37.716  30.236  29.378  1.00  0.00     0.039 A 
ATOM     32  C   UNL A   1      38.096  30.115  28.037  1.00  0.00     0.014 A 
ATOM     33  C   UNL A   1      38.633  29.908  30.381  1.00  0.00     0.014 A 
ATOM     34  C   UNL A   1      39.396  29.714  27.706  1.00  0.00     0.010 A 
ATOM     35  C   UNL A   1      39.950  29.580  30.051  1.00  0.00     0.010 A 
ATOM     36  C   UNL A   1      40.346  29.466  28.709  1.00  0.00    -0.014 A 
BRANCH  36  37
ATOM     37  C   UNL A   1      41.745  29.087  28.370  1.00  0.00     0.031 A 
ATOM     38  C   UNL A   1      42.086  27.668  27.991  1.00  0.00     0.074 A 
ATOM     39  C   UNL A   1      42.727  30.004  28.463  1.00  0.00     0.049 A 
ATOM     40  N   UNL A   1      43.254  27.144  27.714  1.00  0.00    -0.248 NA
ATOM     41  C   UNL A   1      40.975  26.707  27.950  1.00  0.00     0.031 C 
ATOM     42  C   UNL A   1      42.545  31.396  28.879  1.00  0.00     0.029 A 
ATOM     43  N   UNL A   1      44.078  29.902  28.230  1.00  0.00    -0.354 N 
ATOM     44  C   UNL A   1      43.022  25.791  27.491  1.00  0.00     0.074 A 
ATOM     45  C   UNL A   1      41.608  25.568  27.709  1.00  0.00     0.031 C 
ATOM     46  C   UNL A   1      43.733  32.019  28.863  1.00  0.00     0.029 A 
ATOM     47  C   UNL A   1      44.768  31.068  28.466  1.00  0.00     0.049 A 
ATOM     48  H   UNL A   1      44.510  29.073  27.924  1.00  0.00     0.167 HD
ATOM     49  C   UNL A   1      43.899  24.826  27.123  1.00  0.00     0.037 A 
ATOM     50  C   UNL A   1      46.084  31.343  28.383  1.00  0.00     0.037 A 
ATOM     51  C   UNL A   1      45.300  25.058  26.875  1.00  0.00     0.049 A 
ATOM     52  C   UNL A   1      47.037  30.271  27.934  1.00  0.00     0.074 A 
ATOM     53  C   UNL A   1      46.250  24.166  26.407  1.00  0.00     0.029 A 
ATOM     54  N   UNL A   1      45.954  26.263  27.084  1.00  0.00    -0.354 N 
ATOM     55  N   UNL A   1      46.785  29.017  27.641  1.00  0.00    -0.248 NA
ATOM     56  C   UNL A   1      48.449  30.650  27.794  1.00  0.00     0.031 C 
ATOM     57  C   UNL A   1      47.488  24.819  26.378  1.00  0.00     0.029 A 
ATOM     58  C   UNL A   1      47.301  26.132  26.782  1.00  0.00     0.049 A 
ATOM     59  H   UNL A   1      45.525  27.090  27.400  1.00  0.00     0.167 HD
ATOM     60  C   UNL A   1      48.004  28.461  27.267  1.00  0.00     0.074 A 
ATOM     61  C   UNL A   1      48.989  29.520  27.357  1.00  0.00     0.031 C 
ATOM     62  C   UNL A   1      48.278  27.189  26.885  1.00  0.00     0.037 A 
BRANCH  49  63
ATOM     63  C   UNL A   1      43.369  23.424  26.977  1.00  0.00     0.058 A 
ATOM     64  C   UNL A   1      42.961  22.910  25.734  1.00  0.00     0.135 A 
ATOM     65  C   UNL A   1      43.268  22.580  28.095  1.00  0.00     0.135 A 
ATOM     66  F   UNL A   1      43.027  23.674  24.632  1.00  0.00    -0.206 F 
ATOM     67  C   UNL A   1      42.427  21.630  25.614  1.00  0.00     0.059 A 
ATOM     68  C   UNL A   1      42.765  21.286  27.993  1.00  0.00     0.059 A 
ATOM     69  F   UNL A   1      43.650  23.015  29.306  1.00  0.00    -0.206 F 
ATOM     70  C   UNL A   1      42.324  20.829  26.753  1.00  0.00     0.060 A 
BRANCH  70  71
ATOM     71  S   UNL A   1      41.597  19.185  26.589  1.00  0.00     0.124 S 
ATOM     72  O   UNL A   1      40.558  19.426  25.592  1.00  0.00    -0.237 OA
ATOM     73  O   UNL A   1      42.730  18.382  26.142  1.00  0.00    -0.237 OA
ATOM     74  O   UNL A   1      41.117  18.890  27.936  1.00  0.00    -0.744 OA
ENDBRANCH  70  71
ENDBRANCH  49  63
BRANCH  50  75
ATOM     75  C   UNL A   1      46.563  32.709  28.718  1.00  0.00     0.058 A 
ATOM     76  C   UNL A   1      47.035  33.016  30.002  1.00  0.00     0.135 A 
ATOM     77  C   UNL A   1      46.623  33.715  27.739  1.00  0.00     0.135 A 
ATOM     78  F   UNL A   1      46.990  32.091  30.972  1.00  0.00    -0.206 F 
ATOM     79  C   UNL A   1      47.556  34.271  30.306  1.00  0.00     0.059 A 
ATOM     80  C   UNL A   1      47.159  34.969  28.012  1.00  0.00     0.059 A 
ATOM     81  F   UNL A   1      46.196  33.465  26.492  1.00  0.00    -0.206 F 
ATOM     82  C   UNL A   1      47.624  35.237  29.300  1.00  0.00     0.060 A 
BRANCH  82  83
ATOM     83  S   UNL A   1      48.390  36.829  29.677  1.00  0.00     0.124 S 
ATOM     84  O   UNL A   1      48.602  36.720  31.115  1.00  0.00    -0.237 OA
ATOM     85  O   UNL A   1      49.592  36.794  28.849  1.00  0.00    -0.237 OA
ATOM     86  O   UNL A   1      47.378  37.795  29.259  1.00  0.00    -0.744 OA
ENDBRANCH  82  83
ENDBRANCH  50  75
BRANCH  62  87
ATOM     87  C   UNL A   1      49.701  26.868  26.521  1.00  0.00     0.058 A 
ATOM     88  C   UNL A   1      50.611  26.374  27.470  1.00  0.00     0.135 A 
ATOM     89  C   UNL A   1      50.149  27.011  25.198  1.00  0.00     0.135 A 
ATOM     90  F   UNL A   1      50.237  26.224  28.750  1.00  0.00    -0.206 F 
ATOM     91  C   UNL A   1      51.920  26.055  27.123  1.00  0.00     0.059 A 
ATOM     92  C   UNL A   1      51.447  26.674  24.824  1.00  0.00     0.059 A 
ATOM     93  F   UNL A   1      49.318  27.470  24.248  1.00  0.00    -0.206 F 
ATOM     94  C   UNL A   1      52.329  26.208  25.798  1.00  0.00     0.060 A 
BRANCH  94  95
ATOM     95  S   UNL A   1      54.023  25.765  25.355  1.00  0.00     0.124 S 
ATOM     96  O   UNL A   1      54.686  27.064  25.390  1.00  0.00    -0.237 OA
ATOM     97  O   UNL A   1      54.392  24.836  26.418  1.00  0.00    -0.237 OA
ATOM     98  O   UNL A   1      53.883  25.167  24.031  1.00  0.00    -0.744 OA
ENDBRANCH  94  95
ENDBRANCH  62  87
ENDBRANCH  36  37
ENDBRANCH  28  31
ENDBRANCH  26  27
ENDBRANCH   1  26
TORSDOF 16
ENDMDL
