MODEL 1
REMARK VINA RESULT:     -12.4      0.000      0.000
REMARK SMILES O=C(NCCCNC(=O)c1ccccc1NS(=O)(=O)c1cccc([N+](=O)[O-])c1)c1ccc(-c2c3nc(c(-c4c(F)cc(S(=O)(=O)[O-])cc4F)c4ccc([nH]4)c(-c4c(F)cc(S(=O)(=O)[O-])cc4F)c4nc(c(-c5c(F)cc(S(=O)(=O)[O-])cc5F)c5ccc2[nH]5)C=C4)C=C3)cc1
REMARK SMILES IDX 5 1 4 2 3 3 1 4 2 5 29 7 30 8 94 9 31 10 93 11 32 12 33 13
REMARK SMILES IDX 34 14 87 15 35 16 92 17 86 18 88 19 36 20 91 21 85 22 84 23
REMARK SMILES IDX 37 25 71 26 50 27 70 28 51 29 54 30 69 31 89 32 52 33 53 34
REMARK SMILES IDX 68 36 90 37 55 38 38 39 39 40 48 41 40 42 41 43 47 44 49 45
REMARK SMILES IDX 42 46 43 47 44 48 45 49 46 50 72 51 73 52 82 53 74 54 75 55
REMARK SMILES IDX 81 56 83 57 76 58 77 59 78 60 79 61 80 62 56 63 57 64 66 65
REMARK SMILES IDX 58 66 59 67 65 68 67 69 60 70 61 71 62 72 63 73 64 74 6 75
REMARK SMILES IDX 7 76 8 77 9 79 10 80 11 81 15 82 12 83 14 84 13 85 16 86
REMARK SMILES IDX 17 88 18 89 19 90 20 91 21 92 28 93 22 94 24 95 23 96 25 97
REMARK SMILES IDX 26 98 27 99
REMARK H PARENT 3 6 88 24 54 35 7 78 16 87
REMARK Flexibility Score: inf
ROOT
ATOM      1  C   UNL A   1      34.336  31.062  27.637  1.00  0.00     0.042 C 
ENDROOT
BRANCH   1   2
ATOM      2  C   UNL A   1      35.553  31.501  28.433  1.00  0.00     0.118 C 
BRANCH   2   3
ATOM      3  N   UNL A   1      35.458  31.193  29.854  1.00  0.00    -0.352 N 
ATOM      4  O   UNL A   1      35.954  30.261  31.838  1.00  0.00    -0.269 OA
ATOM      5  C   UNL A   1      36.316  30.521  30.693  1.00  0.00     0.251 C 
ATOM      6  H   UNL A   1      34.638  31.522  30.289  1.00  0.00     0.163 HD
BRANCH   5   7
ATOM      7  C   UNL A   1      37.651  30.087  30.227  1.00  0.00     0.039 A 
ATOM      8  C   UNL A   1      38.635  29.677  31.128  1.00  0.00     0.014 A 
ATOM      9  C   UNL A   1      37.916  30.059  28.854  1.00  0.00     0.014 A 
ATOM     10  C   UNL A   1      39.924  29.417  30.678  1.00  0.00     0.010 A 
ATOM     11  C   UNL A   1      39.186  29.691  28.394  1.00  0.00     0.010 A 
ATOM     12  C   UNL A   1      40.212  29.406  29.305  1.00  0.00    -0.014 A 
BRANCH  12  13
ATOM     13  C   UNL A   1      41.580  29.040  28.853  1.00  0.00     0.031 A 
ATOM     14  C   UNL A   1      42.702  30.041  28.884  1.00  0.00     0.074 A 
ATOM     15  C   UNL A   1      41.809  27.779  28.438  1.00  0.00     0.049 A 
ATOM     16  N   UNL A   1      43.953  29.886  28.530  1.00  0.00    -0.248 NA
ATOM     17  C   UNL A   1      42.382  31.394  29.367  1.00  0.00     0.031 C 
ATOM     18  C   UNL A   1      40.795  26.724  28.351  1.00  0.00     0.029 A 
ATOM     19  N   UNL A   1      42.963  27.161  28.029  1.00  0.00    -0.354 N 
ATOM     20  C   UNL A   1      44.562  31.120  28.721  1.00  0.00     0.074 A 
ATOM     21  C   UNL A   1      43.538  32.022  29.205  1.00  0.00     0.031 C 
ATOM     22  C   UNL A   1      41.379  25.580  27.966  1.00  0.00     0.029 A 
ATOM     23  C   UNL A   1      42.794  25.834  27.717  1.00  0.00     0.049 A 
ATOM     24  H   UNL A   1      43.829  27.624  27.968  1.00  0.00     0.167 HD
ATOM     25  C   UNL A   1      45.856  31.466  28.515  1.00  0.00     0.037 A 
ATOM     26  C   UNL A   1      43.673  24.921  27.262  1.00  0.00     0.037 A 
ATOM     27  C   UNL A   1      46.874  30.555  28.054  1.00  0.00     0.049 A 
ATOM     28  C   UNL A   1      45.098  25.329  27.043  1.00  0.00     0.074 A 
ATOM     29  C   UNL A   1      48.220  30.802  27.845  1.00  0.00     0.029 A 
ATOM     30  N   UNL A   1      46.658  29.223  27.731  1.00  0.00    -0.354 N 
ATOM     31  N   UNL A   1      45.658  26.497  27.245  1.00  0.00    -0.248 NA
ATOM     32  C   UNL A   1      46.011  24.299  26.531  1.00  0.00     0.031 C 
ATOM     33  C   UNL A   1      48.811  29.628  27.364  1.00  0.00     0.029 A 
ATOM     34  C   UNL A   1      47.842  28.638  27.310  1.00  0.00     0.049 A 
ATOM     35  H   UNL A   1      45.792  28.761  27.793  1.00  0.00     0.167 HD
ATOM     36  C   UNL A   1      46.993  26.344  26.892  1.00  0.00     0.074 A 
ATOM     37  C   UNL A   1      47.159  24.963  26.480  1.00  0.00     0.031 C 
ATOM     38  C   UNL A   1      47.988  27.263  26.903  1.00  0.00     0.037 A 
BRANCH  25  39
ATOM     39  C   UNL A   1      46.243  32.896  28.769  1.00  0.00     0.058 A 
ATOM     40  C   UNL A   1      46.172  33.872  27.762  1.00  0.00     0.135 A 
ATOM     41  C   UNL A   1      46.665  33.304  30.045  1.00  0.00     0.135 A 
ATOM     42  F   UNL A   1      45.790  33.534  26.520  1.00  0.00    -0.206 F 
ATOM     43  C   UNL A   1      46.529  35.195  28.003  1.00  0.00     0.059 A 
ATOM     44  C   UNL A   1      47.006  34.626  30.316  1.00  0.00     0.059 A 
ATOM     45  F   UNL A   1      46.749  32.412  31.045  1.00  0.00    -0.206 F 
ATOM     46  C   UNL A   1      46.950  35.561  29.283  1.00  0.00     0.060 A 
BRANCH  46  47
ATOM     47  S   UNL A   1      47.417  37.280  29.584  1.00  0.00     0.124 S 
ATOM     48  O   UNL A   1      47.727  37.251  31.010  1.00  0.00    -0.237 OA
ATOM     49  O   UNL A   1      48.560  37.456  28.692  1.00  0.00    -0.237 OA
ATOM     50  O   UNL A   1      46.219  38.028  29.216  1.00  0.00    -0.744 OA
ENDBRANCH  46  47
ENDBRANCH  25  39
BRANCH  26  51
ATOM     51  C   UNL A   1      43.210  23.537  26.987  1.00  0.00     0.058 A 
ATOM     52  C   UNL A   1      42.997  23.094  25.674  1.00  0.00     0.135 A 
ATOM     53  C   UNL A   1      43.029  22.614  28.030  1.00  0.00     0.135 A 
ATOM     54  F   UNL A   1      43.155  23.942  24.646  1.00  0.00    -0.206 F 
ATOM     55  C   UNL A   1      42.621  21.783  25.403  1.00  0.00     0.059 A 
ATOM     56  C   UNL A   1      42.676  21.293  27.782  1.00  0.00     0.059 A 
ATOM     57  F   UNL A   1      43.240  22.988  29.301  1.00  0.00    -0.206 F 
ATOM     58  C   UNL A   1      42.469  20.888  26.464  1.00  0.00     0.060 A 
BRANCH  58  59
ATOM     59  S   UNL A   1      42.058  19.167  26.098  1.00  0.00     0.124 S 
ATOM     60  O   UNL A   1      42.940  18.889  24.971  1.00  0.00    -0.237 OA
ATOM     61  O   UNL A   1      42.391  18.496  27.351  1.00  0.00    -0.237 OA
ATOM     62  O   UNL A   1      40.632  19.224  25.789  1.00  0.00    -0.744 OA
ENDBRANCH  58  59
ENDBRANCH  26  51
BRANCH  38  63
ATOM     63  C   UNL A   1      49.351  26.800  26.475  1.00  0.00     0.058 A 
ATOM     64  C   UNL A   1      50.247  26.221  27.386  1.00  0.00     0.135 A 
ATOM     65  C   UNL A   1      49.748  26.902  25.133  1.00  0.00     0.135 A 
ATOM     66  F   UNL A   1      49.916  26.110  28.683  1.00  0.00    -0.206 F 
ATOM     67  C   UNL A   1      51.502  25.776  26.984  1.00  0.00     0.059 A 
ATOM     68  C   UNL A   1      50.989  26.444  24.706  1.00  0.00     0.059 A 
ATOM     69  F   UNL A   1      48.923  27.443  24.223  1.00  0.00    -0.206 F 
ATOM     70  C   UNL A   1      51.864  25.892  25.641  1.00  0.00     0.060 A 
BRANCH  70  71
ATOM     71  S   UNL A   1      53.482  25.283  25.122  1.00  0.00     0.124 S 
ATOM     72  O   UNL A   1      53.523  25.711  23.728  1.00  0.00    -0.237 OA
ATOM     73  O   UNL A   1      54.389  25.983  26.027  1.00  0.00    -0.237 OA
ATOM     74  O   UNL A   1      53.385  23.841  25.335  1.00  0.00    -0.744 OA
ENDBRANCH  70  71
ENDBRANCH  38  63
ENDBRANCH  12  13
ENDBRANCH   5   7
ENDBRANCH   2   3
ENDBRANCH   1   2
BRANCH   1  75
ATOM     75  C   UNL A   1      34.306  29.583  27.297  1.00  0.00     0.118 C 
BRANCH  75  76
ATOM     76  N   UNL A   1      33.070  28.911  27.662  1.00  0.00    -0.352 N 
ATOM     77  C   UNL A   1      32.345  28.002  26.938  1.00  0.00     0.253 C 
ATOM     78  H   UNL A   1      32.705  29.139  28.547  1.00  0.00     0.163 HD
ATOM     79  O   UNL A   1      31.311  27.520  27.393  1.00  0.00    -0.269 OA
BRANCH  77  80
ATOM     80  C   UNL A   1      32.784  27.616  25.587  1.00  0.00     0.063 A 
ATOM     81  C   UNL A   1      32.642  28.599  24.594  1.00  0.00     0.016 A 
ATOM     82  C   UNL A   1      33.254  26.329  25.268  1.00  0.00     0.062 A 
ATOM     83  C   UNL A   1      33.002  28.321  23.278  1.00  0.00     0.001 A 
ATOM     84  C   UNL A   1      33.615  26.076  23.940  1.00  0.00     0.027 A 
ATOM     85  C   UNL A   1      33.498  27.064  22.954  1.00  0.00     0.002 A 
BRANCH  82  86
ATOM     86  N   UNL A   1      33.233  25.257  26.223  1.00  0.00    -0.279 N 
ATOM     87  H   UNL A   1      33.904  25.261  26.944  1.00  0.00     0.180 HD
BRANCH  86  88
ATOM     88  S   UNL A   1      32.121  23.990  26.177  1.00  0.00     0.262 S 
ATOM     89  O   UNL A   1      31.701  23.677  27.529  1.00  0.00    -0.201 OA
ATOM     90  O   UNL A   1      31.163  24.324  25.155  1.00  0.00    -0.201 OA
BRANCH  88  91
ATOM     91  C   UNL A   1      33.043  22.599  25.582  1.00  0.00     0.094 A 
ATOM     92  C   UNL A   1      34.439  22.634  25.626  1.00  0.00     0.023 A 
ATOM     93  C   UNL A   1      32.354  21.453  25.166  1.00  0.00     0.107 A 
ATOM     94  C   UNL A   1      35.161  21.487  25.297  1.00  0.00     0.008 A 
ATOM     95  C   UNL A   1      33.089  20.312  24.838  1.00  0.00     0.270 A 
ATOM     96  C   UNL A   1      34.490  20.321  24.912  1.00  0.00     0.086 A 
BRANCH  95  97
ATOM     97  N   UNL A   1      32.387  19.081  24.450  1.00  0.00     0.062 N 
ATOM     98  O   UNL A   1      32.181  18.899  23.241  1.00  0.00    -0.258 OA
ATOM     99  O   UNL A   1      32.051  18.302  25.349  1.00  0.00    -0.258 OA
ENDBRANCH  95  97
ENDBRANCH  88  91
ENDBRANCH  86  88
ENDBRANCH  82  86
ENDBRANCH  77  80
ENDBRANCH  75  76
ENDBRANCH   1  75
TORSDOF 17
ENDMDL
MODEL 2
REMARK VINA RESULT:     -12.4      3.086      4.574
REMARK SMILES O=C(NCCCNC(=O)c1ccccc1NS(=O)(=O)c1cccc([N+](=O)[O-])c1)c1ccc(-c2c3nc(c(-c4c(F)cc(S(=O)(=O)[O-])cc4F)c4ccc([nH]4)c(-c4c(F)cc(S(=O)(=O)[O-])cc4F)c4nc(c(-c5c(F)cc(S(=O)(=O)[O-])cc5F)c5ccc2[nH]5)C=C4)C=C3)cc1
REMARK SMILES IDX 5 1 4 2 3 3 1 4 2 5 29 7 30 8 94 9 31 10 93 11 32 12 33 13
REMARK SMILES IDX 34 14 87 15 35 16 92 17 86 18 88 19 36 20 91 21 85 22 84 23
REMARK SMILES IDX 37 25 71 26 50 27 70 28 51 29 54 30 69 31 89 32 52 33 53 34
REMARK SMILES IDX 68 36 90 37 55 38 38 39 39 40 48 41 40 42 41 43 47 44 49 45
REMARK SMILES IDX 42 46 43 47 44 48 45 49 46 50 72 51 73 52 82 53 74 54 75 55
REMARK SMILES IDX 81 56 83 57 76 58 77 59 78 60 79 61 80 62 56 63 57 64 66 65
REMARK SMILES IDX 58 66 59 67 65 68 67 69 60 70 61 71 62 72 63 73 64 74 6 75
REMARK SMILES IDX 7 76 8 77 9 79 10 80 11 81 15 82 12 83 14 84 13 85 16 86
REMARK SMILES IDX 17 88 18 89 19 90 20 91 21 92 28 93 22 94 24 95 23 96 25 97
REMARK SMILES IDX 26 98 27 99
REMARK H PARENT 3 6 88 24 54 35 7 78 16 87
REMARK Flexibility Score: inf
ROOT
ATOM      1  C   UNL A   1      33.343  27.874  25.796  1.00  0.00     0.042 C 
ENDROOT
BRANCH   1   2
ATOM      2  C   UNL A   1      33.426  28.223  27.273  1.00  0.00     0.118 C 
BRANCH   2   3
ATOM      3  N   UNL A   1      33.308  29.650  27.538  1.00  0.00    -0.352 N 
ATOM      4  O   UNL A   1      33.840  31.692  28.309  1.00  0.00    -0.269 OA
ATOM      5  C   UNL A   1      34.214  30.553  28.041  1.00  0.00     0.251 C 
ATOM      6  H   UNL A   1      32.428  30.035  27.320  1.00  0.00     0.163 HD
BRANCH   5   7
ATOM      7  C   UNL A   1      35.621  30.165  28.287  1.00  0.00     0.039 A 
ATOM      8  C   UNL A   1      36.033  29.683  29.529  1.00  0.00     0.014 A 
ATOM      9  C   UNL A   1      36.544  30.256  27.239  1.00  0.00     0.014 A 
ATOM     10  C   UNL A   1      37.384  29.467  29.776  1.00  0.00     0.010 A 
ATOM     11  C   UNL A   1      37.887  29.933  27.460  1.00  0.00     0.010 A 
ATOM     12  C   UNL A   1      38.326  29.574  28.742  1.00  0.00    -0.014 A 
BRANCH  12  13
ATOM     13  C   UNL A   1      39.750  29.254  29.019  1.00  0.00     0.031 A 
ATOM     14  C   UNL A   1      40.656  30.253  29.684  1.00  0.00     0.074 A 
ATOM     15  C   UNL A   1      40.214  28.032  28.691  1.00  0.00     0.049 A 
ATOM     16  N   UNL A   1      41.921  30.133  30.001  1.00  0.00    -0.248 NA
ATOM     17  C   UNL A   1      40.075  31.560  30.031  1.00  0.00     0.031 C 
ATOM     18  C   UNL A   1      39.432  26.984  28.030  1.00  0.00     0.029 A 
ATOM     19  N   UNL A   1      41.444  27.455  28.881  1.00  0.00    -0.354 N 
ATOM     20  C   UNL A   1      42.293  31.350  30.559  1.00  0.00     0.074 A 
ATOM     21  C   UNL A   1      41.125  32.204  30.521  1.00  0.00     0.031 C 
ATOM     22  C   UNL A   1      40.182  25.878  27.915  1.00  0.00     0.029 A 
ATOM     23  C   UNL A   1      41.516  26.158  28.434  1.00  0.00     0.049 A 
ATOM     24  H   UNL A   1      42.201  27.925  29.298  1.00  0.00     0.167 HD
ATOM     25  C   UNL A   1      43.498  31.717  31.061  1.00  0.00     0.037 A 
ATOM     26  C   UNL A   1      42.545  25.290  28.424  1.00  0.00     0.037 A 
ATOM     27  C   UNL A   1      44.649  30.852  31.117  1.00  0.00     0.049 A 
ATOM     28  C   UNL A   1      43.866  25.720  28.986  1.00  0.00     0.074 A 
ATOM     29  C   UNL A   1      45.905  31.121  31.635  1.00  0.00     0.029 A 
ATOM     30  N   UNL A   1      44.687  29.550  30.637  1.00  0.00    -0.354 N 
ATOM     31  N   UNL A   1      44.194  26.870  29.524  1.00  0.00    -0.248 NA
ATOM     32  C   UNL A   1      44.959  24.741  28.936  1.00  0.00     0.031 C 
ATOM     33  C   UNL A   1      46.710  29.994  31.439  1.00  0.00     0.029 A 
ATOM     34  C   UNL A   1      45.947  29.008  30.834  1.00  0.00     0.049 A 
ATOM     35  H   UNL A   1      43.930  29.081  30.220  1.00  0.00     0.167 HD
ATOM     36  C   UNL A   1      45.530  26.753  29.885  1.00  0.00     0.074 A 
ATOM     37  C   UNL A   1      45.944  25.412  29.519  1.00  0.00     0.031 C 
ATOM     38  C   UNL A   1      46.341  27.672  30.462  1.00  0.00     0.037 A 
BRANCH  25  39
ATOM     39  C   UNL A   1      43.638  33.123  31.575  1.00  0.00     0.058 A 
ATOM     40  C   UNL A   1      43.995  34.187  30.731  1.00  0.00     0.135 A 
ATOM     41  C   UNL A   1      43.385  33.416  32.925  1.00  0.00     0.135 A 
ATOM     42  F   UNL A   1      44.262  33.960  29.435  1.00  0.00    -0.206 F 
ATOM     43  C   UNL A   1      44.121  35.487  31.212  1.00  0.00     0.059 A 
ATOM     44  C   UNL A   1      43.483  34.713  33.424  1.00  0.00     0.059 A 
ATOM     45  F   UNL A   1      43.038  32.437  33.776  1.00  0.00    -0.206 F 
ATOM     46  C   UNL A   1      43.867  35.739  32.562  1.00  0.00     0.060 A 
BRANCH  46  47
ATOM     47  S   UNL A   1      44.040  37.428  33.176  1.00  0.00     0.124 S 
ATOM     48  O   UNL A   1      45.350  37.370  33.818  1.00  0.00    -0.237 OA
ATOM     49  O   UNL A   1      43.972  38.218  31.950  1.00  0.00    -0.237 OA
ATOM     50  O   UNL A   1      42.904  37.580  34.079  1.00  0.00    -0.744 OA
ENDBRANCH  46  47
ENDBRANCH  25  39
BRANCH  26  51
ATOM     51  C   UNL A   1      42.348  23.931  27.857  1.00  0.00     0.058 A 
ATOM     52  C   UNL A   1      42.283  23.729  26.472  1.00  0.00     0.135 A 
ATOM     53  C   UNL A   1      42.280  22.803  28.690  1.00  0.00     0.135 A 
ATOM     54  F   UNL A   1      42.340  24.778  25.638  1.00  0.00    -0.206 F 
ATOM     55  C   UNL A   1      42.158  22.455  25.930  1.00  0.00     0.059 A 
ATOM     56  C   UNL A   1      42.179  21.518  28.171  1.00  0.00     0.059 A 
ATOM     57  F   UNL A   1      42.358  22.946  30.023  1.00  0.00    -0.206 F 
ATOM     58  C   UNL A   1      42.113  21.354  26.788  1.00  0.00     0.060 A 
BRANCH  58  59
ATOM     59  S   UNL A   1      42.030  19.697  26.074  1.00  0.00     0.124 S 
ATOM     60  O   UNL A   1      42.449  18.872  27.202  1.00  0.00    -0.237 OA
ATOM     61  O   UNL A   1      40.624  19.593  25.694  1.00  0.00    -0.237 OA
ATOM     62  O   UNL A   1      42.968  19.768  24.958  1.00  0.00    -0.744 OA
ENDBRANCH  58  59
ENDBRANCH  26  51
BRANCH  38  63
ATOM     63  C   UNL A   1      47.753  27.252  30.752  1.00  0.00     0.058 A 
ATOM     64  C   UNL A   1      48.100  26.631  31.961  1.00  0.00     0.135 A 
ATOM     65  C   UNL A   1      48.761  27.438  29.793  1.00  0.00     0.135 A 
ATOM     66  F   UNL A   1      47.171  26.439  32.913  1.00  0.00    -0.206 F 
ATOM     67  C   UNL A   1      49.404  26.226  32.220  1.00  0.00     0.059 A 
ATOM     68  C   UNL A   1      50.068  27.021  30.023  1.00  0.00     0.059 A 
ATOM     69  F   UNL A   1      48.478  28.022  28.619  1.00  0.00    -0.206 F 
ATOM     70  C   UNL A   1      50.382  26.426  31.244  1.00  0.00     0.060 A 
BRANCH  70  71
ATOM     71  S   UNL A   1      52.067  25.869  31.576  1.00  0.00     0.124 S 
ATOM     72  O   UNL A   1      51.841  24.492  32.005  1.00  0.00    -0.237 OA
ATOM     73  O   UNL A   1      52.715  26.029  30.277  1.00  0.00    -0.237 OA
ATOM     74  O   UNL A   1      52.528  26.784  32.615  1.00  0.00    -0.744 OA
ENDBRANCH  70  71
ENDBRANCH  38  63
ENDBRANCH  12  13
ENDBRANCH   5   7
ENDBRANCH   2   3
ENDBRANCH   1   2
BRANCH   1  75
ATOM     75  C   UNL A   1      33.909  26.512  25.438  1.00  0.00     0.118 C 
BRANCH  75  76
ATOM     76  N   UNL A   1      33.148  25.392  25.964  1.00  0.00    -0.352 N 
ATOM     77  C   UNL A   1      33.410  24.052  25.853  1.00  0.00     0.253 C 
ATOM     78  H   UNL A   1      32.335  25.627  26.467  1.00  0.00     0.163 HD
ATOM     79  O   UNL A   1      32.661  23.223  26.360  1.00  0.00    -0.269 OA
BRANCH  77  80
ATOM     80  C   UNL A   1      34.583  23.591  25.091  1.00  0.00     0.063 A 
ATOM     81  C   UNL A   1      35.787  23.515  25.809  1.00  0.00     0.016 A 
ATOM     82  C   UNL A   1      34.543  23.305  23.714  1.00  0.00     0.062 A 
ATOM     83  C   UNL A   1      36.958  23.119  25.170  1.00  0.00     0.001 A 
ATOM     84  C   UNL A   1      35.732  22.902  23.097  1.00  0.00     0.027 A 
ATOM     85  C   UNL A   1      36.928  22.802  23.817  1.00  0.00     0.002 A 
BRANCH  82  86
ATOM     86  N   UNL A   1      33.370  23.552  22.923  1.00  0.00    -0.279 N 
ATOM     87  H   UNL A   1      32.645  22.886  22.942  1.00  0.00     0.180 HD
BRANCH  86  88
ATOM     88  S   UNL A   1      33.167  24.923  21.962  1.00  0.00     0.262 S 
ATOM     89  O   UNL A   1      34.240  25.859  22.238  1.00  0.00    -0.201 OA
ATOM     90  O   UNL A   1      32.910  24.452  20.626  1.00  0.00    -0.201 OA
BRANCH  88  91
ATOM     91  C   UNL A   1      31.667  25.665  22.542  1.00  0.00     0.094 A 
ATOM     92  C   UNL A   1      30.784  24.907  23.317  1.00  0.00     0.023 A 
ATOM     93  C   UNL A   1      31.438  27.024  22.294  1.00  0.00     0.107 A 
ATOM     94  C   UNL A   1      29.679  25.530  23.897  1.00  0.00     0.008 A 
ATOM     95  C   UNL A   1      30.327  27.635  22.879  1.00  0.00     0.270 A 
ATOM     96  C   UNL A   1      29.452  26.895  23.688  1.00  0.00     0.086 A 
BRANCH  95  97
ATOM     97  N   UNL A   1      30.095  29.071  22.675  1.00  0.00     0.062 N 
ATOM     98  O   UNL A   1      30.291  29.823  23.640  1.00  0.00    -0.258 OA
ATOM     99  O   UNL A   1      29.727  29.441  21.554  1.00  0.00    -0.258 OA
ENDBRANCH  95  97
ENDBRANCH  88  91
ENDBRANCH  86  88
ENDBRANCH  82  86
ENDBRANCH  77  80
ENDBRANCH  75  76
ENDBRANCH   1  75
TORSDOF 17
ENDMDL
MODEL 3
REMARK VINA RESULT:     -12.3      1.110      1.746
REMARK SMILES O=C(NCCCNC(=O)c1ccccc1NS(=O)(=O)c1cccc([N+](=O)[O-])c1)c1ccc(-c2c3nc(c(-c4c(F)cc(S(=O)(=O)[O-])cc4F)c4ccc([nH]4)c(-c4c(F)cc(S(=O)(=O)[O-])cc4F)c4nc(c(-c5c(F)cc(S(=O)(=O)[O-])cc5F)c5ccc2[nH]5)C=C4)C=C3)cc1
REMARK SMILES IDX 5 1 4 2 3 3 1 4 2 5 29 7 30 8 94 9 31 10 93 11 32 12 33 13
REMARK SMILES IDX 34 14 87 15 35 16 92 17 86 18 88 19 36 20 91 21 85 22 84 23
REMARK SMILES IDX 37 25 71 26 50 27 70 28 51 29 54 30 69 31 89 32 52 33 53 34
REMARK SMILES IDX 68 36 90 37 55 38 38 39 39 40 48 41 40 42 41 43 47 44 49 45
REMARK SMILES IDX 42 46 43 47 44 48 45 49 46 50 72 51 73 52 82 53 74 54 75 55
REMARK SMILES IDX 81 56 83 57 76 58 77 59 78 60 79 61 80 62 56 63 57 64 66 65
REMARK SMILES IDX 58 66 59 67 65 68 67 69 60 70 61 71 62 72 63 73 64 74 6 75
REMARK SMILES IDX 7 76 8 77 9 79 10 80 11 81 15 82 12 83 14 84 13 85 16 86
REMARK SMILES IDX 17 88 18 89 19 90 20 91 21 92 28 93 22 94 24 95 23 96 25 97
REMARK SMILES IDX 26 98 27 99
REMARK H PARENT 3 6 88 24 54 35 7 78 16 87
REMARK Flexibility Score: inf
ROOT
ATOM      1  C   UNL A   1      34.638  29.831  27.637  1.00  0.00     0.042 C 
ENDROOT
BRANCH   1   2
ATOM      2  C   UNL A   1      35.419  30.957  28.294  1.00  0.00     0.118 C 
BRANCH   2   3
ATOM      3  N   UNL A   1      35.416  30.891  29.749  1.00  0.00    -0.352 N 
ATOM      4  O   UNL A   1      36.072  30.340  31.827  1.00  0.00    -0.269 OA
ATOM      5  C   UNL A   1      36.357  30.421  30.634  1.00  0.00     0.251 C 
ATOM      6  H   UNL A   1      34.599  31.242  30.172  1.00  0.00     0.163 HD
BRANCH   5   7
ATOM      7  C   UNL A   1      37.694  29.990  30.168  1.00  0.00     0.039 A 
ATOM      8  C   UNL A   1      38.615  29.412  31.042  1.00  0.00     0.014 A 
ATOM      9  C   UNL A   1      38.022  30.139  28.816  1.00  0.00     0.014 A 
ATOM     10  C   UNL A   1      39.911  29.154  30.613  1.00  0.00     0.010 A 
ATOM     11  C   UNL A   1      39.294  29.776  28.362  1.00  0.00     0.010 A 
ATOM     12  C   UNL A   1      40.263  29.318  29.265  1.00  0.00    -0.014 A 
BRANCH  12  13
ATOM     13  C   UNL A   1      41.634  28.952  28.822  1.00  0.00     0.031 A 
ATOM     14  C   UNL A   1      42.757  29.952  28.861  1.00  0.00     0.074 A 
ATOM     15  C   UNL A   1      41.865  27.690  28.410  1.00  0.00     0.049 A 
ATOM     16  N   UNL A   1      44.009  29.795  28.515  1.00  0.00    -0.248 NA
ATOM     17  C   UNL A   1      42.433  31.305  29.341  1.00  0.00     0.031 C 
ATOM     18  C   UNL A   1      40.852  26.635  28.316  1.00  0.00     0.029 A 
ATOM     19  N   UNL A   1      43.022  27.071  28.009  1.00  0.00    -0.354 N 
ATOM     20  C   UNL A   1      44.618  31.029  28.710  1.00  0.00     0.074 A 
ATOM     21  C   UNL A   1      43.591  31.932  29.187  1.00  0.00     0.031 C 
ATOM     22  C   UNL A   1      41.437  25.491  27.935  1.00  0.00     0.029 A 
ATOM     23  C   UNL A   1      42.854  25.744  27.696  1.00  0.00     0.049 A 
ATOM     24  H   UNL A   1      43.889  27.534  27.953  1.00  0.00     0.167 HD
ATOM     25  C   UNL A   1      45.914  31.374  28.513  1.00  0.00     0.037 A 
ATOM     26  C   UNL A   1      43.735  24.830  27.248  1.00  0.00     0.037 A 
ATOM     27  C   UNL A   1      46.934  30.463  28.059  1.00  0.00     0.049 A 
ATOM     28  C   UNL A   1      45.163  25.237  27.039  1.00  0.00     0.074 A 
ATOM     29  C   UNL A   1      48.282  30.709  27.860  1.00  0.00     0.029 A 
ATOM     30  N   UNL A   1      46.720  29.131  27.736  1.00  0.00    -0.354 N 
ATOM     31  N   UNL A   1      45.722  26.406  27.243  1.00  0.00    -0.248 NA
ATOM     32  C   UNL A   1      46.079  24.207  26.533  1.00  0.00     0.031 C 
ATOM     33  C   UNL A   1      48.875  29.535  27.384  1.00  0.00     0.029 A 
ATOM     34  C   UNL A   1      47.906  28.546  27.324  1.00  0.00     0.049 A 
ATOM     35  H   UNL A   1      45.853  28.669  27.792  1.00  0.00     0.167 HD
ATOM     36  C   UNL A   1      47.059  26.252  26.900  1.00  0.00     0.074 A 
ATOM     37  C   UNL A   1      47.227  24.870  26.490  1.00  0.00     0.031 C 
ATOM     38  C   UNL A   1      48.055  27.170  26.918  1.00  0.00     0.037 A 
BRANCH  25  39
ATOM     39  C   UNL A   1      46.300  32.805  28.769  1.00  0.00     0.058 A 
ATOM     40  C   UNL A   1      46.747  33.236  30.029  1.00  0.00     0.135 A 
ATOM     41  C   UNL A   1      46.250  33.752  27.734  1.00  0.00     0.135 A 
ATOM     42  F   UNL A   1      46.801  32.375  31.058  1.00  0.00    -0.206 F 
ATOM     43  C   UNL A   1      47.105  34.561  30.260  1.00  0.00     0.059 A 
ATOM     44  C   UNL A   1      46.624  35.078  27.936  1.00  0.00     0.059 A 
ATOM     45  F   UNL A   1      45.831  33.394  26.510  1.00  0.00    -0.206 F 
ATOM     46  C   UNL A   1      47.036  35.476  29.207  1.00  0.00     0.060 A 
BRANCH  46  47
ATOM     47  S   UNL A   1      47.497  37.194  29.520  1.00  0.00     0.124 S 
ATOM     48  O   UNL A   1      46.280  37.897  29.126  1.00  0.00    -0.237 OA
ATOM     49  O   UNL A   1      47.789  37.187  30.950  1.00  0.00    -0.237 OA
ATOM     50  O   UNL A   1      48.651  37.400  28.650  1.00  0.00    -0.744 OA
ENDBRANCH  46  47
ENDBRANCH  25  39
BRANCH  26  51
ATOM     51  C   UNL A   1      43.274  23.446  26.970  1.00  0.00     0.058 A 
ATOM     52  C   UNL A   1      43.045  23.011  25.657  1.00  0.00     0.135 A 
ATOM     53  C   UNL A   1      43.110  22.516  28.009  1.00  0.00     0.135 A 
ATOM     54  F   UNL A   1      43.185  23.867  24.633  1.00  0.00    -0.206 F 
ATOM     55  C   UNL A   1      42.670  21.701  25.383  1.00  0.00     0.059 A 
ATOM     56  C   UNL A   1      42.759  21.196  27.757  1.00  0.00     0.059 A 
ATOM     57  F   UNL A   1      43.338  22.882  29.280  1.00  0.00    -0.206 F 
ATOM     58  C   UNL A   1      42.535  20.798  26.439  1.00  0.00     0.060 A 
BRANCH  58  59
ATOM     59  S   UNL A   1      42.125  19.078  26.068  1.00  0.00     0.124 S 
ATOM     60  O   UNL A   1      42.522  18.411  27.303  1.00  0.00    -0.237 OA
ATOM     61  O   UNL A   1      40.689  19.150  25.814  1.00  0.00    -0.237 OA
ATOM     62  O   UNL A   1      42.946  18.785  24.897  1.00  0.00    -0.744 OA
ENDBRANCH  58  59
ENDBRANCH  26  51
BRANCH  38  63
ATOM     63  C   UNL A   1      49.420  26.706  26.500  1.00  0.00     0.058 A 
ATOM     64  C   UNL A   1      50.273  26.041  27.393  1.00  0.00     0.135 A 
ATOM     65  C   UNL A   1      49.863  26.895  25.181  1.00  0.00     0.135 A 
ATOM     66  F   UNL A   1      49.898  25.845  28.668  1.00  0.00    -0.206 F 
ATOM     67  C   UNL A   1      51.530  25.596  26.999  1.00  0.00     0.059 A 
ATOM     68  C   UNL A   1      51.107  26.439  24.760  1.00  0.00     0.059 A 
ATOM     69  F   UNL A   1      49.080  27.521  24.288  1.00  0.00    -0.206 F 
ATOM     70  C   UNL A   1      51.938  25.800  25.679  1.00  0.00     0.060 A 
BRANCH  70  71
ATOM     71  S   UNL A   1      53.559  25.191  25.167  1.00  0.00     0.124 S 
ATOM     72  O   UNL A   1      53.624  25.657  23.786  1.00  0.00    -0.237 OA
ATOM     73  O   UNL A   1      54.458  25.858  26.104  1.00  0.00    -0.237 OA
ATOM     74  O   UNL A   1      53.446  23.745  25.339  1.00  0.00    -0.744 OA
ENDBRANCH  70  71
ENDBRANCH  38  63
ENDBRANCH  12  13
ENDBRANCH   5   7
ENDBRANCH   2   3
ENDBRANCH   1   2
BRANCH   1  75
ATOM     75  C   UNL A   1      33.223  30.200  27.230  1.00  0.00     0.118 C 
BRANCH  75  76
ATOM     76  N   UNL A   1      32.226  29.197  27.561  1.00  0.00    -0.352 N 
ATOM     77  C   UNL A   1      31.843  28.099  26.838  1.00  0.00     0.253 C 
ATOM     78  H   UNL A   1      31.762  29.323  28.421  1.00  0.00     0.163 HD
ATOM     79  O   UNL A   1      30.976  27.340  27.261  1.00  0.00    -0.269 OA
BRANCH  77  80
ATOM     80  C   UNL A   1      32.448  27.836  25.522  1.00  0.00     0.063 A 
ATOM     81  C   UNL A   1      32.188  28.791  24.526  1.00  0.00     0.016 A 
ATOM     82  C   UNL A   1      33.186  26.673  25.232  1.00  0.00     0.062 A 
ATOM     83  C   UNL A   1      32.691  28.617  23.240  1.00  0.00     0.001 A 
ATOM     84  C   UNL A   1      33.687  26.525  23.934  1.00  0.00     0.027 A 
ATOM     85  C   UNL A   1      33.449  27.490  22.948  1.00  0.00     0.002 A 
BRANCH  82  86
ATOM     86  N   UNL A   1      33.309  25.599  26.177  1.00  0.00    -0.279 N 
ATOM     87  H   UNL A   1      33.960  25.693  26.910  1.00  0.00     0.180 HD
BRANCH  86  88
ATOM     88  S   UNL A   1      32.397  24.183  26.099  1.00  0.00     0.262 S 
ATOM     89  O   UNL A   1      31.779  23.944  27.390  1.00  0.00    -0.201 OA
ATOM     90  O   UNL A   1      31.608  24.270  24.898  1.00  0.00    -0.201 OA
BRANCH  88  91
ATOM     91  C   UNL A   1      33.583  22.893  25.842  1.00  0.00     0.094 A 
ATOM     92  C   UNL A   1      33.143  21.629  25.438  1.00  0.00     0.023 A 
ATOM     93  C   UNL A   1      34.947  23.188  25.958  1.00  0.00     0.107 A 
ATOM     94  C   UNL A   1      34.083  20.658  25.093  1.00  0.00     0.008 A 
ATOM     95  C   UNL A   1      35.877  22.207  25.611  1.00  0.00     0.270 A 
ATOM     96  C   UNL A   1      35.450  20.945  25.168  1.00  0.00     0.086 A 
BRANCH  95  97
ATOM     97  N   UNL A   1      37.313  22.511  25.673  1.00  0.00     0.062 N 
ATOM     98  O   UNL A   1      38.103  21.586  25.435  1.00  0.00    -0.258 OA
ATOM     99  O   UNL A   1      37.644  23.669  25.952  1.00  0.00    -0.258 OA
ENDBRANCH  95  97
ENDBRANCH  88  91
ENDBRANCH  86  88
ENDBRANCH  82  86
ENDBRANCH  77  80
ENDBRANCH  75  76
ENDBRANCH   1  75
TORSDOF 17
ENDMDL
