MODEL 1
REMARK VINA RESULT:     -12.6      0.000      0.000
REMARK SMILES O=C(NCCCNC(=O)[C@H](c1ccccc1)C(c1ccccc1)c1ccccc1)c1ccc(-c2c3nc(c(-c4c(F)cc(S(=O)(=O)[O-])cc4F)c4ccc([nH]4)c(-c4c(F)cc(S(=O)(=O)[O-])cc4F)c4nc(c(-c5c(F)cc(S(=O)(=O)[O-])cc5F)c5ccc2[nH]5)C=C4)C=C3)cc1
REMARK SMILES IDX 4 1 3 2 1 3 2 4 30 6 31 7 95 8 32 9 94 10 33 11 34 12 35 13
REMARK SMILES IDX 88 14 36 15 93 16 87 17 89 18 37 19 92 20 86 21 85 22 38 24
REMARK SMILES IDX 72 25 51 26 71 27 52 28 55 29 70 30 90 31 53 32 54 33 69 35
REMARK SMILES IDX 91 36 56 37 39 38 40 39 49 40 41 41 42 42 48 43 50 44 43 45
REMARK SMILES IDX 44 46 45 47 46 48 47 49 73 50 74 51 83 52 75 53 76 54 82 55
REMARK SMILES IDX 84 56 77 57 78 58 79 59 80 60 81 61 57 62 58 63 67 64 59 65
REMARK SMILES IDX 60 66 66 67 68 68 61 69 62 70 63 71 64 72 65 73 5 74 6 75
REMARK SMILES IDX 7 76 8 77 9 79 10 80 17 81 18 82 19 83 23 84 20 85 22 86
REMARK SMILES IDX 21 87 24 88 25 89 29 90 26 91 28 92 27 93 11 94 12 95 16 96
REMARK SMILES IDX 13 97 15 98 14 99
REMARK H PARENT 3 5 89 23 55 34 7 78
REMARK Flexibility Score: inf
ROOT
ATOM      1  C   UNL A   1      39.706  23.391  27.101  1.00  0.00     0.118 C 
ENDROOT
BRANCH   1   2
ATOM      2  N   UNL A   1      40.625  23.985  26.143  1.00  0.00    -0.352 N 
ATOM      3  O   UNL A   1      41.799  25.622  25.139  1.00  0.00    -0.269 OA
ATOM      4  C   UNL A   1      41.197  25.236  26.137  1.00  0.00     0.251 C 
ATOM      5  H   UNL A   1      40.877  23.405  25.388  1.00  0.00     0.163 HD
BRANCH   4   6
ATOM      6  C   UNL A   1      41.066  26.126  27.315  1.00  0.00     0.039 A 
ATOM      7  C   UNL A   1      40.095  25.889  28.291  1.00  0.00     0.014 A 
ATOM      8  C   UNL A   1      41.946  27.203  27.460  1.00  0.00     0.014 A 
ATOM      9  C   UNL A   1      39.903  26.807  29.318  1.00  0.00     0.010 A 
ATOM     10  C   UNL A   1      41.813  28.073  28.548  1.00  0.00     0.010 A 
ATOM     11  C   UNL A   1      40.771  27.900  29.471  1.00  0.00    -0.014 A 
BRANCH  11  12
ATOM     12  C   UNL A   1      40.609  28.798  30.645  1.00  0.00     0.031 A 
ATOM     13  C   UNL A   1      41.506  28.686  31.848  1.00  0.00     0.074 A 
ATOM     14  C   UNL A   1      39.651  29.746  30.603  1.00  0.00     0.049 A 
ATOM     15  N   UNL A   1      41.502  29.401  32.944  1.00  0.00    -0.248 NA
ATOM     16  C   UNL A   1      42.533  27.634  31.825  1.00  0.00     0.031 C 
ATOM     17  C   UNL A   1      38.709  29.940  29.497  1.00  0.00     0.029 A 
ATOM     18  N   UNL A   1      39.318  30.732  31.496  1.00  0.00    -0.354 N 
ATOM     19  C   UNL A   1      42.508  28.877  33.748  1.00  0.00     0.074 A 
ATOM     20  C   UNL A   1      43.087  27.766  33.023  1.00  0.00     0.031 C 
ATOM     21  C   UNL A   1      37.938  31.007  29.755  1.00  0.00     0.029 A 
ATOM     22  C   UNL A   1      38.286  31.534  31.069  1.00  0.00     0.049 A 
ATOM     23  H   UNL A   1      39.774  30.853  32.360  1.00  0.00     0.167 HD
ATOM     24  C   UNL A   1      42.912  29.289  34.976  1.00  0.00     0.037 A 
ATOM     25  C   UNL A   1      37.673  32.570  31.672  1.00  0.00     0.037 A 
ATOM     26  C   UNL A   1      42.341  30.407  35.684  1.00  0.00     0.049 A 
ATOM     27  C   UNL A   1      38.135  33.000  33.032  1.00  0.00     0.074 A 
ATOM     28  C   UNL A   1      42.707  30.923  36.916  1.00  0.00     0.029 A 
ATOM     29  N   UNL A   1      41.284  31.181  35.227  1.00  0.00    -0.354 N 
ATOM     30  N   UNL A   1      39.106  32.506  33.764  1.00  0.00    -0.248 NA
ATOM     31  C   UNL A   1      37.418  34.120  33.654  1.00  0.00     0.031 C 
ATOM     32  C   UNL A   1      41.847  31.984  37.221  1.00  0.00     0.029 A 
ATOM     33  C   UNL A   1      40.971  32.157  36.161  1.00  0.00     0.049 A 
ATOM     34  H   UNL A   1      40.822  31.054  34.367  1.00  0.00     0.167 HD
ATOM     35  C   UNL A   1      39.121  33.262  34.929  1.00  0.00     0.074 A 
ATOM     36  C   UNL A   1      38.078  34.258  34.795  1.00  0.00     0.031 C 
ATOM     37  C   UNL A   1      39.926  33.139  36.013  1.00  0.00     0.037 A 
BRANCH  24  38
ATOM     38  C   UNL A   1      44.019  28.519  35.643  1.00  0.00     0.058 A 
ATOM     39  C   UNL A   1      45.370  28.836  35.433  1.00  0.00     0.135 A 
ATOM     40  C   UNL A   1      43.723  27.480  36.541  1.00  0.00     0.135 A 
ATOM     41  F   UNL A   1      45.710  29.810  34.575  1.00  0.00    -0.206 F 
ATOM     42  C   UNL A   1      46.391  28.134  36.071  1.00  0.00     0.059 A 
ATOM     43  C   UNL A   1      44.725  26.780  37.207  1.00  0.00     0.059 A 
ATOM     44  F   UNL A   1      42.448  27.137  36.781  1.00  0.00    -0.206 F 
ATOM     45  C   UNL A   1      46.058  27.105  36.955  1.00  0.00     0.060 A 
BRANCH  45  46
ATOM     46  S   UNL A   1      47.391  26.203  37.773  1.00  0.00     0.124 S 
ATOM     47  O   UNL A   1      46.693  25.004  38.228  1.00  0.00    -0.237 OA
ATOM     48  O   UNL A   1      48.348  26.005  36.688  1.00  0.00    -0.237 OA
ATOM     49  O   UNL A   1      47.823  27.115  38.826  1.00  0.00    -0.744 OA
ENDBRANCH  45  46
ENDBRANCH  24  38
BRANCH  25  50
ATOM     50  C   UNL A   1      36.552  33.260  30.983  1.00  0.00     0.058 A 
ATOM     51  C   UNL A   1      35.224  33.068  31.390  1.00  0.00     0.135 A 
ATOM     52  C   UNL A   1      36.792  34.156  29.930  1.00  0.00     0.135 A 
ATOM     53  F   UNL A   1      34.946  32.218  32.391  1.00  0.00    -0.206 F 
ATOM     54  C   UNL A   1      34.171  33.734  30.774  1.00  0.00     0.059 A 
ATOM     55  C   UNL A   1      35.759  34.854  29.314  1.00  0.00     0.059 A 
ATOM     56  F   UNL A   1      38.048  34.388  29.517  1.00  0.00    -0.206 F 
ATOM     57  C   UNL A   1      34.450  34.628  29.738  1.00  0.00     0.060 A 
BRANCH  57  58
ATOM     58  S   UNL A   1      33.084  35.537  28.983  1.00  0.00     0.124 S 
ATOM     59  O   UNL A   1      32.352  35.992  30.160  1.00  0.00    -0.237 OA
ATOM     60  O   UNL A   1      33.782  36.571  28.226  1.00  0.00    -0.237 OA
ATOM     61  O   UNL A   1      32.415  34.523  28.174  1.00  0.00    -0.744 OA
ENDBRANCH  57  58
ENDBRANCH  25  50
BRANCH  37  62
ATOM     62  C   UNL A   1      39.718  34.119  37.133  1.00  0.00     0.058 A 
ATOM     63  C   UNL A   1      38.903  33.812  38.234  1.00  0.00     0.135 A 
ATOM     64  C   UNL A   1      40.365  35.364  37.119  1.00  0.00     0.135 A 
ATOM     65  F   UNL A   1      38.255  32.638  38.289  1.00  0.00    -0.206 F 
ATOM     66  C   UNL A   1      38.719  34.717  39.274  1.00  0.00     0.059 A 
ATOM     67  C   UNL A   1      40.214  36.275  38.160  1.00  0.00     0.059 A 
ATOM     68  F   UNL A   1      41.161  35.701  36.092  1.00  0.00    -0.206 F 
ATOM     69  C   UNL A   1      39.378  35.947  39.227  1.00  0.00     0.060 A 
BRANCH  69  70
ATOM     70  S   UNL A   1      39.154  37.104  40.594  1.00  0.00     0.124 S 
ATOM     71  O   UNL A   1      38.261  38.092  39.999  1.00  0.00    -0.237 OA
ATOM     72  O   UNL A   1      38.566  36.258  41.630  1.00  0.00    -0.237 OA
ATOM     73  O   UNL A   1      40.511  37.569  40.870  1.00  0.00    -0.744 OA
ENDBRANCH  69  70
ENDBRANCH  37  62
ENDBRANCH  11  12
ENDBRANCH   4   6
ENDBRANCH   1   2
BRANCH   1  74
ATOM     74  C   UNL A   1      38.677  22.487  26.439  1.00  0.00     0.042 C 
BRANCH  74  75
ATOM     75  C   UNL A   1      37.505  23.215  25.795  1.00  0.00     0.117 C 
BRANCH  75  76
ATOM     76  N   UNL A   1      37.416  23.019  24.361  1.00  0.00    -0.355 N 
ATOM     77  C   UNL A   1      36.352  22.990  23.513  1.00  0.00     0.228 C 
ATOM     78  H   UNL A   1      38.285  22.881  23.919  1.00  0.00     0.163 HD
ATOM     79  O   UNL A   1      36.621  22.954  22.305  1.00  0.00    -0.274 OA
BRANCH  77  80
ATOM     80  C   UNL A   1      34.887  23.028  23.971  1.00  0.00     0.120 C 
BRANCH  80  81
ATOM     81  C   UNL A   1      34.522  22.044  25.143  1.00  0.00     0.066 C 
BRANCH  81  82
ATOM     82  C   UNL A   1      33.141  22.407  25.732  1.00  0.00    -0.039 A 
ATOM     83  C   UNL A   1      33.001  22.638  27.109  1.00  0.00     0.004 A 
ATOM     84  C   UNL A   1      32.000  22.542  24.915  1.00  0.00     0.004 A 
ATOM     85  C   UNL A   1      31.767  23.009  27.647  1.00  0.00     0.000 A 
ATOM     86  C   UNL A   1      30.763  22.886  25.460  1.00  0.00     0.000 A 
ATOM     87  C   UNL A   1      30.648  23.127  26.825  1.00  0.00     0.000 A 
ENDBRANCH  81  82
BRANCH  81  88
ATOM     88  C   UNL A   1      34.659  20.537  24.819  1.00  0.00    -0.039 A 
ATOM     89  C   UNL A   1      33.587  19.723  24.415  1.00  0.00     0.004 A 
ATOM     90  C   UNL A   1      35.901  19.900  24.988  1.00  0.00     0.004 A 
ATOM     91  C   UNL A   1      33.750  18.350  24.194  1.00  0.00     0.000 A 
ATOM     92  C   UNL A   1      36.072  18.531  24.761  1.00  0.00     0.000 A 
ATOM     93  C   UNL A   1      34.993  17.752  24.366  1.00  0.00     0.000 A 
ENDBRANCH  81  88
ENDBRANCH  80  81
BRANCH  80  94
ATOM     94  C   UNL A   1      34.403  24.487  24.095  1.00  0.00    -0.035 A 
ATOM     95  C   UNL A   1      34.539  25.256  25.263  1.00  0.00     0.004 A 
ATOM     96  C   UNL A   1      33.805  25.096  22.978  1.00  0.00     0.004 A 
ATOM     97  C   UNL A   1      34.120  26.587  25.308  1.00  0.00     0.000 A 
ATOM     98  C   UNL A   1      33.365  26.423  23.029  1.00  0.00     0.000 A 
ATOM     99  C   UNL A   1      33.531  27.170  24.192  1.00  0.00     0.000 A 
ENDBRANCH  80  94
ENDBRANCH  77  80
ENDBRANCH  75  76
ENDBRANCH  74  75
ENDBRANCH   1  74
TORSDOF 17
ENDMDL
MODEL 2
REMARK VINA RESULT:     -12.2      6.737     12.257
REMARK SMILES O=C(NCCCNC(=O)[C@H](c1ccccc1)C(c1ccccc1)c1ccccc1)c1ccc(-c2c3nc(c(-c4c(F)cc(S(=O)(=O)[O-])cc4F)c4ccc([nH]4)c(-c4c(F)cc(S(=O)(=O)[O-])cc4F)c4nc(c(-c5c(F)cc(S(=O)(=O)[O-])cc5F)c5ccc2[nH]5)C=C4)C=C3)cc1
REMARK SMILES IDX 4 1 3 2 1 3 2 4 30 6 31 7 95 8 32 9 94 10 33 11 34 12 35 13
REMARK SMILES IDX 88 14 36 15 93 16 87 17 89 18 37 19 92 20 86 21 85 22 38 24
REMARK SMILES IDX 72 25 51 26 71 27 52 28 55 29 70 30 90 31 53 32 54 33 69 35
REMARK SMILES IDX 91 36 56 37 39 38 40 39 49 40 41 41 42 42 48 43 50 44 43 45
REMARK SMILES IDX 44 46 45 47 46 48 47 49 73 50 74 51 83 52 75 53 76 54 82 55
REMARK SMILES IDX 84 56 77 57 78 58 79 59 80 60 81 61 57 62 58 63 67 64 59 65
REMARK SMILES IDX 60 66 66 67 68 68 61 69 62 70 63 71 64 72 65 73 5 74 6 75
REMARK SMILES IDX 7 76 8 77 9 79 10 80 17 81 18 82 19 83 23 84 20 85 22 86
REMARK SMILES IDX 21 87 24 88 25 89 29 90 26 91 28 92 27 93 11 94 12 95 16 96
REMARK SMILES IDX 13 97 15 98 14 99
REMARK H PARENT 3 5 89 23 55 34 7 78
REMARK Flexibility Score: inf
ROOT
ATOM      1  C   UNL A   1      35.201  29.445  27.935  1.00  0.00     0.118 C 
ENDROOT
BRANCH   1   2
ATOM      2  N   UNL A   1      35.254  30.133  29.214  1.00  0.00    -0.352 N 
ATOM      3  O   UNL A   1      36.110  30.745  31.204  1.00  0.00    -0.269 OA
ATOM      4  C   UNL A   1      36.312  30.295  30.079  1.00  0.00     0.251 C 
ATOM      5  H   UNL A   1      34.408  30.546  29.505  1.00  0.00     0.163 HD
BRANCH   4   6
ATOM      6  C   UNL A   1      37.681  29.904  29.670  1.00  0.00     0.039 A 
ATOM      7  C   UNL A   1      38.585  29.375  30.594  1.00  0.00     0.014 A 
ATOM      8  C   UNL A   1      38.061  30.046  28.331  1.00  0.00     0.014 A 
ATOM      9  C   UNL A   1      39.904  29.138  30.219  1.00  0.00     0.010 A 
ATOM     10  C   UNL A   1      39.362  29.715  27.934  1.00  0.00     0.010 A 
ATOM     11  C   UNL A   1      40.304  29.286  28.881  1.00  0.00    -0.014 A 
BRANCH  11  12
ATOM     12  C   UNL A   1      41.690  28.915  28.492  1.00  0.00     0.031 A 
ATOM     13  C   UNL A   1      42.808  29.923  28.519  1.00  0.00     0.074 A 
ATOM     14  C   UNL A   1      41.941  27.639  28.137  1.00  0.00     0.049 A 
ATOM     15  N   UNL A   1      44.071  29.755  28.222  1.00  0.00    -0.248 NA
ATOM     16  C   UNL A   1      42.465  31.296  28.921  1.00  0.00     0.031 C 
ATOM     17  C   UNL A   1      40.933  26.576  28.057  1.00  0.00     0.029 A 
ATOM     18  N   UNL A   1      43.110  27.011  27.795  1.00  0.00    -0.354 N 
ATOM     19  C   UNL A   1      44.672  30.999  28.381  1.00  0.00     0.074 A 
ATOM     20  C   UNL A   1      43.628  31.920  28.780  1.00  0.00     0.031 C 
ATOM     21  C   UNL A   1      41.535  25.422  27.736  1.00  0.00     0.029 A 
ATOM     22  C   UNL A   1      42.956  25.671  27.527  1.00  0.00     0.049 A 
ATOM     23  H   UNL A   1      43.977  27.476  27.746  1.00  0.00     0.167 HD
ATOM     24  C   UNL A   1      45.974  31.339  28.216  1.00  0.00     0.037 A 
ATOM     25  C   UNL A   1      43.853  24.746  27.137  1.00  0.00     0.037 A 
ATOM     26  C   UNL A   1      47.011  30.412  27.836  1.00  0.00     0.049 A 
ATOM     27  C   UNL A   1      45.285  25.150  26.954  1.00  0.00     0.074 A 
ATOM     28  C   UNL A   1      48.366  30.653  27.678  1.00  0.00     0.029 A 
ATOM     29  N   UNL A   1      46.811  29.068  27.552  1.00  0.00    -0.354 N 
ATOM     30  N   UNL A   1      45.837  26.327  27.135  1.00  0.00    -0.248 NA
ATOM     31  C   UNL A   1      46.217  24.107  26.507  1.00  0.00     0.031 C 
ATOM     32  C   UNL A   1      48.977  29.465  27.261  1.00  0.00     0.029 A 
ATOM     33  C   UNL A   1      48.013  28.473  27.200  1.00  0.00     0.049 A 
ATOM     34  H   UNL A   1      45.943  28.606  27.593  1.00  0.00     0.167 HD
ATOM     35  C   UNL A   1      47.182  26.163  26.833  1.00  0.00     0.074 A 
ATOM     36  C   UNL A   1      47.365  24.770  26.478  1.00  0.00     0.031 C 
ATOM     37  C   UNL A   1      48.176  27.085  26.845  1.00  0.00     0.037 A 
BRANCH  24  38
ATOM     38  C   UNL A   1      46.356  32.778  28.430  1.00  0.00     0.058 A 
ATOM     39  C   UNL A   1      46.843  33.237  29.664  1.00  0.00     0.135 A 
ATOM     40  C   UNL A   1      46.277  33.701  27.374  1.00  0.00     0.135 A 
ATOM     41  F   UNL A   1      46.926  32.402  30.711  1.00  0.00    -0.206 F 
ATOM     42  C   UNL A   1      47.215  34.567  29.850  1.00  0.00     0.059 A 
ATOM     43  C   UNL A   1      46.665  35.029  27.531  1.00  0.00     0.059 A 
ATOM     44  F   UNL A   1      45.821  33.314  26.172  1.00  0.00    -0.206 F 
ATOM     45  C   UNL A   1      47.120  35.455  28.778  1.00  0.00     0.060 A 
BRANCH  45  46
ATOM     46  S   UNL A   1      47.605  37.176  29.036  1.00  0.00     0.124 S 
ATOM     47  O   UNL A   1      49.033  37.037  29.309  1.00  0.00    -0.237 OA
ATOM     48  O   UNL A   1      47.262  37.793  27.758  1.00  0.00    -0.237 OA
ATOM     49  O   UNL A   1      46.787  37.593  30.169  1.00  0.00    -0.744 OA
ENDBRANCH  45  46
ENDBRANCH  24  38
BRANCH  25  50
ATOM     50  C   UNL A   1      43.407  23.350  26.892  1.00  0.00     0.058 A 
ATOM     51  C   UNL A   1      43.293  22.844  25.590  1.00  0.00     0.135 A 
ATOM     52  C   UNL A   1      43.124  22.483  27.960  1.00  0.00     0.135 A 
ATOM     53  F   UNL A   1      43.549  23.637  24.538  1.00  0.00    -0.206 F 
ATOM     54  C   UNL A   1      42.907  21.530  25.351  1.00  0.00     0.059 A 
ATOM     55  C   UNL A   1      42.762  21.158  27.748  1.00  0.00     0.059 A 
ATOM     56  F   UNL A   1      43.237  22.915  29.225  1.00  0.00    -0.206 F 
ATOM     57  C   UNL A   1      42.647  20.693  26.439  1.00  0.00     0.060 A 
BRANCH  57  58
ATOM     58  S   UNL A   1      42.209  18.970  26.124  1.00  0.00     0.124 S 
ATOM     59  O   UNL A   1      40.797  19.088  25.774  1.00  0.00    -0.237 OA
ATOM     60  O   UNL A   1      43.110  18.616  25.032  1.00  0.00    -0.237 OA
ATOM     61  O   UNL A   1      42.493  18.315  27.397  1.00  0.00    -0.744 OA
ENDBRANCH  57  58
ENDBRANCH  25  50
BRANCH  37  62
ATOM     62  C   UNL A   1      49.554  26.609  26.480  1.00  0.00     0.058 A 
ATOM     63  C   UNL A   1      50.383  25.977  27.419  1.00  0.00     0.135 A 
ATOM     64  C   UNL A   1      50.035  26.758  25.170  1.00  0.00     0.135 A 
ATOM     65  F   UNL A   1      49.973  25.820  28.687  1.00  0.00    -0.206 F 
ATOM     66  C   UNL A   1      51.655  25.530  27.077  1.00  0.00     0.059 A 
ATOM     67  C   UNL A   1      51.294  26.297  24.800  1.00  0.00     0.059 A 
ATOM     68  F   UNL A   1      49.276  27.349  24.234  1.00  0.00    -0.206 F 
ATOM     69  C   UNL A   1      52.102  25.695  25.765  1.00  0.00     0.060 A 
BRANCH  69  70
ATOM     70  S   UNL A   1      53.743  25.086  25.324  1.00  0.00     0.124 S 
ATOM     71  O   UNL A   1      53.899  25.613  23.973  1.00  0.00    -0.237 OA
ATOM     72  O   UNL A   1      54.591  25.696  26.345  1.00  0.00    -0.237 OA
ATOM     73  O   UNL A   1      53.603  23.635  25.421  1.00  0.00    -0.744 OA
ENDBRANCH  69  70
ENDBRANCH  37  62
ENDBRANCH  11  12
ENDBRANCH   4   6
ENDBRANCH   1   2
BRANCH   1  74
ATOM     74  C   UNL A   1      34.593  30.302  26.835  1.00  0.00     0.042 C 
BRANCH  74  75
ATOM     75  C   UNL A   1      33.358  29.709  26.170  1.00  0.00     0.117 C 
BRANCH  75  76
ATOM     76  N   UNL A   1      32.367  29.224  27.111  1.00  0.00    -0.355 N 
ATOM     77  C   UNL A   1      31.443  28.228  27.025  1.00  0.00     0.228 C 
ATOM     78  H   UNL A   1      32.360  29.703  27.971  1.00  0.00     0.163 HD
ATOM     79  O   UNL A   1      30.837  27.957  28.070  1.00  0.00    -0.274 OA
BRANCH  77  80
ATOM     80  C   UNL A   1      31.151  27.437  25.742  1.00  0.00     0.120 C 
BRANCH  80  81
ATOM     81  C   UNL A   1      31.236  28.263  24.407  1.00  0.00     0.066 C 
BRANCH  81  82
ATOM     82  C   UNL A   1      31.898  27.415  23.298  1.00  0.00    -0.039 A 
ATOM     83  C   UNL A   1      33.250  27.612  22.975  1.00  0.00     0.004 A 
ATOM     84  C   UNL A   1      31.187  26.416  22.605  1.00  0.00     0.004 A 
ATOM     85  C   UNL A   1      33.873  26.822  22.006  1.00  0.00     0.000 A 
ATOM     86  C   UNL A   1      31.804  25.648  21.618  1.00  0.00     0.000 A 
ATOM     87  C   UNL A   1      33.149  25.846  21.324  1.00  0.00     0.000 A 
ENDBRANCH  81  82
BRANCH  81  88
ATOM     88  C   UNL A   1      29.917  28.927  23.945  1.00  0.00    -0.039 A 
ATOM     89  C   UNL A   1      28.794  28.210  23.496  1.00  0.00     0.004 A 
ATOM     90  C   UNL A   1      29.823  30.330  23.903  1.00  0.00     0.004 A 
ATOM     91  C   UNL A   1      27.645  28.862  23.029  1.00  0.00     0.000 A 
ATOM     92  C   UNL A   1      28.676  30.986  23.446  1.00  0.00     0.000 A 
ATOM     93  C   UNL A   1      27.585  30.250  23.004  1.00  0.00     0.000 A 
ENDBRANCH  81  88
ENDBRANCH  80  81
BRANCH  80  94
ATOM     94  C   UNL A   1      31.872  26.074  25.779  1.00  0.00    -0.035 A 
ATOM     95  C   UNL A   1      33.263  25.933  25.927  1.00  0.00     0.004 A 
ATOM     96  C   UNL A   1      31.104  24.901  25.676  1.00  0.00     0.004 A 
ATOM     97  C   UNL A   1      33.861  24.673  25.994  1.00  0.00     0.000 A 
ATOM     98  C   UNL A   1      31.706  23.639  25.722  1.00  0.00     0.000 A 
ATOM     99  C   UNL A   1      33.083  23.527  25.890  1.00  0.00     0.000 A 
ENDBRANCH  80  94
ENDBRANCH  77  80
ENDBRANCH  75  76
ENDBRANCH  74  75
ENDBRANCH   1  74
TORSDOF 17
ENDMDL
MODEL 3
REMARK VINA RESULT:     -12.2      5.653     11.816
REMARK SMILES O=C(NCCCNC(=O)[C@H](c1ccccc1)C(c1ccccc1)c1ccccc1)c1ccc(-c2c3nc(c(-c4c(F)cc(S(=O)(=O)[O-])cc4F)c4ccc([nH]4)c(-c4c(F)cc(S(=O)(=O)[O-])cc4F)c4nc(c(-c5c(F)cc(S(=O)(=O)[O-])cc5F)c5ccc2[nH]5)C=C4)C=C3)cc1
REMARK SMILES IDX 4 1 3 2 1 3 2 4 30 6 31 7 95 8 32 9 94 10 33 11 34 12 35 13
REMARK SMILES IDX 88 14 36 15 93 16 87 17 89 18 37 19 92 20 86 21 85 22 38 24
REMARK SMILES IDX 72 25 51 26 71 27 52 28 55 29 70 30 90 31 53 32 54 33 69 35
REMARK SMILES IDX 91 36 56 37 39 38 40 39 49 40 41 41 42 42 48 43 50 44 43 45
REMARK SMILES IDX 44 46 45 47 46 48 47 49 73 50 74 51 83 52 75 53 76 54 82 55
REMARK SMILES IDX 84 56 77 57 78 58 79 59 80 60 81 61 57 62 58 63 67 64 59 65
REMARK SMILES IDX 60 66 66 67 68 68 61 69 62 70 63 71 64 72 65 73 5 74 6 75
REMARK SMILES IDX 7 76 8 77 9 79 10 80 17 81 18 82 19 83 23 84 20 85 22 86
REMARK SMILES IDX 21 87 24 88 25 89 29 90 26 91 28 92 27 93 11 94 12 95 16 96
REMARK SMILES IDX 13 97 15 98 14 99
REMARK H PARENT 3 5 89 23 55 34 7 78
REMARK Flexibility Score: inf
ROOT
ATOM      1  C   UNL A   1      34.774  32.093  29.267  1.00  0.00     0.118 C 
ENDROOT
BRANCH   1   2
ATOM      2  N   UNL A   1      34.231  31.066  28.392  1.00  0.00    -0.352 N 
ATOM      3  O   UNL A   1      34.269  29.407  26.872  1.00  0.00    -0.269 OA
ATOM      4  C   UNL A   1      34.880  30.060  27.714  1.00  0.00     0.251 C 
ATOM      5  H   UNL A   1      33.255  31.095  28.267  1.00  0.00     0.163 HD
BRANCH   4   6
ATOM      6  C   UNL A   1      36.311  29.780  27.977  1.00  0.00     0.039 A 
ATOM      7  C   UNL A   1      37.280  30.007  26.997  1.00  0.00     0.014 A 
ATOM      8  C   UNL A   1      36.695  29.307  29.236  1.00  0.00     0.014 A 
ATOM      9  C   UNL A   1      38.597  29.615  27.218  1.00  0.00     0.010 A 
ATOM     10  C   UNL A   1      38.038  29.004  29.490  1.00  0.00     0.010 A 
ATOM     11  C   UNL A   1      38.996  29.128  28.473  1.00  0.00    -0.014 A 
BRANCH  11  12
ATOM     12  C   UNL A   1      40.433  28.826  28.712  1.00  0.00     0.031 A 
ATOM     13  C   UNL A   1      41.024  27.490  28.351  1.00  0.00     0.074 A 
ATOM     14  C   UNL A   1      41.215  29.790  29.237  1.00  0.00     0.049 A 
ATOM     15  N   UNL A   1      42.257  27.075  28.483  1.00  0.00    -0.248 NA
ATOM     16  C   UNL A   1      40.114  26.486  27.777  1.00  0.00     0.031 C 
ATOM     17  C   UNL A   1      40.751  31.121  29.643  1.00  0.00     0.029 A 
ATOM     18  N   UNL A   1      42.559  29.814  29.505  1.00  0.00    -0.354 N 
ATOM     19  C   UNL A   1      42.272  25.761  28.029  1.00  0.00     0.074 A 
ATOM     20  C   UNL A   1      40.916  25.439  27.638  1.00  0.00     0.031 C 
ATOM     21  C   UNL A   1      41.798  31.844  30.063  1.00  0.00     0.029 A 
ATOM     22  C   UNL A   1      42.996  31.014  30.017  1.00  0.00     0.049 A 
ATOM     23  H   UNL A   1      43.154  29.046  29.347  1.00  0.00     0.167 HD
ATOM     24  C   UNL A   1      43.322  24.907  27.942  1.00  0.00     0.037 A 
ATOM     25  C   UNL A   1      44.220  31.401  30.421  1.00  0.00     0.037 A 
ATOM     26  C   UNL A   1      44.673  25.242  28.317  1.00  0.00     0.049 A 
ATOM     27  C   UNL A   1      45.361  30.434  30.322  1.00  0.00     0.074 A 
ATOM     28  C   UNL A   1      45.810  24.456  28.232  1.00  0.00     0.029 A 
ATOM     29  N   UNL A   1      45.070  26.460  28.851  1.00  0.00    -0.354 N 
ATOM     30  N   UNL A   1      45.358  29.204  29.865  1.00  0.00    -0.248 NA
ATOM     31  C   UNL A   1      46.670  30.900  30.797  1.00  0.00     0.031 C 
ATOM     32  C   UNL A   1      46.887  25.185  28.749  1.00  0.00     0.029 A 
ATOM     33  C   UNL A   1      46.431  26.440  29.118  1.00  0.00     0.049 A 
ATOM     34  H   UNL A   1      44.474  27.225  29.016  1.00  0.00     0.167 HD
ATOM     35  C   UNL A   1      46.666  28.752  29.990  1.00  0.00     0.074 A 
ATOM     36  C   UNL A   1      47.435  29.847  30.545  1.00  0.00     0.031 C 
ATOM     37  C   UNL A   1      47.181  27.538  29.675  1.00  0.00     0.037 A 
BRANCH  24  38
ATOM     38  C   UNL A   1      43.053  23.517  27.433  1.00  0.00     0.058 A 
ATOM     39  C   UNL A   1      43.326  23.150  26.106  1.00  0.00     0.135 A 
ATOM     40  C   UNL A   1      42.560  22.525  28.297  1.00  0.00     0.135 A 
ATOM     41  F   UNL A   1      43.787  24.061  25.234  1.00  0.00    -0.206 F 
ATOM     42  C   UNL A   1      43.096  21.856  25.646  1.00  0.00     0.059 A 
ATOM     43  C   UNL A   1      42.343  21.219  27.865  1.00  0.00     0.059 A 
ATOM     44  F   UNL A   1      42.284  22.821  29.577  1.00  0.00    -0.206 F 
ATOM     45  C   UNL A   1      42.602  20.898  26.533  1.00  0.00     0.060 A 
BRANCH  45  46
ATOM     46  S   UNL A   1      42.307  19.224  25.922  1.00  0.00     0.124 S 
ATOM     47  O   UNL A   1      40.855  19.226  25.761  1.00  0.00    -0.237 OA
ATOM     48  O   UNL A   1      43.080  19.201  24.684  1.00  0.00    -0.237 OA
ATOM     49  O   UNL A   1      42.818  18.376  26.993  1.00  0.00    -0.744 OA
ENDBRANCH  45  46
ENDBRANCH  24  38
BRANCH  25  50
ATOM     50  C   UNL A   1      44.414  32.772  30.962  1.00  0.00     0.058 A 
ATOM     51  C   UNL A   1      44.758  33.839  30.122  1.00  0.00     0.135 A 
ATOM     52  C   UNL A   1      44.218  33.045  32.325  1.00  0.00     0.135 A 
ATOM     53  F   UNL A   1      44.957  33.625  28.812  1.00  0.00    -0.206 F 
ATOM     54  C   UNL A   1      44.909  35.132  30.613  1.00  0.00     0.059 A 
ATOM     55  C   UNL A   1      44.339  34.333  32.836  1.00  0.00     0.059 A 
ATOM     56  F   UNL A   1      43.870  32.059  33.166  1.00  0.00    -0.206 F 
ATOM     57  C   UNL A   1      44.694  35.368  31.973  1.00  0.00     0.060 A 
BRANCH  57  58
ATOM     58  S   UNL A   1      44.831  37.058  32.593  1.00  0.00     0.124 S 
ATOM     59  O   UNL A   1      45.118  37.796  31.368  1.00  0.00    -0.237 OA
ATOM     60  O   UNL A   1      43.513  37.280  33.179  1.00  0.00    -0.237 OA
ATOM     61  O   UNL A   1      45.928  36.974  33.553  1.00  0.00    -0.744 OA
ENDBRANCH  57  58
ENDBRANCH  25  50
BRANCH  37  62
ATOM     62  C   UNL A   1      48.651  27.339  29.910  1.00  0.00     0.058 A 
ATOM     63  C   UNL A   1      49.130  26.705  31.067  1.00  0.00     0.135 A 
ATOM     64  C   UNL A   1      49.589  27.757  28.953  1.00  0.00     0.135 A 
ATOM     65  F   UNL A   1      48.274  26.296  32.017  1.00  0.00    -0.206 F 
ATOM     66  C   UNL A   1      50.491  26.513  31.278  1.00  0.00     0.059 A 
ATOM     67  C   UNL A   1      50.953  27.555  29.132  1.00  0.00     0.059 A 
ATOM     68  F   UNL A   1      49.180  28.361  27.826  1.00  0.00    -0.206 F 
ATOM     69  C   UNL A   1      51.395  26.943  30.305  1.00  0.00     0.060 A 
BRANCH  69  70
ATOM     70  S   UNL A   1      53.158  26.665  30.576  1.00  0.00     0.124 S 
ATOM     71  O   UNL A   1      53.590  26.209  29.259  1.00  0.00    -0.237 OA
ATOM     72  O   UNL A   1      53.629  27.988  30.976  1.00  0.00    -0.237 OA
ATOM     73  O   UNL A   1      53.183  25.653  31.630  1.00  0.00    -0.744 OA
ENDBRANCH  69  70
ENDBRANCH  37  62
ENDBRANCH  11  12
ENDBRANCH   4   6
ENDBRANCH   1   2
BRANCH   1  74
ATOM     74  C   UNL A   1      35.524  33.174  28.502  1.00  0.00     0.042 C 
BRANCH  74  75
ATOM     75  C   UNL A   1      37.035  32.991  28.452  1.00  0.00     0.117 C 
BRANCH  75  76
ATOM     76  N   UNL A   1      37.765  33.973  29.232  1.00  0.00    -0.355 N 
ATOM     77  C   UNL A   1      38.089  34.023  30.553  1.00  0.00     0.228 C 
ATOM     78  H   UNL A   1      38.085  34.744  28.710  1.00  0.00     0.163 HD
ATOM     79  O   UNL A   1      38.861  34.932  30.887  1.00  0.00    -0.274 OA
BRANCH  77  80
ATOM     80  C   UNL A   1      37.581  33.024  31.601  1.00  0.00     0.120 C 
BRANCH  80  81
ATOM     81  C   UNL A   1      38.683  32.419  32.546  1.00  0.00     0.066 C 
BRANCH  81  82
ATOM     82  C   UNL A   1      38.617  33.089  33.937  1.00  0.00    -0.039 A 
ATOM     83  C   UNL A   1      37.889  32.486  34.974  1.00  0.00     0.004 A 
ATOM     84  C   UNL A   1      39.297  34.291  34.213  1.00  0.00     0.004 A 
ATOM     85  C   UNL A   1      37.858  33.057  36.248  1.00  0.00     0.000 A 
ATOM     86  C   UNL A   1      39.241  34.875  35.478  1.00  0.00     0.000 A 
ATOM     87  C   UNL A   1      38.527  34.254  36.498  1.00  0.00     0.000 A 
ENDBRANCH  81  82
BRANCH  81  88
ATOM     88  C   UNL A   1      38.723  30.875  32.625  1.00  0.00    -0.039 A 
ATOM     89  C   UNL A   1      37.576  30.064  32.685  1.00  0.00     0.004 A 
ATOM     90  C   UNL A   1      39.962  30.214  32.706  1.00  0.00     0.004 A 
ATOM     91  C   UNL A   1      37.666  28.673  32.820  1.00  0.00     0.000 A 
ATOM     92  C   UNL A   1      40.058  28.825  32.832  1.00  0.00     0.000 A 
ATOM     93  C   UNL A   1      38.907  28.052  32.893  1.00  0.00     0.000 A 
ENDBRANCH  81  88
ENDBRANCH  80  81
BRANCH  80  94
ATOM     94  C   UNL A   1      36.294  33.555  32.264  1.00  0.00    -0.035 A 
ATOM     95  C   UNL A   1      35.217  32.735  32.642  1.00  0.00     0.004 A 
ATOM     96  C   UNL A   1      36.187  34.933  32.523  1.00  0.00     0.004 A 
ATOM     97  C   UNL A   1      34.090  33.262  33.276  1.00  0.00     0.000 A 
ATOM     98  C   UNL A   1      35.049  35.464  33.139  1.00  0.00     0.000 A 
ATOM     99  C   UNL A   1      34.006  34.627  33.523  1.00  0.00     0.000 A 
ENDBRANCH  80  94
ENDBRANCH  77  80
ENDBRANCH  75  76
ENDBRANCH  74  75
ENDBRANCH   1  74
TORSDOF 17
ENDMDL
