MODEL 1
REMARK VINA RESULT:     -15.2      0.000      0.000
REMARK SMILES Cc1ccc(C(=O)NC2CC2)cc1NC(=O)[C@@H]1[C@@H](C(=O)NCCCNC(=O)c2ccc(-c3c4nc(c(-c5c(F)cc(S(=O)(=O)[O-])cc5F)c5ccc([nH]5)c(-c5c(F)cc(S(=O)(=O)[O-])cc5F)c5nc(c(-c6c(F)cc(S(=O)(=O)[O-])cc6F)c6ccc3[nH]6)C=C5)C=C4)cc2)[C@H]2C=C[C@@H]1C2
REMARK SMILES IDX 22 1 21 2 19 3 20 4 18 6 17 7 97 8 94 9 96 10 98 11 95 12
REMARK SMILES IDX 15 13 14 14 16 16 13 17 1 18 2 19 3 20 4 21 12 22 5 23 6 24
REMARK SMILES IDX 7 25 8 26 9 28 10 29 11 30 23 31 24 32 25 33 26 34 27 36
REMARK SMILES IDX 28 37 29 38 93 39 30 40 92 41 31 42 32 43 33 44 86 45 34 46
REMARK SMILES IDX 91 47 85 48 87 49 35 50 90 51 84 52 83 53 36 55 70 56 49 57
REMARK SMILES IDX 69 58 50 59 53 60 68 61 88 62 51 63 52 64 67 66 89 67 54 68
REMARK SMILES IDX 37 69 38 70 47 71 39 72 40 73 46 74 48 75 41 76 42 77 43 78
REMARK SMILES IDX 44 79 45 80 71 81 72 82 81 83 73 84 74 85 80 86 82 87 75 88
REMARK SMILES IDX 76 89 77 90 78 91 79 92 55 93 56 94 65 95 57 96 58 97 64 98
REMARK SMILES IDX 66 99 59 100 60 101 61 102 62 103 63 104
REMARK H PARENT 21 5 14 15 8 27 25 35 87 54 53 65
REMARK Flexibility Score: inf
ROOT
ATOM      1  C   UNL A   1      32.704  29.212  25.626  1.00  0.00     0.117 C 
ENDROOT
BRANCH   1   2
ATOM      2  N   UNL A   1      33.516  28.014  25.475  1.00  0.00    -0.356 N 
ATOM      3  C   UNL A   1      33.221  26.718  25.224  1.00  0.00     0.224 C 
ATOM      4  O   UNL A   1      34.181  25.935  25.217  1.00  0.00    -0.275 OA
ATOM      5  H   UNL A   1      34.481  28.181  25.577  1.00  0.00     0.163 HD
BRANCH   3   6
ATOM      6  C   UNL A   1      31.814  26.153  25.045  1.00  0.00     0.098 C 
ATOM      7  C   UNL A   1      31.910  24.575  25.047  1.00  0.00     0.099 C 
ATOM      8  C   UNL A   1      30.978  24.166  23.878  1.00  0.00     0.025 C 
ATOM      9  C   UNL A   1      30.997  26.403  23.760  1.00  0.00     0.025 C 
ATOM     10  C   UNL A   1      31.678  24.529  22.594  1.00  0.00    -0.027 C 
ATOM     11  C   UNL A   1      29.943  25.294  23.892  1.00  0.00     0.017 C 
ATOM     12  C   UNL A   1      31.708  25.868  22.532  1.00  0.00    -0.027 C 
BRANCH   7  13
ATOM     13  C   UNL A   1      31.512  23.874  26.333  1.00  0.00     0.228 C 
ATOM     14  N   UNL A   1      31.904  22.579  26.587  1.00  0.00    -0.326 N 
ATOM     15  H   UNL A   1      31.541  22.214  27.427  1.00  0.00     0.169 HD
ATOM     16  O   UNL A   1      30.732  24.395  27.136  1.00  0.00    -0.274 OA
BRANCH  14  17
ATOM     17  C   UNL A   1      32.725  21.666  25.881  1.00  0.00     0.044 A 
ATOM     18  C   UNL A   1      34.847  22.833  26.775  1.00  0.00     0.046 C 
ATOM     19  C   UNL A   1      34.123  21.742  26.030  1.00  0.00    -0.027 A 
ATOM     20  C   UNL A   1      34.924  20.757  25.426  1.00  0.00     0.006 A 
ATOM     21  C   UNL A   1      34.354  19.718  24.690  1.00  0.00     0.014 A 
ATOM     22  C   UNL A   1      32.193  20.690  25.019  1.00  0.00     0.040 A 
ATOM     23  C   UNL A   1      32.973  19.671  24.463  1.00  0.00     0.041 A 
BRANCH  23  24
ATOM     24  C   UNL A   1      32.469  18.530  23.626  1.00  0.00     0.251 C 
ATOM     25  O   UNL A   1      32.128  18.763  22.462  1.00  0.00    -0.269 OA
ATOM     26  N   UNL A   1      32.391  17.220  24.049  1.00  0.00    -0.349 N 
ATOM     27  H   UNL A   1      32.056  16.594  23.365  1.00  0.00     0.164 HD
BRANCH  26  28
ATOM     28  C   UNL A   1      32.705  16.611  25.290  1.00  0.00     0.082 C 
ATOM     29  C   UNL A   1      32.440  15.142  25.487  1.00  0.00     0.027 C 
ATOM     30  C   UNL A   1      33.850  15.648  25.444  1.00  0.00     0.027 C 
ENDBRANCH  26  28
ENDBRANCH  23  24
ENDBRANCH  14  17
ENDBRANCH   7  13
ENDBRANCH   3   6
ENDBRANCH   1   2
BRANCH   1  31
ATOM     31  C   UNL A   1      33.032  29.958  26.911  1.00  0.00     0.042 C 
BRANCH  31  32
ATOM     32  C   UNL A   1      34.477  29.728  27.333  1.00  0.00     0.118 C 
BRANCH  32  33
ATOM     33  N   UNL A   1      35.135  30.936  27.818  1.00  0.00    -0.352 N 
ATOM     34  C   UNL A   1      36.349  31.031  28.477  1.00  0.00     0.251 C 
ATOM     35  H   UNL A   1      34.661  31.783  27.657  1.00  0.00     0.163 HD
ATOM     36  O   UNL A   1      36.710  32.047  29.045  1.00  0.00    -0.269 OA
BRANCH  34  37
ATOM     37  C   UNL A   1      37.254  29.873  28.353  1.00  0.00     0.039 A 
ATOM     38  C   UNL A   1      37.395  29.052  29.477  1.00  0.00     0.014 A 
ATOM     39  C   UNL A   1      38.149  29.806  27.289  1.00  0.00     0.014 A 
ATOM     40  C   UNL A   1      38.543  28.276  29.613  1.00  0.00     0.010 A 
ATOM     41  C   UNL A   1      39.329  29.113  27.470  1.00  0.00     0.010 A 
ATOM     42  C   UNL A   1      39.544  28.379  28.646  1.00  0.00    -0.014 A 
BRANCH  42  43
ATOM     43  C   UNL A   1      40.881  27.825  28.818  1.00  0.00     0.031 A 
ATOM     44  C   UNL A   1      41.175  26.445  28.371  1.00  0.00     0.074 A 
ATOM     45  C   UNL A   1      41.872  28.590  29.328  1.00  0.00     0.049 A 
ATOM     46  N   UNL A   1      42.126  25.715  28.852  1.00  0.00    -0.248 NA
ATOM     47  C   UNL A   1      40.383  25.756  27.354  1.00  0.00     0.031 C 
ATOM     48  C   UNL A   1      43.304  28.306  29.304  1.00  0.00     0.029 A 
ATOM     49  N   UNL A   1      41.757  29.715  30.147  1.00  0.00    -0.354 N 
ATOM     50  C   UNL A   1      42.238  24.599  28.055  1.00  0.00     0.074 A 
ATOM     51  C   UNL A   1      41.102  24.646  27.165  1.00  0.00     0.031 C 
ATOM     52  C   UNL A   1      43.913  29.052  30.238  1.00  0.00     0.029 A 
ATOM     53  C   UNL A   1      42.880  29.735  30.996  1.00  0.00     0.049 A 
ATOM     54  H   UNL A   1      41.024  30.374  30.135  1.00  0.00     0.167 HD
ATOM     55  C   UNL A   1      43.347  23.813  28.133  1.00  0.00     0.037 A 
ATOM     56  C   UNL A   1      42.739  29.665  32.353  1.00  0.00     0.037 A 
ATOM     57  C   UNL A   1      44.277  24.293  29.147  1.00  0.00     0.049 A 
ATOM     58  C   UNL A   1      43.344  28.420  32.967  1.00  0.00     0.074 A 
ATOM     59  C   UNL A   1      45.379  25.129  29.076  1.00  0.00     0.029 A 
ATOM     60  N   UNL A   1      43.935  24.208  30.492  1.00  0.00    -0.354 N 
ATOM     61  N   UNL A   1      43.719  27.376  32.280  1.00  0.00    -0.248 NA
ATOM     62  C   UNL A   1      43.554  28.242  34.402  1.00  0.00     0.031 C 
ATOM     63  C   UNL A   1      45.650  25.613  30.379  1.00  0.00     0.029 A 
ATOM     64  C   UNL A   1      44.732  25.050  31.246  1.00  0.00     0.049 A 
ATOM     65  H   UNL A   1      43.226  23.629  30.856  1.00  0.00     0.167 HD
ATOM     66  C   UNL A   1      44.158  26.395  33.132  1.00  0.00     0.074 A 
ATOM     67  C   UNL A   1      44.066  26.997  34.448  1.00  0.00     0.031 C 
ATOM     68  C   UNL A   1      44.548  25.164  32.685  1.00  0.00     0.037 A 
BRANCH  55  69
ATOM     69  C   UNL A   1      43.682  22.810  27.057  1.00  0.00     0.058 A 
ATOM     70  C   UNL A   1      42.950  21.612  26.926  1.00  0.00     0.135 A 
ATOM     71  C   UNL A   1      44.767  22.954  26.170  1.00  0.00     0.135 A 
ATOM     72  F   UNL A   1      41.861  21.371  27.667  1.00  0.00    -0.206 F 
ATOM     73  C   UNL A   1      43.325  20.592  26.052  1.00  0.00     0.059 A 
ATOM     74  C   UNL A   1      45.192  21.926  25.322  1.00  0.00     0.059 A 
ATOM     75  F   UNL A   1      45.453  24.107  26.108  1.00  0.00    -0.206 F 
ATOM     76  C   UNL A   1      44.467  20.742  25.276  1.00  0.00     0.060 A 
BRANCH  76  77
ATOM     77  S   UNL A   1      45.000  19.359  24.247  1.00  0.00     0.124 S 
ATOM     78  O   UNL A   1      44.378  18.217  24.913  1.00  0.00    -0.237 OA
ATOM     79  O   UNL A   1      44.441  19.716  22.948  1.00  0.00    -0.237 OA
ATOM     80  O   UNL A   1      46.456  19.407  24.342  1.00  0.00    -0.744 OA
ENDBRANCH  76  77
ENDBRANCH  55  69
BRANCH  56  81
ATOM     81  C   UNL A   1      41.539  30.391  32.851  1.00  0.00     0.058 A 
ATOM     82  C   UNL A   1      40.359  29.644  33.036  1.00  0.00     0.135 A 
ATOM     83  C   UNL A   1      41.650  31.607  33.538  1.00  0.00     0.135 A 
ATOM     84  F   UNL A   1      40.193  28.480  32.387  1.00  0.00    -0.206 F 
ATOM     85  C   UNL A   1      39.410  29.997  33.990  1.00  0.00     0.059 A 
ATOM     86  C   UNL A   1      40.706  31.984  34.497  1.00  0.00     0.059 A 
ATOM     87  F   UNL A   1      42.747  32.366  33.396  1.00  0.00    -0.206 F 
ATOM     88  C   UNL A   1      39.631  31.134  34.764  1.00  0.00     0.060 A 
BRANCH  88  89
ATOM     89  S   UNL A   1      38.592  31.369  36.226  1.00  0.00     0.124 S 
ATOM     90  O   UNL A   1      38.399  29.999  36.687  1.00  0.00    -0.237 OA
ATOM     91  O   UNL A   1      39.446  32.201  37.073  1.00  0.00    -0.237 OA
ATOM     92  O   UNL A   1      37.408  32.030  35.692  1.00  0.00    -0.744 OA
ENDBRANCH  88  89
ENDBRANCH  56  81
BRANCH  68  93
ATOM     93  C   UNL A   1      44.880  23.976  33.552  1.00  0.00     0.058 A 
ATOM     94  C   UNL A   1      43.977  22.941  33.840  1.00  0.00     0.135 A 
ATOM     95  C   UNL A   1      46.206  23.781  34.008  1.00  0.00     0.135 A 
ATOM     96  F   UNL A   1      42.719  22.966  33.377  1.00  0.00    -0.206 F 
ATOM     97  C   UNL A   1      44.345  21.815  34.581  1.00  0.00     0.059 A 
ATOM     98  C   UNL A   1      46.607  22.643  34.702  1.00  0.00     0.059 A 
ATOM     99  F   UNL A   1      47.164  24.693  33.782  1.00  0.00    -0.206 F 
ATOM    100  C   UNL A   1      45.663  21.675  35.008  1.00  0.00     0.060 A 
BRANCH 100 101
ATOM    101  S   UNL A   1      46.166  20.199  35.912  1.00  0.00     0.124 S 
ATOM    102  O   UNL A   1      45.353  19.173  35.268  1.00  0.00    -0.237 OA
ATOM    103  O   UNL A   1      47.600  20.125  35.647  1.00  0.00    -0.237 OA
ATOM    104  O   UNL A   1      45.808  20.519  37.290  1.00  0.00    -0.744 OA
ENDBRANCH 100 101
ENDBRANCH  68  93
ENDBRANCH  42  43
ENDBRANCH  34  37
ENDBRANCH  32  33
ENDBRANCH  31  32
ENDBRANCH   1  31
TORSDOF 17
ENDMDL
MODEL 2
REMARK VINA RESULT:     -14.7      5.046     11.675
REMARK SMILES Cc1ccc(C(=O)NC2CC2)cc1NC(=O)[C@@H]1[C@@H](C(=O)NCCCNC(=O)c2ccc(-c3c4nc(c(-c5c(F)cc(S(=O)(=O)[O-])cc5F)c5ccc([nH]5)c(-c5c(F)cc(S(=O)(=O)[O-])cc5F)c5nc(c(-c6c(F)cc(S(=O)(=O)[O-])cc6F)c6ccc3[nH]6)C=C5)C=C4)cc2)[C@H]2C=C[C@@H]1C2
REMARK SMILES IDX 22 1 21 2 19 3 20 4 18 6 17 7 97 8 94 9 96 10 98 11 95 12
REMARK SMILES IDX 15 13 14 14 16 16 13 17 1 18 2 19 3 20 4 21 12 22 5 23 6 24
REMARK SMILES IDX 7 25 8 26 9 28 10 29 11 30 23 31 24 32 25 33 26 34 27 36
REMARK SMILES IDX 28 37 29 38 93 39 30 40 92 41 31 42 32 43 33 44 86 45 34 46
REMARK SMILES IDX 91 47 85 48 87 49 35 50 90 51 84 52 83 53 36 55 70 56 49 57
REMARK SMILES IDX 69 58 50 59 53 60 68 61 88 62 51 63 52 64 67 66 89 67 54 68
REMARK SMILES IDX 37 69 38 70 47 71 39 72 40 73 46 74 48 75 41 76 42 77 43 78
REMARK SMILES IDX 44 79 45 80 71 81 72 82 81 83 73 84 74 85 80 86 82 87 75 88
REMARK SMILES IDX 76 89 77 90 78 91 79 92 55 93 56 94 65 95 57 96 58 97 64 98
REMARK SMILES IDX 66 99 59 100 60 101 61 102 62 103 63 104
REMARK H PARENT 21 5 14 15 8 27 25 35 87 54 53 65
REMARK Flexibility Score: inf
ROOT
ATOM      1  C   UNL A   1      35.997  22.217  25.466  1.00  0.00     0.117 C 
ENDROOT
BRANCH   1   2
ATOM      2  N   UNL A   1      35.431  23.522  25.771  1.00  0.00    -0.356 N 
ATOM      3  C   UNL A   1      34.397  24.228  25.260  1.00  0.00     0.224 C 
ATOM      4  O   UNL A   1      34.226  25.360  25.734  1.00  0.00    -0.275 OA
ATOM      5  H   UNL A   1      35.896  23.988  26.503  1.00  0.00     0.163 HD
BRANCH   3   6
ATOM      6  C   UNL A   1      33.509  23.777  24.103  1.00  0.00     0.098 C 
ATOM      7  C   UNL A   1      32.609  25.000  23.663  1.00  0.00     0.099 C 
ATOM      8  C   UNL A   1      31.212  24.357  23.473  1.00  0.00     0.025 C 
ATOM      9  C   UNL A   1      32.447  22.671  24.280  1.00  0.00     0.025 C 
ATOM     10  C   UNL A   1      30.672  24.037  24.844  1.00  0.00    -0.027 C 
ATOM     11  C   UNL A   1      31.576  22.933  23.043  1.00  0.00     0.017 C 
ATOM     12  C   UNL A   1      31.423  23.042  25.336  1.00  0.00    -0.027 C 
BRANCH   7  13
ATOM     13  C   UNL A   1      33.041  25.743  22.413  1.00  0.00     0.228 C 
ATOM     14  N   UNL A   1      32.543  26.993  22.120  1.00  0.00    -0.326 N 
ATOM     15  H   UNL A   1      32.855  27.351  21.257  1.00  0.00     0.169 HD
ATOM     16  O   UNL A   1      33.759  25.209  21.561  1.00  0.00    -0.274 OA
BRANCH  14  17
ATOM     17  C   UNL A   1      31.669  27.866  22.812  1.00  0.00     0.044 A 
ATOM     18  C   UNL A   1      33.565  28.530  24.434  1.00  0.00     0.046 C 
ATOM     19  C   UNL A   1      32.176  28.651  23.866  1.00  0.00    -0.027 A 
ATOM     20  C   UNL A   1      31.334  29.605  24.466  1.00  0.00     0.006 A 
ATOM     21  C   UNL A   1      30.020  29.778  24.032  1.00  0.00     0.014 A 
ATOM     22  C   UNL A   1      30.303  27.967  22.495  1.00  0.00     0.040 A 
ATOM     23  C   UNL A   1      29.473  28.953  23.042  1.00  0.00     0.041 A 
BRANCH  23  24
ATOM     24  C   UNL A   1      28.038  29.201  22.677  1.00  0.00     0.251 C 
ATOM     25  O   UNL A   1      27.172  28.476  23.178  1.00  0.00    -0.269 OA
ATOM     26  N   UNL A   1      27.602  30.211  21.846  1.00  0.00    -0.349 N 
ATOM     27  H   UNL A   1      26.624  30.244  21.730  1.00  0.00     0.164 HD
BRANCH  26  28
ATOM     28  C   UNL A   1      28.307  31.210  21.128  1.00  0.00     0.082 C 
ATOM     29  C   UNL A   1      27.667  32.552  20.897  1.00  0.00     0.027 C 
ATOM     30  C   UNL A   1      28.859  32.439  21.798  1.00  0.00     0.027 C 
ENDBRANCH  26  28
ENDBRANCH  23  24
ENDBRANCH  14  17
ENDBRANCH   7  13
ENDBRANCH   3   6
ENDBRANCH   1   2
BRANCH   1  31
ATOM     31  C   UNL A   1      37.502  22.290  25.257  1.00  0.00     0.042 C 
BRANCH  31  32
ATOM     32  C   UNL A   1      38.112  23.461  26.014  1.00  0.00     0.118 C 
BRANCH  32  33
ATOM     33  N   UNL A   1      39.451  23.184  26.522  1.00  0.00    -0.352 N 
ATOM     34  C   UNL A   1      40.375  24.093  27.008  1.00  0.00     0.251 C 
ATOM     35  H   UNL A   1      39.730  22.241  26.519  1.00  0.00     0.163 HD
ATOM     36  O   UNL A   1      41.545  23.805  27.195  1.00  0.00    -0.269 OA
BRANCH  34  37
ATOM     37  C   UNL A   1      39.849  25.410  27.414  1.00  0.00     0.039 A 
ATOM     38  C   UNL A   1      40.266  26.520  26.671  1.00  0.00     0.014 A 
ATOM     39  C   UNL A   1      39.238  25.556  28.656  1.00  0.00     0.014 A 
ATOM     40  C   UNL A   1      40.227  27.782  27.255  1.00  0.00     0.010 A 
ATOM     41  C   UNL A   1      39.292  26.793  29.269  1.00  0.00     0.010 A 
ATOM     42  C   UNL A   1      39.820  27.898  28.584  1.00  0.00    -0.014 A 
BRANCH  42  43
ATOM     43  C   UNL A   1      39.989  29.114  29.370  1.00  0.00     0.031 A 
ATOM     44  C   UNL A   1      38.936  30.154  29.364  1.00  0.00     0.074 A 
ATOM     45  C   UNL A   1      41.080  29.268  30.154  1.00  0.00     0.049 A 
ATOM     46  N   UNL A   1      39.148  31.400  29.626  1.00  0.00    -0.248 NA
ATOM     47  C   UNL A   1      37.544  29.869  29.020  1.00  0.00     0.031 C 
ATOM     48  C   UNL A   1      41.273  30.263  31.205  1.00  0.00     0.029 A 
ATOM     49  N   UNL A   1      42.327  28.653  30.027  1.00  0.00    -0.354 N 
ATOM     50  C   UNL A   1      37.923  32.015  29.743  1.00  0.00     0.074 A 
ATOM     51  C   UNL A   1      36.956  31.033  29.310  1.00  0.00     0.031 C 
ATOM     52  C   UNL A   1      42.584  30.373  31.466  1.00  0.00     0.029 A 
ATOM     53  C   UNL A   1      43.295  29.563  30.493  1.00  0.00     0.049 A 
ATOM     54  H   UNL A   1      42.498  27.749  29.675  1.00  0.00     0.167 HD
ATOM     55  C   UNL A   1      37.827  33.246  30.317  1.00  0.00     0.037 A 
ATOM     56  C   UNL A   1      44.280  30.027  29.669  1.00  0.00     0.037 A 
ATOM     57  C   UNL A   1      39.135  33.763  30.702  1.00  0.00     0.049 A 
ATOM     58  C   UNL A   1      44.214  31.518  29.416  1.00  0.00     0.074 A 
ATOM     59  C   UNL A   1      39.839  33.716  31.893  1.00  0.00     0.029 A 
ATOM     60  N   UNL A   1      40.050  34.123  29.718  1.00  0.00    -0.354 N 
ATOM     61  N   UNL A   1      43.184  32.263  29.709  1.00  0.00    -0.248 NA
ATOM     62  C   UNL A   1      45.292  32.285  28.794  1.00  0.00     0.031 C 
ATOM     63  C   UNL A   1      41.203  33.970  31.610  1.00  0.00     0.029 A 
ATOM     64  C   UNL A   1      41.324  34.200  30.251  1.00  0.00     0.049 A 
ATOM     65  H   UNL A   1      39.823  34.299  28.777  1.00  0.00     0.167 HD
ATOM     66  C   UNL A   1      43.411  33.550  29.294  1.00  0.00     0.074 A 
ATOM     67  C   UNL A   1      44.758  33.520  28.755  1.00  0.00     0.031 C 
ATOM     68  C   UNL A   1      42.467  34.530  29.414  1.00  0.00     0.037 A 
BRANCH  55  69
ATOM     69  C   UNL A   1      36.506  33.799  30.790  1.00  0.00     0.058 A 
ATOM     70  C   UNL A   1      35.520  34.213  29.872  1.00  0.00     0.135 A 
ATOM     71  C   UNL A   1      36.190  34.004  32.148  1.00  0.00     0.135 A 
ATOM     72  F   UNL A   1      35.666  34.025  28.554  1.00  0.00    -0.206 F 
ATOM     73  C   UNL A   1      34.355  34.872  30.263  1.00  0.00     0.059 A 
ATOM     74  C   UNL A   1      35.053  34.707  32.562  1.00  0.00     0.059 A 
ATOM     75  F   UNL A   1      36.988  33.528  33.117  1.00  0.00    -0.206 F 
ATOM     76  C   UNL A   1      34.143  35.145  31.608  1.00  0.00     0.060 A 
BRANCH  76  77
ATOM     77  S   UNL A   1      32.691  36.108  32.075  1.00  0.00     0.124 S 
ATOM     78  O   UNL A   1      33.182  36.880  33.214  1.00  0.00    -0.237 OA
ATOM     79  O   UNL A   1      32.429  36.870  30.860  1.00  0.00    -0.237 OA
ATOM     80  O   UNL A   1      31.700  35.088  32.406  1.00  0.00    -0.744 OA
ENDBRANCH  76  77
ENDBRANCH  55  69
BRANCH  56  81
ATOM     81  C   UNL A   1      44.768  28.998  28.710  1.00  0.00     0.058 A 
ATOM     82  C   UNL A   1      44.266  29.047  27.395  1.00  0.00     0.135 A 
ATOM     83  C   UNL A   1      45.973  28.313  28.918  1.00  0.00     0.135 A 
ATOM     84  F   UNL A   1      43.105  29.674  27.142  1.00  0.00    -0.206 F 
ATOM     85  C   UNL A   1      45.008  28.592  26.310  1.00  0.00     0.059 A 
ATOM     86  C   UNL A   1      46.732  27.843  27.843  1.00  0.00     0.059 A 
ATOM     87  F   UNL A   1      46.496  28.226  30.150  1.00  0.00    -0.206 F 
ATOM     88  C   UNL A   1      46.272  28.056  26.542  1.00  0.00     0.060 A 
BRANCH  88  89
ATOM     89  S   UNL A   1      47.357  27.813  25.114  1.00  0.00     0.124 S 
ATOM     90  O   UNL A   1      47.322  26.365  24.948  1.00  0.00    -0.237 OA
ATOM     91  O   UNL A   1      46.667  28.580  24.077  1.00  0.00    -0.237 OA
ATOM     92  O   UNL A   1      48.628  28.368  25.561  1.00  0.00    -0.744 OA
ENDBRANCH  88  89
ENDBRANCH  56  81
BRANCH  68  93
ATOM     93  C   UNL A   1      42.560  35.920  28.836  1.00  0.00     0.058 A 
ATOM     94  C   UNL A   1      41.893  36.329  27.670  1.00  0.00     0.135 A 
ATOM     95  C   UNL A   1      43.235  36.940  29.549  1.00  0.00     0.135 A 
ATOM     96  F   UNL A   1      41.139  35.474  26.964  1.00  0.00    -0.206 F 
ATOM     97  C   UNL A   1      41.938  37.647  27.209  1.00  0.00     0.059 A 
ATOM     98  C   UNL A   1      43.249  38.269  29.135  1.00  0.00     0.059 A 
ATOM     99  F   UNL A   1      43.898  36.676  30.685  1.00  0.00    -0.206 F 
ATOM    100  C   UNL A   1      42.618  38.610  27.949  1.00  0.00     0.060 A 
BRANCH 100 101
ATOM    101  S   UNL A   1      42.634  40.327  27.398  1.00  0.00     0.124 S 
ATOM    102  O   UNL A   1      43.695  40.300  26.396  1.00  0.00    -0.237 OA
ATOM    103  O   UNL A   1      41.284  40.517  26.879  1.00  0.00    -0.237 OA
ATOM    104  O   UNL A   1      42.937  41.063  28.621  1.00  0.00    -0.744 OA
ENDBRANCH 100 101
ENDBRANCH  68  93
ENDBRANCH  42  43
ENDBRANCH  34  37
ENDBRANCH  32  33
ENDBRANCH  31  32
ENDBRANCH   1  31
TORSDOF 17
ENDMDL
MODEL 3
REMARK VINA RESULT:     -14.7      4.924     11.570
REMARK SMILES Cc1ccc(C(=O)NC2CC2)cc1NC(=O)[C@@H]1[C@@H](C(=O)NCCCNC(=O)c2ccc(-c3c4nc(c(-c5c(F)cc(S(=O)(=O)[O-])cc5F)c5ccc([nH]5)c(-c5c(F)cc(S(=O)(=O)[O-])cc5F)c5nc(c(-c6c(F)cc(S(=O)(=O)[O-])cc6F)c6ccc3[nH]6)C=C5)C=C4)cc2)[C@H]2C=C[C@@H]1C2
REMARK SMILES IDX 22 1 21 2 19 3 20 4 18 6 17 7 97 8 94 9 96 10 98 11 95 12
REMARK SMILES IDX 15 13 14 14 16 16 13 17 1 18 2 19 3 20 4 21 12 22 5 23 6 24
REMARK SMILES IDX 7 25 8 26 9 28 10 29 11 30 23 31 24 32 25 33 26 34 27 36
REMARK SMILES IDX 28 37 29 38 93 39 30 40 92 41 31 42 32 43 33 44 86 45 34 46
REMARK SMILES IDX 91 47 85 48 87 49 35 50 90 51 84 52 83 53 36 55 70 56 49 57
REMARK SMILES IDX 69 58 50 59 53 60 68 61 88 62 51 63 52 64 67 66 89 67 54 68
REMARK SMILES IDX 37 69 38 70 47 71 39 72 40 73 46 74 48 75 41 76 42 77 43 78
REMARK SMILES IDX 44 79 45 80 71 81 72 82 81 83 73 84 74 85 80 86 82 87 75 88
REMARK SMILES IDX 76 89 77 90 78 91 79 92 55 93 56 94 65 95 57 96 58 97 64 98
REMARK SMILES IDX 66 99 59 100 60 101 61 102 62 103 63 104
REMARK H PARENT 21 5 14 15 8 27 25 35 87 54 53 65
REMARK Flexibility Score: inf
ROOT
ATOM      1  C   UNL A   1      37.022  21.340  25.539  1.00  0.00     0.117 C 
ENDROOT
BRANCH   1   2
ATOM      2  N   UNL A   1      35.907  21.687  26.408  1.00  0.00    -0.356 N 
ATOM      3  C   UNL A   1      34.602  21.959  26.180  1.00  0.00     0.224 C 
ATOM      4  O   UNL A   1      33.933  22.277  27.173  1.00  0.00    -0.275 OA
ATOM      5  H   UNL A   1      36.154  21.732  27.360  1.00  0.00     0.163 HD
BRANCH   3   6
ATOM      6  C   UNL A   1      33.936  21.991  24.806  1.00  0.00     0.098 C 
ATOM      7  C   UNL A   1      33.429  23.464  24.537  1.00  0.00     0.099 C 
ATOM      8  C   UNL A   1      32.014  23.244  23.942  1.00  0.00     0.025 C 
ATOM      9  C   UNL A   1      32.662  21.175  24.504  1.00  0.00     0.025 C 
ATOM     10  C   UNL A   1      31.117  22.796  25.068  1.00  0.00    -0.027 C 
ATOM     11  C   UNL A   1      32.175  21.895  23.238  1.00  0.00     0.017 C 
ATOM     12  C   UNL A   1      31.516  21.566  25.418  1.00  0.00    -0.027 C 
BRANCH   7  13
ATOM     13  C   UNL A   1      34.281  24.316  23.614  1.00  0.00     0.228 C 
ATOM     14  N   UNL A   1      33.943  25.621  23.337  1.00  0.00    -0.326 N 
ATOM     15  H   UNL A   1      34.541  26.054  22.685  1.00  0.00     0.169 HD
ATOM     16  O   UNL A   1      35.235  23.837  22.993  1.00  0.00    -0.274 OA
BRANCH  14  17
ATOM     17  C   UNL A   1      32.906  26.465  23.801  1.00  0.00     0.044 A 
ATOM     18  C   UNL A   1      31.766  26.395  21.486  1.00  0.00     0.046 C 
ATOM     19  C   UNL A   1      31.833  26.772  22.942  1.00  0.00    -0.027 A 
ATOM     20  C   UNL A   1      30.747  27.508  23.450  1.00  0.00     0.006 A 
ATOM     21  C   UNL A   1      30.723  27.930  24.779  1.00  0.00     0.014 A 
ATOM     22  C   UNL A   1      32.914  27.025  25.092  1.00  0.00     0.040 A 
ATOM     23  C   UNL A   1      31.815  27.705  25.626  1.00  0.00     0.041 A 
BRANCH  23  24
ATOM     24  C   UNL A   1      31.699  28.234  27.027  1.00  0.00     0.251 C 
ATOM     25  O   UNL A   1      31.038  27.586  27.845  1.00  0.00    -0.269 OA
ATOM     26  N   UNL A   1      32.311  29.380  27.487  1.00  0.00    -0.349 N 
ATOM     27  H   UNL A   1      32.147  29.571  28.440  1.00  0.00     0.164 HD
BRANCH  26  28
ATOM     28  C   UNL A   1      33.134  30.334  26.837  1.00  0.00     0.082 C 
ATOM     29  C   UNL A   1      33.848  31.380  27.650  1.00  0.00     0.027 C 
ATOM     30  C   UNL A   1      34.634  30.312  26.954  1.00  0.00     0.027 C 
ENDBRANCH  26  28
ENDBRANCH  23  24
ENDBRANCH  14  17
ENDBRANCH   7  13
ENDBRANCH   3   6
ENDBRANCH   1   2
BRANCH   1  31
ATOM     31  C   UNL A   1      37.718  22.578  24.993  1.00  0.00     0.042 C 
BRANCH  31  32
ATOM     32  C   UNL A   1      38.109  23.534  26.111  1.00  0.00     0.118 C 
BRANCH  32  33
ATOM     33  N   UNL A   1      39.376  23.189  26.747  1.00  0.00    -0.352 N 
ATOM     34  C   UNL A   1      40.303  24.051  27.306  1.00  0.00     0.251 C 
ATOM     35  H   UNL A   1      39.596  22.231  26.783  1.00  0.00     0.163 HD
ATOM     36  O   UNL A   1      41.430  23.698  27.607  1.00  0.00    -0.269 OA
BRANCH  34  37
ATOM     37  C   UNL A   1      39.821  25.403  27.644  1.00  0.00     0.039 A 
ATOM     38  C   UNL A   1      40.307  26.464  26.871  1.00  0.00     0.014 A 
ATOM     39  C   UNL A   1      39.180  25.625  28.859  1.00  0.00     0.014 A 
ATOM     40  C   UNL A   1      40.304  27.750  27.404  1.00  0.00     0.010 A 
ATOM     41  C   UNL A   1      39.267  26.882  29.424  1.00  0.00     0.010 A 
ATOM     42  C   UNL A   1      39.862  27.936  28.714  1.00  0.00    -0.014 A 
BRANCH  42  43
ATOM     43  C   UNL A   1      40.059  29.175  29.457  1.00  0.00     0.031 A 
ATOM     44  C   UNL A   1      39.003  30.211  29.463  1.00  0.00     0.074 A 
ATOM     45  C   UNL A   1      41.180  29.354  30.191  1.00  0.00     0.049 A 
ATOM     46  N   UNL A   1      39.221  31.466  29.680  1.00  0.00    -0.248 NA
ATOM     47  C   UNL A   1      37.599  29.914  29.183  1.00  0.00     0.031 C 
ATOM     48  C   UNL A   1      41.412  30.379  31.204  1.00  0.00     0.029 A 
ATOM     49  N   UNL A   1      42.423  28.738  30.032  1.00  0.00    -0.354 N 
ATOM     50  C   UNL A   1      38.000  32.081  29.828  1.00  0.00     0.074 A 
ATOM     51  C   UNL A   1      37.019  31.085  29.463  1.00  0.00     0.031 C 
ATOM     52  C   UNL A   1      42.732  30.500  31.409  1.00  0.00     0.029 A 
ATOM     53  C   UNL A   1      43.405  29.663  30.431  1.00  0.00     0.049 A 
ATOM     54  H   UNL A   1      42.583  27.824  29.700  1.00  0.00     0.167 HD
ATOM     55  C   UNL A   1      37.924  33.329  30.370  1.00  0.00     0.037 A 
ATOM     56  C   UNL A   1      44.355  30.105  29.555  1.00  0.00     0.037 A 
ATOM     57  C   UNL A   1      39.244  33.858  30.686  1.00  0.00     0.049 A 
ATOM     58  C   UNL A   1      44.274  31.588  29.262  1.00  0.00     0.074 A 
ATOM     59  C   UNL A   1      39.996  33.848  31.848  1.00  0.00     0.029 A 
ATOM     60  N   UNL A   1      40.118  34.191  29.656  1.00  0.00    -0.354 N 
ATOM     61  N   UNL A   1      43.255  32.339  29.574  1.00  0.00    -0.248 NA
ATOM     62  C   UNL A   1      45.324  32.338  28.575  1.00  0.00     0.031 C 
ATOM     63  C   UNL A   1      41.346  34.097  31.503  1.00  0.00     0.029 A 
ATOM     64  C   UNL A   1      41.412  34.287  30.135  1.00  0.00     0.049 A 
ATOM     65  H   UNL A   1      39.852  34.339  28.719  1.00  0.00     0.167 HD
ATOM     66  C   UNL A   1      43.461  33.613  29.113  1.00  0.00     0.074 A 
ATOM     67  C   UNL A   1      44.785  33.571  28.522  1.00  0.00     0.031 C 
ATOM     68  C   UNL A   1      42.519  34.595  29.243  1.00  0.00     0.037 A 
BRANCH  55  69
ATOM     69  C   UNL A   1      36.620  33.892  30.879  1.00  0.00     0.058 A 
ATOM     70  C   UNL A   1      35.583  34.243  29.992  1.00  0.00     0.135 A 
ATOM     71  C   UNL A   1      36.372  34.169  32.237  1.00  0.00     0.135 A 
ATOM     72  F   UNL A   1      35.664  33.983  28.680  1.00  0.00    -0.206 F 
ATOM     73  C   UNL A   1      34.430  34.910  30.406  1.00  0.00     0.059 A 
ATOM     74  C   UNL A   1      35.248  34.882  32.670  1.00  0.00     0.059 A 
ATOM     75  F   UNL A   1      37.225  33.757  33.189  1.00  0.00    -0.206 F 
ATOM     76  C   UNL A   1      34.284  35.256  31.742  1.00  0.00     0.060 A 
BRANCH  76  77
ATOM     77  S   UNL A   1      32.844  36.227  32.231  1.00  0.00     0.124 S 
ATOM     78  O   UNL A   1      32.589  37.028  31.036  1.00  0.00    -0.237 OA
ATOM     79  O   UNL A   1      31.862  35.188  32.518  1.00  0.00    -0.237 OA
ATOM     80  O   UNL A   1      33.320  36.982  33.386  1.00  0.00    -0.744 OA
ENDBRANCH  76  77
ENDBRANCH  55  69
BRANCH  56  81
ATOM     81  C   UNL A   1      44.807  29.049  28.607  1.00  0.00     0.058 A 
ATOM     82  C   UNL A   1      44.220  29.031  27.328  1.00  0.00     0.135 A 
ATOM     83  C   UNL A   1      46.042  28.404  28.763  1.00  0.00     0.135 A 
ATOM     84  F   UNL A   1      43.028  29.618  27.128  1.00  0.00    -0.206 F 
ATOM     85  C   UNL A   1      44.902  28.550  26.215  1.00  0.00     0.059 A 
ATOM     86  C   UNL A   1      46.742  27.908  27.659  1.00  0.00     0.059 A 
ATOM     87  F   UNL A   1      46.647  28.380  29.960  1.00  0.00    -0.206 F 
ATOM     88  C   UNL A   1      46.192  28.055  26.384  1.00  0.00     0.060 A 
BRANCH  88  89
ATOM     89  S   UNL A   1      47.188  27.780  24.898  1.00  0.00     0.124 S 
ATOM     90  O   UNL A   1      48.522  28.159  25.351  1.00  0.00    -0.237 OA
ATOM     91  O   UNL A   1      46.988  26.350  24.661  1.00  0.00    -0.237 OA
ATOM     92  O   UNL A   1      46.578  28.668  23.917  1.00  0.00    -0.744 OA
ENDBRANCH  88  89
ENDBRANCH  56  81
BRANCH  68  93
ATOM     93  C   UNL A   1      42.585  35.967  28.621  1.00  0.00     0.058 A 
ATOM     94  C   UNL A   1      42.010  36.294  27.382  1.00  0.00     0.135 A 
ATOM     95  C   UNL A   1      43.124  37.052  29.354  1.00  0.00     0.135 A 
ATOM     96  F   UNL A   1      41.380  35.369  26.643  1.00  0.00    -0.206 F 
ATOM     97  C   UNL A   1      42.021  37.595  26.875  1.00  0.00     0.059 A 
ATOM     98  C   UNL A   1      43.099  38.364  28.890  1.00  0.00     0.059 A 
ATOM     99  F   UNL A   1      43.689  36.869  30.556  1.00  0.00    -0.206 F 
ATOM    100  C   UNL A   1      42.567  38.624  27.637  1.00  0.00     0.060 A 
BRANCH 100 101
ATOM    101  S   UNL A   1      42.533  40.318  27.022  1.00  0.00     0.124 S 
ATOM    102  O   UNL A   1      43.103  41.048  28.150  1.00  0.00    -0.237 OA
ATOM    103  O   UNL A   1      43.371  40.251  25.828  1.00  0.00    -0.237 OA
ATOM    104  O   UNL A   1      41.115  40.549  26.769  1.00  0.00    -0.744 OA
ENDBRANCH 100 101
ENDBRANCH  68  93
ENDBRANCH  42  43
ENDBRANCH  34  37
ENDBRANCH  32  33
ENDBRANCH  31  32
ENDBRANCH   1  31
TORSDOF 17
ENDMDL
