MODEL 1
REMARK VINA RESULT:     -11.4      0.000      0.000
REMARK SMILES O=C(NCCCNC(=O)c1ccc(-c2c3nc(c(-c4c(F)cc(S(=O)(=O)[O-])cc4F)c4ccc([nH]4)c(-c4c(F)cc(S(=O)(=O)[O-])cc4F)c4nc(c(-c5c(F)cc(S(=O)(=O)[O-])cc5F)c5ccc2[nH]5)C=C4)C=C3)cc1)C1=Cc2ccc(Cl)c(Cl)c2O[C@@H]1C(F)(F)F
REMARK SMILES IDX 6 1 5 2 4 3 3 4 1 5 2 6 76 8 77 9 87 10 78 11 86 12 79 13
REMARK SMILES IDX 85 14 80 15 83 16 81 17 84 18 82 19 88 20 89 21 90 22 91 23
REMARK SMILES IDX 7 24 8 25 9 27 10 28 11 29 75 30 12 31 74 32 13 33 14 34
REMARK SMILES IDX 15 35 68 36 16 37 73 38 67 39 69 40 17 41 72 42 66 43 65 44
REMARK SMILES IDX 18 46 52 47 31 48 51 49 32 50 35 51 50 52 70 53 33 54 34 55
REMARK SMILES IDX 49 57 71 58 36 59 19 60 20 61 29 62 21 63 22 64 28 65 30 66
REMARK SMILES IDX 23 67 24 68 25 69 26 70 27 71 53 72 54 73 63 74 55 75 56 76
REMARK SMILES IDX 62 77 64 78 57 79 58 80 59 81 60 82 61 83 37 84 38 85 47 86
REMARK SMILES IDX 39 87 40 88 46 89 48 90 41 91 42 92 43 93 44 94 45 95
REMARK H PARENT 3 7 7 26 69 45 35 56
REMARK Flexibility Score: inf
ROOT
ATOM      1  C   UNL A   1      34.298  32.488  28.386  1.00  0.00     0.118 C 
ENDROOT
BRANCH   1   2
ATOM      2  C   UNL A   1      34.418  32.734  29.885  1.00  0.00     0.042 C 
BRANCH   2   3
ATOM      3  C   UNL A   1      35.426  33.827  30.217  1.00  0.00     0.118 C 
BRANCH   3   4
ATOM      4  N   UNL A   1      34.990  34.719  31.297  1.00  0.00    -0.352 N 
ATOM      5  O   UNL A   1      35.193  35.893  33.229  1.00  0.00    -0.270 OA
ATOM      6  C   UNL A   1      35.542  34.945  32.536  1.00  0.00     0.251 C 
ATOM      7  H   UNL A   1      34.175  35.237  31.104  1.00  0.00     0.163 HD
BRANCH   6   8
ATOM      8  C   UNL A   1      36.647  34.064  32.958  1.00  0.00     0.067 C 
ATOM      9  C   UNL A   1      37.886  34.569  33.007  1.00  0.00     0.025 C 
ATOM     10  C   UNL A   1      36.271  32.800  33.660  1.00  0.00     0.314 C 
ATOM     11  C   UNL A   1      38.532  34.334  34.309  1.00  0.00     0.019 A 
ATOM     12  O   UNL A   1      36.807  32.740  35.001  1.00  0.00    -0.474 OA
ATOM     13  C   UNL A   1      39.524  35.243  34.691  1.00  0.00     0.013 A 
ATOM     14  C   UNL A   1      37.882  33.553  35.293  1.00  0.00     0.148 A 
ATOM     15  C   UNL A   1      39.803  35.442  36.044  1.00  0.00     0.023 A 
ATOM     16  C   UNL A   1      38.185  33.739  36.654  1.00  0.00     0.102 A 
ATOM     17  C   UNL A   1      39.125  34.710  37.024  1.00  0.00     0.063 A 
ATOM     18  Cl  UNL A   1      37.265  32.880  37.852  1.00  0.00    -0.079 Cl
ATOM     19  Cl  UNL A   1      39.436  35.117  38.674  1.00  0.00    -0.083 Cl
BRANCH  10  20
ATOM     20  C   UNL A   1      36.699  31.568  32.848  1.00  0.00     0.429 C 
ATOM     21  F   UNL A   1      37.390  30.691  33.616  1.00  0.00    -0.167 F 
ATOM     22  F   UNL A   1      35.636  30.894  32.349  1.00  0.00    -0.167 F 
ATOM     23  F   UNL A   1      37.495  31.894  31.801  1.00  0.00    -0.167 F 
ENDBRANCH  10  20
ENDBRANCH   6   8
ENDBRANCH   3   4
ENDBRANCH   2   3
ENDBRANCH   1   2
BRANCH   1  24
ATOM     24  N   UNL A   1      33.795  31.158  28.047  1.00  0.00    -0.352 N 
ATOM     25  C   UNL A   1      34.436  29.938  27.957  1.00  0.00     0.251 C 
ATOM     26  H   UNL A   1      32.832  31.127  27.847  1.00  0.00     0.163 HD
ATOM     27  O   UNL A   1      33.820  28.962  27.562  1.00  0.00    -0.269 OA
BRANCH  25  28
ATOM     28  C   UNL A   1      35.875  29.818  28.297  1.00  0.00     0.039 A 
ATOM     29  C   UNL A   1      36.242  29.429  29.590  1.00  0.00     0.014 A 
ATOM     30  C   UNL A   1      36.860  30.068  27.346  1.00  0.00     0.014 A 
ATOM     31  C   UNL A   1      37.588  29.182  29.886  1.00  0.00     0.010 A 
ATOM     32  C   UNL A   1      38.173  29.698  27.601  1.00  0.00     0.010 A 
ATOM     33  C   UNL A   1      38.558  29.254  28.875  1.00  0.00    -0.014 A 
BRANCH  33  34
ATOM     34  C   UNL A   1      39.986  28.900  29.102  1.00  0.00     0.031 A 
ATOM     35  C   UNL A   1      40.936  29.951  29.617  1.00  0.00     0.074 A 
ATOM     36  C   UNL A   1      40.453  27.687  28.739  1.00  0.00     0.049 A 
ATOM     37  N   UNL A   1      42.242  29.933  29.674  1.00  0.00    -0.248 NA
ATOM     38  C   UNL A   1      40.335  31.216  30.075  1.00  0.00     0.031 C 
ATOM     39  C   UNL A   1      39.650  26.596  28.179  1.00  0.00     0.029 A 
ATOM     40  N   UNL A   1      41.726  27.174  28.768  1.00  0.00    -0.354 N 
ATOM     41  C   UNL A   1      42.616  31.193  30.127  1.00  0.00     0.074 A 
ATOM     42  C   UNL A   1      41.406  31.970  30.271  1.00  0.00     0.031 C 
ATOM     43  C   UNL A   1      40.443  25.537  27.947  1.00  0.00     0.029 A 
ATOM     44  C   UNL A   1      41.816  25.887  28.289  1.00  0.00     0.049 A 
ATOM     45  H   UNL A   1      42.502  27.680  29.099  1.00  0.00     0.167 HD
ATOM     46  C   UNL A   1      43.854  31.653  30.429  1.00  0.00     0.037 A 
ATOM     47  C   UNL A   1      42.888  25.085  28.133  1.00  0.00     0.037 A 
ATOM     48  C   UNL A   1      45.045  30.850  30.356  1.00  0.00     0.049 A 
ATOM     49  C   UNL A   1      44.249  25.604  28.511  1.00  0.00     0.074 A 
ATOM     50  C   UNL A   1      46.338  31.195  30.705  1.00  0.00     0.029 A 
ATOM     51  N   UNL A   1      45.083  29.534  29.921  1.00  0.00    -0.354 N 
ATOM     52  N   UNL A   1      44.581  26.788  28.969  1.00  0.00    -0.248 NA
ATOM     53  C   UNL A   1      45.382  24.681  28.354  1.00  0.00     0.031 C 
ATOM     54  C   UNL A   1      47.163  30.091  30.461  1.00  0.00     0.029 A 
ATOM     55  C   UNL A   1      46.377  29.050  29.992  1.00  0.00     0.049 A 
ATOM     56  H   UNL A   1      44.304  29.019  29.610  1.00  0.00     0.167 HD
ATOM     57  C   UNL A   1      45.955  26.743  29.179  1.00  0.00     0.074 A 
ATOM     58  C   UNL A   1      46.391  25.413  28.807  1.00  0.00     0.031 C 
ATOM     59  C   UNL A   1      46.782  27.715  29.636  1.00  0.00     0.037 A 
BRANCH  46  60
ATOM     60  C   UNL A   1      43.972  33.080  30.890  1.00  0.00     0.058 A 
ATOM     61  C   UNL A   1      44.181  34.132  29.983  1.00  0.00     0.135 A 
ATOM     62  C   UNL A   1      43.863  33.405  32.253  1.00  0.00     0.135 A 
ATOM     63  F   UNL A   1      44.311  33.877  28.672  1.00  0.00    -0.206 F 
ATOM     64  C   UNL A   1      44.316  35.448  30.412  1.00  0.00     0.059 A 
ATOM     65  C   UNL A   1      43.964  34.718  32.702  1.00  0.00     0.059 A 
ATOM     66  F   UNL A   1      43.663  32.440  33.164  1.00  0.00    -0.206 F 
ATOM     67  C   UNL A   1      44.209  35.730  31.775  1.00  0.00     0.060 A 
BRANCH  67  68
ATOM     68  S   UNL A   1      44.392  37.443  32.315  1.00  0.00     0.124 S 
ATOM     69  O   UNL A   1      43.381  37.526  33.364  1.00  0.00    -0.237 OA
ATOM     70  O   UNL A   1      45.779  37.483  32.766  1.00  0.00    -0.237 OA
ATOM     71  O   UNL A   1      44.107  38.211  31.107  1.00  0.00    -0.744 OA
ENDBRANCH  67  68
ENDBRANCH  46  60
BRANCH  47  72
ATOM     72  C   UNL A   1      42.718  23.699  27.621  1.00  0.00     0.058 A 
ATOM     73  C   UNL A   1      42.827  23.426  26.249  1.00  0.00     0.135 A 
ATOM     74  C   UNL A   1      42.452  22.623  28.482  1.00  0.00     0.135 A 
ATOM     75  F   UNL A   1      43.076  24.423  25.386  1.00  0.00    -0.206 F 
ATOM     76  C   UNL A   1      42.660  22.140  25.744  1.00  0.00     0.059 A 
ATOM     77  C   UNL A   1      42.304  21.324  28.003  1.00  0.00     0.059 A 
ATOM     78  F   UNL A   1      42.358  22.827  29.804  1.00  0.00    -0.206 F 
ATOM     79  C   UNL A   1      42.398  21.095  26.630  1.00  0.00     0.060 A 
BRANCH  79  80
ATOM     80  S   UNL A   1      42.225  19.422  25.971  1.00  0.00     0.124 S 
ATOM     81  O   UNL A   1      42.695  18.616  27.091  1.00  0.00    -0.237 OA
ATOM     82  O   UNL A   1      40.795  19.350  25.687  1.00  0.00    -0.237 OA
ATOM     83  O   UNL A   1      43.089  19.436  24.794  1.00  0.00    -0.744 OA
ENDBRANCH  79  80
ENDBRANCH  47  72
BRANCH  59  84
ATOM     84  C   UNL A   1      48.234  27.367  29.799  1.00  0.00     0.058 A 
ATOM     85  C   UNL A   1      49.160  27.580  28.768  1.00  0.00     0.135 A 
ATOM     86  C   UNL A   1      48.712  26.882  31.027  1.00  0.00     0.135 A 
ATOM     87  F   UNL A   1      48.750  28.036  27.574  1.00  0.00    -0.206 F 
ATOM     88  C   UNL A   1      50.513  27.312  28.944  1.00  0.00     0.059 A 
ATOM     89  C   UNL A   1      50.064  26.629  31.233  1.00  0.00     0.059 A 
ATOM     90  F   UNL A   1      47.865  26.671  32.046  1.00  0.00    -0.206 F 
ATOM     91  C   UNL A   1      50.956  26.841  30.182  1.00  0.00     0.060 A 
BRANCH  91  92
ATOM     92  S   UNL A   1      52.721  26.547  30.415  1.00  0.00     0.124 S 
ATOM     93  O   UNL A   1      53.178  27.851  30.883  1.00  0.00    -0.237 OA
ATOM     94  O   UNL A   1      52.731  25.477  31.409  1.00  0.00    -0.237 OA
ATOM     95  O   UNL A   1      53.180  26.160  29.084  1.00  0.00    -0.744 OA
ENDBRANCH  91  92
ENDBRANCH  59  84
ENDBRANCH  33  34
ENDBRANCH  25  28
ENDBRANCH   1  24
TORSDOF 14
ENDMDL
MODEL 2
REMARK VINA RESULT:     -11.3      4.677      7.426
REMARK SMILES O=C(NCCCNC(=O)c1ccc(-c2c3nc(c(-c4c(F)cc(S(=O)(=O)[O-])cc4F)c4ccc([nH]4)c(-c4c(F)cc(S(=O)(=O)[O-])cc4F)c4nc(c(-c5c(F)cc(S(=O)(=O)[O-])cc5F)c5ccc2[nH]5)C=C4)C=C3)cc1)C1=Cc2ccc(Cl)c(Cl)c2O[C@@H]1C(F)(F)F
REMARK SMILES IDX 6 1 5 2 4 3 3 4 1 5 2 6 76 8 77 9 87 10 78 11 86 12 79 13
REMARK SMILES IDX 85 14 80 15 83 16 81 17 84 18 82 19 88 20 89 21 90 22 91 23
REMARK SMILES IDX 7 24 8 25 9 27 10 28 11 29 75 30 12 31 74 32 13 33 14 34
REMARK SMILES IDX 15 35 68 36 16 37 73 38 67 39 69 40 17 41 72 42 66 43 65 44
REMARK SMILES IDX 18 46 52 47 31 48 51 49 32 50 35 51 50 52 70 53 33 54 34 55
REMARK SMILES IDX 49 57 71 58 36 59 19 60 20 61 29 62 21 63 22 64 28 65 30 66
REMARK SMILES IDX 23 67 24 68 25 69 26 70 27 71 53 72 54 73 63 74 55 75 56 76
REMARK SMILES IDX 62 77 64 78 57 79 58 80 59 81 60 82 61 83 37 84 38 85 47 86
REMARK SMILES IDX 39 87 40 88 46 89 48 90 41 91 42 92 43 93 44 94 45 95
REMARK H PARENT 3 7 7 26 69 45 35 56
REMARK Flexibility Score: inf
ROOT
ATOM      1  C   UNL A   1      33.392  28.770  27.127  1.00  0.00     0.118 C 
ENDROOT
BRANCH   1   2
ATOM      2  C   UNL A   1      32.106  28.034  27.485  1.00  0.00     0.042 C 
BRANCH   2   3
ATOM      3  C   UNL A   1      31.628  27.117  26.367  1.00  0.00     0.118 C 
BRANCH   3   4
ATOM      4  N   UNL A   1      31.020  25.873  26.847  1.00  0.00    -0.352 N 
ATOM      5  O   UNL A   1      30.869  23.634  27.192  1.00  0.00    -0.270 OA
ATOM      6  C   UNL A   1      31.306  24.566  26.529  1.00  0.00     0.251 C 
ATOM      7  H   UNL A   1      30.293  25.991  27.501  1.00  0.00     0.163 HD
BRANCH   6   8
ATOM      8  C   UNL A   1      32.249  24.329  25.418  1.00  0.00     0.067 C 
ATOM      9  C   UNL A   1      33.529  24.070  25.709  1.00  0.00     0.025 C 
ATOM     10  C   UNL A   1      31.654  24.017  24.084  1.00  0.00     0.314 C 
ATOM     11  C   UNL A   1      34.011  22.842  25.056  1.00  0.00     0.019 A 
ATOM     12  O   UNL A   1      32.045  22.711  23.604  1.00  0.00    -0.474 OA
ATOM     13  C   UNL A   1      35.066  22.170  25.682  1.00  0.00     0.013 A 
ATOM     14  C   UNL A   1      33.178  22.146  24.150  1.00  0.00     0.148 A 
ATOM     15  C   UNL A   1      35.233  20.798  25.483  1.00  0.00     0.023 A 
ATOM     16  C   UNL A   1      33.367  20.770  23.933  1.00  0.00     0.102 A 
ATOM     17  C   UNL A   1      34.379  20.095  24.629  1.00  0.00     0.063 A 
ATOM     18  Cl  UNL A   1      32.236  19.905  22.936  1.00  0.00    -0.079 Cl
ATOM     19  Cl  UNL A   1      34.575  18.380  24.548  1.00  0.00    -0.083 Cl
BRANCH  10  20
ATOM     20  C   UNL A   1      32.004  25.103  23.055  1.00  0.00     0.429 C 
ATOM     21  F   UNL A   1      32.524  24.560  21.927  1.00  0.00    -0.167 F 
ATOM     22  F   UNL A   1      30.916  25.815  22.677  1.00  0.00    -0.167 F 
ATOM     23  F   UNL A   1      32.917  25.985  23.529  1.00  0.00    -0.167 F 
ENDBRANCH  10  20
ENDBRANCH   6   8
ENDBRANCH   3   4
ENDBRANCH   2   3
ENDBRANCH   1   2
BRANCH   1  24
ATOM     24  N   UNL A   1      33.446  30.140  27.634  1.00  0.00    -0.352 N 
ATOM     25  C   UNL A   1      34.467  30.846  28.242  1.00  0.00     0.251 C 
ATOM     26  H   UNL A   1      32.610  30.647  27.524  1.00  0.00     0.163 HD
ATOM     27  O   UNL A   1      34.250  31.968  28.670  1.00  0.00    -0.269 OA
BRANCH  25  28
ATOM     28  C   UNL A   1      35.807  30.234  28.411  1.00  0.00     0.039 A 
ATOM     29  C   UNL A   1      36.700  30.231  27.335  1.00  0.00     0.014 A 
ATOM     30  C   UNL A   1      36.193  29.681  29.630  1.00  0.00     0.014 A 
ATOM     31  C   UNL A   1      38.011  29.778  27.520  1.00  0.00     0.010 A 
ATOM     32  C   UNL A   1      37.525  29.357  29.848  1.00  0.00     0.010 A 
ATOM     33  C   UNL A   1      38.453  29.396  28.796  1.00  0.00    -0.014 A 
BRANCH  33  34
ATOM     34  C   UNL A   1      39.863  29.009  29.078  1.00  0.00     0.031 A 
ATOM     35  C   UNL A   1      40.811  30.035  29.644  1.00  0.00     0.074 A 
ATOM     36  C   UNL A   1      40.319  27.791  28.723  1.00  0.00     0.049 A 
ATOM     37  N   UNL A   1      42.113  29.989  29.756  1.00  0.00    -0.248 NA
ATOM     38  C   UNL A   1      40.218  31.308  30.091  1.00  0.00     0.031 C 
ATOM     39  C   UNL A   1      39.518  26.722  28.118  1.00  0.00     0.029 A 
ATOM     40  N   UNL A   1      41.579  27.250  28.800  1.00  0.00    -0.354 N 
ATOM     41  C   UNL A   1      42.494  31.236  30.239  1.00  0.00     0.074 A 
ATOM     42  C   UNL A   1      41.295  32.037  30.339  1.00  0.00     0.031 C 
ATOM     43  C   UNL A   1      40.298  25.649  27.908  1.00  0.00     0.029 A 
ATOM     44  C   UNL A   1      41.663  25.967  28.312  1.00  0.00     0.049 A 
ATOM     45  H   UNL A   1      42.351  27.737  29.169  1.00  0.00     0.167 HD
ATOM     46  C   UNL A   1      43.727  31.667  30.597  1.00  0.00     0.037 A 
ATOM     47  C   UNL A   1      42.723  25.144  28.192  1.00  0.00     0.037 A 
ATOM     48  C   UNL A   1      44.903  30.840  30.566  1.00  0.00     0.049 A 
ATOM     49  C   UNL A   1      44.077  25.630  28.633  1.00  0.00     0.074 A 
ATOM     50  C   UNL A   1      46.187  31.154  30.973  1.00  0.00     0.029 A 
ATOM     51  N   UNL A   1      44.932  29.527  30.119  1.00  0.00    -0.354 N 
ATOM     52  N   UNL A   1      44.414  26.802  29.117  1.00  0.00    -0.248 NA
ATOM     53  C   UNL A   1      45.197  24.684  28.514  1.00  0.00     0.031 C 
ATOM     54  C   UNL A   1      46.999  30.035  30.752  1.00  0.00     0.029 A 
ATOM     55  C   UNL A   1      46.211  29.016  30.240  1.00  0.00     0.049 A 
ATOM     56  H   UNL A   1      44.156  29.032  29.770  1.00  0.00     0.167 HD
ATOM     57  C   UNL A   1      45.776  26.726  29.384  1.00  0.00     0.074 A 
ATOM     58  C   UNL A   1      46.200  25.390  29.017  1.00  0.00     0.031 C 
ATOM     59  C   UNL A   1      46.603  27.675  29.886  1.00  0.00     0.037 A 
BRANCH  46  60
ATOM     60  C   UNL A   1      43.855  33.086  31.079  1.00  0.00     0.058 A 
ATOM     61  C   UNL A   1      43.676  33.423  32.431  1.00  0.00     0.135 A 
ATOM     62  C   UNL A   1      44.174  34.121  30.185  1.00  0.00     0.135 A 
ATOM     63  F   UNL A   1      43.352  32.477  33.325  1.00  0.00    -0.206 F 
ATOM     64  C   UNL A   1      43.769  34.739  32.872  1.00  0.00     0.059 A 
ATOM     65  C   UNL A   1      44.304  35.441  30.609  1.00  0.00     0.059 A 
ATOM     66  F   UNL A   1      44.358  33.857  28.881  1.00  0.00    -0.206 F 
ATOM     67  C   UNL A   1      44.081  35.741  31.952  1.00  0.00     0.060 A 
BRANCH  67  68
ATOM     68  S   UNL A   1      44.193  37.444  32.541  1.00  0.00     0.124 S 
ATOM     69  O   UNL A   1      43.176  37.456  33.588  1.00  0.00    -0.237 OA
ATOM     70  O   UNL A   1      45.576  37.526  33.001  1.00  0.00    -0.237 OA
ATOM     71  O   UNL A   1      43.883  38.234  31.355  1.00  0.00    -0.744 OA
ENDBRANCH  67  68
ENDBRANCH  46  60
BRANCH  47  72
ATOM     72  C   UNL A   1      42.547  23.767  27.659  1.00  0.00     0.058 A 
ATOM     73  C   UNL A   1      42.436  22.672  28.529  1.00  0.00     0.135 A 
ATOM     74  C   UNL A   1      42.479  23.514  26.280  1.00  0.00     0.135 A 
ATOM     75  F   UNL A   1      42.499  22.863  29.856  1.00  0.00    -0.206 F 
ATOM     76  C   UNL A   1      42.282  21.373  28.054  1.00  0.00     0.059 A 
ATOM     77  C   UNL A   1      42.303  22.226  25.781  1.00  0.00     0.059 A 
ATOM     78  F   UNL A   1      42.560  24.528  25.405  1.00  0.00    -0.206 F 
ATOM     79  C   UNL A   1      42.218  21.160  26.677  1.00  0.00     0.060 A 
BRANCH  79  80
ATOM     80  S   UNL A   1      41.976  19.476  26.070  1.00  0.00     0.124 S 
ATOM     81  O   UNL A   1      40.539  19.455  25.829  1.00  0.00    -0.237 OA
ATOM     82  O   UNL A   1      42.824  19.453  24.882  1.00  0.00    -0.237 OA
ATOM     83  O   UNL A   1      42.444  18.651  27.180  1.00  0.00    -0.744 OA
ENDBRANCH  79  80
ENDBRANCH  47  72
BRANCH  59  84
ATOM     84  C   UNL A   1      48.040  27.296  30.107  1.00  0.00     0.058 A 
ATOM     85  C   UNL A   1      49.018  27.522  29.127  1.00  0.00     0.135 A 
ATOM     86  C   UNL A   1      48.450  26.764  31.340  1.00  0.00     0.135 A 
ATOM     87  F   UNL A   1      48.673  28.022  27.930  1.00  0.00    -0.206 F 
ATOM     88  C   UNL A   1      50.356  27.223  29.359  1.00  0.00     0.059 A 
ATOM     89  C   UNL A   1      49.786  26.480  31.602  1.00  0.00     0.059 A 
ATOM     90  F   UNL A   1      47.552  26.539  32.311  1.00  0.00    -0.206 F 
ATOM     91  C   UNL A   1      50.730  26.706  30.601  1.00  0.00     0.060 A 
BRANCH  91  92
ATOM     92  S   UNL A   1      52.478  26.372  30.907  1.00  0.00     0.124 S 
ATOM     93  O   UNL A   1      52.880  27.564  31.646  1.00  0.00    -0.237 OA
ATOM     94  O   UNL A   1      52.428  25.133  31.680  1.00  0.00    -0.237 OA
ATOM     95  O   UNL A   1      53.039  26.243  29.566  1.00  0.00    -0.744 OA
ENDBRANCH  91  92
ENDBRANCH  59  84
ENDBRANCH  33  34
ENDBRANCH  25  28
ENDBRANCH   1  24
TORSDOF 14
ENDMDL
MODEL 3
REMARK VINA RESULT:     -11.1      5.729     12.241
REMARK SMILES O=C(NCCCNC(=O)c1ccc(-c2c3nc(c(-c4c(F)cc(S(=O)(=O)[O-])cc4F)c4ccc([nH]4)c(-c4c(F)cc(S(=O)(=O)[O-])cc4F)c4nc(c(-c5c(F)cc(S(=O)(=O)[O-])cc5F)c5ccc2[nH]5)C=C4)C=C3)cc1)C1=Cc2ccc(Cl)c(Cl)c2O[C@@H]1C(F)(F)F
REMARK SMILES IDX 6 1 5 2 4 3 3 4 1 5 2 6 76 8 77 9 87 10 78 11 86 12 79 13
REMARK SMILES IDX 85 14 80 15 83 16 81 17 84 18 82 19 88 20 89 21 90 22 91 23
REMARK SMILES IDX 7 24 8 25 9 27 10 28 11 29 75 30 12 31 74 32 13 33 14 34
REMARK SMILES IDX 15 35 68 36 16 37 73 38 67 39 69 40 17 41 72 42 66 43 65 44
REMARK SMILES IDX 18 46 52 47 31 48 51 49 32 50 35 51 50 52 70 53 33 54 34 55
REMARK SMILES IDX 49 57 71 58 36 59 19 60 20 61 29 62 21 63 22 64 28 65 30 66
REMARK SMILES IDX 23 67 24 68 25 69 26 70 27 71 53 72 54 73 63 74 55 75 56 76
REMARK SMILES IDX 62 77 64 78 57 79 58 80 59 81 60 82 61 83 37 84 38 85 47 86
REMARK SMILES IDX 39 87 40 88 46 89 48 90 41 91 42 92 43 93 44 94 45 95
REMARK H PARENT 3 7 7 26 69 45 35 56
REMARK Flexibility Score: inf
ROOT
ATOM      1  C   UNL A   1      38.291  24.024  26.339  1.00  0.00     0.118 C 
ENDROOT
BRANCH   1   2
ATOM      2  C   UNL A   1      37.475  23.254  25.307  1.00  0.00     0.042 C 
BRANCH   2   3
ATOM      3  C   UNL A   1      35.996  23.621  25.342  1.00  0.00     0.118 C 
BRANCH   3   4
ATOM      4  N   UNL A   1      35.404  23.797  24.013  1.00  0.00    -0.352 N 
ATOM      5  O   UNL A   1      34.041  24.728  22.455  1.00  0.00    -0.270 OA
ATOM      6  C   UNL A   1      34.271  24.477  23.630  1.00  0.00     0.251 C 
ATOM      7  H   UNL A   1      35.895  23.362  23.278  1.00  0.00     0.163 HD
BRANCH   6   8
ATOM      8  C   UNL A   1      33.392  24.986  24.700  1.00  0.00     0.067 C 
ATOM      9  C   UNL A   1      33.688  26.163  25.266  1.00  0.00     0.025 C 
ATOM     10  C   UNL A   1      32.041  24.360  24.819  1.00  0.00     0.314 C 
ATOM     11  C   UNL A   1      32.542  27.088  25.258  1.00  0.00     0.019 A 
ATOM     12  O   UNL A   1      30.977  25.317  24.620  1.00  0.00    -0.474 OA
ATOM     13  C   UNL A   1      32.837  28.455  25.277  1.00  0.00     0.013 A 
ATOM     14  C   UNL A   1      31.280  26.651  24.791  1.00  0.00     0.148 A 
ATOM     15  C   UNL A   1      31.926  29.371  24.750  1.00  0.00     0.023 A 
ATOM     16  C   UNL A   1      30.356  27.581  24.284  1.00  0.00     0.102 A 
ATOM     17  C   UNL A   1      30.699  28.938  24.237  1.00  0.00     0.063 A 
ATOM     18  Cl  UNL A   1      28.878  27.006  23.574  1.00  0.00    -0.079 Cl
ATOM     19  Cl  UNL A   1      29.693  30.124  23.483  1.00  0.00    -0.083 Cl
BRANCH  10  20
ATOM     20  C   UNL A   1      31.882  23.640  26.167  1.00  0.00     0.429 C 
ATOM     21  F   UNL A   1      31.231  22.460  26.018  1.00  0.00    -0.167 F 
ATOM     22  F   UNL A   1      33.077  23.355  26.735  1.00  0.00    -0.167 F 
ATOM     23  F   UNL A   1      31.177  24.373  27.061  1.00  0.00    -0.167 F 
ENDBRANCH  10  20
ENDBRANCH   6   8
ENDBRANCH   3   4
ENDBRANCH   2   3
ENDBRANCH   1   2
BRANCH   1  24
ATOM     24  N   UNL A   1      39.734  23.821  26.218  1.00  0.00    -0.352 N 
ATOM     25  C   UNL A   1      40.800  24.528  26.740  1.00  0.00     0.251 C 
ATOM     26  H   UNL A   1      39.990  23.046  25.668  1.00  0.00     0.163 HD
ATOM     27  O   UNL A   1      41.937  24.221  26.425  1.00  0.00    -0.269 OA
BRANCH  25  28
ATOM     28  C   UNL A   1      40.567  25.679  27.645  1.00  0.00     0.039 A 
ATOM     29  C   UNL A   1      39.598  25.576  28.649  1.00  0.00     0.014 A 
ATOM     30  C   UNL A   1      41.309  26.851  27.520  1.00  0.00     0.014 A 
ATOM     31  C   UNL A   1      39.462  26.602  29.591  1.00  0.00     0.010 A 
ATOM     32  C   UNL A   1      41.266  27.805  28.527  1.00  0.00     0.010 A 
ATOM     33  C   UNL A   1      40.339  27.697  29.575  1.00  0.00    -0.014 A 
BRANCH  33  34
ATOM     34  C   UNL A   1      40.314  28.764  30.613  1.00  0.00     0.031 A 
ATOM     35  C   UNL A   1      41.230  28.657  31.806  1.00  0.00     0.074 A 
ATOM     36  C   UNL A   1      39.402  29.756  30.550  1.00  0.00     0.049 A 
ATOM     37  N   UNL A   1      41.222  29.336  32.923  1.00  0.00    -0.248 NA
ATOM     38  C   UNL A   1      42.258  27.602  31.756  1.00  0.00     0.031 C 
ATOM     39  C   UNL A   1      38.422  29.946  29.476  1.00  0.00     0.029 A 
ATOM     40  N   UNL A   1      39.134  30.782  31.422  1.00  0.00    -0.354 N 
ATOM     41  C   UNL A   1      42.205  28.761  33.721  1.00  0.00     0.074 A 
ATOM     42  C   UNL A   1      42.747  27.640  32.986  1.00  0.00     0.031 C 
ATOM     43  C   UNL A   1      37.683  31.037  29.739  1.00  0.00     0.029 A 
ATOM     44  C   UNL A   1      38.099  31.594  31.022  1.00  0.00     0.049 A 
ATOM     45  H   UNL A   1      39.637  30.922  32.257  1.00  0.00     0.167 HD
ATOM     46  C   UNL A   1      42.642  29.150  34.942  1.00  0.00     0.037 A 
ATOM     47  C   UNL A   1      37.539  32.660  31.628  1.00  0.00     0.037 A 
ATOM     48  C   UNL A   1      42.150  30.312  35.634  1.00  0.00     0.049 A 
ATOM     49  C   UNL A   1      38.066  33.099  32.967  1.00  0.00     0.074 A 
ATOM     50  C   UNL A   1      42.572  30.836  36.843  1.00  0.00     0.029 A 
ATOM     51  N   UNL A   1      41.141  31.140  35.166  1.00  0.00    -0.354 N 
ATOM     52  N   UNL A   1      39.018  32.562  33.693  1.00  0.00    -0.248 NA
ATOM     53  C   UNL A   1      37.445  34.286  33.572  1.00  0.00     0.031 C 
ATOM     54  C   UNL A   1      41.801  31.972  37.116  1.00  0.00     0.029 A 
ATOM     55  C   UNL A   1      40.924  32.172  36.061  1.00  0.00     0.049 A 
ATOM     56  H   UNL A   1      40.652  31.013  34.320  1.00  0.00     0.167 HD
ATOM     57  C   UNL A   1      39.129  33.361  34.826  1.00  0.00     0.074 A 
ATOM     58  C   UNL A   1      38.153  34.423  34.685  1.00  0.00     0.031 C 
ATOM     59  C   UNL A   1      39.960  33.229  35.887  1.00  0.00     0.037 A 
BRANCH  46  60
ATOM     60  C   UNL A   1      43.721  28.327  35.590  1.00  0.00     0.058 A 
ATOM     61  C   UNL A   1      45.081  28.562  35.329  1.00  0.00     0.135 A 
ATOM     62  C   UNL A   1      43.397  27.302  36.493  1.00  0.00     0.135 A 
ATOM     63  F   UNL A   1      45.447  29.517  34.460  1.00  0.00    -0.206 F 
ATOM     64  C   UNL A   1      46.079  27.784  35.908  1.00  0.00     0.059 A 
ATOM     65  C   UNL A   1      44.379  26.532  37.109  1.00  0.00     0.059 A 
ATOM     66  F   UNL A   1      42.113  27.035  36.781  1.00  0.00    -0.206 F 
ATOM     67  C   UNL A   1      45.717  26.769  36.795  1.00  0.00     0.060 A 
BRANCH  67  68
ATOM     68  S   UNL A   1      47.024  25.766  37.534  1.00  0.00     0.124 S 
ATOM     69  O   UNL A   1      46.993  26.225  38.919  1.00  0.00    -0.237 OA
ATOM     70  O   UNL A   1      46.543  24.407  37.305  1.00  0.00    -0.237 OA
ATOM     71  O   UNL A   1      48.210  26.145  36.774  1.00  0.00    -0.744 OA
ENDBRANCH  67  68
ENDBRANCH  46  60
BRANCH  47  72
ATOM     72  C   UNL A   1      36.436  33.406  30.963  1.00  0.00     0.058 A 
ATOM     73  C   UNL A   1      35.125  33.331  31.456  1.00  0.00     0.135 A 
ATOM     74  C   UNL A   1      36.665  34.208  29.835  1.00  0.00     0.135 A 
ATOM     75  F   UNL A   1      34.856  32.572  32.530  1.00  0.00    -0.206 F 
ATOM     76  C   UNL A   1      34.074  34.009  30.845  1.00  0.00     0.059 A 
ATOM     77  C   UNL A   1      35.635  34.915  29.220  1.00  0.00     0.059 A 
ATOM     78  F   UNL A   1      37.904  34.329  29.336  1.00  0.00    -0.206 F 
ATOM     79  C   UNL A   1      34.340  34.798  29.726  1.00  0.00     0.060 A 
BRANCH  79  80
ATOM     80  S   UNL A   1      32.978  35.709  28.964  1.00  0.00     0.124 S 
ATOM     81  O   UNL A   1      33.689  36.785  28.286  1.00  0.00    -0.237 OA
ATOM     82  O   UNL A   1      32.376  34.697  28.102  1.00  0.00    -0.237 OA
ATOM     83  O   UNL A   1      32.164  36.110  30.108  1.00  0.00    -0.744 OA
ENDBRANCH  79  80
ENDBRANCH  47  72
BRANCH  59  84
ATOM     84  C   UNL A   1      39.883  34.275  36.962  1.00  0.00     0.058 A 
ATOM     85  C   UNL A   1      40.537  35.509  36.834  1.00  0.00     0.135 A 
ATOM     86  C   UNL A   1      39.087  34.064  38.100  1.00  0.00     0.135 A 
ATOM     87  F   UNL A   1      41.315  35.755  35.767  1.00  0.00    -0.206 F 
ATOM     88  C   UNL A   1      40.415  36.497  37.805  1.00  0.00     0.059 A 
ATOM     89  C   UNL A   1      38.932  35.046  39.071  1.00  0.00     0.059 A 
ATOM     90  F   UNL A   1      38.435  32.902  38.262  1.00  0.00    -0.206 F 
ATOM     91  C   UNL A   1      39.606  36.258  38.917  1.00  0.00     0.060 A 
BRANCH  91  92
ATOM     92  S   UNL A   1      39.413  37.567  40.145  1.00  0.00     0.124 S 
ATOM     93  O   UNL A   1      38.383  38.398  39.529  1.00  0.00    -0.237 OA
ATOM     94  O   UNL A   1      39.003  36.824  41.333  1.00  0.00    -0.237 OA
ATOM     95  O   UNL A   1      40.743  38.165  40.216  1.00  0.00    -0.744 OA
ENDBRANCH  91  92
ENDBRANCH  59  84
ENDBRANCH  33  34
ENDBRANCH  25  28
ENDBRANCH   1  24
TORSDOF 14
ENDMDL
