MODEL 1
REMARK VINA RESULT:     -14.4      0.000      0.000
REMARK SMILES O=C(NCCCNC(=O)[C@@H]1CC=CC[C@H]1C(=O)N1CC[NH+](Cc2ccc3c(c2)OCO3)CC1)c1ccc(-c2c3nc(c(-c4c(F)cc(S(=O)(=O)[O-])cc4F)c4ccc([nH]4)c(-c4c(F)cc(S(=O)(=O)[O-])cc4F)c4nc(c(-c5c(F)cc(S(=O)(=O)[O-])cc5F)c5ccc2[nH]5)C=C4)C=C3)cc1
REMARK SMILES IDX 5 1 4 2 3 3 1 4 2 5 34 7 35 8 99 9 36 10 98 11 37 12 38 13
REMARK SMILES IDX 39 14 92 15 40 16 97 17 91 18 93 19 41 20 96 21 90 22 89 23
REMARK SMILES IDX 42 25 76 26 55 27 75 28 56 29 59 30 74 31 94 32 57 33 58 34
REMARK SMILES IDX 73 36 95 37 60 38 43 39 44 40 53 41 45 42 46 43 52 44 54 45
REMARK SMILES IDX 47 46 48 47 49 48 50 49 51 50 77 51 78 52 87 53 79 54 80 55
REMARK SMILES IDX 86 56 88 57 81 58 82 59 83 60 84 61 85 62 61 63 62 64 71 65
REMARK SMILES IDX 63 66 64 67 70 68 72 69 65 70 66 71 67 72 68 73 69 74 6 75
REMARK SMILES IDX 7 76 8 77 9 79 10 80 11 81 15 82 12 83 14 84 13 85 16 86
REMARK SMILES IDX 17 87 18 88 19 89 33 90 20 91 32 92 21 93 22 95 23 96 24 97
REMARK SMILES IDX 28 98 25 99 27 100 26 101 29 102 31 103 30 104
REMARK H PARENT 3 6 93 24 59 35 7 78 21 94
REMARK Flexibility Score: inf
ROOT
ATOM      1  C   UNL A   1      35.309  31.428  27.920  1.00  0.00     0.042 C 
ENDROOT
BRANCH   1   2
ATOM      2  C   UNL A   1      35.038  32.347  29.068  1.00  0.00     0.118 C 
BRANCH   2   3
ATOM      3  N   UNL A   1      35.117  31.529  30.569  1.00  0.00    -0.352 N 
ATOM      4  O   UNL A   1      36.633  29.758  32.462  1.00  0.00    -0.269 OA
ATOM      5  C   UNL A   1      36.433  30.168  31.285  1.00  0.00     0.251 C 
ATOM      6  H   UNL A   1      34.394  31.762  31.197  1.00  0.00     0.163 HD
BRANCH   5   7
ATOM      7  C   UNL A   1      37.713  29.436  30.379  1.00  0.00     0.039 A 
ATOM      8  C   UNL A   1      38.687  28.632  31.014  1.00  0.00     0.014 A 
ATOM      9  C   UNL A   1      37.979  29.916  29.097  1.00  0.00     0.014 A 
ATOM     10  C   UNL A   1      39.994  28.791  30.645  1.00  0.00     0.010 A 
ATOM     11  C   UNL A   1      39.259  29.720  28.553  1.00  0.00     0.010 A 
ATOM     12  C   UNL A   1      40.291  29.200  29.353  1.00  0.00    -0.014 A 
BRANCH  12  13
ATOM     13  C   UNL A   1      41.678  28.935  28.905  1.00  0.00     0.031 A 
ATOM     14  C   UNL A   1      42.728  29.999  28.920  1.00  0.00     0.074 A 
ATOM     15  C   UNL A   1      41.982  27.663  28.555  1.00  0.00     0.049 A 
ATOM     16  N   UNL A   1      43.956  29.928  28.479  1.00  0.00    -0.248 NA
ATOM     17  C   UNL A   1      42.365  31.313  29.476  1.00  0.00     0.031 C 
ATOM     18  C   UNL A   1      41.035  26.534  28.538  1.00  0.00     0.029 A 
ATOM     19  N   UNL A   1      43.163  27.083  28.180  1.00  0.00    -0.354 N 
ATOM     20  C   UNL A   1      44.504  31.188  28.666  1.00  0.00     0.074 A 
ATOM     21  C   UNL A   1      43.465  32.017  29.242  1.00  0.00     0.031 C 
ATOM     22  C   UNL A   1      41.681  25.402  28.256  1.00  0.00     0.029 A 
ATOM     23  C   UNL A   1      43.043  25.743  27.896  1.00  0.00     0.049 A 
ATOM     24  H   UNL A   1      44.013  27.576  28.118  1.00  0.00     0.167 HD
ATOM     25  C   UNL A   1      45.760  31.601  28.377  1.00  0.00     0.037 A 
ATOM     26  C   UNL A   1      43.896  24.883  27.320  1.00  0.00     0.037 A 
ATOM     27  C   UNL A   1      46.772  30.746  27.802  1.00  0.00     0.049 A 
ATOM     28  C   UNL A   1      45.245  25.397  26.934  1.00  0.00     0.074 A 
ATOM     29  C   UNL A   1      48.075  31.065  27.462  1.00  0.00     0.029 A 
ATOM     30  N   UNL A   1      46.597  29.405  27.480  1.00  0.00    -0.354 N 
ATOM     31  N   UNL A   1      45.741  26.599  27.099  1.00  0.00    -0.248 NA
ATOM     32  C   UNL A   1      46.147  24.443  26.287  1.00  0.00     0.031 C 
ATOM     33  C   UNL A   1      48.663  29.942  26.876  1.00  0.00     0.029 A 
ATOM     34  C   UNL A   1      47.759  28.893  26.924  1.00  0.00     0.049 A 
ATOM     35  H   UNL A   1      45.768  28.893  27.626  1.00  0.00     0.167 HD
ATOM     36  C   UNL A   1      47.031  26.541  26.594  1.00  0.00     0.074 A 
ATOM     37  C   UNL A   1      47.243  25.174  26.157  1.00  0.00     0.031 C 
ATOM     38  C   UNL A   1      47.954  27.529  26.494  1.00  0.00     0.037 A 
BRANCH  25  39
ATOM     39  C   UNL A   1      46.113  33.038  28.651  1.00  0.00     0.058 A 
ATOM     40  C   UNL A   1      46.695  33.440  29.864  1.00  0.00     0.135 A 
ATOM     41  C   UNL A   1      45.934  34.019  27.659  1.00  0.00     0.135 A 
ATOM     42  F   UNL A   1      46.875  32.554  30.856  1.00  0.00    -0.206 F 
ATOM     43  C   UNL A   1      47.073  34.760  30.089  1.00  0.00     0.059 A 
ATOM     44  C   UNL A   1      46.336  35.338  27.849  1.00  0.00     0.059 A 
ATOM     45  F   UNL A   1      45.378  33.694  26.481  1.00  0.00    -0.206 F 
ATOM     46  C   UNL A   1      46.899  35.700  29.071  1.00  0.00     0.060 A 
BRANCH  46  47
ATOM     47  S   UNL A   1      47.435  37.397  29.372  1.00  0.00     0.124 S 
ATOM     48  O   UNL A   1      47.530  37.919  28.012  1.00  0.00    -0.237 OA
ATOM     49  O   UNL A   1      46.339  37.926  30.177  1.00  0.00    -0.237 OA
ATOM     50  O   UNL A   1      48.705  37.236  30.072  1.00  0.00    -0.744 OA
ENDBRANCH  46  47
ENDBRANCH  25  39
BRANCH  26  51
ATOM     51  C   UNL A   1      43.462  23.496  27.005  1.00  0.00     0.058 A 
ATOM     52  C   UNL A   1      43.329  22.530  28.012  1.00  0.00     0.135 A 
ATOM     53  C   UNL A   1      43.165  23.109  25.686  1.00  0.00     0.135 A 
ATOM     54  F   UNL A   1      43.591  22.852  29.288  1.00  0.00    -0.206 F 
ATOM     55  C   UNL A   1      42.962  21.223  27.719  1.00  0.00     0.059 A 
ATOM     56  C   UNL A   1      42.747  21.821  25.375  1.00  0.00     0.059 A 
ATOM     57  F   UNL A   1      43.246  23.999  24.684  1.00  0.00    -0.206 F 
ATOM     58  C   UNL A   1      42.672  20.879  26.397  1.00  0.00     0.060 A 
BRANCH  58  59
ATOM     59  S   UNL A   1      42.185  19.182  26.034  1.00  0.00     0.124 S 
ATOM     60  O   UNL A   1      40.762  19.339  25.756  1.00  0.00    -0.237 OA
ATOM     61  O   UNL A   1      43.030  18.863  24.887  1.00  0.00    -0.237 OA
ATOM     62  O   UNL A   1      42.513  18.467  27.264  1.00  0.00    -0.744 OA
ENDBRANCH  58  59
ENDBRANCH  26  51
BRANCH  38  63
ATOM     63  C   UNL A   1      49.293  27.141  25.932  1.00  0.00     0.058 A 
ATOM     64  C   UNL A   1      49.546  27.126  24.551  1.00  0.00     0.135 A 
ATOM     65  C   UNL A   1      50.338  26.766  26.794  1.00  0.00     0.135 A 
ATOM     66  F   UNL A   1      48.580  27.463  23.682  1.00  0.00    -0.206 F 
ATOM     67  C   UNL A   1      50.767  26.702  24.042  1.00  0.00     0.059 A 
ATOM     68  C   UNL A   1      51.583  26.387  26.307  1.00  0.00     0.059 A 
ATOM     69  F   UNL A   1      50.155  26.769  28.124  1.00  0.00    -0.206 F 
ATOM     70  C   UNL A   1      51.781  26.338  24.929  1.00  0.00     0.060 A 
BRANCH  70  71
ATOM     71  S   UNL A   1      53.364  25.802  24.253  1.00  0.00     0.124 S 
ATOM     72  O   UNL A   1      54.295  26.691  24.942  1.00  0.00    -0.237 OA
ATOM     73  O   UNL A   1      53.412  24.400  24.652  1.00  0.00    -0.237 OA
ATOM     74  O   UNL A   1      53.220  26.037  22.819  1.00  0.00    -0.744 OA
ENDBRANCH  70  71
ENDBRANCH  38  63
ENDBRANCH  12  13
ENDBRANCH   5   7
ENDBRANCH   2   3
ENDBRANCH   1   2
BRANCH   1  75
ATOM     75  C   UNL A   1      33.988  31.267  27.235  1.00  0.00     0.117 C 
BRANCH  75  76
ATOM     76  N   UNL A   1      33.267  30.100  27.635  1.00  0.00    -0.356 N 
ATOM     77  C   UNL A   1      32.269  29.507  26.926  1.00  0.00     0.224 C 
ATOM     78  H   UNL A   1      33.513  29.692  28.496  1.00  0.00     0.163 HD
ATOM     79  O   UNL A   1      31.778  28.484  27.404  1.00  0.00    -0.275 OA
BRANCH  77  80
ATOM     80  C   UNL A   1      31.779  30.158  25.607  1.00  0.00     0.095 C 
ATOM     81  C   UNL A   1      30.879  31.342  26.022  1.00  0.00     0.041 C 
ATOM     82  C   UNL A   1      31.064  29.156  24.659  1.00  0.00     0.095 C 
ATOM     83  C   UNL A   1      29.964  31.857  24.965  1.00  0.00    -0.030 C 
ATOM     84  C   UNL A   1      30.122  29.782  23.610  1.00  0.00     0.041 C 
ATOM     85  C   UNL A   1      29.611  31.146  23.895  1.00  0.00    -0.030 C 
BRANCH  82  86
ATOM     86  C   UNL A   1      31.875  28.134  23.832  1.00  0.00     0.227 C 
ATOM     87  O   UNL A   1      32.386  28.499  22.767  1.00  0.00    -0.275 OA
ATOM     88  N   UNL A   1      32.169  26.876  24.380  1.00  0.00    -0.331 N 
ATOM     89  C   UNL A   1      33.458  26.316  23.992  1.00  0.00     0.181 C 
ATOM     90  C   UNL A   1      31.142  25.868  24.686  1.00  0.00     0.181 C 
ATOM     91  C   UNL A   1      33.856  25.057  24.791  1.00  0.00     0.284 C 
ATOM     92  C   UNL A   1      31.596  24.655  25.495  1.00  0.00     0.284 C 
ATOM     93  N   UNL A   1      32.817  24.038  24.982  1.00  0.00    -0.328 N 
ATOM     94  H   UNL A   1      33.181  23.415  25.703  1.00  0.00     0.348 HD
BRANCH  93  95
ATOM     95  C   UNL A   1      32.640  23.018  23.932  1.00  0.00     0.299 C 
BRANCH  95  96
ATOM     96  C   UNL A   1      33.149  21.587  24.184  1.00  0.00     0.010 A 
ATOM     97  C   UNL A   1      34.502  21.479  24.885  1.00  0.00     0.013 A 
ATOM     98  C   UNL A   1      32.355  20.480  23.726  1.00  0.00     0.060 A 
ATOM     99  C   UNL A   1      35.314  20.330  25.094  1.00  0.00     0.051 A 
ATOM    100  C   UNL A   1      33.050  19.334  23.907  1.00  0.00     0.166 A 
ATOM    101  C   UNL A   1      34.648  19.260  24.625  1.00  0.00     0.165 A 
ATOM    102  O   UNL A   1      32.527  17.639  23.371  1.00  0.00    -0.454 OA
ATOM    103  O   UNL A   1      35.312  17.546  24.629  1.00  0.00    -0.454 OA
ATOM    104  C   UNL A   1      33.981  16.343  23.876  1.00  0.00     0.468 C 
ENDBRANCH  95  96
ENDBRANCH  93  95
ENDBRANCH  82  86
ENDBRANCH  77  80
ENDBRANCH  75  76
ENDBRANCH   1  75
TORSDOF 16
ENDMDL
MODEL 2
REMARK VINA RESULT:     -14.3      1.287      2.096
REMARK SMILES O=C(NCCCNC(=O)[C@@H]1CC=CC[C@H]1C(=O)N1CC[NH+](Cc2ccc3c(c2)OCO3)CC1)c1ccc(-c2c3nc(c(-c4c(F)cc(S(=O)(=O)[O-])cc4F)c4ccc([nH]4)c(-c4c(F)cc(S(=O)(=O)[O-])cc4F)c4nc(c(-c5c(F)cc(S(=O)(=O)[O-])cc5F)c5ccc2[nH]5)C=C4)C=C3)cc1
REMARK SMILES IDX 5 1 4 2 3 3 1 4 2 5 34 7 35 8 99 9 36 10 98 11 37 12 38 13
REMARK SMILES IDX 39 14 92 15 40 16 97 17 91 18 93 19 41 20 96 21 90 22 89 23
REMARK SMILES IDX 42 25 76 26 55 27 75 28 56 29 59 30 74 31 94 32 57 33 58 34
REMARK SMILES IDX 73 36 95 37 60 38 43 39 44 40 53 41 45 42 46 43 52 44 54 45
REMARK SMILES IDX 47 46 48 47 49 48 50 49 51 50 77 51 78 52 87 53 79 54 80 55
REMARK SMILES IDX 86 56 88 57 81 58 82 59 83 60 84 61 85 62 61 63 62 64 71 65
REMARK SMILES IDX 63 66 64 67 70 68 72 69 65 70 66 71 67 72 68 73 69 74 6 75
REMARK SMILES IDX 7 76 8 77 9 79 10 80 11 81 15 82 12 83 14 84 13 85 16 86
REMARK SMILES IDX 17 87 18 88 19 89 33 90 20 91 32 92 21 93 22 95 23 96 24 97
REMARK SMILES IDX 28 98 25 99 27 100 26 101 29 102 31 103 30 104
REMARK H PARENT 3 6 93 24 59 35 7 78 21 94
REMARK Flexibility Score: inf
ROOT
ATOM      1  C   UNL A   1      32.608  30.465  26.274  1.00  0.00     0.042 C 
ENDROOT
BRANCH   1   2
ATOM      2  C   UNL A   1      33.805  29.769  26.836  1.00  0.00     0.118 C 
BRANCH   2   3
ATOM      3  N   UNL A   1      34.290  30.443  28.333  1.00  0.00    -0.352 N 
ATOM      4  O   UNL A   1      36.486  31.106  30.270  1.00  0.00    -0.269 OA
ATOM      5  C   UNL A   1      36.065  30.411  29.304  1.00  0.00     0.251 C 
ATOM      6  H   UNL A   1      33.578  30.933  28.806  1.00  0.00     0.163 HD
BRANCH   5   7
ATOM      7  C   UNL A   1      37.459  29.507  28.819  1.00  0.00     0.039 A 
ATOM      8  C   UNL A   1      38.313  28.916  29.778  1.00  0.00     0.014 A 
ATOM      9  C   UNL A   1      37.924  29.652  27.513  1.00  0.00     0.014 A 
ATOM     10  C   UNL A   1      39.663  29.009  29.583  1.00  0.00     0.010 A 
ATOM     11  C   UNL A   1      39.269  29.357  27.237  1.00  0.00     0.010 A 
ATOM     12  C   UNL A   1      40.160  29.085  28.289  1.00  0.00    -0.014 A 
BRANCH  12  13
ATOM     13  C   UNL A   1      41.595  28.750  28.139  1.00  0.00     0.031 A 
ATOM     14  C   UNL A   1      42.665  29.785  28.283  1.00  0.00     0.074 A 
ATOM     15  C   UNL A   1      41.910  27.447  27.946  1.00  0.00     0.049 A 
ATOM     16  N   UNL A   1      43.951  29.648  28.095  1.00  0.00    -0.248 NA
ATOM     17  C   UNL A   1      42.255  31.146  28.664  1.00  0.00     0.031 C 
ATOM     18  C   UNL A   1      40.939  26.345  27.824  1.00  0.00     0.029 A 
ATOM     19  N   UNL A   1      43.117  26.811  27.848  1.00  0.00    -0.354 N 
ATOM     20  C   UNL A   1      44.503  30.904  28.296  1.00  0.00     0.074 A 
ATOM     21  C   UNL A   1      43.407  31.802  28.599  1.00  0.00     0.031 C 
ATOM     22  C   UNL A   1      41.581  25.179  27.754  1.00  0.00     0.029 A 
ATOM     23  C   UNL A   1      42.999  25.456  27.642  1.00  0.00     0.049 A 
ATOM     24  H   UNL A   1      43.981  27.275  27.919  1.00  0.00     0.167 HD
ATOM     25  C   UNL A   1      45.807  31.262  28.228  1.00  0.00     0.037 A 
ATOM     26  C   UNL A   1      43.912  24.532  27.304  1.00  0.00     0.037 A 
ATOM     27  C   UNL A   1      46.874  30.339  27.922  1.00  0.00     0.049 A 
ATOM     28  C   UNL A   1      45.329  24.980  27.152  1.00  0.00     0.074 A 
ATOM     29  C   UNL A   1      48.230  30.598  27.820  1.00  0.00     0.029 A 
ATOM     30  N   UNL A   1      46.711  28.982  27.668  1.00  0.00    -0.354 N 
ATOM     31  N   UNL A   1      45.832  26.179  27.325  1.00  0.00    -0.248 NA
ATOM     32  C   UNL A   1      46.299  23.957  26.762  1.00  0.00     0.031 C 
ATOM     33  C   UNL A   1      48.875  29.418  27.440  1.00  0.00     0.029 A 
ATOM     34  C   UNL A   1      47.937  28.400  27.385  1.00  0.00     0.049 A 
ATOM     35  H   UNL A   1      45.850  28.505  27.685  1.00  0.00     0.167 HD
ATOM     36  C   UNL A   1      47.192  26.048  27.086  1.00  0.00     0.074 A 
ATOM     37  C   UNL A   1      47.428  24.648  26.796  1.00  0.00     0.031 C 
ATOM     38  C   UNL A   1      48.155  27.002  27.098  1.00  0.00     0.037 A 
BRANCH  25  39
ATOM     39  C   UNL A   1      46.158  32.706  28.464  1.00  0.00     0.058 A 
ATOM     40  C   UNL A   1      46.503  33.187  29.737  1.00  0.00     0.135 A 
ATOM     41  C   UNL A   1      46.220  33.610  27.388  1.00  0.00     0.135 A 
ATOM     42  F   UNL A   1      46.445  32.377  30.806  1.00  0.00    -0.206 F 
ATOM     43  C   UNL A   1      46.884  34.509  29.938  1.00  0.00     0.059 A 
ATOM     44  C   UNL A   1      46.631  34.929  27.560  1.00  0.00     0.059 A 
ATOM     45  F   UNL A   1      45.896  33.209  26.149  1.00  0.00    -0.206 F 
ATOM     46  C   UNL A   1      46.955  35.371  28.841  1.00  0.00     0.060 A 
BRANCH  46  47
ATOM     47  S   UNL A   1      47.490  37.071  29.121  1.00  0.00     0.124 S 
ATOM     48  O   UNL A   1      46.459  37.557  30.032  1.00  0.00    -0.237 OA
ATOM     49  O   UNL A   1      48.814  36.883  29.706  1.00  0.00    -0.237 OA
ATOM     50  O   UNL A   1      47.474  37.660  27.785  1.00  0.00    -0.744 OA
ENDBRANCH  46  47
ENDBRANCH  25  39
BRANCH  26  51
ATOM     51  C   UNL A   1      43.491  23.137  27.010  1.00  0.00     0.058 A 
ATOM     52  C   UNL A   1      43.121  22.258  28.036  1.00  0.00     0.135 A 
ATOM     53  C   UNL A   1      43.445  22.655  25.689  1.00  0.00     0.135 A 
ATOM     54  F   UNL A   1      43.139  22.672  29.313  1.00  0.00    -0.206 F 
ATOM     55  C   UNL A   1      42.765  20.941  27.771  1.00  0.00     0.059 A 
ATOM     56  C   UNL A   1      43.043  21.359  25.394  1.00  0.00     0.059 A 
ATOM     57  F   UNL A   1      43.759  23.461  24.662  1.00  0.00    -0.206 F 
ATOM     58  C   UNL A   1      42.728  20.502  26.445  1.00  0.00     0.060 A 
BRANCH  58  59
ATOM     59  S   UNL A   1      42.252  18.795  26.115  1.00  0.00     0.124 S 
ATOM     60  O   UNL A   1      43.132  18.456  25.003  1.00  0.00    -0.237 OA
ATOM     61  O   UNL A   1      42.549  18.147  27.389  1.00  0.00    -0.237 OA
ATOM     62  O   UNL A   1      40.833  18.898  25.789  1.00  0.00    -0.744 OA
ENDBRANCH  58  59
ENDBRANCH  26  51
BRANCH  38  63
ATOM     63  C   UNL A   1      49.561  26.538  26.836  1.00  0.00     0.058 A 
ATOM     64  C   UNL A   1      50.448  26.223  27.878  1.00  0.00     0.135 A 
ATOM     65  C   UNL A   1      50.030  26.417  25.518  1.00  0.00     0.135 A 
ATOM     66  F   UNL A   1      50.056  26.332  29.158  1.00  0.00    -0.206 F 
ATOM     67  C   UNL A   1      51.764  25.858  27.625  1.00  0.00     0.059 A 
ATOM     68  C   UNL A   1      51.328  26.005  25.240  1.00  0.00     0.059 A 
ATOM     69  F   UNL A   1      49.223  26.697  24.482  1.00  0.00    -0.206 F 
ATOM     70  C   UNL A   1      52.194  25.749  26.301  1.00  0.00     0.060 A 
BRANCH  70  71
ATOM     71  S   UNL A   1      53.901  25.262  25.989  1.00  0.00     0.124 S 
ATOM     72  O   UNL A   1      53.724  23.974  25.326  1.00  0.00    -0.237 OA
ATOM     73  O   UNL A   1      54.383  26.349  25.144  1.00  0.00    -0.237 OA
ATOM     74  O   UNL A   1      54.490  25.204  27.324  1.00  0.00    -0.744 OA
ENDBRANCH  70  71
ENDBRANCH  38  63
ENDBRANCH  12  13
ENDBRANCH   5   7
ENDBRANCH   2   3
ENDBRANCH   1   2
BRANCH   1  75
ATOM     75  C   UNL A   1      32.125  29.574  25.172  1.00  0.00     0.117 C 
BRANCH  75  76
ATOM     76  N   UNL A   1      33.121  29.269  24.196  1.00  0.00    -0.356 N 
ATOM     77  C   UNL A   1      32.882  28.767  22.954  1.00  0.00     0.224 C 
ATOM     78  H   UNL A   1      34.059  29.434  24.443  1.00  0.00     0.163 HD
ATOM     79  O   UNL A   1      33.860  28.596  22.225  1.00  0.00    -0.275 OA
BRANCH  77  80
ATOM     80  C   UNL A   1      31.432  28.404  22.544  1.00  0.00     0.095 C 
ATOM     81  C   UNL A   1      30.745  29.736  22.174  1.00  0.00     0.041 C 
ATOM     82  C   UNL A   1      30.668  27.611  23.640  1.00  0.00     0.095 C 
ATOM     83  C   UNL A   1      29.256  29.709  22.155  1.00  0.00    -0.030 C 
ATOM     84  C   UNL A   1      29.128  27.658  23.549  1.00  0.00     0.041 C 
ATOM     85  C   UNL A   1      28.533  28.787  22.790  1.00  0.00    -0.030 C 
BRANCH  82  86
ATOM     86  C   UNL A   1      30.955  26.112  23.878  1.00  0.00     0.227 C 
ATOM     87  O   UNL A   1      30.099  25.282  23.559  1.00  0.00    -0.275 OA
ATOM     88  N   UNL A   1      32.239  25.709  24.278  1.00  0.00    -0.331 N 
ATOM     89  C   UNL A   1      32.672  24.417  23.761  1.00  0.00     0.181 C 
ATOM     90  C   UNL A   1      32.829  26.066  25.578  1.00  0.00     0.181 C 
ATOM     91  C   UNL A   1      34.163  24.111  24.018  1.00  0.00     0.284 C 
ATOM     92  C   UNL A   1      34.313  25.755  25.762  1.00  0.00     0.284 C 
ATOM     93  N   UNL A   1      34.676  24.397  25.363  1.00  0.00    -0.328 N 
ATOM     94  H   UNL A   1      35.691  24.355  25.277  1.00  0.00     0.348 HD
BRANCH  93  95
ATOM     95  C   UNL A   1      34.536  23.354  26.397  1.00  0.00     0.299 C 
BRANCH  95  96
ATOM     96  C   UNL A   1      34.526  21.875  25.972  1.00  0.00     0.010 A 
ATOM     97  C   UNL A   1      35.883  21.283  25.596  1.00  0.00     0.013 A 
ATOM     98  C   UNL A   1      33.269  21.178  25.926  1.00  0.00     0.060 A 
ATOM     99  C   UNL A   1      36.178  20.027  25.000  1.00  0.00     0.051 A 
ATOM    100  C   UNL A   1      33.463  19.954  25.384  1.00  0.00     0.166 A 
ATOM    101  C   UNL A   1      35.026  19.347  24.871  1.00  0.00     0.165 A 
ATOM    102  O   UNL A   1      32.149  18.710  24.990  1.00  0.00    -0.454 OA
ATOM    103  O   UNL A   1      34.889  17.681  24.106  1.00  0.00    -0.454 OA
ATOM    104  C   UNL A   1      33.033  17.099  24.168  1.00  0.00     0.468 C 
ENDBRANCH  95  96
ENDBRANCH  93  95
ENDBRANCH  82  86
ENDBRANCH  77  80
ENDBRANCH  75  76
ENDBRANCH   1  75
TORSDOF 16
ENDMDL
MODEL 3
REMARK VINA RESULT:     -13.7      6.356     10.366
REMARK SMILES O=C(NCCCNC(=O)[C@@H]1CC=CC[C@H]1C(=O)N1CC[NH+](Cc2ccc3c(c2)OCO3)CC1)c1ccc(-c2c3nc(c(-c4c(F)cc(S(=O)(=O)[O-])cc4F)c4ccc([nH]4)c(-c4c(F)cc(S(=O)(=O)[O-])cc4F)c4nc(c(-c5c(F)cc(S(=O)(=O)[O-])cc5F)c5ccc2[nH]5)C=C4)C=C3)cc1
REMARK SMILES IDX 5 1 4 2 3 3 1 4 2 5 34 7 35 8 99 9 36 10 98 11 37 12 38 13
REMARK SMILES IDX 39 14 92 15 40 16 97 17 91 18 93 19 41 20 96 21 90 22 89 23
REMARK SMILES IDX 42 25 76 26 55 27 75 28 56 29 59 30 74 31 94 32 57 33 58 34
REMARK SMILES IDX 73 36 95 37 60 38 43 39 44 40 53 41 45 42 46 43 52 44 54 45
REMARK SMILES IDX 47 46 48 47 49 48 50 49 51 50 77 51 78 52 87 53 79 54 80 55
REMARK SMILES IDX 86 56 88 57 81 58 82 59 83 60 84 61 85 62 61 63 62 64 71 65
REMARK SMILES IDX 63 66 64 67 70 68 72 69 65 70 66 71 67 72 68 73 69 74 6 75
REMARK SMILES IDX 7 76 8 77 9 79 10 80 11 81 15 82 12 83 14 84 13 85 16 86
REMARK SMILES IDX 17 87 18 88 19 89 33 90 20 91 32 92 21 93 22 95 23 96 24 97
REMARK SMILES IDX 28 98 25 99 27 100 26 101 29 102 31 103 30 104
REMARK H PARENT 3 6 93 24 59 35 7 78 21 94
REMARK Flexibility Score: inf
ROOT
ATOM      1  C   UNL A   1      34.273  32.258  28.425  1.00  0.00     0.042 C 
ENDROOT
BRANCH   1   2
ATOM      2  C   UNL A   1      33.996  33.580  27.785  1.00  0.00     0.118 C 
BRANCH   2   3
ATOM      3  N   UNL A   1      33.014  34.572  28.775  1.00  0.00    -0.352 N 
ATOM      4  O   UNL A   1      32.601  36.012  31.378  1.00  0.00    -0.269 OA
ATOM      5  C   UNL A   1      33.174  35.098  30.723  1.00  0.00     0.251 C 
ATOM      6  H   UNL A   1      32.230  34.955  28.316  1.00  0.00     0.163 HD
BRANCH   5   7
ATOM      7  C   UNL A   1      34.338  34.470  31.840  1.00  0.00     0.039 A 
ATOM      8  C   UNL A   1      35.490  35.212  32.186  1.00  0.00     0.014 A 
ATOM      9  C   UNL A   1      34.314  33.105  32.128  1.00  0.00     0.014 A 
ATOM     10  C   UNL A   1      36.683  34.551  32.264  1.00  0.00     0.010 A 
ATOM     11  C   UNL A   1      35.487  32.493  32.598  1.00  0.00     0.010 A 
ATOM     12  C   UNL A   1      36.696  33.209  32.617  1.00  0.00    -0.014 A 
BRANCH  12  13
ATOM     13  C   UNL A   1      37.998  32.690  33.096  1.00  0.00     0.031 A 
ATOM     14  C   UNL A   1      38.901  31.891  32.211  1.00  0.00     0.074 A 
ATOM     15  C   UNL A   1      38.380  33.037  34.347  1.00  0.00     0.049 A 
ATOM     16  N   UNL A   1      40.027  31.307  32.523  1.00  0.00    -0.248 NA
ATOM     17  C   UNL A   1      38.495  31.701  30.808  1.00  0.00     0.031 C 
ATOM     18  C   UNL A   1      37.585  33.846  35.287  1.00  0.00     0.029 A 
ATOM     19  N   UNL A   1      39.532  32.793  35.044  1.00  0.00    -0.354 N 
ATOM     20  C   UNL A   1      40.449  30.649  31.377  1.00  0.00     0.074 A 
ATOM     21  C   UNL A   1      39.444  30.887  30.362  1.00  0.00     0.031 C 
ATOM     22  C   UNL A   1      38.297  34.097  36.386  1.00  0.00     0.029 A 
ATOM     23  C   UNL A   1      39.519  33.323  36.313  1.00  0.00     0.049 A 
ATOM     24  H   UNL A   1      40.292  32.289  34.675  1.00  0.00     0.167 HD
ATOM     25  C   UNL A   1      41.573  29.915  31.203  1.00  0.00     0.037 A 
ATOM     26  C   UNL A   1      40.347  33.141  37.353  1.00  0.00     0.037 A 
ATOM     27  C   UNL A   1      42.555  29.698  32.240  1.00  0.00     0.049 A 
ATOM     28  C   UNL A   1      41.532  32.254  37.151  1.00  0.00     0.074 A 
ATOM     29  C   UNL A   1      43.727  28.965  32.173  1.00  0.00     0.029 A 
ATOM     30  N   UNL A   1      42.482  30.210  33.530  1.00  0.00    -0.354 N 
ATOM     31  N   UNL A   1      41.906  31.622  36.065  1.00  0.00    -0.248 NA
ATOM     32  C   UNL A   1      42.406  32.057  38.308  1.00  0.00     0.031 C 
ATOM     33  C   UNL A   1      44.325  28.977  33.436  1.00  0.00     0.029 A 
ATOM     34  C   UNL A   1      43.575  29.786  34.273  1.00  0.00     0.049 A 
ATOM     35  H   UNL A   1      41.760  30.788  33.868  1.00  0.00     0.167 HD
ATOM     36  C   UNL A   1      43.079  30.964  36.403  1.00  0.00     0.074 A 
ATOM     37  C   UNL A   1      43.365  31.312  37.781  1.00  0.00     0.031 C 
ATOM     38  C   UNL A   1      43.845  30.142  35.645  1.00  0.00     0.037 A 
BRANCH  25  39
ATOM     39  C   UNL A   1      41.800  29.274  29.861  1.00  0.00     0.058 A 
ATOM     40  C   UNL A   1      41.225  28.039  29.524  1.00  0.00     0.135 A 
ATOM     41  C   UNL A   1      42.544  29.938  28.869  1.00  0.00     0.135 A 
ATOM     42  F   UNL A   1      40.520  27.348  30.433  1.00  0.00    -0.206 F 
ATOM     43  C   UNL A   1      41.390  27.479  28.261  1.00  0.00     0.059 A 
ATOM     44  C   UNL A   1      42.693  29.414  27.589  1.00  0.00     0.059 A 
ATOM     45  F   UNL A   1      43.120  31.121  29.136  1.00  0.00    -0.206 F 
ATOM     46  C   UNL A   1      42.117  28.179  27.296  1.00  0.00     0.060 A 
BRANCH  46  47
ATOM     47  S   UNL A   1      42.283  27.452  25.653  1.00  0.00     0.124 S 
ATOM     48  O   UNL A   1      41.135  26.552  25.614  1.00  0.00    -0.237 OA
ATOM     49  O   UNL A   1      42.197  28.625  24.789  1.00  0.00    -0.237 OA
ATOM     50  O   UNL A   1      43.589  26.801  25.696  1.00  0.00    -0.744 OA
ENDBRANCH  46  47
ENDBRANCH  25  39
BRANCH  26  51
ATOM     51  C   UNL A   1      40.028  33.740  38.677  1.00  0.00     0.058 A 
ATOM     52  C   UNL A   1      40.615  34.943  39.090  1.00  0.00     0.135 A 
ATOM     53  C   UNL A   1      39.122  33.120  39.555  1.00  0.00     0.135 A 
ATOM     54  F   UNL A   1      41.480  35.579  38.284  1.00  0.00    -0.206 F 
ATOM     55  C   UNL A   1      40.352  35.487  40.341  1.00  0.00     0.059 A 
ATOM     56  C   UNL A   1      38.803  33.671  40.790  1.00  0.00     0.059 A 
ATOM     57  F   UNL A   1      38.505  31.981  39.200  1.00  0.00    -0.206 F 
ATOM     58  C   UNL A   1      39.442  34.843  41.183  1.00  0.00     0.060 A 
BRANCH  58  59
ATOM     59  S   UNL A   1      39.101  35.567  42.798  1.00  0.00     0.124 S 
ATOM     60  O   UNL A   1      39.943  34.753  43.667  1.00  0.00    -0.237 OA
ATOM     61  O   UNL A   1      39.526  36.950  42.606  1.00  0.00    -0.237 OA
ATOM     62  O   UNL A   1      37.662  35.377  42.955  1.00  0.00    -0.744 OA
ENDBRANCH  58  59
ENDBRANCH  26  51
BRANCH  38  63
ATOM     63  C   UNL A   1      45.095  29.609  36.288  1.00  0.00     0.058 A 
ATOM     64  C   UNL A   1      45.109  28.397  36.997  1.00  0.00     0.135 A 
ATOM     65  C   UNL A   1      46.296  30.331  36.203  1.00  0.00     0.135 A 
ATOM     66  F   UNL A   1      43.985  27.671  37.121  1.00  0.00    -0.206 F 
ATOM     67  C   UNL A   1      46.254  27.947  37.643  1.00  0.00     0.059 A 
ATOM     68  C   UNL A   1      47.466  29.874  36.799  1.00  0.00     0.059 A 
ATOM     69  F   UNL A   1      46.343  31.492  35.531  1.00  0.00    -0.206 F 
ATOM     70  C   UNL A   1      47.428  28.692  37.535  1.00  0.00     0.060 A 
BRANCH  70  71
ATOM     71  S   UNL A   1      48.909  28.089  38.368  1.00  0.00     0.124 S 
ATOM     72  O   UNL A   1      48.351  27.090  39.274  1.00  0.00    -0.237 OA
ATOM     73  O   UNL A   1      49.697  27.567  37.257  1.00  0.00    -0.237 OA
ATOM     74  O   UNL A   1      49.451  29.283  39.009  1.00  0.00    -0.744 OA
ENDBRANCH  70  71
ENDBRANCH  38  63
ENDBRANCH  12  13
ENDBRANCH   5   7
ENDBRANCH   2   3
ENDBRANCH   1   2
BRANCH   1  75
ATOM     75  C   UNL A   1      34.097  31.255  27.328  1.00  0.00     0.117 C 
BRANCH  75  76
ATOM     76  N   UNL A   1      33.359  30.096  27.716  1.00  0.00    -0.356 N 
ATOM     77  C   UNL A   1      32.343  29.533  27.007  1.00  0.00     0.224 C 
ATOM     78  H   UNL A   1      33.605  29.669  28.567  1.00  0.00     0.163 HD
ATOM     79  O   UNL A   1      31.838  28.511  27.473  1.00  0.00    -0.275 OA
BRANCH  77  80
ATOM     80  C   UNL A   1      31.853  30.214  25.703  1.00  0.00     0.095 C 
ATOM     81  C   UNL A   1      30.963  31.395  26.145  1.00  0.00     0.041 C 
ATOM     82  C   UNL A   1      31.128  29.236  24.738  1.00  0.00     0.095 C 
ATOM     83  C   UNL A   1      30.048  31.938  25.103  1.00  0.00    -0.030 C 
ATOM     84  C   UNL A   1      30.186  29.891  23.705  1.00  0.00     0.041 C 
ATOM     85  C   UNL A   1      29.686  31.252  24.019  1.00  0.00    -0.030 C 
BRANCH  82  86
ATOM     86  C   UNL A   1      31.929  28.226  23.887  1.00  0.00     0.227 C 
ATOM     87  O   UNL A   1      32.431  28.606  22.824  1.00  0.00    -0.275 OA
ATOM     88  N   UNL A   1      32.224  26.958  24.412  1.00  0.00    -0.331 N 
ATOM     89  C   UNL A   1      33.507  26.401  24.004  1.00  0.00     0.181 C 
ATOM     90  C   UNL A   1      31.195  25.949  24.709  1.00  0.00     0.181 C 
ATOM     91  C   UNL A   1      33.908  25.127  24.778  1.00  0.00     0.284 C 
ATOM     92  C   UNL A   1      31.652  24.721  25.495  1.00  0.00     0.284 C 
ATOM     93  N   UNL A   1      32.867  24.109  24.961  1.00  0.00    -0.328 N 
ATOM     94  H   UNL A   1      33.236  23.473  25.669  1.00  0.00     0.348 HD
BRANCH  93  95
ATOM     95  C   UNL A   1      32.678  23.106  23.896  1.00  0.00     0.299 C 
BRANCH  95  96
ATOM     96  C   UNL A   1      33.151  21.661  24.135  1.00  0.00     0.010 A 
ATOM     97  C   UNL A   1      34.496  21.512  24.842  1.00  0.00     0.013 A 
ATOM     98  C   UNL A   1      32.332  20.579  23.660  1.00  0.00     0.060 A 
ATOM     99  C   UNL A   1      35.278  20.341  25.043  1.00  0.00     0.051 A 
ATOM    100  C   UNL A   1      32.998  19.414  23.832  1.00  0.00     0.166 A 
ATOM    101  C   UNL A   1      34.590  19.294  24.559  1.00  0.00     0.165 A 
ATOM    102  O   UNL A   1      32.438  17.739  23.275  1.00  0.00    -0.454 OA
ATOM    103  O   UNL A   1      35.212  17.564  24.547  1.00  0.00    -0.454 OA
ATOM    104  C   UNL A   1      33.856  16.402  23.772  1.00  0.00     0.468 C 
ENDBRANCH  95  96
ENDBRANCH  93  95
ENDBRANCH  82  86
ENDBRANCH  77  80
ENDBRANCH  75  76
ENDBRANCH   1  75
TORSDOF 16
ENDMDL
