MODEL 1
REMARK VINA RESULT:     -11.0      0.000      0.000
REMARK SMILES CC[C@H](C)[C@H](NC(=O)N1CCCCC1)C(=O)NCCCNC(=O)c1ccc(-c2c3nc(c(-c4c(F)cc(S(=O)(=O)[O-])cc4F)c4ccc([nH]4)c(-c4c(F)cc(S(=O)(=O)[O-])cc4F)c4nc(c(-c5c(F)cc(S(=O)(=O)[O-])cc5F)c5ccc2[nH]5)C=C4)C=C3)cc1
REMARK SMILES IDX 19 1 18 2 17 3 15 4 16 5 5 7 3 8 4 9 2 10 1 11 6 12 7 13
REMARK SMILES IDX 8 15 9 16 10 17 14 18 11 19 13 20 12 21 20 22 21 23 22 24
REMARK SMILES IDX 23 26 24 27 25 28 89 29 26 30 88 31 27 32 28 33 29 34 82 35
REMARK SMILES IDX 30 36 87 37 81 38 83 39 31 40 86 41 80 42 79 43 32 45 66 46
REMARK SMILES IDX 45 47 65 48 46 49 49 50 64 51 84 52 47 53 48 54 63 56 85 57
REMARK SMILES IDX 50 58 33 59 34 60 43 61 35 62 36 63 42 64 44 65 37 66 38 67
REMARK SMILES IDX 39 68 40 69 41 70 67 71 68 72 77 73 69 74 70 75 76 76 78 77
REMARK SMILES IDX 71 78 72 79 73 80 74 81 75 82 51 83 52 84 61 85 53 86 54 87
REMARK SMILES IDX 60 88 62 89 55 90 56 91 57 92 58 93 59 94
REMARK H PARENT 17 6 6 14 21 25 83 44 49 55
REMARK Flexibility Score: inf
ROOT
ATOM      1  C   UNL A   1      32.896  27.685  26.776  1.00  0.00     0.042 C 
ENDROOT
BRANCH   1   2
ATOM      2  C   UNL A   1      32.421  26.503  25.958  1.00  0.00     0.117 C 
BRANCH   2   3
ATOM      3  N   UNL A   1      31.321  25.734  26.508  1.00  0.00    -0.354 N 
ATOM      4  C   UNL A   1      31.102  24.384  26.392  1.00  0.00     0.242 C 
ATOM      5  O   UNL A   1      30.223  23.870  27.091  1.00  0.00    -0.273 OA
ATOM      6  H   UNL A   1      30.652  26.240  27.025  1.00  0.00     0.163 HD
BRANCH   4   7
ATOM      7  C   UNL A   1      32.026  23.522  25.507  1.00  0.00     0.176 C 
BRANCH   7   8
ATOM      8  C   UNL A   1      31.281  23.175  24.143  1.00  0.00     0.018 C 
ATOM      9  C   UNL A   1      30.490  24.337  23.534  1.00  0.00     0.010 C 
BRANCH   8  10
ATOM     10  C   UNL A   1      32.042  22.385  23.032  1.00  0.00     0.002 C 
ATOM     11  C   UNL A   1      33.188  23.088  22.303  1.00  0.00     0.004 C 
ENDBRANCH   8  10
ENDBRANCH   7   8
BRANCH   7  12
ATOM     12  N   UNL A   1      32.680  22.384  26.199  1.00  0.00    -0.326 N 
ATOM     13  C   UNL A   1      33.739  21.622  25.803  1.00  0.00     0.318 C 
ATOM     14  H   UNL A   1      32.293  22.146  27.072  1.00  0.00     0.166 HD
ATOM     15  O   UNL A   1      33.568  20.402  25.891  1.00  0.00    -0.249 OA
ATOM     16  N   UNL A   1      34.926  22.161  25.371  1.00  0.00    -0.325 N 
ATOM     17  C   UNL A   1      35.911  21.286  24.718  1.00  0.00     0.121 C 
ATOM     18  C   UNL A   1      35.370  23.533  25.540  1.00  0.00     0.121 C 
ATOM     19  C   UNL A   1      37.315  21.403  25.323  1.00  0.00     0.022 C 
ATOM     20  C   UNL A   1      36.763  23.672  26.146  1.00  0.00     0.022 C 
ATOM     21  C   UNL A   1      37.781  22.854  25.379  1.00  0.00     0.004 C 
ENDBRANCH   7  12
ENDBRANCH   4   7
ENDBRANCH   2   3
ENDBRANCH   1   2
BRANCH   1  22
ATOM     22  C   UNL A   1      33.927  28.541  26.074  1.00  0.00     0.118 C 
BRANCH  22  23
ATOM     23  N   UNL A   1      33.808  29.953  26.417  1.00  0.00    -0.352 N 
ATOM     24  C   UNL A   1      34.498  30.727  27.318  1.00  0.00     0.251 C 
ATOM     25  H   UNL A   1      33.111  30.436  25.916  1.00  0.00     0.163 HD
ATOM     26  O   UNL A   1      34.064  31.836  27.606  1.00  0.00    -0.269 OA
BRANCH  24  27
ATOM     27  C   UNL A   1      35.736  30.223  27.952  1.00  0.00     0.039 A 
ATOM     28  C   UNL A   1      36.949  30.333  27.267  1.00  0.00     0.014 A 
ATOM     29  C   UNL A   1      35.706  29.625  29.212  1.00  0.00     0.014 A 
ATOM     30  C   UNL A   1      38.132  29.914  27.881  1.00  0.00     0.010 A 
ATOM     31  C   UNL A   1      36.891  29.336  29.872  1.00  0.00     0.010 A 
ATOM     32  C   UNL A   1      38.119  29.455  29.208  1.00  0.00    -0.014 A 
BRANCH  32  33
ATOM     33  C   UNL A   1      39.364  29.064  29.918  1.00  0.00     0.031 A 
ATOM     34  C   UNL A   1      39.788  29.814  31.155  1.00  0.00     0.074 A 
ATOM     35  C   UNL A   1      40.149  28.095  29.406  1.00  0.00     0.049 A 
ATOM     36  N   UNL A   1      40.885  29.696  31.858  1.00  0.00    -0.248 NA
ATOM     37  C   UNL A   1      38.877  30.863  31.646  1.00  0.00     0.031 C 
ATOM     38  C   UNL A   1      39.876  27.341  28.180  1.00  0.00     0.029 A 
ATOM     39  N   UNL A   1      41.343  27.583  29.847  1.00  0.00    -0.354 N 
ATOM     40  C   UNL A   1      40.805  30.666  32.850  1.00  0.00     0.074 A 
ATOM     41  C   UNL A   1      39.588  31.410  32.619  1.00  0.00     0.031 C 
ATOM     42  C   UNL A   1      40.854  26.442  27.987  1.00  0.00     0.029 A 
ATOM     43  C   UNL A   1      41.849  26.587  29.044  1.00  0.00     0.049 A 
ATOM     44  H   UNL A   1      41.797  27.900  30.661  1.00  0.00     0.167 HD
ATOM     45  C   UNL A   1      41.651  30.894  33.882  1.00  0.00     0.037 A 
ATOM     46  C   UNL A   1      42.989  25.876  29.145  1.00  0.00     0.037 A 
ATOM     47  C   UNL A   1      42.840  30.121  34.126  1.00  0.00     0.049 A 
ATOM     48  C   UNL A   1      43.911  26.143  30.305  1.00  0.00     0.074 A 
ATOM     49  C   UNL A   1      43.733  30.225  35.176  1.00  0.00     0.029 A 
ATOM     50  N   UNL A   1      43.300  29.099  33.307  1.00  0.00    -0.354 N 
ATOM     51  N   UNL A   1      43.785  27.019  31.273  1.00  0.00    -0.248 NA
ATOM     52  C   UNL A   1      45.124  25.320  30.392  1.00  0.00     0.031 C 
ATOM     53  C   UNL A   1      44.761  29.300  34.968  1.00  0.00     0.029 A 
ATOM     54  C   UNL A   1      44.476  28.578  33.819  1.00  0.00     0.049 A 
ATOM     55  H   UNL A   1      42.855  28.790  32.485  1.00  0.00     0.167 HD
ATOM     56  C   UNL A   1      44.886  26.832  32.102  1.00  0.00     0.074 A 
ATOM     57  C   UNL A   1      45.660  25.751  31.526  1.00  0.00     0.031 C 
ATOM     58  C   UNL A   1      45.225  27.491  33.237  1.00  0.00     0.037 A 
BRANCH  45  59
ATOM     59  C   UNL A   1      41.316  32.017  34.829  1.00  0.00     0.058 A 
ATOM     60  C   UNL A   1      41.851  33.306  34.667  1.00  0.00     0.135 A 
ATOM     61  C   UNL A   1      40.426  31.811  35.895  1.00  0.00     0.135 A 
ATOM     62  F   UNL A   1      42.722  33.558  33.677  1.00  0.00    -0.206 F 
ATOM     63  C   UNL A   1      41.542  34.339  35.546  1.00  0.00     0.059 A 
ATOM     64  C   UNL A   1      40.074  32.839  36.766  1.00  0.00     0.059 A 
ATOM     65  F   UNL A   1      39.884  30.599  36.100  1.00  0.00    -0.206 F 
ATOM     66  C   UNL A   1      40.650  34.096  36.592  1.00  0.00     0.060 A 
BRANCH  66  67
ATOM     67  S   UNL A   1      40.254  35.451  37.715  1.00  0.00     0.124 S 
ATOM     68  O   UNL A   1      41.511  35.605  38.441  1.00  0.00    -0.237 OA
ATOM     69  O   UNL A   1      39.920  36.532  36.793  1.00  0.00    -0.237 OA
ATOM     70  O   UNL A   1      39.138  34.930  38.498  1.00  0.00    -0.744 OA
ENDBRANCH  66  67
ENDBRANCH  45  59
BRANCH  46  71
ATOM     71  C   UNL A   1      43.307  24.829  28.135  1.00  0.00     0.058 A 
ATOM     72  C   UNL A   1      44.086  25.130  27.007  1.00  0.00     0.135 A 
ATOM     73  C   UNL A   1      42.855  23.509  28.283  1.00  0.00     0.135 A 
ATOM     74  F   UNL A   1      44.540  26.378  26.818  1.00  0.00    -0.206 F 
ATOM     75  C   UNL A   1      44.388  24.165  26.050  1.00  0.00     0.059 A 
ATOM     76  C   UNL A   1      43.168  22.520  27.355  1.00  0.00     0.059 A 
ATOM     77  F   UNL A   1      42.123  23.164  29.353  1.00  0.00    -0.206 F 
ATOM     78  C   UNL A   1      43.925  22.861  26.235  1.00  0.00     0.060 A 
BRANCH  78  79
ATOM     79  S   UNL A   1      44.359  21.608  25.008  1.00  0.00     0.124 S 
ATOM     80  O   UNL A   1      45.737  21.303  25.375  1.00  0.00    -0.237 OA
ATOM     81  O   UNL A   1      43.379  20.561  25.281  1.00  0.00    -0.237 OA
ATOM     82  O   UNL A   1      44.183  22.306  23.739  1.00  0.00    -0.744 OA
ENDBRANCH  78  79
ENDBRANCH  46  71
BRANCH  58  83
ATOM     83  C   UNL A   1      46.463  27.038  33.961  1.00  0.00     0.058 A 
ATOM     84  C   UNL A   1      46.426  26.018  34.924  1.00  0.00     0.135 A 
ATOM     85  C   UNL A   1      47.712  27.591  33.638  1.00  0.00     0.135 A 
ATOM     86  F   UNL A   1      45.256  25.459  35.274  1.00  0.00    -0.206 F 
ATOM     87  C   UNL A   1      47.583  25.578  35.559  1.00  0.00     0.059 A 
ATOM     88  C   UNL A   1      48.886  27.145  34.237  1.00  0.00     0.059 A 
ATOM     89  F   UNL A   1      47.804  28.562  32.715  1.00  0.00    -0.206 F 
ATOM     90  C   UNL A   1      48.809  26.145  35.204  1.00  0.00     0.060 A 
BRANCH  90  91
ATOM     91  S   UNL A   1      50.306  25.536  36.006  1.00  0.00     0.124 S 
ATOM     92  O   UNL A   1      50.080  24.094  35.997  1.00  0.00    -0.237 OA
ATOM     93  O   UNL A   1      51.357  26.020  35.116  1.00  0.00    -0.237 OA
ATOM     94  O   UNL A   1      50.267  26.168  37.323  1.00  0.00    -0.744 OA
ENDBRANCH  90  91
ENDBRANCH  58  83
ENDBRANCH  32  33
ENDBRANCH  24  27
ENDBRANCH  22  23
ENDBRANCH   1  22
TORSDOF 16
ENDMDL
MODEL 2
REMARK VINA RESULT:     -11.0      2.844      3.685
REMARK SMILES CC[C@H](C)[C@H](NC(=O)N1CCCCC1)C(=O)NCCCNC(=O)c1ccc(-c2c3nc(c(-c4c(F)cc(S(=O)(=O)[O-])cc4F)c4ccc([nH]4)c(-c4c(F)cc(S(=O)(=O)[O-])cc4F)c4nc(c(-c5c(F)cc(S(=O)(=O)[O-])cc5F)c5ccc2[nH]5)C=C4)C=C3)cc1
REMARK SMILES IDX 19 1 18 2 17 3 15 4 16 5 5 7 3 8 4 9 2 10 1 11 6 12 7 13
REMARK SMILES IDX 8 15 9 16 10 17 14 18 11 19 13 20 12 21 20 22 21 23 22 24
REMARK SMILES IDX 23 26 24 27 25 28 89 29 26 30 88 31 27 32 28 33 29 34 82 35
REMARK SMILES IDX 30 36 87 37 81 38 83 39 31 40 86 41 80 42 79 43 32 45 66 46
REMARK SMILES IDX 45 47 65 48 46 49 49 50 64 51 84 52 47 53 48 54 63 56 85 57
REMARK SMILES IDX 50 58 33 59 34 60 43 61 35 62 36 63 42 64 44 65 37 66 38 67
REMARK SMILES IDX 39 68 40 69 41 70 67 71 68 72 77 73 69 74 70 75 76 76 78 77
REMARK SMILES IDX 71 78 72 79 73 80 74 81 75 82 51 83 52 84 61 85 53 86 54 87
REMARK SMILES IDX 60 88 62 89 55 90 56 91 57 92 58 93 59 94
REMARK H PARENT 17 6 6 14 21 25 83 44 49 55
REMARK Flexibility Score: inf
ROOT
ATOM      1  C   UNL A   1      33.209  27.568  26.504  1.00  0.00     0.042 C 
ENDROOT
BRANCH   1   2
ATOM      2  C   UNL A   1      31.719  27.743  26.301  1.00  0.00     0.117 C 
BRANCH   2   3
ATOM      3  N   UNL A   1      30.876  26.634  26.702  1.00  0.00    -0.354 N 
ATOM      4  C   UNL A   1      30.595  25.494  25.990  1.00  0.00     0.242 C 
ATOM      5  O   UNL A   1      30.019  24.568  26.569  1.00  0.00    -0.273 OA
ATOM      6  H   UNL A   1      30.455  26.707  27.590  1.00  0.00     0.163 HD
BRANCH   4   7
ATOM      7  C   UNL A   1      31.111  25.336  24.544  1.00  0.00     0.176 C 
BRANCH   7   8
ATOM      8  C   UNL A   1      30.124  26.088  23.546  1.00  0.00     0.018 C 
ATOM      9  C   UNL A   1      28.719  26.338  24.103  1.00  0.00     0.010 C 
BRANCH   8  10
ATOM     10  C   UNL A   1      30.633  27.336  22.757  1.00  0.00     0.002 C 
ATOM     11  C   UNL A   1      29.925  28.672  22.983  1.00  0.00     0.004 C 
ENDBRANCH   8  10
ENDBRANCH   7   8
BRANCH   7  12
ATOM     12  N   UNL A   1      31.500  23.958  24.161  1.00  0.00    -0.326 N 
ATOM     13  C   UNL A   1      32.656  23.509  23.593  1.00  0.00     0.318 C 
ATOM     14  H   UNL A   1      30.825  23.265  24.344  1.00  0.00     0.166 HD
ATOM     15  O   UNL A   1      32.507  22.770  22.616  1.00  0.00    -0.249 OA
ATOM     16  N   UNL A   1      33.899  23.822  24.087  1.00  0.00    -0.325 N 
ATOM     17  C   UNL A   1      35.086  23.522  23.272  1.00  0.00     0.121 C 
ATOM     18  C   UNL A   1      34.201  24.381  25.392  1.00  0.00     0.121 C 
ATOM     19  C   UNL A   1      36.161  22.741  24.036  1.00  0.00     0.022 C 
ATOM     20  C   UNL A   1      35.264  23.614  26.173  1.00  0.00     0.022 C 
ATOM     21  C   UNL A   1      36.522  23.425  25.350  1.00  0.00     0.004 C 
ENDBRANCH   7  12
ENDBRANCH   4   7
ENDBRANCH   2   3
ENDBRANCH   1   2
BRANCH   1  22
ATOM     22  C   UNL A   1      34.034  28.746  26.035  1.00  0.00     0.118 C 
BRANCH  22  23
ATOM     23  N   UNL A   1      33.838  29.931  26.862  1.00  0.00    -0.352 N 
ATOM     24  C   UNL A   1      34.599  30.465  27.873  1.00  0.00     0.251 C 
ATOM     25  H   UNL A   1      33.017  30.436  26.660  1.00  0.00     0.163 HD
ATOM     26  O   UNL A   1      34.116  31.336  28.586  1.00  0.00    -0.269 OA
BRANCH  24  27
ATOM     27  C   UNL A   1      35.976  29.982  28.115  1.00  0.00     0.039 A 
ATOM     28  C   UNL A   1      36.931  30.099  27.102  1.00  0.00     0.014 A 
ATOM     29  C   UNL A   1      36.328  29.396  29.332  1.00  0.00     0.014 A 
ATOM     30  C   UNL A   1      38.248  29.700  27.341  1.00  0.00     0.010 A 
ATOM     31  C   UNL A   1      37.659  29.128  29.614  1.00  0.00     0.010 A 
ATOM     32  C   UNL A   1      38.635  29.254  28.616  1.00  0.00    -0.014 A 
BRANCH  32  33
ATOM     33  C   UNL A   1      40.039  28.885  28.928  1.00  0.00     0.031 A 
ATOM     34  C   UNL A   1      40.967  29.910  29.528  1.00  0.00     0.074 A 
ATOM     35  C   UNL A   1      40.497  27.661  28.598  1.00  0.00     0.049 A 
ATOM     36  N   UNL A   1      42.248  29.819  29.780  1.00  0.00    -0.248 NA
ATOM     37  C   UNL A   1      40.390  31.226  29.854  1.00  0.00     0.031 C 
ATOM     38  C   UNL A   1      39.712  26.605  27.955  1.00  0.00     0.029 A 
ATOM     39  N   UNL A   1      41.740  27.100  28.748  1.00  0.00    -0.354 N 
ATOM     40  C   UNL A   1      42.628  31.065  30.265  1.00  0.00     0.074 A 
ATOM     41  C   UNL A   1      41.462  31.916  30.208  1.00  0.00     0.031 C 
ATOM     42  C   UNL A   1      40.480  25.516  27.799  1.00  0.00     0.029 A 
ATOM     43  C   UNL A   1      41.825  25.808  28.283  1.00  0.00     0.049 A 
ATOM     44  H   UNL A   1      42.502  27.576  29.151  1.00  0.00     0.167 HD
ATOM     45  C   UNL A   1      43.831  31.456  30.747  1.00  0.00     0.037 A 
ATOM     46  C   UNL A   1      42.870  24.958  28.243  1.00  0.00     0.037 A 
ATOM     47  C   UNL A   1      44.975  30.587  30.836  1.00  0.00     0.049 A 
ATOM     48  C   UNL A   1      44.196  25.412  28.791  1.00  0.00     0.074 A 
ATOM     49  C   UNL A   1      46.223  30.861  31.366  1.00  0.00     0.029 A 
ATOM     50  N   UNL A   1      45.010  29.276  30.383  1.00  0.00    -0.354 N 
ATOM     51  N   UNL A   1      44.519  26.573  29.310  1.00  0.00    -0.248 NA
ATOM     52  C   UNL A   1      45.296  24.440  28.758  1.00  0.00     0.031 C 
ATOM     53  C   UNL A   1      47.029  29.732  31.189  1.00  0.00     0.029 A 
ATOM     54  C   UNL A   1      46.265  28.734  30.604  1.00  0.00     0.049 A 
ATOM     55  H   UNL A   1      44.254  28.802  29.967  1.00  0.00     0.167 HD
ATOM     56  C   UNL A   1      45.851  26.461  29.693  1.00  0.00     0.074 A 
ATOM     57  C   UNL A   1      46.268  25.114  29.357  1.00  0.00     0.031 C 
ATOM     58  C   UNL A   1      46.656  27.386  30.273  1.00  0.00     0.037 A 
BRANCH  45  59
ATOM     59  C   UNL A   1      43.968  32.878  31.224  1.00  0.00     0.058 A 
ATOM     60  C   UNL A   1      43.690  33.244  32.552  1.00  0.00     0.135 A 
ATOM     61  C   UNL A   1      44.412  33.884  30.351  1.00  0.00     0.135 A 
ATOM     62  F   UNL A   1      43.245  32.327  33.427  1.00  0.00    -0.206 F 
ATOM     63  C   UNL A   1      43.814  34.559  32.987  1.00  0.00     0.059 A 
ATOM     64  C   UNL A   1      44.578  35.201  30.774  1.00  0.00     0.059 A 
ATOM     65  F   UNL A   1      44.692  33.595  29.070  1.00  0.00    -0.206 F 
ATOM     66  C   UNL A   1      44.261  35.530  32.091  1.00  0.00     0.060 A 
BRANCH  66  67
ATOM     67  S   UNL A   1      44.425  37.229  32.677  1.00  0.00     0.124 S 
ATOM     68  O   UNL A   1      44.141  37.985  31.461  1.00  0.00    -0.237 OA
ATOM     69  O   UNL A   1      43.406  37.299  33.718  1.00  0.00    -0.237 OA
ATOM     70  O   UNL A   1      45.806  37.295  33.147  1.00  0.00    -0.744 OA
ENDBRANCH  66  67
ENDBRANCH  45  59
BRANCH  46  71
ATOM     71  C   UNL A   1      42.696  23.588  27.688  1.00  0.00     0.058 A 
ATOM     72  C   UNL A   1      42.779  23.353  26.307  1.00  0.00     0.135 A 
ATOM     73  C   UNL A   1      42.458  22.485  28.524  1.00  0.00     0.135 A 
ATOM     74  F   UNL A   1      43.001  24.374  25.465  1.00  0.00    -0.206 F 
ATOM     75  C   UNL A   1      42.613  22.080  25.771  1.00  0.00     0.059 A 
ATOM     76  C   UNL A   1      42.318  21.197  28.014  1.00  0.00     0.059 A 
ATOM     77  F   UNL A   1      42.388  22.651  29.853  1.00  0.00    -0.206 F 
ATOM     78  C   UNL A   1      42.385  21.006  26.635  1.00  0.00     0.060 A 
BRANCH  78  79
ATOM     79  S   UNL A   1      42.214  19.352  25.931  1.00  0.00     0.124 S 
ATOM     80  O   UNL A   1      40.777  19.282  25.692  1.00  0.00    -0.237 OA
ATOM     81  O   UNL A   1      43.056  19.438  24.741  1.00  0.00    -0.237 OA
ATOM     82  O   UNL A   1      42.722  18.483  26.987  1.00  0.00    -0.744 OA
ENDBRANCH  78  79
ENDBRANCH  46  71
BRANCH  58  83
ATOM     83  C   UNL A   1      48.056  26.965  30.625  1.00  0.00     0.058 A 
ATOM     84  C   UNL A   1      49.138  27.194  29.763  1.00  0.00     0.135 A 
ATOM     85  C   UNL A   1      48.324  26.381  31.874  1.00  0.00     0.135 A 
ATOM     86  F   UNL A   1      48.936  27.744  28.554  1.00  0.00    -0.206 F 
ATOM     87  C   UNL A   1      50.436  26.838  30.116  1.00  0.00     0.059 A 
ATOM     88  C   UNL A   1      49.617  26.046  32.261  1.00  0.00     0.059 A 
ATOM     89  F   UNL A   1      47.326  26.151  32.742  1.00  0.00    -0.206 F 
ATOM     90  C   UNL A   1      50.665  26.268  31.371  1.00  0.00     0.060 A 
BRANCH  90  91
ATOM     91  S   UNL A   1      52.359  25.848  31.831  1.00  0.00     0.124 S 
ATOM     92  O   UNL A   1      53.069  26.070  30.576  1.00  0.00    -0.237 OA
ATOM     93  O   UNL A   1      52.639  26.806  32.896  1.00  0.00    -0.237 OA
ATOM     94  O   UNL A   1      52.259  24.455  32.258  1.00  0.00    -0.744 OA
ENDBRANCH  90  91
ENDBRANCH  58  83
ENDBRANCH  32  33
ENDBRANCH  24  27
ENDBRANCH  22  23
ENDBRANCH   1  22
TORSDOF 16
ENDMDL
MODEL 3
REMARK VINA RESULT:     -11.0      3.095      9.273
REMARK SMILES CC[C@H](C)[C@H](NC(=O)N1CCCCC1)C(=O)NCCCNC(=O)c1ccc(-c2c3nc(c(-c4c(F)cc(S(=O)(=O)[O-])cc4F)c4ccc([nH]4)c(-c4c(F)cc(S(=O)(=O)[O-])cc4F)c4nc(c(-c5c(F)cc(S(=O)(=O)[O-])cc5F)c5ccc2[nH]5)C=C4)C=C3)cc1
REMARK SMILES IDX 19 1 18 2 17 3 15 4 16 5 5 7 3 8 4 9 2 10 1 11 6 12 7 13
REMARK SMILES IDX 8 15 9 16 10 17 14 18 11 19 13 20 12 21 20 22 21 23 22 24
REMARK SMILES IDX 23 26 24 27 25 28 89 29 26 30 88 31 27 32 28 33 29 34 82 35
REMARK SMILES IDX 30 36 87 37 81 38 83 39 31 40 86 41 80 42 79 43 32 45 66 46
REMARK SMILES IDX 45 47 65 48 46 49 49 50 64 51 84 52 47 53 48 54 63 56 85 57
REMARK SMILES IDX 50 58 33 59 34 60 43 61 35 62 36 63 42 64 44 65 37 66 38 67
REMARK SMILES IDX 39 68 40 69 41 70 67 71 68 72 77 73 69 74 70 75 76 76 78 77
REMARK SMILES IDX 71 78 72 79 73 80 74 81 75 82 51 83 52 84 61 85 53 86 54 87
REMARK SMILES IDX 60 88 62 89 55 90 56 91 57 92 58 93 59 94
REMARK H PARENT 17 6 6 14 21 25 83 44 49 55
REMARK Flexibility Score: inf
ROOT
ATOM      1  C   UNL A   1      35.750  23.820  25.954  1.00  0.00     0.042 C 
ENDROOT
BRANCH   1   2
ATOM      2  C   UNL A   1      34.380  23.865  25.311  1.00  0.00     0.117 C 
BRANCH   2   3
ATOM      3  N   UNL A   1      34.337  24.196  23.900  1.00  0.00    -0.354 N 
ATOM      4  C   UNL A   1      33.603  25.184  23.293  1.00  0.00     0.242 C 
ATOM      5  O   UNL A   1      33.841  25.450  22.111  1.00  0.00    -0.273 OA
ATOM      6  H   UNL A   1      34.901  23.647  23.307  1.00  0.00     0.163 HD
BRANCH   4   7
ATOM      7  C   UNL A   1      32.601  26.022  24.115  1.00  0.00     0.176 C 
BRANCH   7   8
ATOM      8  C   UNL A   1      31.201  25.266  24.173  1.00  0.00     0.018 C 
ATOM      9  C   UNL A   1      30.737  24.885  25.583  1.00  0.00     0.010 C 
BRANCH   8  10
ATOM     10  C   UNL A   1      30.004  25.803  23.326  1.00  0.00     0.002 C 
ATOM     11  C   UNL A   1      28.823  26.435  24.064  1.00  0.00     0.004 C 
ENDBRANCH   8  10
ENDBRANCH   7   8
BRANCH   7  12
ATOM     12  N   UNL A   1      32.550  27.462  23.767  1.00  0.00    -0.326 N 
ATOM     13  C   UNL A   1      32.206  28.530  24.543  1.00  0.00     0.318 C 
ATOM     14  H   UNL A   1      32.801  27.680  22.841  1.00  0.00     0.166 HD
ATOM     15  O   UNL A   1      31.391  29.305  24.036  1.00  0.00    -0.249 OA
ATOM     16  N   UNL A   1      32.749  28.755  25.786  1.00  0.00    -0.325 N 
ATOM     17  C   UNL A   1      32.137  29.768  26.658  1.00  0.00     0.121 C 
ATOM     18  C   UNL A   1      33.936  28.130  26.341  1.00  0.00     0.121 C 
ATOM     19  C   UNL A   1      33.151  30.773  27.216  1.00  0.00     0.022 C 
ATOM     20  C   UNL A   1      34.961  29.114  26.897  1.00  0.00     0.022 C 
ATOM     21  C   UNL A   1      34.326  30.071  27.886  1.00  0.00     0.004 C 
ENDBRANCH   7  12
ENDBRANCH   4   7
ENDBRANCH   2   3
ENDBRANCH   1   2
BRANCH   1  22
ATOM     22  C   UNL A   1      36.892  23.778  24.962  1.00  0.00     0.118 C 
BRANCH  22  23
ATOM     23  N   UNL A   1      37.906  22.793  25.319  1.00  0.00    -0.352 N 
ATOM     24  C   UNL A   1      39.096  22.922  25.992  1.00  0.00     0.251 C 
ATOM     25  H   UNL A   1      37.701  21.875  25.027  1.00  0.00     0.163 HD
ATOM     26  O   UNL A   1      39.898  21.997  25.968  1.00  0.00    -0.269 OA
BRANCH  24  27
ATOM     27  C   UNL A   1      39.419  24.171  26.718  1.00  0.00     0.039 A 
ATOM     28  C   UNL A   1      38.979  24.330  28.035  1.00  0.00     0.014 A 
ATOM     29  C   UNL A   1      40.139  25.194  26.101  1.00  0.00     0.014 A 
ATOM     30  C   UNL A   1      39.330  25.479  28.748  1.00  0.00     0.010 A 
ATOM     31  C   UNL A   1      40.599  26.267  26.850  1.00  0.00     0.010 A 
ATOM     32  C   UNL A   1      40.183  26.437  28.177  1.00  0.00    -0.014 A 
BRANCH  32  33
ATOM     33  C   UNL A   1      40.632  27.638  28.926  1.00  0.00     0.031 A 
ATOM     34  C   UNL A   1      41.984  27.642  29.593  1.00  0.00     0.074 A 
ATOM     35  C   UNL A   1      39.795  28.685  29.075  1.00  0.00     0.049 A 
ATOM     36  N   UNL A   1      42.518  28.546  30.373  1.00  0.00    -0.248 NA
ATOM     37  C   UNL A   1      42.835  26.457  29.387  1.00  0.00     0.031 C 
ATOM     38  C   UNL A   1      38.438  28.770  28.530  1.00  0.00     0.029 A 
ATOM     39  N   UNL A   1      39.959  29.874  29.738  1.00  0.00    -0.354 N 
ATOM     40  C   UNL A   1      43.747  28.029  30.767  1.00  0.00     0.074 A 
ATOM     41  C   UNL A   1      43.851  26.705  30.198  1.00  0.00     0.031 C 
ATOM     42  C   UNL A   1      37.908  29.961  28.851  1.00  0.00     0.029 A 
ATOM     43  C   UNL A   1      38.864  30.704  29.665  1.00  0.00     0.049 A 
ATOM     44  H   UNL A   1      40.782  30.113  30.222  1.00  0.00     0.167 HD
ATOM     45  C   UNL A   1      44.716  28.616  31.508  1.00  0.00     0.037 A 
ATOM     46  C   UNL A   1      38.651  31.922  30.201  1.00  0.00     0.037 A 
ATOM     47  C   UNL A   1      44.617  29.951  32.036  1.00  0.00     0.049 A 
ATOM     48  C   UNL A   1      39.746  32.559  31.014  1.00  0.00     0.074 A 
ATOM     49  C   UNL A   1      45.565  30.668  32.745  1.00  0.00     0.029 A 
ATOM     50  N   UNL A   1      43.504  30.771  31.913  1.00  0.00    -0.354 N 
ATOM     51  N   UNL A   1      40.929  32.082  31.319  1.00  0.00    -0.248 NA
ATOM     52  C   UNL A   1      39.482  33.901  31.548  1.00  0.00     0.031 C 
ATOM     53  C   UNL A   1      45.008  31.901  33.093  1.00  0.00     0.029 A 
ATOM     54  C   UNL A   1      43.734  31.978  32.550  1.00  0.00     0.049 A 
ATOM     55  H   UNL A   1      42.674  30.529  31.441  1.00  0.00     0.167 HD
ATOM     56  C   UNL A   1      41.563  33.078  32.055  1.00  0.00     0.074 A 
ATOM     57  C   UNL A   1      40.635  34.187  32.137  1.00  0.00     0.031 C 
ATOM     58  C   UNL A   1      42.801  33.077  32.609  1.00  0.00     0.037 A 
BRANCH  45  59
ATOM     59  C   UNL A   1      45.968  27.825  31.781  1.00  0.00     0.058 A 
ATOM     60  C   UNL A   1      46.106  27.030  32.931  1.00  0.00     0.135 A 
ATOM     61  C   UNL A   1      47.033  27.837  30.866  1.00  0.00     0.135 A 
ATOM     62  F   UNL A   1      45.127  26.994  33.849  1.00  0.00    -0.206 F 
ATOM     63  C   UNL A   1      47.265  26.303  33.181  1.00  0.00     0.059 A 
ATOM     64  C   UNL A   1      48.189  27.089  31.078  1.00  0.00     0.059 A 
ATOM     65  F   UNL A   1      46.959  28.579  29.750  1.00  0.00    -0.206 F 
ATOM     66  C   UNL A   1      48.301  26.338  32.246  1.00  0.00     0.060 A 
BRANCH  66  67
ATOM     67  S   UNL A   1      49.793  25.380  32.583  1.00  0.00     0.124 S 
ATOM     68  O   UNL A   1      50.717  26.424  33.015  1.00  0.00    -0.237 OA
ATOM     69  O   UNL A   1      49.345  24.461  33.624  1.00  0.00    -0.237 OA
ATOM     70  O   UNL A   1      50.101  24.765  31.296  1.00  0.00    -0.744 OA
ENDBRANCH  66  67
ENDBRANCH  45  59
BRANCH  46  71
ATOM     71  C   UNL A   1      37.362  32.627  29.962  1.00  0.00     0.058 A 
ATOM     72  C   UNL A   1      37.255  33.620  28.976  1.00  0.00     0.135 A 
ATOM     73  C   UNL A   1      36.210  32.314  30.701  1.00  0.00     0.135 A 
ATOM     74  F   UNL A   1      38.328  33.958  28.245  1.00  0.00    -0.206 F 
ATOM     75  C   UNL A   1      36.059  34.293  28.744  1.00  0.00     0.059 A 
ATOM     76  C   UNL A   1      34.995  32.953  30.467  1.00  0.00     0.059 A 
ATOM     77  F   UNL A   1      36.252  31.359  31.642  1.00  0.00    -0.206 F 
ATOM     78  C   UNL A   1      34.933  33.949  29.494  1.00  0.00     0.060 A 
BRANCH  78  79
ATOM     79  S   UNL A   1      33.376  34.800  29.155  1.00  0.00     0.124 S 
ATOM     80  O   UNL A   1      32.754  33.901  28.190  1.00  0.00    -0.237 OA
ATOM     81  O   UNL A   1      32.758  34.845  30.476  1.00  0.00    -0.237 OA
ATOM     82  O   UNL A   1      33.807  36.092  28.629  1.00  0.00    -0.744 OA
ENDBRANCH  78  79
ENDBRANCH  46  71
BRANCH  58  83
ATOM     83  C   UNL A   1      43.247  34.326  33.316  1.00  0.00     0.058 A 
ATOM     84  C   UNL A   1      43.955  35.340  32.654  1.00  0.00     0.135 A 
ATOM     85  C   UNL A   1      42.903  34.537  34.662  1.00  0.00     0.135 A 
ATOM     86  F   UNL A   1      44.314  35.187  31.369  1.00  0.00    -0.206 F 
ATOM     87  C   UNL A   1      44.328  36.510  33.308  1.00  0.00     0.059 A 
ATOM     88  C   UNL A   1      43.237  35.712  35.326  1.00  0.00     0.059 A 
ATOM     89  F   UNL A   1      42.215  33.603  35.338  1.00  0.00    -0.206 F 
ATOM     90  C   UNL A   1      43.959  36.689  34.643  1.00  0.00     0.060 A 
BRANCH  90  91
ATOM     91  S   UNL A   1      44.414  38.229  35.466  1.00  0.00     0.124 S 
ATOM     92  O   UNL A   1      43.940  37.989  36.824  1.00  0.00    -0.237 OA
ATOM     93  O   UNL A   1      45.864  38.257  35.295  1.00  0.00    -0.237 OA
ATOM     94  O   UNL A   1      43.681  39.244  34.715  1.00  0.00    -0.744 OA
ENDBRANCH  90  91
ENDBRANCH  58  83
ENDBRANCH  32  33
ENDBRANCH  24  27
ENDBRANCH  22  23
ENDBRANCH   1  22
TORSDOF 16
ENDMDL
