MODEL 1
REMARK VINA RESULT:     -14.0      0.000      0.000
REMARK SMILES Cc1cccc(-c2noc(C[N@@H+](C)Cc3ncccc3C(=O)NCCCNC(=O)c3ccc(-c4c5nc(c(-c6c(F)cc(S(=O)(=O)[O-])cc6F)c6ccc([nH]6)c(-c6c(F)cc(S(=O)(=O)[O-])cc6F)c6nc(c(-c7c(F)cc(S(=O)(=O)[O-])cc7F)c7ccc4[nH]7)C=C6)C=C5)cc3)n2)c1
REMARK SMILES IDX 24 1 23 2 21 3 22 4 20 6 15 7 16 8 17 9 19 10 18 11 14 12
REMARK SMILES IDX 12 13 13 14 11 16 10 17 7 18 8 19 96 20 9 21 6 22 1 23 2 24
REMARK SMILES IDX 3 25 97 26 4 27 5 28 25 29 26 30 27 31 28 32 29 34 30 35
REMARK SMILES IDX 31 36 95 37 32 38 94 39 33 40 34 41 35 42 88 43 36 44 93 45
REMARK SMILES IDX 87 46 89 47 37 48 92 49 86 50 85 51 38 53 72 54 51 55 71 56
REMARK SMILES IDX 52 57 55 58 70 59 90 60 53 61 54 62 69 64 91 65 56 66 39 67
REMARK SMILES IDX 40 68 49 69 41 70 42 71 48 72 50 73 43 74 44 75 45 76 46 77
REMARK SMILES IDX 47 78 73 79 74 80 83 81 75 82 76 83 82 84 84 85 77 86 78 87
REMARK SMILES IDX 79 88 80 89 81 90 57 91 58 92 67 93 59 94 60 95 66 96 68 97
REMARK SMILES IDX 61 98 62 99 63 100 64 101 65 102
REMARK H PARENT 23 5 12 15 27 33 89 52 55 63
REMARK Flexibility Score: inf
ROOT
ATOM      1  C   UNL A   1      32.010  30.240  26.017  1.00  0.00     0.118 C 
ENDROOT
BRANCH   1   2
ATOM      2  N   UNL A   1      32.578  29.696  24.788  1.00  0.00    -0.352 N 
ATOM      3  C   UNL A   1      32.064  29.170  23.625  1.00  0.00     0.253 C 
ATOM      4  O   UNL A   1      32.905  28.911  22.766  1.00  0.00    -0.269 OA
ATOM      5  H   UNL A   1      33.562  29.708  24.792  1.00  0.00     0.163 HD
BRANCH   3   6
ATOM      6  C   UNL A   1      30.604  28.927  23.353  1.00  0.00     0.067 A 
ATOM      7  C   UNL A   1      29.922  27.758  23.759  1.00  0.00     0.107 A 
ATOM      8  N   UNL A   1      28.606  27.533  23.418  1.00  0.00    -0.254 NA
ATOM      9  C   UNL A   1      27.922  28.481  22.758  1.00  0.00     0.111 A 
ATOM     10  C   UNL A   1      29.820  29.893  22.706  1.00  0.00     0.017 A 
ATOM     11  C   UNL A   1      28.477  29.680  22.399  1.00  0.00     0.021 A 
BRANCH   7  12
ATOM     12  C   UNL A   1      30.530  26.612  24.568  1.00  0.00     0.320 C 
BRANCH  12  13
ATOM     13  N   UNL A   1      31.334  25.592  23.831  1.00  0.00    -0.325 N 
ATOM     14  C   UNL A   1      31.327  25.777  22.385  1.00  0.00     0.333 C 
ATOM     15  H   UNL A   1      32.293  25.750  24.139  1.00  0.00     0.348 HD
BRANCH  13  16
ATOM     16  C   UNL A   1      30.986  24.202  24.195  1.00  0.00     0.364 C 
BRANCH  16  17
ATOM     17  C   UNL A   1      32.162  23.337  24.511  1.00  0.00     0.282 A 
ATOM     18  C   UNL A   1      34.016  22.436  24.881  1.00  0.00     0.202 A 
ATOM     19  N   UNL A   1      33.181  21.394  24.733  1.00  0.00    -0.057 NA
ATOM     20  N   UNL A   1      33.400  23.669  24.807  1.00  0.00    -0.186 NA
ATOM     21  O   UNL A   1      31.950  21.991  24.487  1.00  0.00    -0.333 OA
BRANCH  18  22
ATOM     22  C   UNL A   1      35.440  22.279  25.132  1.00  0.00     0.023 A 
ATOM     23  C   UNL A   1      38.125  19.575  24.917  1.00  0.00     0.044 C 
ATOM     24  C   UNL A   1      37.443  20.891  25.144  1.00  0.00    -0.050 A 
ATOM     25  C   UNL A   1      38.199  22.008  25.524  1.00  0.00     0.003 A 
ATOM     26  C   UNL A   1      36.058  21.031  24.967  1.00  0.00     0.015 A 
ATOM     27  C   UNL A   1      37.587  23.246  25.715  1.00  0.00     0.001 A 
ATOM     28  C   UNL A   1      36.213  23.382  25.515  1.00  0.00     0.012 A 
ENDBRANCH  18  22
ENDBRANCH  16  17
ENDBRANCH  13  16
ENDBRANCH  12  13
ENDBRANCH   7  12
ENDBRANCH   3   6
ENDBRANCH   1   2
BRANCH   1  29
ATOM     29  C   UNL A   1      32.842  29.873  27.248  1.00  0.00     0.042 C 
BRANCH  29  30
ATOM     30  C   UNL A   1      34.344  29.912  26.996  1.00  0.00     0.118 C 
BRANCH  30  31
ATOM     31  N   UNL A   1      34.985  31.091  27.576  1.00  0.00    -0.352 N 
ATOM     32  C   UNL A   1      36.226  31.157  28.187  1.00  0.00     0.251 C 
ATOM     33  H   UNL A   1      34.477  31.933  27.527  1.00  0.00     0.163 HD
ATOM     34  O   UNL A   1      36.647  32.168  28.715  1.00  0.00    -0.269 OA
BRANCH  32  35
ATOM     35  C   UNL A   1      37.052  29.936  28.105  1.00  0.00     0.039 A 
ATOM     36  C   UNL A   1      37.164  29.158  29.261  1.00  0.00     0.014 A 
ATOM     37  C   UNL A   1      37.938  29.797  27.042  1.00  0.00     0.014 A 
ATOM     38  C   UNL A   1      38.290  28.359  29.432  1.00  0.00     0.010 A 
ATOM     39  C   UNL A   1      39.091  29.063  27.248  1.00  0.00     0.010 A 
ATOM     40  C   UNL A   1      39.295  28.392  28.466  1.00  0.00    -0.014 A 
BRANCH  40  41
ATOM     41  C   UNL A   1      40.633  27.845  28.681  1.00  0.00     0.031 A 
ATOM     42  C   UNL A   1      40.922  26.432  28.341  1.00  0.00     0.074 A 
ATOM     43  C   UNL A   1      41.629  28.627  29.155  1.00  0.00     0.049 A 
ATOM     44  N   UNL A   1      41.956  25.775  28.749  1.00  0.00    -0.248 NA
ATOM     45  C   UNL A   1      39.992  25.611  27.578  1.00  0.00     0.031 C 
ATOM     46  C   UNL A   1      43.060  28.348  29.105  1.00  0.00     0.029 A 
ATOM     47  N   UNL A   1      41.523  29.747  29.977  1.00  0.00    -0.354 N 
ATOM     48  C   UNL A   1      41.975  24.557  28.106  1.00  0.00     0.074 A 
ATOM     49  C   UNL A   1      40.676  24.466  27.488  1.00  0.00     0.031 C 
ATOM     50  C   UNL A   1      43.687  29.103  30.019  1.00  0.00     0.029 A 
ATOM     51  C   UNL A   1      42.667  29.784  30.794  1.00  0.00     0.049 A 
ATOM     52  H   UNL A   1      40.783  30.397  29.983  1.00  0.00     0.167 HD
ATOM     53  C   UNL A   1      43.139  23.842  28.080  1.00  0.00     0.037 A 
ATOM     54  C   UNL A   1      42.577  29.736  32.156  1.00  0.00     0.037 A 
ATOM     55  C   UNL A   1      44.099  24.387  29.048  1.00  0.00     0.049 A 
ATOM     56  C   UNL A   1      43.250  28.538  32.783  1.00  0.00     0.074 A 
ATOM     57  C   UNL A   1      45.224  25.187  28.927  1.00  0.00     0.029 A 
ATOM     58  N   UNL A   1      43.803  24.335  30.411  1.00  0.00    -0.354 N 
ATOM     59  N   UNL A   1      43.629  27.481  32.120  1.00  0.00    -0.248 NA
ATOM     60  C   UNL A   1      43.524  28.425  34.214  1.00  0.00     0.031 C 
ATOM     61  C   UNL A   1      45.558  25.676  30.218  1.00  0.00     0.029 A 
ATOM     62  C   UNL A   1      44.654  25.153  31.129  1.00  0.00     0.049 A 
ATOM     63  H   UNL A   1      43.085  23.790  30.806  1.00  0.00     0.167 HD
ATOM     64  C   UNL A   1      44.127  26.546  32.991  1.00  0.00     0.074 A 
ATOM     65  C   UNL A   1      44.078  27.202  34.285  1.00  0.00     0.031 C 
ATOM     66  C   UNL A   1      44.514  25.302  32.574  1.00  0.00     0.037 A 
BRANCH  53  67
ATOM     67  C   UNL A   1      43.520  22.821  27.006  1.00  0.00     0.058 A 
ATOM     68  C   UNL A   1      42.836  21.582  26.917  1.00  0.00     0.135 A 
ATOM     69  C   UNL A   1      44.607  22.925  26.111  1.00  0.00     0.135 A 
ATOM     70  F   UNL A   1      41.737  21.337  27.645  1.00  0.00    -0.206 F 
ATOM     71  C   UNL A   1      43.251  20.525  26.094  1.00  0.00     0.059 A 
ATOM     72  C   UNL A   1      45.047  21.883  25.290  1.00  0.00     0.059 A 
ATOM     73  F   UNL A   1      45.308  24.047  25.956  1.00  0.00    -0.206 F 
ATOM     74  C   UNL A   1      44.378  20.675  25.301  1.00  0.00     0.060 A 
BRANCH  74  75
ATOM     75  S   UNL A   1      44.960  19.302  24.289  1.00  0.00     0.124 S 
ATOM     76  O   UNL A   1      44.201  18.181  24.833  1.00  0.00    -0.237 OA
ATOM     77  O   UNL A   1      44.592  19.733  22.945  1.00  0.00    -0.237 OA
ATOM     78  O   UNL A   1      46.396  19.266  24.558  1.00  0.00    -0.744 OA
ENDBRANCH  74  75
ENDBRANCH  53  67
BRANCH  54  79
ATOM     79  C   UNL A   1      41.383  30.439  32.694  1.00  0.00     0.058 A 
ATOM     80  C   UNL A   1      40.254  29.655  32.991  1.00  0.00     0.135 A 
ATOM     81  C   UNL A   1      41.494  31.688  33.321  1.00  0.00     0.135 A 
ATOM     82  F   UNL A   1      40.092  28.460  32.397  1.00  0.00    -0.206 F 
ATOM     83  C   UNL A   1      39.368  30.007  33.999  1.00  0.00     0.059 A 
ATOM     84  C   UNL A   1      40.610  32.065  34.334  1.00  0.00     0.059 A 
ATOM     85  F   UNL A   1      42.546  32.481  33.070  1.00  0.00    -0.206 F 
ATOM     86  C   UNL A   1      39.600  31.179  34.715  1.00  0.00     0.060 A 
BRANCH  86  87
ATOM     87  S   UNL A   1      38.700  31.401  36.268  1.00  0.00     0.124 S 
ATOM     88  O   UNL A   1      38.362  30.028  36.623  1.00  0.00    -0.237 OA
ATOM     89  O   UNL A   1      39.718  32.036  37.106  1.00  0.00    -0.237 OA
ATOM     90  O   UNL A   1      37.580  32.253  35.889  1.00  0.00    -0.744 OA
ENDBRANCH  86  87
ENDBRANCH  54  79
BRANCH  66  91
ATOM     91  C   UNL A   1      44.878  24.144  33.480  1.00  0.00     0.058 A 
ATOM     92  C   UNL A   1      44.091  22.990  33.644  1.00  0.00     0.135 A 
ATOM     93  C   UNL A   1      46.135  24.115  34.132  1.00  0.00     0.135 A 
ATOM     94  F   UNL A   1      42.936  22.833  32.981  1.00  0.00    -0.206 F 
ATOM     95  C   UNL A   1      44.479  21.922  34.457  1.00  0.00     0.059 A 
ATOM     96  C   UNL A   1      46.566  23.037  34.904  1.00  0.00     0.059 A 
ATOM     97  F   UNL A   1      46.997  25.137  34.030  1.00  0.00    -0.206 F 
ATOM     98  C   UNL A   1      45.719  21.954  35.087  1.00  0.00     0.060 A 
BRANCH  98  99
ATOM     99  S   UNL A   1      46.261  20.558  36.090  1.00  0.00     0.124 S 
ATOM    100  O   UNL A   1      45.708  20.904  37.396  1.00  0.00    -0.237 OA
ATOM    101  O   UNL A   1      45.638  19.415  35.428  1.00  0.00    -0.237 OA
ATOM    102  O   UNL A   1      47.714  20.617  35.981  1.00  0.00    -0.744 OA
ENDBRANCH  98  99
ENDBRANCH  66  91
ENDBRANCH  40  41
ENDBRANCH  32  35
ENDBRANCH  30  31
ENDBRANCH  29  30
ENDBRANCH   1  29
TORSDOF 18
ENDMDL
MODEL 2
REMARK VINA RESULT:     -13.8      1.301      4.462
REMARK SMILES Cc1cccc(-c2noc(C[N@@H+](C)Cc3ncccc3C(=O)NCCCNC(=O)c3ccc(-c4c5nc(c(-c6c(F)cc(S(=O)(=O)[O-])cc6F)c6ccc([nH]6)c(-c6c(F)cc(S(=O)(=O)[O-])cc6F)c6nc(c(-c7c(F)cc(S(=O)(=O)[O-])cc7F)c7ccc4[nH]7)C=C6)C=C5)cc3)n2)c1
REMARK SMILES IDX 24 1 23 2 21 3 22 4 20 6 15 7 16 8 17 9 19 10 18 11 14 12
REMARK SMILES IDX 12 13 13 14 11 16 10 17 7 18 8 19 96 20 9 21 6 22 1 23 2 24
REMARK SMILES IDX 3 25 97 26 4 27 5 28 25 29 26 30 27 31 28 32 29 34 30 35
REMARK SMILES IDX 31 36 95 37 32 38 94 39 33 40 34 41 35 42 88 43 36 44 93 45
REMARK SMILES IDX 87 46 89 47 37 48 92 49 86 50 85 51 38 53 72 54 51 55 71 56
REMARK SMILES IDX 52 57 55 58 70 59 90 60 53 61 54 62 69 64 91 65 56 66 39 67
REMARK SMILES IDX 40 68 49 69 41 70 42 71 48 72 50 73 43 74 44 75 45 76 46 77
REMARK SMILES IDX 47 78 73 79 74 80 83 81 75 82 76 83 82 84 84 85 77 86 78 87
REMARK SMILES IDX 79 88 80 89 81 90 57 91 58 92 67 93 59 94 60 95 66 96 68 97
REMARK SMILES IDX 61 98 62 99 63 100 64 101 65 102
REMARK H PARENT 23 5 12 15 27 33 89 52 55 63
REMARK Flexibility Score: inf
ROOT
ATOM      1  C   UNL A   1      33.064  27.893  27.080  1.00  0.00     0.118 C 
ENDROOT
BRANCH   1   2
ATOM      2  N   UNL A   1      33.519  27.540  25.740  1.00  0.00    -0.352 N 
ATOM      3  C   UNL A   1      33.745  26.362  25.066  1.00  0.00     0.253 C 
ATOM      4  O   UNL A   1      34.039  26.501  23.880  1.00  0.00    -0.269 OA
ATOM      5  H   UNL A   1      33.711  28.332  25.188  1.00  0.00     0.163 HD
BRANCH   3   6
ATOM      6  C   UNL A   1      33.638  24.986  25.663  1.00  0.00     0.067 A 
ATOM      7  C   UNL A   1      32.411  24.303  25.829  1.00  0.00     0.107 A 
ATOM      8  N   UNL A   1      32.345  23.079  26.457  1.00  0.00    -0.254 NA
ATOM      9  C   UNL A   1      33.477  22.471  26.846  1.00  0.00     0.111 A 
ATOM     10  C   UNL A   1      34.784  24.276  26.051  1.00  0.00     0.017 A 
ATOM     11  C   UNL A   1      34.716  23.019  26.648  1.00  0.00     0.021 A 
BRANCH   7  12
ATOM     12  C   UNL A   1      31.042  24.821  25.388  1.00  0.00     0.320 C 
BRANCH  12  13
ATOM     13  N   UNL A   1      30.596  24.505  23.998  1.00  0.00    -0.325 N 
ATOM     14  C   UNL A   1      30.987  23.175  23.548  1.00  0.00     0.333 C 
ATOM     15  H   UNL A   1      29.577  24.505  24.050  1.00  0.00     0.348 HD
BRANCH  13  16
ATOM     16  C   UNL A   1      30.980  25.539  23.014  1.00  0.00     0.364 C 
BRANCH  16  17
ATOM     17  C   UNL A   1      30.087  26.736  23.002  1.00  0.00     0.282 A 
ATOM     18  C   UNL A   1      29.154  28.610  22.926  1.00  0.00     0.202 A 
ATOM     19  N   UNL A   1      28.227  27.817  23.490  1.00  0.00    -0.057 NA
ATOM     20  N   UNL A   1      30.309  27.953  22.553  1.00  0.00    -0.186 NA
ATOM     21  O   UNL A   1      28.845  26.574  23.541  1.00  0.00    -0.333 OA
BRANCH  18  22
ATOM     22  C   UNL A   1      28.946  30.031  22.696  1.00  0.00     0.023 A 
ATOM     23  C   UNL A   1      27.793  32.360  19.900  1.00  0.00     0.044 C 
ATOM     24  C   UNL A   1      28.277  31.858  21.228  1.00  0.00    -0.050 A 
ATOM     25  C   UNL A   1      28.453  32.757  22.288  1.00  0.00     0.003 A 
ATOM     26  C   UNL A   1      28.543  30.496  21.435  1.00  0.00     0.015 A 
ATOM     27  C   UNL A   1      28.877  32.306  23.537  1.00  0.00     0.001 A 
ATOM     28  C   UNL A   1      29.117  30.947  23.741  1.00  0.00     0.012 A 
ENDBRANCH  18  22
ENDBRANCH  16  17
ENDBRANCH  13  16
ENDBRANCH  12  13
ENDBRANCH   7  12
ENDBRANCH   3   6
ENDBRANCH   1   2
BRANCH   1  29
ATOM     29  C   UNL A   1      33.264  29.380  27.384  1.00  0.00     0.042 C 
BRANCH  29  30
ATOM     30  C   UNL A   1      34.474  29.983  26.682  1.00  0.00     0.118 C 
BRANCH  30  31
ATOM     31  N   UNL A   1      35.048  31.112  27.411  1.00  0.00    -0.352 N 
ATOM     32  C   UNL A   1      36.212  31.124  28.162  1.00  0.00     0.251 C 
ATOM     33  H   UNL A   1      34.551  31.961  27.362  1.00  0.00     0.163 HD
ATOM     34  O   UNL A   1      36.572  32.092  28.803  1.00  0.00    -0.269 OA
BRANCH  32  35
ATOM     35  C   UNL A   1      37.038  29.903  28.091  1.00  0.00     0.039 A 
ATOM     36  C   UNL A   1      37.150  29.133  29.253  1.00  0.00     0.014 A 
ATOM     37  C   UNL A   1      37.925  29.755  27.029  1.00  0.00     0.014 A 
ATOM     38  C   UNL A   1      38.276  28.336  29.431  1.00  0.00     0.010 A 
ATOM     39  C   UNL A   1      39.078  29.024  27.242  1.00  0.00     0.010 A 
ATOM     40  C   UNL A   1      39.282  28.362  28.465  1.00  0.00    -0.014 A 
BRANCH  40  41
ATOM     41  C   UNL A   1      40.620  27.818  28.686  1.00  0.00     0.031 A 
ATOM     42  C   UNL A   1      40.914  26.407  28.345  1.00  0.00     0.074 A 
ATOM     43  C   UNL A   1      41.611  28.601  29.165  1.00  0.00     0.049 A 
ATOM     44  N   UNL A   1      41.947  25.750  28.756  1.00  0.00    -0.248 NA
ATOM     45  C   UNL A   1      39.988  25.584  27.577  1.00  0.00     0.031 C 
ATOM     46  C   UNL A   1      43.044  28.326  29.121  1.00  0.00     0.029 A 
ATOM     47  N   UNL A   1      41.500  29.720  29.988  1.00  0.00    -0.354 N 
ATOM     48  C   UNL A   1      41.971  24.534  28.112  1.00  0.00     0.074 A 
ATOM     49  C   UNL A   1      40.675  24.441  27.488  1.00  0.00     0.031 C 
ATOM     50  C   UNL A   1      43.665  29.081  30.039  1.00  0.00     0.029 A 
ATOM     51  C   UNL A   1      42.640  29.759  30.811  1.00  0.00     0.049 A 
ATOM     52  H   UNL A   1      40.758  30.368  29.992  1.00  0.00     0.167 HD
ATOM     53  C   UNL A   1      43.137  23.822  28.090  1.00  0.00     0.037 A 
ATOM     54  C   UNL A   1      42.544  29.708  32.172  1.00  0.00     0.037 A 
ATOM     55  C   UNL A   1      44.092  24.366  29.063  1.00  0.00     0.049 A 
ATOM     56  C   UNL A   1      43.216  28.511  32.800  1.00  0.00     0.074 A 
ATOM     57  C   UNL A   1      45.215  25.170  28.948  1.00  0.00     0.029 A 
ATOM     58  N   UNL A   1      43.789  24.312  30.424  1.00  0.00    -0.354 N 
ATOM     59  N   UNL A   1      43.601  27.455  32.137  1.00  0.00    -0.248 NA
ATOM     60  C   UNL A   1      43.484  28.396  34.232  1.00  0.00     0.031 C 
ATOM     61  C   UNL A   1      45.543  25.657  30.241  1.00  0.00     0.029 A 
ATOM     62  C   UNL A   1      44.635  25.131  31.148  1.00  0.00     0.049 A 
ATOM     63  H   UNL A   1      43.071  23.765  30.816  1.00  0.00     0.167 HD
ATOM     64  C   UNL A   1      44.097  26.520  33.009  1.00  0.00     0.074 A 
ATOM     65  C   UNL A   1      44.040  27.174  34.304  1.00  0.00     0.031 C 
ATOM     66  C   UNL A   1      44.489  25.277  32.593  1.00  0.00     0.037 A 
BRANCH  53  67
ATOM     67  C   UNL A   1      43.525  22.802  27.016  1.00  0.00     0.058 A 
ATOM     68  C   UNL A   1      42.856  21.556  26.933  1.00  0.00     0.135 A 
ATOM     69  C   UNL A   1      44.606  22.917  26.116  1.00  0.00     0.135 A 
ATOM     70  F   UNL A   1      41.764  21.299  27.667  1.00  0.00    -0.206 F 
ATOM     71  C   UNL A   1      43.279  20.502  26.111  1.00  0.00     0.059 A 
ATOM     72  C   UNL A   1      45.055  21.879  25.295  1.00  0.00     0.059 A 
ATOM     73  F   UNL A   1      45.293  24.048  25.955  1.00  0.00    -0.206 F 
ATOM     74  C   UNL A   1      44.400  20.664  25.311  1.00  0.00     0.060 A 
BRANCH  74  75
ATOM     75  S   UNL A   1      44.994  19.296  24.300  1.00  0.00     0.124 S 
ATOM     76  O   UNL A   1      46.432  19.337  24.545  1.00  0.00    -0.237 OA
ATOM     77  O   UNL A   1      44.280  18.159  24.871  1.00  0.00    -0.237 OA
ATOM     78  O   UNL A   1      44.585  19.669  22.948  1.00  0.00    -0.744 OA
ENDBRANCH  74  75
ENDBRANCH  53  67
BRANCH  54  79
ATOM     79  C   UNL A   1      41.346  30.407  32.705  1.00  0.00     0.058 A 
ATOM     80  C   UNL A   1      40.214  29.622  32.988  1.00  0.00     0.135 A 
ATOM     81  C   UNL A   1      41.452  31.652  33.342  1.00  0.00     0.135 A 
ATOM     82  F   UNL A   1      40.057  28.431  32.385  1.00  0.00    -0.206 F 
ATOM     83  C   UNL A   1      39.320  29.967  33.993  1.00  0.00     0.059 A 
ATOM     84  C   UNL A   1      40.561  32.023  34.351  1.00  0.00     0.059 A 
ATOM     85  F   UNL A   1      42.506  32.446  33.104  1.00  0.00    -0.206 F 
ATOM     86  C   UNL A   1      39.548  31.135  34.718  1.00  0.00     0.060 A 
BRANCH  86  87
ATOM     87  S   UNL A   1      38.636  31.346  36.265  1.00  0.00     0.124 S 
ATOM     88  O   UNL A   1      39.618  32.018  37.108  1.00  0.00    -0.237 OA
ATOM     89  O   UNL A   1      37.509  32.172  35.828  1.00  0.00    -0.237 OA
ATOM     90  O   UNL A   1      38.301  29.980  36.648  1.00  0.00    -0.744 OA
ENDBRANCH  86  87
ENDBRANCH  54  79
BRANCH  66  91
ATOM     91  C   UNL A   1      44.851  24.119  33.498  1.00  0.00     0.058 A 
ATOM     92  C   UNL A   1      43.992  23.045  33.790  1.00  0.00     0.135 A 
ATOM     93  C   UNL A   1      46.165  23.998  34.012  1.00  0.00     0.135 A 
ATOM     94  F   UNL A   1      42.761  22.971  33.262  1.00  0.00    -0.206 F 
ATOM     95  C   UNL A   1      44.375  21.970  34.598  1.00  0.00     0.059 A 
ATOM     96  C   UNL A   1      46.586  22.910  34.775  1.00  0.00     0.059 A 
ATOM     97  F   UNL A   1      47.094  24.936  33.779  1.00  0.00    -0.206 F 
ATOM     98  C   UNL A   1      45.675  21.911  35.090  1.00  0.00     0.060 A 
BRANCH  98  99
ATOM     99  S   UNL A   1      46.205  20.503  36.082  1.00  0.00     0.124 S 
ATOM    100  O   UNL A   1      45.818  20.928  37.424  1.00  0.00    -0.237 OA
ATOM    101  O   UNL A   1      45.428  19.398  35.527  1.00  0.00    -0.237 OA
ATOM    102  O   UNL A   1      47.639  20.438  35.826  1.00  0.00    -0.744 OA
ENDBRANCH  98  99
ENDBRANCH  66  91
ENDBRANCH  40  41
ENDBRANCH  32  35
ENDBRANCH  30  31
ENDBRANCH  29  30
ENDBRANCH   1  29
TORSDOF 18
ENDMDL
MODEL 3
REMARK VINA RESULT:     -13.4      1.257      2.039
REMARK SMILES Cc1cccc(-c2noc(C[N@@H+](C)Cc3ncccc3C(=O)NCCCNC(=O)c3ccc(-c4c5nc(c(-c6c(F)cc(S(=O)(=O)[O-])cc6F)c6ccc([nH]6)c(-c6c(F)cc(S(=O)(=O)[O-])cc6F)c6nc(c(-c7c(F)cc(S(=O)(=O)[O-])cc7F)c7ccc4[nH]7)C=C6)C=C5)cc3)n2)c1
REMARK SMILES IDX 24 1 23 2 21 3 22 4 20 6 15 7 16 8 17 9 19 10 18 11 14 12
REMARK SMILES IDX 12 13 13 14 11 16 10 17 7 18 8 19 96 20 9 21 6 22 1 23 2 24
REMARK SMILES IDX 3 25 97 26 4 27 5 28 25 29 26 30 27 31 28 32 29 34 30 35
REMARK SMILES IDX 31 36 95 37 32 38 94 39 33 40 34 41 35 42 88 43 36 44 93 45
REMARK SMILES IDX 87 46 89 47 37 48 92 49 86 50 85 51 38 53 72 54 51 55 71 56
REMARK SMILES IDX 52 57 55 58 70 59 90 60 53 61 54 62 69 64 91 65 56 66 39 67
REMARK SMILES IDX 40 68 49 69 41 70 42 71 48 72 50 73 43 74 44 75 45 76 46 77
REMARK SMILES IDX 47 78 73 79 74 80 83 81 75 82 76 83 82 84 84 85 77 86 78 87
REMARK SMILES IDX 79 88 80 89 81 90 57 91 58 92 67 93 59 94 60 95 66 96 68 97
REMARK SMILES IDX 61 98 62 99 63 100 64 101 65 102
REMARK H PARENT 23 5 12 15 27 33 89 52 55 63
REMARK Flexibility Score: inf
ROOT
ATOM      1  C   UNL A   1      32.302  28.843  26.520  1.00  0.00     0.118 C 
ENDROOT
BRANCH   1   2
ATOM      2  N   UNL A   1      32.839  28.884  25.163  1.00  0.00    -0.352 N 
ATOM      3  C   UNL A   1      32.298  29.013  23.905  1.00  0.00     0.253 C 
ATOM      4  O   UNL A   1      33.126  29.105  23.000  1.00  0.00    -0.269 OA
ATOM      5  H   UNL A   1      33.818  28.798  25.144  1.00  0.00     0.163 HD
BRANCH   3   6
ATOM      6  C   UNL A   1      30.827  29.067  23.593  1.00  0.00     0.067 A 
ATOM      7  C   UNL A   1      30.083  27.947  23.159  1.00  0.00     0.107 A 
ATOM      8  N   UNL A   1      28.756  28.055  22.801  1.00  0.00    -0.254 NA
ATOM      9  C   UNL A   1      28.124  29.230  22.948  1.00  0.00     0.111 A 
ATOM     10  C   UNL A   1      30.095  30.252  23.765  1.00  0.00     0.017 A 
ATOM     11  C   UNL A   1      28.743  30.347  23.443  1.00  0.00     0.021 A 
BRANCH   7  12
ATOM     12  C   UNL A   1      30.629  26.528  22.997  1.00  0.00     0.320 C 
BRANCH  12  13
ATOM     13  N   UNL A   1      30.714  25.673  24.219  1.00  0.00    -0.325 N 
ATOM     14  C   UNL A   1      29.959  26.197  25.350  1.00  0.00     0.333 C 
ATOM     15  H   UNL A   1      30.265  24.798  23.951  1.00  0.00     0.348 HD
BRANCH  13  16
ATOM     16  C   UNL A   1      32.103  25.347  24.606  1.00  0.00     0.364 C 
BRANCH  16  17
ATOM     17  C   UNL A   1      32.308  23.925  25.014  1.00  0.00     0.282 A 
ATOM     18  C   UNL A   1      32.476  21.849  25.236  1.00  0.00     0.202 A 
ATOM     19  N   UNL A   1      32.512  22.307  26.498  1.00  0.00    -0.057 NA
ATOM     20  N   UNL A   1      32.408  22.839  24.277  1.00  0.00    -0.186 NA
ATOM     21  O   UNL A   1      32.400  23.684  26.353  1.00  0.00    -0.333 OA
BRANCH  18  22
ATOM     22  C   UNL A   1      32.538  20.434  24.905  1.00  0.00     0.023 A 
ATOM     23  C   UNL A   1      32.252  18.175  21.841  1.00  0.00     0.044 C 
ATOM     24  C   UNL A   1      32.437  18.645  23.254  1.00  0.00    -0.050 A 
ATOM     25  C   UNL A   1      32.755  17.719  24.257  1.00  0.00     0.003 A 
ATOM     26  C   UNL A   1      32.313  20.001  23.590  1.00  0.00     0.015 A 
ATOM     27  C   UNL A   1      32.955  18.139  25.571  1.00  0.00     0.001 A 
ATOM     28  C   UNL A   1      32.852  19.493  25.893  1.00  0.00     0.012 A 
ENDBRANCH  18  22
ENDBRANCH  16  17
ENDBRANCH  13  16
ENDBRANCH  12  13
ENDBRANCH   7  12
ENDBRANCH   3   6
ENDBRANCH   1   2
BRANCH   1  29
ATOM     29  C   UNL A   1      33.185  29.604  27.511  1.00  0.00     0.042 C 
BRANCH  29  30
ATOM     30  C   UNL A   1      34.527  30.028  26.925  1.00  0.00     0.118 C 
BRANCH  30  31
ATOM     31  N   UNL A   1      35.130  31.149  27.642  1.00  0.00    -0.352 N 
ATOM     32  C   UNL A   1      36.329  31.155  28.336  1.00  0.00     0.251 C 
ATOM     33  H   UNL A   1      34.628  31.996  27.631  1.00  0.00     0.163 HD
ATOM     34  O   UNL A   1      36.716  32.115  28.974  1.00  0.00    -0.269 OA
BRANCH  32  35
ATOM     35  C   UNL A   1      37.156  29.939  28.206  1.00  0.00     0.039 A 
ATOM     36  C   UNL A   1      37.294  29.131  29.339  1.00  0.00     0.014 A 
ATOM     37  C   UNL A   1      38.020  29.830  27.121  1.00  0.00     0.014 A 
ATOM     38  C   UNL A   1      38.426  28.332  29.466  1.00  0.00     0.010 A 
ATOM     39  C   UNL A   1      39.179  29.095  27.284  1.00  0.00     0.010 A 
ATOM     40  C   UNL A   1      39.411  28.393  28.480  1.00  0.00    -0.014 A 
BRANCH  40  41
ATOM     41  C   UNL A   1      40.754  27.845  28.653  1.00  0.00     0.031 A 
ATOM     42  C   UNL A   1      41.032  26.433  28.303  1.00  0.00     0.074 A 
ATOM     43  C   UNL A   1      41.764  28.626  29.096  1.00  0.00     0.049 A 
ATOM     44  N   UNL A   1      42.077  25.774  28.678  1.00  0.00    -0.248 NA
ATOM     45  C   UNL A   1      40.078  25.612  27.569  1.00  0.00     0.031 C 
ATOM     46  C   UNL A   1      43.194  28.347  29.002  1.00  0.00     0.029 A 
ATOM     47  N   UNL A   1      41.685  29.747  29.922  1.00  0.00    -0.354 N 
ATOM     48  C   UNL A   1      42.075  24.558  28.034  1.00  0.00     0.074 A 
ATOM     49  C   UNL A   1      40.758  24.468  27.457  1.00  0.00     0.031 C 
ATOM     50  C   UNL A   1      43.849  29.101  29.896  1.00  0.00     0.029 A 
ATOM     51  C   UNL A   1      42.854  29.782  30.703  1.00  0.00     0.049 A 
ATOM     52  H   UNL A   1      40.945  30.396  29.951  1.00  0.00     0.167 HD
ATOM     53  C   UNL A   1      43.238  23.842  27.971  1.00  0.00     0.037 A 
ATOM     54  C   UNL A   1      42.806  29.733  32.067  1.00  0.00     0.037 A 
ATOM     55  C   UNL A   1      44.228  24.385  28.910  1.00  0.00     0.049 A 
ATOM     56  C   UNL A   1      43.497  28.534  32.672  1.00  0.00     0.074 A 
ATOM     57  C   UNL A   1      45.348  25.185  28.754  1.00  0.00     0.029 A 
ATOM     58  N   UNL A   1      43.974  24.333  30.280  1.00  0.00    -0.354 N 
ATOM     59  N   UNL A   1      43.856  27.477  31.997  1.00  0.00    -0.248 NA
ATOM     60  C   UNL A   1      43.815  28.420  34.093  1.00  0.00     0.031 C 
ATOM     61  C   UNL A   1      45.723  25.672  30.034  1.00  0.00     0.029 A 
ATOM     62  C   UNL A   1      44.847  25.150  30.973  1.00  0.00     0.049 A 
ATOM     63  H   UNL A   1      43.269  23.788  30.697  1.00  0.00     0.167 HD
ATOM     64  C   UNL A   1      44.379  26.541  32.851  1.00  0.00     0.074 A 
ATOM     65  C   UNL A   1      44.371  27.196  34.147  1.00  0.00     0.031 C 
ATOM     66  C   UNL A   1      44.753  25.297  32.422  1.00  0.00     0.037 A 
BRANCH  53  67
ATOM     67  C   UNL A   1      43.585  22.821  26.885  1.00  0.00     0.058 A 
ATOM     68  C   UNL A   1      42.911  21.575  26.828  1.00  0.00     0.135 A 
ATOM     69  C   UNL A   1      44.632  22.934  25.945  1.00  0.00     0.135 A 
ATOM     70  F   UNL A   1      41.847  21.321  27.603  1.00  0.00    -0.206 F 
ATOM     71  C   UNL A   1      43.303  20.520  25.992  1.00  0.00     0.059 A 
ATOM     72  C   UNL A   1      45.049  21.894  25.109  1.00  0.00     0.059 A 
ATOM     73  F   UNL A   1      45.314  24.063  25.757  1.00  0.00    -0.206 F 
ATOM     74  C   UNL A   1      44.394  20.679  25.151  1.00  0.00     0.060 A 
BRANCH  74  75
ATOM     75  S   UNL A   1      44.948  19.309  24.121  1.00  0.00     0.124 S 
ATOM     76  O   UNL A   1      46.399  19.415  24.227  1.00  0.00    -0.237 OA
ATOM     77  O   UNL A   1      44.340  18.161  24.783  1.00  0.00    -0.237 OA
ATOM     78  O   UNL A   1      44.398  19.629  22.805  1.00  0.00    -0.744 OA
ENDBRANCH  74  75
ENDBRANCH  53  67
BRANCH  54  79
ATOM     79  C   UNL A   1      41.630  30.436  32.642  1.00  0.00     0.058 A 
ATOM     80  C   UNL A   1      40.531  29.645  33.024  1.00  0.00     0.135 A 
ATOM     81  C   UNL A   1      41.752  31.707  33.220  1.00  0.00     0.135 A 
ATOM     82  F   UNL A   1      40.359  28.428  32.482  1.00  0.00    -0.206 F 
ATOM     83  C   UNL A   1      39.692  30.019  34.066  1.00  0.00     0.059 A 
ATOM     84  C   UNL A   1      40.915  32.107  34.264  1.00  0.00     0.059 A 
ATOM     85  F   UNL A   1      42.775  32.507  32.887  1.00  0.00    -0.206 F 
ATOM     86  C   UNL A   1      39.941  31.219  34.728  1.00  0.00     0.060 A 
BRANCH  86  87
ATOM     87  S   UNL A   1      39.119  31.482  36.317  1.00  0.00     0.124 S 
ATOM     88  O   UNL A   1      38.239  32.606  36.023  1.00  0.00    -0.237 OA
ATOM     89  O   UNL A   1      38.453  30.194  36.516  1.00  0.00    -0.237 OA
ATOM     90  O   UNL A   1      40.225  31.763  37.225  1.00  0.00    -0.744 OA
ENDBRANCH  86  87
ENDBRANCH  54  79
BRANCH  66  91
ATOM     91  C   UNL A   1      45.144  24.139  33.314  1.00  0.00     0.058 A 
ATOM     92  C   UNL A   1      46.351  24.066  34.033  1.00  0.00     0.135 A 
ATOM     93  C   UNL A   1      44.223  23.094  33.574  1.00  0.00     0.135 A 
ATOM     94  F   UNL A   1      47.257  25.053  33.977  1.00  0.00    -0.206 F 
ATOM     95  C   UNL A   1      46.661  22.998  34.881  1.00  0.00     0.059 A 
ATOM     96  C   UNL A   1      44.489  22.049  34.457  1.00  0.00     0.059 A 
ATOM     97  F   UNL A   1      43.021  23.060  32.981  1.00  0.00    -0.206 F 
ATOM     98  C   UNL A   1      45.724  21.991  35.086  1.00  0.00     0.060 A 
BRANCH  98  99
ATOM     99  S   UNL A   1      46.083  20.640  36.224  1.00  0.00     0.124 S 
ATOM    100  O   UNL A   1      45.253  19.569  35.679  1.00  0.00    -0.237 OA
ATOM    101  O   UNL A   1      47.524  20.455  36.071  1.00  0.00    -0.237 OA
ATOM    102  O   UNL A   1      45.663  21.174  37.515  1.00  0.00    -0.744 OA
ENDBRANCH  98  99
ENDBRANCH  66  91
ENDBRANCH  40  41
ENDBRANCH  32  35
ENDBRANCH  30  31
ENDBRANCH  29  30
ENDBRANCH   1  29
TORSDOF 18
ENDMDL
