MODEL 1
REMARK VINA RESULT:     -13.4      0.000      0.000
REMARK SMILES Cc1ccc(-c2nc(C)c(C(=O)N3CCC(C(=O)NCCCNC(=O)c4ccc(-c5c6nc(c(-c7c(F)cc(S(=O)(=O)[O-])cc7F)c7ccc([nH]7)c(-c7c(F)cc(S(=O)(=O)[O-])cc7F)c7nc(c(-c8c(F)cc(S(=O)(=O)[O-])cc8F)c8ccc5[nH]8)C=C7)C=C6)cc4)CC3)s2)o1
REMARK SMILES IDX 21 1 20 2 19 3 17 4 18 5 16 7 11 8 12 9 13 10 14 11 93 12
REMARK SMILES IDX 15 13 92 14 10 15 6 16 7 17 94 18 8 19 9 20 5 21 1 22 2 23
REMARK SMILES IDX 3 24 95 25 4 26 22 27 23 28 24 29 25 31 26 32 27 33 91 34
REMARK SMILES IDX 28 35 90 36 29 37 30 38 31 39 84 40 32 41 89 42 83 43 85 44
REMARK SMILES IDX 33 45 88 46 82 47 81 48 34 50 68 51 47 52 67 53 48 54 51 55
REMARK SMILES IDX 66 56 86 57 49 58 50 59 65 61 87 62 52 63 35 64 36 65 45 66
REMARK SMILES IDX 37 67 38 68 44 69 46 70 39 71 40 72 41 73 42 74 43 75 69 76
REMARK SMILES IDX 70 77 79 78 71 79 72 80 78 81 80 82 73 83 74 84 75 85 76 86
REMARK SMILES IDX 77 87 53 88 54 89 63 90 55 91 56 92 62 93 64 94 57 95 58 96
REMARK SMILES IDX 59 97 60 98 61 99
REMARK H PARENT 19 6 23 30 85 49 51 60
REMARK Flexibility Score: inf
ROOT
ATOM      1  C   UNL A   1      39.340  22.105  26.408  1.00  0.00     0.042 C 
ENDROOT
BRANCH   1   2
ATOM      2  C   UNL A   1      38.039  22.475  25.716  1.00  0.00     0.117 C 
BRANCH   2   3
ATOM      3  N   UNL A   1      36.885  21.816  26.314  1.00  0.00    -0.356 N 
ATOM      4  C   UNL A   1      35.565  21.865  25.989  1.00  0.00     0.223 C 
ATOM      5  O   UNL A   1      34.773  21.205  26.665  1.00  0.00    -0.275 OA
ATOM      6  H   UNL A   1      37.098  21.238  27.083  1.00  0.00     0.163 HD
BRANCH   4   7
ATOM      7  C   UNL A   1      35.073  22.690  24.813  1.00  0.00     0.082 C 
ATOM      8  C   UNL A   1      31.551  24.453  23.654  1.00  0.00     0.265 C 
ATOM      9  O   UNL A   1      30.726  23.596  23.972  1.00  0.00    -0.268 OA
ATOM     10  N   UNL A   1      32.899  24.109  23.600  1.00  0.00    -0.338 N 
ATOM     11  C   UNL A   1      33.272  22.825  23.031  1.00  0.00     0.120 C 
ATOM     12  C   UNL A   1      33.969  24.900  24.187  1.00  0.00     0.120 C 
ATOM     13  C   UNL A   1      33.985  21.941  24.032  1.00  0.00     0.035 C 
ATOM     14  C   UNL A   1      34.717  24.119  25.258  1.00  0.00     0.035 C 
BRANCH   8  15
ATOM     15  C   UNL A   1      31.173  25.787  23.204  1.00  0.00     0.115 A 
ATOM     16  C   UNL A   1      29.970  27.887  22.930  1.00  0.00     0.159 A 
ATOM     17  N   UNL A   1      30.731  27.667  21.882  1.00  0.00    -0.237 NA
ATOM     18  S   UNL A   1      30.104  26.732  24.183  1.00  0.00    -0.105 S 
ATOM     19  C   UNL A   1      31.404  26.465  22.012  1.00  0.00     0.062 A 
ATOM     20  C   UNL A   1      32.210  26.060  20.832  1.00  0.00     0.068 C 
BRANCH  16  21
ATOM     21  C   UNL A   1      29.073  29.005  22.970  1.00  0.00     0.162 A 
ATOM     22  C   UNL A   1      28.760  32.575  23.104  1.00  0.00     0.087 C 
ATOM     23  C   UNL A   1      28.458  31.131  23.072  1.00  0.00     0.101 A 
ATOM     24  C   UNL A   1      27.296  30.396  23.085  1.00  0.00     0.046 A 
ATOM     25  O   UNL A   1      29.533  30.300  23.021  1.00  0.00    -0.459 OA
ATOM     26  C   UNL A   1      27.687  29.035  23.000  1.00  0.00     0.054 A 
ENDBRANCH  16  21
ENDBRANCH   8  15
ENDBRANCH   4   7
ENDBRANCH   2   3
ENDBRANCH   1   2
BRANCH   1  27
ATOM     27  C   UNL A   1      40.057  23.292  27.026  1.00  0.00     0.118 C 
BRANCH  27  28
ATOM     28  N   UNL A   1      40.997  23.915  26.105  1.00  0.00    -0.352 N 
ATOM     29  C   UNL A   1      41.542  25.174  26.124  1.00  0.00     0.251 C 
ATOM     30  H   UNL A   1      41.285  23.347  25.354  1.00  0.00     0.163 HD
ATOM     31  O   UNL A   1      42.145  25.586  25.135  1.00  0.00    -0.269 OA
BRANCH  29  32
ATOM     32  C   UNL A   1      41.391  26.032  27.317  1.00  0.00     0.039 A 
ATOM     33  C   UNL A   1      42.331  27.037  27.554  1.00  0.00     0.014 A 
ATOM     34  C   UNL A   1      40.330  25.843  28.207  1.00  0.00     0.014 A 
ATOM     35  C   UNL A   1      42.172  27.883  28.652  1.00  0.00     0.010 A 
ATOM     36  C   UNL A   1      40.114  26.753  29.235  1.00  0.00     0.010 A 
ATOM     37  C   UNL A   1      41.044  27.772  29.482  1.00  0.00    -0.014 A 
BRANCH  37  38
ATOM     38  C   UNL A   1      40.832  28.702  30.621  1.00  0.00     0.031 A 
ATOM     39  C   UNL A   1      41.674  28.580  31.864  1.00  0.00     0.074 A 
ATOM     40  C   UNL A   1      39.853  29.625  30.551  1.00  0.00     0.049 A 
ATOM     41  N   UNL A   1      41.624  29.284  32.966  1.00  0.00    -0.248 NA
ATOM     42  C   UNL A   1      42.685  27.509  31.886  1.00  0.00     0.031 C 
ATOM     43  C   UNL A   1      38.930  29.797  29.426  1.00  0.00     0.029 A 
ATOM     44  N   UNL A   1      39.467  30.592  31.444  1.00  0.00    -0.354 N 
ATOM     45  C   UNL A   1      42.584  28.736  33.809  1.00  0.00     0.074 A 
ATOM     46  C   UNL A   1      43.153  27.601  33.121  1.00  0.00     0.031 C 
ATOM     47  C   UNL A   1      38.112  30.831  29.680  1.00  0.00     0.029 A 
ATOM     48  C   UNL A   1      38.423  31.370  30.999  1.00  0.00     0.049 A 
ATOM     49  H   UNL A   1      39.896  30.717  32.321  1.00  0.00     0.167 HD
ATOM     50  C   UNL A   1      42.978  29.159  35.035  1.00  0.00     0.037 A 
ATOM     51  C   UNL A   1      37.790  32.402  31.589  1.00  0.00     0.037 A 
ATOM     52  C   UNL A   1      42.420  30.307  35.704  1.00  0.00     0.049 A 
ATOM     53  C   UNL A   1      38.251  32.859  32.947  1.00  0.00     0.074 A 
ATOM     54  C   UNL A   1      42.785  30.854  36.920  1.00  0.00     0.029 A 
ATOM     55  N   UNL A   1      41.379  31.081  35.213  1.00  0.00    -0.354 N 
ATOM     56  N   UNL A   1      39.208  32.374  33.701  1.00  0.00    -0.248 NA
ATOM     57  C   UNL A   1      37.553  34.014  33.529  1.00  0.00     0.031 C 
ATOM     58  C   UNL A   1      41.930  31.929  37.190  1.00  0.00     0.029 A 
ATOM     59  C   UNL A   1      41.074  32.090  36.112  1.00  0.00     0.049 A 
ATOM     60  H   UNL A   1      40.924  30.936  34.352  1.00  0.00     0.167 HD
ATOM     61  C   UNL A   1      39.250  33.182  34.831  1.00  0.00     0.074 A 
ATOM     62  C   UNL A   1      38.230  34.196  34.654  1.00  0.00     0.031 C 
ATOM     63  C   UNL A   1      40.058  33.095  35.918  1.00  0.00     0.037 A 
BRANCH  50  64
ATOM     64  C   UNL A   1      44.068  28.384  35.726  1.00  0.00     0.058 A 
ATOM     65  C   UNL A   1      45.426  28.670  35.517  1.00  0.00     0.135 A 
ATOM     66  C   UNL A   1      43.749  27.362  36.638  1.00  0.00     0.135 A 
ATOM     67  F   UNL A   1      45.791  29.624  34.646  1.00  0.00    -0.206 F 
ATOM     68  C   UNL A   1      46.430  27.953  36.160  1.00  0.00     0.059 A 
ATOM     69  C   UNL A   1      44.737  26.654  37.317  1.00  0.00     0.059 A 
ATOM     70  F   UNL A   1      42.468  27.043  36.876  1.00  0.00    -0.206 F 
ATOM     71  C   UNL A   1      46.075  26.947  37.060  1.00  0.00     0.060 A 
BRANCH  71  72
ATOM     72  S   UNL A   1      47.391  26.035  37.894  1.00  0.00     0.124 S 
ATOM     73  O   UNL A   1      48.270  27.119  38.324  1.00  0.00    -0.237 OA
ATOM     74  O   UNL A   1      46.668  25.347  38.958  1.00  0.00    -0.237 OA
ATOM     75  O   UNL A   1      47.926  25.174  36.844  1.00  0.00    -0.744 OA
ENDBRANCH  71  72
ENDBRANCH  50  64
BRANCH  51  76
ATOM     76  C   UNL A   1      36.675  33.093  30.885  1.00  0.00     0.058 A 
ATOM     77  C   UNL A   1      35.342  32.897  31.275  1.00  0.00     0.135 A 
ATOM     78  C   UNL A   1      36.919  33.970  29.816  1.00  0.00     0.135 A 
ATOM     79  F   UNL A   1      35.055  32.067  32.289  1.00  0.00    -0.206 F 
ATOM     80  C   UNL A   1      34.289  33.526  30.617  1.00  0.00     0.059 A 
ATOM     81  C   UNL A   1      35.886  34.633  29.162  1.00  0.00     0.059 A 
ATOM     82  F   UNL A   1      38.179  34.207  29.415  1.00  0.00    -0.206 F 
ATOM     83  C   UNL A   1      34.573  34.395  29.563  1.00  0.00     0.060 A 
BRANCH  83  84
ATOM     84  S   UNL A   1      33.201  35.235  28.742  1.00  0.00     0.124 S 
ATOM     85  O   UNL A   1      32.445  35.745  29.880  1.00  0.00    -0.237 OA
ATOM     86  O   UNL A   1      33.893  36.235  27.935  1.00  0.00    -0.237 OA
ATOM     87  O   UNL A   1      32.557  34.166  27.986  1.00  0.00    -0.744 OA
ENDBRANCH  83  84
ENDBRANCH  51  76
BRANCH  63  88
ATOM     88  C   UNL A   1      39.903  34.151  36.979  1.00  0.00     0.058 A 
ATOM     89  C   UNL A   1      40.615  35.360  36.934  1.00  0.00     0.135 A 
ATOM     90  C   UNL A   1      39.003  33.960  38.042  1.00  0.00     0.135 A 
ATOM     91  F   UNL A   1      41.489  35.594  35.942  1.00  0.00    -0.206 F 
ATOM     92  C   UNL A   1      40.472  36.325  37.927  1.00  0.00     0.059 A 
ATOM     93  C   UNL A   1      38.819  34.925  39.025  1.00  0.00     0.059 A 
ATOM     94  F   UNL A   1      38.285  32.829  38.126  1.00  0.00    -0.206 F 
ATOM     95  C   UNL A   1      39.572  36.097  38.969  1.00  0.00     0.060 A 
BRANCH  95  96
ATOM     96  S   UNL A   1      39.389  37.360  40.245  1.00  0.00     0.124 S 
ATOM     97  O   UNL A   1      40.765  37.821  40.402  1.00  0.00    -0.237 OA
ATOM     98  O   UNL A   1      38.471  38.306  39.620  1.00  0.00    -0.237 OA
ATOM     99  O   UNL A   1      38.842  36.621  41.379  1.00  0.00    -0.744 OA
ENDBRANCH  95  96
ENDBRANCH  63  88
ENDBRANCH  37  38
ENDBRANCH  29  32
ENDBRANCH  27  28
ENDBRANCH   1  27
TORSDOF 15
ENDMDL
MODEL 2
REMARK VINA RESULT:     -13.1      6.595     12.366
REMARK SMILES Cc1ccc(-c2nc(C)c(C(=O)N3CCC(C(=O)NCCCNC(=O)c4ccc(-c5c6nc(c(-c7c(F)cc(S(=O)(=O)[O-])cc7F)c7ccc([nH]7)c(-c7c(F)cc(S(=O)(=O)[O-])cc7F)c7nc(c(-c8c(F)cc(S(=O)(=O)[O-])cc8F)c8ccc5[nH]8)C=C7)C=C6)cc4)CC3)s2)o1
REMARK SMILES IDX 21 1 20 2 19 3 17 4 18 5 16 7 11 8 12 9 13 10 14 11 93 12
REMARK SMILES IDX 15 13 92 14 10 15 6 16 7 17 94 18 8 19 9 20 5 21 1 22 2 23
REMARK SMILES IDX 3 24 95 25 4 26 22 27 23 28 24 29 25 31 26 32 27 33 91 34
REMARK SMILES IDX 28 35 90 36 29 37 30 38 31 39 84 40 32 41 89 42 83 43 85 44
REMARK SMILES IDX 33 45 88 46 82 47 81 48 34 50 68 51 47 52 67 53 48 54 51 55
REMARK SMILES IDX 66 56 86 57 49 58 50 59 65 61 87 62 52 63 35 64 36 65 45 66
REMARK SMILES IDX 37 67 38 68 44 69 46 70 39 71 40 72 41 73 42 74 43 75 69 76
REMARK SMILES IDX 70 77 79 78 71 79 72 80 78 81 80 82 73 83 74 84 75 85 76 86
REMARK SMILES IDX 77 87 53 88 54 89 63 90 55 91 56 92 62 93 64 94 57 95 58 96
REMARK SMILES IDX 59 97 60 98 61 99
REMARK H PARENT 19 6 23 30 85 49 51 60
REMARK Flexibility Score: inf
ROOT
ATOM      1  C   UNL A   1      34.768  29.868  27.587  1.00  0.00     0.042 C 
ENDROOT
BRANCH   1   2
ATOM      2  C   UNL A   1      33.447  30.425  27.083  1.00  0.00     0.117 C 
BRANCH   2   3
ATOM      3  N   UNL A   1      33.222  30.131  25.674  1.00  0.00    -0.356 N 
ATOM      4  C   UNL A   1      33.026  28.948  25.033  1.00  0.00     0.223 C 
ATOM      5  O   UNL A   1      32.858  28.966  23.811  1.00  0.00    -0.275 OA
ATOM      6  H   UNL A   1      33.210  30.923  25.088  1.00  0.00     0.163 HD
BRANCH   4   7
ATOM      7  C   UNL A   1      32.990  27.634  25.794  1.00  0.00     0.082 C 
ATOM      8  C   UNL A   1      31.953  23.740  25.007  1.00  0.00     0.265 C 
ATOM      9  O   UNL A   1      30.939  23.885  24.324  1.00  0.00    -0.268 OA
ATOM     10  N   UNL A   1      32.440  24.823  25.737  1.00  0.00    -0.338 N 
ATOM     11  C   UNL A   1      31.495  25.685  26.426  1.00  0.00     0.120 C 
ATOM     12  C   UNL A   1      33.835  25.230  25.762  1.00  0.00     0.120 C 
ATOM     13  C   UNL A   1      31.553  27.113  25.927  1.00  0.00     0.035 C 
ATOM     14  C   UNL A   1      34.015  26.641  25.220  1.00  0.00     0.035 C 
BRANCH   8  15
ATOM     15  C   UNL A   1      32.604  22.450  25.196  1.00  0.00     0.115 A 
ATOM     16  C   UNL A   1      33.300  20.136  24.882  1.00  0.00     0.159 A 
ATOM     17  N   UNL A   1      33.463  20.486  26.138  1.00  0.00    -0.237 NA
ATOM     18  S   UNL A   1      32.757  21.380  23.844  1.00  0.00    -0.105 S 
ATOM     19  C   UNL A   1      33.050  21.792  26.338  1.00  0.00     0.062 A 
ATOM     20  C   UNL A   1      33.084  22.258  27.747  1.00  0.00     0.068 C 
BRANCH  16  21
ATOM     21  C   UNL A   1      33.533  18.787  24.455  1.00  0.00     0.162 A 
ATOM     22  C   UNL A   1      35.206  15.689  25.137  1.00  0.00     0.087 C 
ATOM     23  C   UNL A   1      34.392  16.746  24.505  1.00  0.00     0.101 A 
ATOM     24  C   UNL A   1      33.636  16.815  23.358  1.00  0.00     0.046 A 
ATOM     25  O   UNL A   1      34.350  17.936  25.161  1.00  0.00    -0.459 OA
ATOM     26  C   UNL A   1      33.070  18.115  23.335  1.00  0.00     0.054 A 
ENDBRANCH  16  21
ENDBRANCH   8  15
ENDBRANCH   4   7
ENDBRANCH   2   3
ENDBRANCH   1   2
BRANCH   1  27
ATOM     27  C   UNL A   1      35.626  30.896  28.303  1.00  0.00     0.118 C 
BRANCH  27  28
ATOM     28  N   UNL A   1      35.569  30.756  29.751  1.00  0.00    -0.352 N 
ATOM     29  C   UNL A   1      36.495  30.238  30.621  1.00  0.00     0.251 C 
ATOM     30  H   UNL A   1      34.739  31.081  30.170  1.00  0.00     0.163 HD
ATOM     31  O   UNL A   1      36.169  30.006  31.782  1.00  0.00    -0.269 OA
BRANCH  29  32
ATOM     32  C   UNL A   1      37.869  29.948  30.159  1.00  0.00     0.039 A 
ATOM     33  C   UNL A   1      38.833  29.565  31.094  1.00  0.00     0.014 A 
ATOM     34  C   UNL A   1      38.211  30.062  28.809  1.00  0.00     0.014 A 
ATOM     35  C   UNL A   1      40.120  29.244  30.662  1.00  0.00     0.010 A 
ATOM     36  C   UNL A   1      39.459  29.637  28.369  1.00  0.00     0.010 A 
ATOM     37  C   UNL A   1      40.435  29.242  29.293  1.00  0.00    -0.014 A 
BRANCH  37  38
ATOM     38  C   UNL A   1      41.785  28.847  28.815  1.00  0.00     0.031 A 
ATOM     39  C   UNL A   1      42.888  29.870  28.734  1.00  0.00     0.074 A 
ATOM     40  C   UNL A   1      42.002  27.580  28.412  1.00  0.00     0.049 A 
ATOM     41  N   UNL A   1      44.122  29.721  28.324  1.00  0.00    -0.248 NA
ATOM     42  C   UNL A   1      42.556  31.247  29.138  1.00  0.00     0.031 C 
ATOM     43  C   UNL A   1      40.994  26.516  28.382  1.00  0.00     0.029 A 
ATOM     44  N   UNL A   1      43.139  26.969  27.948  1.00  0.00    -0.354 N 
ATOM     45  C   UNL A   1      44.705  30.980  28.412  1.00  0.00     0.074 A 
ATOM     46  C   UNL A   1      43.674  31.894  28.847  1.00  0.00     0.031 C 
ATOM     47  C   UNL A   1      41.568  25.378  27.962  1.00  0.00     0.029 A 
ATOM     48  C   UNL A   1      42.970  25.636  27.654  1.00  0.00     0.049 A 
ATOM     49  H   UNL A   1      43.996  27.441  27.835  1.00  0.00     0.167 HD
ATOM     50  C   UNL A   1      45.991  31.338  28.180  1.00  0.00     0.037 A 
ATOM     51  C   UNL A   1      43.847  24.726  27.189  1.00  0.00     0.037 A 
ATOM     52  C   UNL A   1      47.018  30.416  27.768  1.00  0.00     0.049 A 
ATOM     53  C   UNL A   1      45.272  25.145  26.947  1.00  0.00     0.074 A 
ATOM     54  C   UNL A   1      48.362  30.662  27.560  1.00  0.00     0.029 A 
ATOM     55  N   UNL A   1      46.811  29.069  27.500  1.00  0.00    -0.354 N 
ATOM     56  N   UNL A   1      45.823  26.325  27.103  1.00  0.00    -0.248 NA
ATOM     57  C   UNL A   1      46.197  24.104  26.478  1.00  0.00     0.031 C 
ATOM     58  C   UNL A   1      48.960  29.477  27.116  1.00  0.00     0.029 A 
ATOM     59  C   UNL A   1      48.001  28.477  27.109  1.00  0.00     0.049 A 
ATOM     60  H   UNL A   1      45.948  28.603  27.577  1.00  0.00     0.167 HD
ATOM     61  C   UNL A   1      47.166  26.162  26.782  1.00  0.00     0.074 A 
ATOM     62  C   UNL A   1      47.345  24.767  26.438  1.00  0.00     0.031 C 
ATOM     63  C   UNL A   1      48.163  27.084  26.773  1.00  0.00     0.037 A 
BRANCH  50  64
ATOM     64  C   UNL A   1      46.361  32.785  28.374  1.00  0.00     0.058 A 
ATOM     65  C   UNL A   1      46.850  33.265  29.600  1.00  0.00     0.135 A 
ATOM     66  C   UNL A   1      46.258  33.697  27.310  1.00  0.00     0.135 A 
ATOM     67  F   UNL A   1      46.954  32.443  30.656  1.00  0.00    -0.206 F 
ATOM     68  C   UNL A   1      47.194  34.602  29.775  1.00  0.00     0.059 A 
ATOM     69  C   UNL A   1      46.627  35.032  27.453  1.00  0.00     0.059 A 
ATOM     70  F   UNL A   1      45.795  33.295  26.117  1.00  0.00    -0.206 F 
ATOM     71  C   UNL A   1      47.081  35.478  28.694  1.00  0.00     0.060 A 
BRANCH  71  72
ATOM     72  S   UNL A   1      47.541  37.207  28.936  1.00  0.00     0.124 S 
ATOM     73  O   UNL A   1      47.889  37.608  27.577  1.00  0.00    -0.237 OA
ATOM     74  O   UNL A   1      46.313  37.784  29.471  1.00  0.00    -0.237 OA
ATOM     75  O   UNL A   1      48.657  37.133  29.874  1.00  0.00    -0.744 OA
ENDBRANCH  71  72
ENDBRANCH  50  64
BRANCH  51  76
ATOM     76  C   UNL A   1      43.409  23.322  26.954  1.00  0.00     0.058 A 
ATOM     77  C   UNL A   1      43.145  22.458  28.027  1.00  0.00     0.135 A 
ATOM     78  C   UNL A   1      43.236  22.820  25.655  1.00  0.00     0.135 A 
ATOM     79  F   UNL A   1      43.298  22.889  29.289  1.00  0.00    -0.206 F 
ATOM     80  C   UNL A   1      42.748  21.140  27.822  1.00  0.00     0.059 A 
ATOM     81  C   UNL A   1      42.812  21.515  25.425  1.00  0.00     0.059 A 
ATOM     82  F   UNL A   1      43.458  23.611  24.593  1.00  0.00    -0.206 F 
ATOM     83  C   UNL A   1      42.582  20.679  26.516  1.00  0.00     0.060 A 
BRANCH  83  84
ATOM     84  S   UNL A   1      42.029  18.978  26.263  1.00  0.00     0.124 S 
ATOM     85  O   UNL A   1      42.213  18.409  27.593  1.00  0.00    -0.237 OA
ATOM     86  O   UNL A   1      40.647  19.167  25.834  1.00  0.00    -0.237 OA
ATOM     87  O   UNL A   1      42.936  18.481  25.233  1.00  0.00    -0.744 OA
ENDBRANCH  83  84
ENDBRANCH  51  76
BRANCH  63  88
ATOM     88  C   UNL A   1      49.545  26.601  26.423  1.00  0.00     0.058 A 
ATOM     89  C   UNL A   1      50.403  26.045  27.384  1.00  0.00     0.135 A 
ATOM     90  C   UNL A   1      50.004  26.670  25.097  1.00  0.00     0.135 A 
ATOM     91  F   UNL A   1      50.017  25.957  28.667  1.00  0.00    -0.206 F 
ATOM     92  C   UNL A   1      51.683  25.612  27.051  1.00  0.00     0.059 A 
ATOM     93  C   UNL A   1      51.266  26.212  24.735  1.00  0.00     0.059 A 
ATOM     94  F   UNL A   1      49.219  27.179  24.134  1.00  0.00    -0.206 F 
ATOM     95  C   UNL A   1      52.106  25.701  25.724  1.00  0.00     0.060 A 
BRANCH  95  96
ATOM     96  S   UNL A   1      53.765  25.129  25.304  1.00  0.00     0.124 S 
ATOM     97  O   UNL A   1      53.590  23.681  25.318  1.00  0.00    -0.237 OA
ATOM     98  O   UNL A   1      53.980  25.729  23.991  1.00  0.00    -0.237 OA
ATOM     99  O   UNL A   1      54.593  25.671  26.377  1.00  0.00    -0.744 OA
ENDBRANCH  95  96
ENDBRANCH  63  88
ENDBRANCH  37  38
ENDBRANCH  29  32
ENDBRANCH  27  28
ENDBRANCH   1  27
TORSDOF 15
ENDMDL
MODEL 3
REMARK VINA RESULT:     -13.0      1.179      1.978
REMARK SMILES Cc1ccc(-c2nc(C)c(C(=O)N3CCC(C(=O)NCCCNC(=O)c4ccc(-c5c6nc(c(-c7c(F)cc(S(=O)(=O)[O-])cc7F)c7ccc([nH]7)c(-c7c(F)cc(S(=O)(=O)[O-])cc7F)c7nc(c(-c8c(F)cc(S(=O)(=O)[O-])cc8F)c8ccc5[nH]8)C=C7)C=C6)cc4)CC3)s2)o1
REMARK SMILES IDX 21 1 20 2 19 3 17 4 18 5 16 7 11 8 12 9 13 10 14 11 93 12
REMARK SMILES IDX 15 13 92 14 10 15 6 16 7 17 94 18 8 19 9 20 5 21 1 22 2 23
REMARK SMILES IDX 3 24 95 25 4 26 22 27 23 28 24 29 25 31 26 32 27 33 91 34
REMARK SMILES IDX 28 35 90 36 29 37 30 38 31 39 84 40 32 41 89 42 83 43 85 44
REMARK SMILES IDX 33 45 88 46 82 47 81 48 34 50 68 51 47 52 67 53 48 54 51 55
REMARK SMILES IDX 66 56 86 57 49 58 50 59 65 61 87 62 52 63 35 64 36 65 45 66
REMARK SMILES IDX 37 67 38 68 44 69 46 70 39 71 40 72 41 73 42 74 43 75 69 76
REMARK SMILES IDX 70 77 79 78 71 79 72 80 78 81 80 82 73 83 74 84 75 85 76 86
REMARK SMILES IDX 77 87 53 88 54 89 63 90 55 91 56 92 62 93 64 94 57 95 58 96
REMARK SMILES IDX 59 97 60 98 61 99
REMARK H PARENT 19 6 23 30 85 49 51 60
REMARK Flexibility Score: inf
ROOT
ATOM      1  C   UNL A   1      38.836  22.259  26.438  1.00  0.00     0.042 C 
ENDROOT
BRANCH   1   2
ATOM      2  C   UNL A   1      37.427  22.416  25.887  1.00  0.00     0.117 C 
BRANCH   2   3
ATOM      3  N   UNL A   1      37.407  22.507  24.433  1.00  0.00    -0.356 N 
ATOM      4  C   UNL A   1      36.432  22.925  23.582  1.00  0.00     0.223 C 
ATOM      5  O   UNL A   1      36.665  22.904  22.371  1.00  0.00    -0.275 OA
ATOM      6  H   UNL A   1      38.239  22.217  23.994  1.00  0.00     0.163 HD
BRANCH   4   7
ATOM      7  C   UNL A   1      35.096  23.429  24.099  1.00  0.00     0.082 C 
ATOM      8  C   UNL A   1      33.114  27.019  24.286  1.00  0.00     0.265 C 
ATOM      9  O   UNL A   1      34.024  27.793  24.583  1.00  0.00    -0.268 OA
ATOM     10  N   UNL A   1      33.314  25.648  24.429  1.00  0.00    -0.338 N 
ATOM     11  C   UNL A   1      34.015  25.162  25.604  1.00  0.00     0.120 C 
ATOM     12  C   UNL A   1      32.973  24.663  23.416  1.00  0.00     0.120 C 
ATOM     13  C   UNL A   1      35.291  24.428  25.247  1.00  0.00     0.035 C 
ATOM     14  C   UNL A   1      34.203  23.903  22.940  1.00  0.00     0.035 C 
BRANCH   8  15
ATOM     15  C   UNL A   1      31.780  27.473  23.911  1.00  0.00     0.115 A 
ATOM     16  C   UNL A   1      29.932  28.876  23.169  1.00  0.00     0.159 A 
ATOM     17  N   UNL A   1      29.472  27.862  23.866  1.00  0.00    -0.237 NA
ATOM     18  S   UNL A   1      31.621  28.875  22.909  1.00  0.00    -0.105 S 
ATOM     19  C   UNL A   1      30.512  27.067  24.315  1.00  0.00     0.062 A 
ATOM     20  C   UNL A   1      30.115  25.951  25.210  1.00  0.00     0.068 C 
BRANCH  16  21
ATOM     21  C   UNL A   1      29.055  29.914  22.709  1.00  0.00     0.162 A 
ATOM     22  C   UNL A   1      27.939  31.846  19.902  1.00  0.00     0.087 C 
ATOM     23  C   UNL A   1      28.125  31.312  21.265  1.00  0.00     0.101 A 
ATOM     24  C   UNL A   1      27.577  31.608  22.492  1.00  0.00     0.046 A 
ATOM     25  O   UNL A   1      29.029  30.305  21.391  1.00  0.00    -0.459 OA
ATOM     26  C   UNL A   1      28.158  30.700  23.414  1.00  0.00     0.054 A 
ENDBRANCH  16  21
ENDBRANCH   8  15
ENDBRANCH   4   7
ENDBRANCH   2   3
ENDBRANCH   1   2
BRANCH   1  27
ATOM     27  C   UNL A   1      39.432  23.557  26.952  1.00  0.00     0.118 C 
BRANCH  27  28
ATOM     28  N   UNL A   1      40.462  24.084  26.068  1.00  0.00    -0.352 N 
ATOM     29  C   UNL A   1      41.130  25.282  26.113  1.00  0.00     0.251 C 
ATOM     30  H   UNL A   1      40.717  23.492  25.324  1.00  0.00     0.163 HD
ATOM     31  O   UNL A   1      41.805  25.634  25.149  1.00  0.00    -0.269 OA
BRANCH  29  32
ATOM     32  C   UNL A   1      41.026  26.147  27.307  1.00  0.00     0.039 A 
ATOM     33  C   UNL A   1      41.913  27.216  27.450  1.00  0.00     0.014 A 
ATOM     34  C   UNL A   1      40.062  25.902  28.288  1.00  0.00     0.014 A 
ATOM     35  C   UNL A   1      41.793  28.067  28.549  1.00  0.00     0.010 A 
ATOM     36  C   UNL A   1      39.875  26.812  29.322  1.00  0.00     0.010 A 
ATOM     37  C   UNL A   1      40.751  27.894  29.475  1.00  0.00    -0.014 A 
BRANCH  37  38
ATOM     38  C   UNL A   1      40.577  28.827  30.619  1.00  0.00     0.031 A 
ATOM     39  C   UNL A   1      41.436  28.686  31.848  1.00  0.00     0.074 A 
ATOM     40  C   UNL A   1      39.615  29.769  30.567  1.00  0.00     0.049 A 
ATOM     41  N   UNL A   1      41.418  29.388  32.952  1.00  0.00    -0.248 NA
ATOM     42  C   UNL A   1      42.426  27.595  31.852  1.00  0.00     0.031 C 
ATOM     43  C   UNL A   1      38.677  29.962  29.457  1.00  0.00     0.029 A 
ATOM     44  N   UNL A   1      39.263  30.742  31.467  1.00  0.00    -0.354 N 
ATOM     45  C   UNL A   1      42.381  28.820  33.779  1.00  0.00     0.074 A 
ATOM     46  C   UNL A   1      42.916  27.675  33.080  1.00  0.00     0.031 C 
ATOM     47  C   UNL A   1      37.885  31.011  29.726  1.00  0.00     0.029 A 
ATOM     48  C   UNL A   1      38.228  31.542  31.041  1.00  0.00     0.049 A 
ATOM     49  H   UNL A   1      39.709  30.857  32.337  1.00  0.00     0.167 HD
ATOM     50  C   UNL A   1      42.803  29.233  34.998  1.00  0.00     0.037 A 
ATOM     51  C   UNL A   1      37.626  32.585  31.642  1.00  0.00     0.037 A 
ATOM     52  C   UNL A   1      42.279  30.390  35.678  1.00  0.00     0.049 A 
ATOM     53  C   UNL A   1      38.117  33.031  32.993  1.00  0.00     0.074 A 
ATOM     54  C   UNL A   1      42.675  30.928  36.889  1.00  0.00     0.029 A 
ATOM     55  N   UNL A   1      41.246  31.187  35.205  1.00  0.00    -0.354 N 
ATOM     56  N   UNL A   1      39.077  32.525  33.730  1.00  0.00    -0.248 NA
ATOM     57  C   UNL A   1      37.452  34.198  33.588  1.00  0.00     0.031 C 
ATOM     58  C   UNL A   1      41.846  32.019  37.174  1.00  0.00     0.029 A 
ATOM     59  C   UNL A   1      40.976  32.200  36.111  1.00  0.00     0.049 A 
ATOM     60  H   UNL A   1      40.774  31.052  34.351  1.00  0.00     0.167 HD
ATOM     61  C   UNL A   1      39.153  33.330  34.861  1.00  0.00     0.074 A 
ATOM     62  C   UNL A   1      38.152  34.365  34.702  1.00  0.00     0.031 C 
ATOM     63  C   UNL A   1      39.977  33.225  35.934  1.00  0.00     0.037 A 
BRANCH  50  64
ATOM     64  C   UNL A   1      43.888  28.435  35.671  1.00  0.00     0.058 A 
ATOM     65  C   UNL A   1      43.593  27.387  36.558  1.00  0.00     0.135 A 
ATOM     66  C   UNL A   1      45.241  28.697  35.399  1.00  0.00     0.135 A 
ATOM     67  F   UNL A   1      42.318  27.102  36.869  1.00  0.00    -0.206 F 
ATOM     68  C   UNL A   1      44.598  26.650  37.176  1.00  0.00     0.059 A 
ATOM     69  C   UNL A   1      46.263  27.950  35.981  1.00  0.00     0.059 A 
ATOM     70  F   UNL A   1      45.583  29.687  34.560  1.00  0.00    -0.206 F 
ATOM     71  C   UNL A   1      45.931  26.938  36.879  1.00  0.00     0.060 A 
BRANCH  71  72
ATOM     72  S   UNL A   1      47.221  25.964  37.682  1.00  0.00     0.124 S 
ATOM     73  O   UNL A   1      46.856  26.100  39.089  1.00  0.00    -0.237 OA
ATOM     74  O   UNL A   1      47.018  24.641  37.102  1.00  0.00    -0.237 OA
ATOM     75  O   UNL A   1      48.453  26.638  37.286  1.00  0.00    -0.744 OA
ENDBRANCH  71  72
ENDBRANCH  50  64
BRANCH  51  76
ATOM     76  C   UNL A   1      36.513  33.300  30.957  1.00  0.00     0.058 A 
ATOM     77  C   UNL A   1      36.764  34.166  29.883  1.00  0.00     0.135 A 
ATOM     78  C   UNL A   1      35.179  33.122  31.354  1.00  0.00     0.135 A 
ATOM     79  F   UNL A   1      38.023  34.373  29.467  1.00  0.00    -0.206 F 
ATOM     80  C   UNL A   1      35.735  34.850  29.242  1.00  0.00     0.059 A 
ATOM     81  C   UNL A   1      34.131  33.771  30.710  1.00  0.00     0.059 A 
ATOM     82  F   UNL A   1      34.883  32.288  32.364  1.00  0.00    -0.206 F 
ATOM     83  C   UNL A   1      34.421  34.643  29.662  1.00  0.00     0.060 A 
BRANCH  83  84
ATOM     84  S   UNL A   1      33.091  35.506  28.797  1.00  0.00     0.124 S 
ATOM     85  O   UNL A   1      32.479  34.420  28.040  1.00  0.00    -0.237 OA
ATOM     86  O   UNL A   1      32.301  36.038  29.902  1.00  0.00    -0.237 OA
ATOM     87  O   UNL A   1      33.799  36.506  28.004  1.00  0.00    -0.744 OA
ENDBRANCH  83  84
ENDBRANCH  51  76
BRANCH  63  88
ATOM     88  C   UNL A   1      39.860  34.282  36.999  1.00  0.00     0.058 A 
ATOM     89  C   UNL A   1      40.487  35.532  36.877  1.00  0.00     0.135 A 
ATOM     90  C   UNL A   1      39.082  34.049  38.146  1.00  0.00     0.135 A 
ATOM     91  F   UNL A   1      41.244  35.807  35.804  1.00  0.00    -0.206 F 
ATOM     92  C   UNL A   1      40.382  36.498  37.874  1.00  0.00     0.059 A 
ATOM     93  C   UNL A   1      38.935  35.013  39.138  1.00  0.00     0.059 A 
ATOM     94  F   UNL A   1      38.449  32.877  38.307  1.00  0.00    -0.206 F 
ATOM     95  C   UNL A   1      39.604  36.228  39.001  1.00  0.00     0.060 A 
BRANCH  95  96
ATOM     96  S   UNL A   1      39.468  37.493  40.282  1.00  0.00     0.124 S 
ATOM     97  O   UNL A   1      38.514  38.418  39.681  1.00  0.00    -0.237 OA
ATOM     98  O   UNL A   1      38.978  36.728  41.424  1.00  0.00    -0.237 OA
ATOM     99  O   UNL A   1      40.833  37.994  40.410  1.00  0.00    -0.744 OA
ENDBRANCH  95  96
ENDBRANCH  63  88
ENDBRANCH  37  38
ENDBRANCH  29  32
ENDBRANCH  27  28
ENDBRANCH   1  27
TORSDOF 15
ENDMDL
