MODEL 1
REMARK VINA RESULT:     -12.2      0.000      0.000
REMARK SMILES CCC(CC)([NH2+]CC(=O)Nc1ccc(C)cc1)C(=O)NCCCNC(=O)c1ccc(-c2c3nc(c(-c4c(F)cc(S(=O)(=O)[O-])cc4F)c4ccc([nH]4)c(-c4c(F)cc(S(=O)(=O)[O-])cc4F)c4nc(c(-c5c(F)cc(S(=O)(=O)[O-])cc5F)c5ccc2[nH]5)C=C4)C=C3)cc1
REMARK SMILES IDX 21 1 20 2 18 3 19 4 3 6 2 7 1 8 4 9 5 10 6 11 7 14 8 15 9 16
REMARK SMILES IDX 10 17 11 19 12 20 17 21 13 22 16 23 14 24 15 25 22 26 23 27
REMARK SMILES IDX 24 28 25 29 26 31 27 32 28 33 92 34 29 35 91 36 30 37 31 38
REMARK SMILES IDX 32 39 85 40 33 41 90 42 84 43 86 44 34 45 89 46 83 47 82 48
REMARK SMILES IDX 35 50 69 51 48 52 68 53 49 54 52 55 67 56 87 57 50 58 51 59
REMARK SMILES IDX 66 61 88 62 53 63 36 64 37 65 46 66 38 67 39 68 45 69 47 70
REMARK SMILES IDX 40 71 41 72 42 73 43 74 44 75 70 76 71 77 80 78 72 79 73 80
REMARK SMILES IDX 79 81 81 82 74 83 75 84 76 85 77 86 78 87 54 88 55 89 64 90
REMARK SMILES IDX 56 91 57 92 63 93 65 94 58 95 59 96 60 97 61 98 62 99
REMARK H PARENT 20 5 6 12 6 13 10 18 24 30 86 49 52 60
REMARK Flexibility Score: inf
ROOT
ATOM      1  C   UNL A   1      36.589  23.214  26.068  1.00  0.00     0.118 C 
ENDROOT
BRANCH   1   2
ATOM      2  N   UNL A   1      35.394  22.350  26.027  1.00  0.00    -0.351 N 
ATOM      3  C   UNL A   1      34.283  22.156  25.245  1.00  0.00     0.281 C 
ATOM      4  O   UNL A   1      33.997  20.946  25.183  1.00  0.00    -0.268 OA
ATOM      5  H   UNL A   1      35.393  21.726  26.789  1.00  0.00     0.163 HD
BRANCH   3   6
ATOM      6  C   UNL A   1      33.218  23.268  24.658  1.00  0.00     0.175 C 
BRANCH   6   7
ATOM      7  C   UNL A   1      33.154  24.286  25.894  1.00  0.00     0.076 C 
ATOM      8  C   UNL A   1      33.846  25.662  25.654  1.00  0.00     0.011 C 
ENDBRANCH   6   7
BRANCH   6   9
ATOM      9  C   UNL A   1      31.695  23.147  24.271  1.00  0.00     0.076 C 
ATOM     10  C   UNL A   1      30.673  23.438  25.395  1.00  0.00     0.011 C 
ENDBRANCH   6   9
BRANCH   6  11
ATOM     11  N   UNL A   1      33.868  23.814  23.474  1.00  0.00    -0.326 N 
ATOM     12  H   UNL A   1      34.596  23.154  23.203  1.00  0.00     0.347 HD
ATOM     13  H   UNL A   1      34.175  24.740  23.773  1.00  0.00     0.347 HD
BRANCH  11  14
ATOM     14  C   UNL A   1      33.059  24.088  22.261  1.00  0.00     0.363 C 
BRANCH  14  15
ATOM     15  C   UNL A   1      32.899  25.429  21.456  1.00  0.00     0.279 C 
ATOM     16  O   UNL A   1      33.153  25.350  20.237  1.00  0.00    -0.268 OA
ATOM     17  N   UNL A   1      32.249  26.590  21.823  1.00  0.00    -0.321 N 
ATOM     18  H   UNL A   1      31.692  26.925  21.084  1.00  0.00     0.170 HD
BRANCH  17  19
ATOM     19  C   UNL A   1      32.148  27.444  22.955  1.00  0.00     0.041 A 
ATOM     20  C   UNL A   1      31.116  27.432  23.885  1.00  0.00     0.026 A 
ATOM     21  C   UNL A   1      33.210  28.312  23.234  1.00  0.00     0.026 A 
ATOM     22  C   UNL A   1      30.978  28.423  24.866  1.00  0.00     0.005 A 
ATOM     23  C   UNL A   1      33.100  29.302  24.233  1.00  0.00     0.005 A 
ATOM     24  C   UNL A   1      31.936  29.418  24.996  1.00  0.00    -0.051 A 
ATOM     25  C   UNL A   1      31.703  30.547  25.955  1.00  0.00     0.044 C 
ENDBRANCH  17  19
ENDBRANCH  14  15
ENDBRANCH  11  14
ENDBRANCH   6  11
ENDBRANCH   3   6
ENDBRANCH   1   2
BRANCH   1  26
ATOM     26  C   UNL A   1      37.932  22.543  25.790  1.00  0.00     0.042 C 
BRANCH  26  27
ATOM     27  C   UNL A   1      39.109  23.516  25.828  1.00  0.00     0.118 C 
BRANCH  27  28
ATOM     28  N   UNL A   1      39.992  23.373  26.994  1.00  0.00    -0.352 N 
ATOM     29  C   UNL A   1      40.508  24.376  27.808  1.00  0.00     0.251 C 
ATOM     30  H   UNL A   1      40.252  22.452  27.228  1.00  0.00     0.163 HD
ATOM     31  O   UNL A   1      41.457  24.198  28.571  1.00  0.00    -0.269 OA
BRANCH  29  32
ATOM     32  C   UNL A   1      39.776  25.658  27.827  1.00  0.00     0.039 A 
ATOM     33  C   UNL A   1      40.256  26.661  26.973  1.00  0.00     0.014 A 
ATOM     34  C   UNL A   1      39.071  25.965  28.978  1.00  0.00     0.014 A 
ATOM     35  C   UNL A   1      40.281  27.974  27.423  1.00  0.00     0.010 A 
ATOM     36  C   UNL A   1      39.274  27.219  29.501  1.00  0.00     0.010 A 
ATOM     37  C   UNL A   1      39.909  28.214  28.739  1.00  0.00    -0.014 A 
BRANCH  37  38
ATOM     38  C   UNL A   1      40.121  29.469  29.441  1.00  0.00     0.031 A 
ATOM     39  C   UNL A   1      39.057  30.490  29.329  1.00  0.00     0.074 A 
ATOM     40  C   UNL A   1      41.165  29.601  30.289  1.00  0.00     0.049 A 
ATOM     41  N   UNL A   1      39.184  31.726  29.658  1.00  0.00    -0.248 NA
ATOM     42  C   UNL A   1      37.729  30.180  28.799  1.00  0.00     0.031 C 
ATOM     43  C   UNL A   1      41.355  30.622  31.316  1.00  0.00     0.029 A 
ATOM     44  N   UNL A   1      42.386  28.914  30.259  1.00  0.00    -0.354 N 
ATOM     45  C   UNL A   1      37.927  32.293  29.647  1.00  0.00     0.074 A 
ATOM     46  C   UNL A   1      37.057  31.292  29.091  1.00  0.00     0.031 C 
ATOM     47  C   UNL A   1      42.660  30.690  31.628  1.00  0.00     0.029 A 
ATOM     48  C   UNL A   1      43.371  29.820  30.705  1.00  0.00     0.049 A 
ATOM     49  H   UNL A   1      42.528  27.980  29.982  1.00  0.00     0.167 HD
ATOM     50  C   UNL A   1      37.749  33.510  30.233  1.00  0.00     0.037 A 
ATOM     51  C   UNL A   1      44.343  30.251  29.844  1.00  0.00     0.037 A 
ATOM     52  C   UNL A   1      39.038  34.065  30.638  1.00  0.00     0.049 A 
ATOM     53  C   UNL A   1      44.223  31.722  29.505  1.00  0.00     0.074 A 
ATOM     54  C   UNL A   1      39.736  34.014  31.833  1.00  0.00     0.029 A 
ATOM     55  N   UNL A   1      39.966  34.409  29.656  1.00  0.00    -0.354 N 
ATOM     56  N   UNL A   1      43.138  32.429  29.678  1.00  0.00    -0.248 NA
ATOM     57  C   UNL A   1      45.328  32.519  28.976  1.00  0.00     0.031 C 
ATOM     58  C   UNL A   1      41.112  34.206  31.543  1.00  0.00     0.029 A 
ATOM     59  C   UNL A   1      41.248  34.412  30.180  1.00  0.00     0.049 A 
ATOM     60  H   UNL A   1      39.741  34.620  28.721  1.00  0.00     0.167 HD
ATOM     61  C   UNL A   1      43.364  33.723  29.289  1.00  0.00     0.074 A 
ATOM     62  C   UNL A   1      44.755  33.731  28.873  1.00  0.00     0.031 C 
ATOM     63  C   UNL A   1      42.402  34.694  29.339  1.00  0.00     0.037 A 
BRANCH  50  64
ATOM     64  C   UNL A   1      36.396  33.999  30.696  1.00  0.00     0.058 A 
ATOM     65  C   UNL A   1      35.420  34.392  29.756  1.00  0.00     0.135 A 
ATOM     66  C   UNL A   1      36.021  34.176  32.044  1.00  0.00     0.135 A 
ATOM     67  F   UNL A   1      35.609  34.223  28.440  1.00  0.00    -0.206 F 
ATOM     68  C   UNL A   1      34.214  34.993  30.118  1.00  0.00     0.059 A 
ATOM     69  C   UNL A   1      34.845  34.831  32.432  1.00  0.00     0.059 A 
ATOM     70  F   UNL A   1      36.764  33.681  33.043  1.00  0.00    -0.206 F 
ATOM     71  C   UNL A   1      33.944  35.236  31.457  1.00  0.00     0.060 A 
BRANCH  71  72
ATOM     72  S   UNL A   1      32.399  36.056  31.895  1.00  0.00     0.124 S 
ATOM     73  O   UNL A   1      31.677  35.001  32.599  1.00  0.00    -0.237 OA
ATOM     74  O   UNL A   1      32.871  37.162  32.721  1.00  0.00    -0.237 OA
ATOM     75  O   UNL A   1      31.837  36.435  30.602  1.00  0.00    -0.744 OA
ENDBRANCH  71  72
ENDBRANCH  50  64
BRANCH  51  76
ATOM     76  C   UNL A   1      44.832  29.161  28.948  1.00  0.00     0.058 A 
ATOM     77  C   UNL A   1      44.289  29.118  27.647  1.00  0.00     0.135 A 
ATOM     78  C   UNL A   1      46.076  28.546  29.145  1.00  0.00     0.135 A 
ATOM     79  F   UNL A   1      43.090  29.670  27.402  1.00  0.00    -0.206 F 
ATOM     80  C   UNL A   1      45.030  28.673  26.557  1.00  0.00     0.059 A 
ATOM     81  C   UNL A   1      46.833  28.081  28.063  1.00  0.00     0.059 A 
ATOM     82  F   UNL A   1      46.639  28.534  30.363  1.00  0.00    -0.206 F 
ATOM     83  C   UNL A   1      46.332  28.232  26.769  1.00  0.00     0.060 A 
BRANCH  83  84
ATOM     84  S   UNL A   1      47.405  28.076  25.318  1.00  0.00     0.124 S 
ATOM     85  O   UNL A   1      46.683  28.864  24.325  1.00  0.00    -0.237 OA
ATOM     86  O   UNL A   1      48.651  28.670  25.807  1.00  0.00    -0.237 OA
ATOM     87  O   UNL A   1      47.438  26.639  25.083  1.00  0.00    -0.744 OA
ENDBRANCH  83  84
ENDBRANCH  51  76
BRANCH  63  88
ATOM     88  C   UNL A   1      42.521  36.053  28.691  1.00  0.00     0.058 A 
ATOM     89  C   UNL A   1      41.916  36.386  27.468  1.00  0.00     0.135 A 
ATOM     90  C   UNL A   1      43.154  37.121  29.372  1.00  0.00     0.135 A 
ATOM     91  F   UNL A   1      41.174  35.497  26.792  1.00  0.00    -0.206 F 
ATOM     92  C   UNL A   1      42.017  37.659  26.908  1.00  0.00     0.059 A 
ATOM     93  C   UNL A   1      43.212  38.414  28.862  1.00  0.00     0.059 A 
ATOM     94  F   UNL A   1      43.733  36.944  30.570  1.00  0.00    -0.206 F 
ATOM     95  C   UNL A   1      42.675  38.664  27.608  1.00  0.00     0.060 A 
BRANCH  95  96
ATOM     96  S   UNL A   1      42.797  40.314  26.897  1.00  0.00     0.124 S 
ATOM     97  O   UNL A   1      43.759  40.093  25.823  1.00  0.00    -0.237 OA
ATOM     98  O   UNL A   1      41.427  40.585  26.470  1.00  0.00    -0.237 OA
ATOM     99  O   UNL A   1      43.268  41.125  28.014  1.00  0.00    -0.744 OA
ENDBRANCH  95  96
ENDBRANCH  63  88
ENDBRANCH  37  38
ENDBRANCH  29  32
ENDBRANCH  27  28
ENDBRANCH  26  27
ENDBRANCH   1  26
TORSDOF 19
ENDMDL
MODEL 2
REMARK VINA RESULT:     -12.2      4.863     11.448
REMARK SMILES CCC(CC)([NH2+]CC(=O)Nc1ccc(C)cc1)C(=O)NCCCNC(=O)c1ccc(-c2c3nc(c(-c4c(F)cc(S(=O)(=O)[O-])cc4F)c4ccc([nH]4)c(-c4c(F)cc(S(=O)(=O)[O-])cc4F)c4nc(c(-c5c(F)cc(S(=O)(=O)[O-])cc5F)c5ccc2[nH]5)C=C4)C=C3)cc1
REMARK SMILES IDX 21 1 20 2 18 3 19 4 3 6 2 7 1 8 4 9 5 10 6 11 7 14 8 15 9 16
REMARK SMILES IDX 10 17 11 19 12 20 17 21 13 22 16 23 14 24 15 25 22 26 23 27
REMARK SMILES IDX 24 28 25 29 26 31 27 32 28 33 92 34 29 35 91 36 30 37 31 38
REMARK SMILES IDX 32 39 85 40 33 41 90 42 84 43 86 44 34 45 89 46 83 47 82 48
REMARK SMILES IDX 35 50 69 51 48 52 68 53 49 54 52 55 67 56 87 57 50 58 51 59
REMARK SMILES IDX 66 61 88 62 53 63 36 64 37 65 46 66 38 67 39 68 45 69 47 70
REMARK SMILES IDX 40 71 41 72 42 73 43 74 44 75 70 76 71 77 80 78 72 79 73 80
REMARK SMILES IDX 79 81 81 82 74 83 75 84 76 85 77 86 78 87 54 88 55 89 64 90
REMARK SMILES IDX 56 91 57 92 63 93 65 94 58 95 59 96 60 97 61 98 62 99
REMARK H PARENT 20 5 6 12 6 13 10 18 24 30 86 49 52 60
REMARK Flexibility Score: inf
ROOT
ATOM      1  C   UNL A   1      32.554  30.408  26.550  1.00  0.00     0.118 C 
ENDROOT
BRANCH   1   2
ATOM      2  N   UNL A   1      31.795  30.123  25.317  1.00  0.00    -0.351 N 
ATOM      3  C   UNL A   1      31.406  29.040  24.568  1.00  0.00     0.281 C 
ATOM      4  O   UNL A   1      30.265  29.218  24.102  1.00  0.00    -0.268 OA
ATOM      5  H   UNL A   1      31.471  30.959  24.911  1.00  0.00     0.163 HD
BRANCH   3   6
ATOM      6  C   UNL A   1      32.306  27.768  24.035  1.00  0.00     0.175 C 
BRANCH   6   7
ATOM      7  C   UNL A   1      32.253  26.817  25.325  1.00  0.00     0.076 C 
ATOM      8  C   UNL A   1      33.547  25.989  25.589  1.00  0.00     0.011 C 
ENDBRANCH   6   7
BRANCH   6   9
ATOM      9  C   UNL A   1      33.824  27.664  23.629  1.00  0.00     0.076 C 
ATOM     10  C   UNL A   1      34.333  28.693  22.592  1.00  0.00     0.011 C 
ENDBRANCH   6   9
BRANCH   6  11
ATOM     11  N   UNL A   1      31.570  27.250  22.888  1.00  0.00    -0.326 N 
ATOM     12  H   UNL A   1      31.921  27.738  22.065  1.00  0.00     0.347 HD
ATOM     13  H   UNL A   1      30.594  27.409  23.136  1.00  0.00     0.347 HD
BRANCH  11  14
ATOM     14  C   UNL A   1      31.623  25.799  22.585  1.00  0.00     0.363 C 
BRANCH  14  15
ATOM     15  C   UNL A   1      32.788  24.959  21.946  1.00  0.00     0.279 C 
ATOM     16  O   UNL A   1      33.210  25.381  20.851  1.00  0.00    -0.268 OA
ATOM     17  N   UNL A   1      33.602  24.014  22.538  1.00  0.00    -0.321 N 
ATOM     18  H   UNL A   1      34.543  24.160  22.287  1.00  0.00     0.170 HD
BRANCH  17  19
ATOM     19  C   UNL A   1      33.481  22.892  23.403  1.00  0.00     0.041 A 
ATOM     20  C   UNL A   1      34.538  22.208  23.989  1.00  0.00     0.026 A 
ATOM     21  C   UNL A   1      32.200  22.481  23.790  1.00  0.00     0.026 A 
ATOM     22  C   UNL A   1      34.363  20.998  24.674  1.00  0.00     0.005 A 
ATOM     23  C   UNL A   1      32.004  21.279  24.501  1.00  0.00     0.005 A 
ATOM     24  C   UNL A   1      33.090  20.482  24.868  1.00  0.00    -0.051 A 
ATOM     25  C   UNL A   1      32.930  19.122  25.478  1.00  0.00     0.044 C 
ENDBRANCH  17  19
ENDBRANCH  14  15
ENDBRANCH  11  14
ENDBRANCH   6  11
ENDBRANCH   3   6
ENDBRANCH   1   2
BRANCH   1  26
ATOM     26  C   UNL A   1      33.971  29.845  26.630  1.00  0.00     0.042 C 
BRANCH  26  27
ATOM     27  C   UNL A   1      34.619  30.040  27.998  1.00  0.00     0.118 C 
BRANCH  27  28
ATOM     28  N   UNL A   1      35.668  31.068  28.045  1.00  0.00    -0.352 N 
ATOM     29  C   UNL A   1      36.983  30.934  28.479  1.00  0.00     0.251 C 
ATOM     30  H   UNL A   1      35.408  31.964  27.730  1.00  0.00     0.163 HD
ATOM     31  O   UNL A   1      37.698  31.896  28.755  1.00  0.00    -0.269 OA
BRANCH  29  32
ATOM     32  C   UNL A   1      37.549  29.570  28.470  1.00  0.00     0.039 A 
ATOM     33  C   UNL A   1      37.692  28.947  29.718  1.00  0.00     0.014 A 
ATOM     34  C   UNL A   1      38.352  29.228  27.395  1.00  0.00     0.014 A 
ATOM     35  C   UNL A   1      38.828  28.190  29.966  1.00  0.00     0.010 A 
ATOM     36  C   UNL A   1      39.562  28.651  27.697  1.00  0.00     0.010 A 
ATOM     37  C   UNL A   1      39.815  28.163  28.990  1.00  0.00    -0.014 A 
BRANCH  37  38
ATOM     38  C   UNL A   1      41.158  27.644  29.187  1.00  0.00     0.031 A 
ATOM     39  C   UNL A   1      41.414  26.256  28.745  1.00  0.00     0.074 A 
ATOM     40  C   UNL A   1      42.148  28.468  29.594  1.00  0.00     0.049 A 
ATOM     41  N   UNL A   1      42.443  25.557  29.068  1.00  0.00    -0.248 NA
ATOM     42  C   UNL A   1      40.481  25.525  27.888  1.00  0.00     0.031 C 
ATOM     43  C   UNL A   1      43.588  28.234  29.525  1.00  0.00     0.029 A 
ATOM     44  N   UNL A   1      42.029  29.647  30.343  1.00  0.00    -0.354 N 
ATOM     45  C   UNL A   1      42.450  24.430  28.274  1.00  0.00     0.074 A 
ATOM     46  C   UNL A   1      41.198  24.449  27.566  1.00  0.00     0.031 C 
ATOM     47  C   UNL A   1      44.206  29.044  30.401  1.00  0.00     0.029 A 
ATOM     48  C   UNL A   1      43.171  29.719  31.168  1.00  0.00     0.049 A 
ATOM     49  H   UNL A   1      41.292  30.298  30.300  1.00  0.00     0.167 HD
ATOM     50  C   UNL A   1      43.580  23.672  28.216  1.00  0.00     0.037 A 
ATOM     51  C   UNL A   1      43.039  29.620  32.526  1.00  0.00     0.037 A 
ATOM     52  C   UNL A   1      44.558  24.156  29.187  1.00  0.00     0.049 A 
ATOM     53  C   UNL A   1      43.645  28.352  33.089  1.00  0.00     0.074 A 
ATOM     54  C   UNL A   1      45.608  25.053  29.080  1.00  0.00     0.029 A 
ATOM     55  N   UNL A   1      44.272  24.048  30.547  1.00  0.00    -0.354 N 
ATOM     56  N   UNL A   1      43.919  27.291  32.377  1.00  0.00    -0.248 NA
ATOM     57  C   UNL A   1      44.019  28.191  34.492  1.00  0.00     0.031 C 
ATOM     58  C   UNL A   1      45.866  25.579  30.373  1.00  0.00     0.029 A 
ATOM     59  C   UNL A   1      45.002  24.975  31.271  1.00  0.00     0.049 A 
ATOM     60  H   UNL A   1      43.638  23.404  30.938  1.00  0.00     0.167 HD
ATOM     61  C   UNL A   1      44.469  26.326  33.179  1.00  0.00     0.074 A 
ATOM     62  C   UNL A   1      44.526  26.946  34.491  1.00  0.00     0.031 C 
ATOM     63  C   UNL A   1      44.844  25.096  32.714  1.00  0.00     0.037 A 
BRANCH  50  64
ATOM     64  C   UNL A   1      43.871  22.732  27.069  1.00  0.00     0.058 A 
ATOM     65  C   UNL A   1      43.155  21.523  26.941  1.00  0.00     0.135 A 
ATOM     66  C   UNL A   1      44.885  22.921  26.108  1.00  0.00     0.135 A 
ATOM     67  F   UNL A   1      42.120  21.234  27.742  1.00  0.00    -0.206 F 
ATOM     68  C   UNL A   1      43.476  20.545  25.998  1.00  0.00     0.059 A 
ATOM     69  C   UNL A   1      45.267  21.932  25.193  1.00  0.00     0.059 A 
ATOM     70  F   UNL A   1      45.521  24.095  25.991  1.00  0.00    -0.206 F 
ATOM     71  C   UNL A   1      44.553  20.744  25.145  1.00  0.00     0.060 A 
BRANCH  71  72
ATOM     72  S   UNL A   1      44.977  19.444  23.968  1.00  0.00     0.124 S 
ATOM     73  O   UNL A   1      44.462  19.983  22.714  1.00  0.00    -0.237 OA
ATOM     74  O   UNL A   1      46.430  19.394  24.089  1.00  0.00    -0.237 OA
ATOM     75  O   UNL A   1      44.265  18.277  24.480  1.00  0.00    -0.744 OA
ENDBRANCH  71  72
ENDBRANCH  50  64
BRANCH  51  76
ATOM     76  C   UNL A   1      41.834  30.341  33.035  1.00  0.00     0.058 A 
ATOM     77  C   UNL A   1      41.961  31.733  33.225  1.00  0.00     0.135 A 
ATOM     78  C   UNL A   1      40.540  29.832  32.857  1.00  0.00     0.135 A 
ATOM     79  F   UNL A   1      43.173  32.275  33.424  1.00  0.00    -0.206 F 
ATOM     80  C   UNL A   1      40.888  32.599  33.043  1.00  0.00     0.059 A 
ATOM     81  C   UNL A   1      39.445  30.687  32.682  1.00  0.00     0.059 A 
ATOM     82  F   UNL A   1      40.348  28.515  32.690  1.00  0.00    -0.206 F 
ATOM     83  C   UNL A   1      39.652  32.067  32.691  1.00  0.00     0.060 A 
BRANCH  83  84
ATOM     84  S   UNL A   1      38.407  33.212  32.043  1.00  0.00     0.124 S 
ATOM     85  O   UNL A   1      39.062  33.720  30.843  1.00  0.00    -0.237 OA
ATOM     86  O   UNL A   1      37.274  32.315  31.810  1.00  0.00    -0.237 OA
ATOM     87  O   UNL A   1      38.242  34.171  33.127  1.00  0.00    -0.744 OA
ENDBRANCH  83  84
ENDBRANCH  51  76
BRANCH  63  88
ATOM     88  C   UNL A   1      45.212  23.923  33.591  1.00  0.00     0.058 A 
ATOM     89  C   UNL A   1      46.458  23.787  34.226  1.00  0.00     0.135 A 
ATOM     90  C   UNL A   1      44.243  22.946  33.928  1.00  0.00     0.135 A 
ATOM     91  F   UNL A   1      47.413  24.718  34.092  1.00  0.00    -0.206 F 
ATOM     92  C   UNL A   1      46.759  22.708  35.055  1.00  0.00     0.059 A 
ATOM     93  C   UNL A   1      44.502  21.896  34.803  1.00  0.00     0.059 A 
ATOM     94  F   UNL A   1      43.000  22.987  33.423  1.00  0.00    -0.206 F 
ATOM     95  C   UNL A   1      45.777  21.762  35.330  1.00  0.00     0.060 A 
BRANCH  95  96
ATOM     96  S   UNL A   1      46.155  20.374  36.412  1.00  0.00     0.124 S 
ATOM     97  O   UNL A   1      45.729  20.895  37.707  1.00  0.00    -0.237 OA
ATOM     98  O   UNL A   1      45.331  19.301  35.863  1.00  0.00    -0.237 OA
ATOM     99  O   UNL A   1      47.594  20.198  36.241  1.00  0.00    -0.744 OA
ENDBRANCH  95  96
ENDBRANCH  63  88
ENDBRANCH  37  38
ENDBRANCH  29  32
ENDBRANCH  27  28
ENDBRANCH  26  27
ENDBRANCH   1  26
TORSDOF 19
ENDMDL
MODEL 3
REMARK VINA RESULT:     -12.0      5.019     11.497
REMARK SMILES CCC(CC)([NH2+]CC(=O)Nc1ccc(C)cc1)C(=O)NCCCNC(=O)c1ccc(-c2c3nc(c(-c4c(F)cc(S(=O)(=O)[O-])cc4F)c4ccc([nH]4)c(-c4c(F)cc(S(=O)(=O)[O-])cc4F)c4nc(c(-c5c(F)cc(S(=O)(=O)[O-])cc5F)c5ccc2[nH]5)C=C4)C=C3)cc1
REMARK SMILES IDX 21 1 20 2 18 3 19 4 3 6 2 7 1 8 4 9 5 10 6 11 7 14 8 15 9 16
REMARK SMILES IDX 10 17 11 19 12 20 17 21 13 22 16 23 14 24 15 25 22 26 23 27
REMARK SMILES IDX 24 28 25 29 26 31 27 32 28 33 92 34 29 35 91 36 30 37 31 38
REMARK SMILES IDX 32 39 85 40 33 41 90 42 84 43 86 44 34 45 89 46 83 47 82 48
REMARK SMILES IDX 35 50 69 51 48 52 68 53 49 54 52 55 67 56 87 57 50 58 51 59
REMARK SMILES IDX 66 61 88 62 53 63 36 64 37 65 46 66 38 67 39 68 45 69 47 70
REMARK SMILES IDX 40 71 41 72 42 73 43 74 44 75 70 76 71 77 80 78 72 79 73 80
REMARK SMILES IDX 79 81 81 82 74 83 75 84 76 85 77 86 78 87 54 88 55 89 64 90
REMARK SMILES IDX 56 91 57 92 63 93 65 94 58 95 59 96 60 97 61 98 62 99
REMARK H PARENT 20 5 6 12 6 13 10 18 24 30 86 49 52 60
REMARK Flexibility Score: inf
ROOT
ATOM      1  C   UNL A   1      32.903  28.475  27.208  1.00  0.00     0.118 C 
ENDROOT
BRANCH   1   2
ATOM      2  N   UNL A   1      33.385  27.933  25.924  1.00  0.00    -0.351 N 
ATOM      3  C   UNL A   1      32.920  27.727  24.649  1.00  0.00     0.281 C 
ATOM      4  O   UNL A   1      33.823  27.936  23.816  1.00  0.00    -0.268 OA
ATOM      5  H   UNL A   1      34.316  27.626  26.007  1.00  0.00     0.163 HD
BRANCH   3   6
ATOM      6  C   UNL A   1      31.513  27.029  24.154  1.00  0.00     0.175 C 
BRANCH   6   7
ATOM      7  C   UNL A   1      30.794  28.286  23.466  1.00  0.00     0.076 C 
ATOM      8  C   UNL A   1      30.881  29.619  24.270  1.00  0.00     0.011 C 
ENDBRANCH   6   7
BRANCH   6   9
ATOM      9  C   UNL A   1      30.324  26.393  24.969  1.00  0.00     0.076 C 
ATOM     10  C   UNL A   1      28.947  26.357  24.265  1.00  0.00     0.011 C 
ENDBRANCH   6   9
BRANCH   6  11
ATOM     11  N   UNL A   1      31.924  25.994  23.212  1.00  0.00    -0.326 N 
ATOM     12  H   UNL A   1      32.267  26.471  22.379  1.00  0.00     0.347 HD
ATOM     13  H   UNL A   1      31.088  25.421  23.104  1.00  0.00     0.347 HD
BRANCH  11  14
ATOM     14  C   UNL A   1      32.967  25.020  23.613  1.00  0.00     0.363 C 
BRANCH  14  15
ATOM     15  C   UNL A   1      32.861  23.800  24.600  1.00  0.00     0.279 C 
ATOM     16  O   UNL A   1      31.727  23.601  25.080  1.00  0.00    -0.268 OA
ATOM     17  N   UNL A   1      33.743  22.755  24.786  1.00  0.00    -0.321 N 
ATOM     18  H   UNL A   1      33.262  21.896  24.822  1.00  0.00     0.170 HD
BRANCH  17  19
ATOM     19  C   UNL A   1      35.142  22.553  24.940  1.00  0.00     0.041 A 
ATOM     20  C   UNL A   1      35.826  21.381  24.643  1.00  0.00     0.026 A 
ATOM     21  C   UNL A   1      35.934  23.639  25.330  1.00  0.00     0.026 A 
ATOM     22  C   UNL A   1      37.167  21.184  24.997  1.00  0.00     0.005 A 
ATOM     23  C   UNL A   1      37.293  23.466  25.667  1.00  0.00     0.005 A 
ATOM     24  C   UNL A   1      37.893  22.207  25.588  1.00  0.00    -0.051 A 
ATOM     25  C   UNL A   1      39.281  21.936  26.086  1.00  0.00     0.044 C 
ENDBRANCH  17  19
ENDBRANCH  14  15
ENDBRANCH  11  14
ENDBRANCH   6  11
ENDBRANCH   3   6
ENDBRANCH   1   2
BRANCH   1  26
ATOM     26  C   UNL A   1      33.479  29.820  27.646  1.00  0.00     0.042 C 
BRANCH  26  27
ATOM     27  C   UNL A   1      34.780  30.178  26.931  1.00  0.00     0.118 C 
BRANCH  27  28
ATOM     28  N   UNL A   1      35.641  31.126  27.652  1.00  0.00    -0.352 N 
ATOM     29  C   UNL A   1      36.735  30.846  28.463  1.00  0.00     0.251 C 
ATOM     30  H   UNL A   1      35.414  32.079  27.549  1.00  0.00     0.163 HD
ATOM     31  O   UNL A   1      37.213  31.663  29.249  1.00  0.00    -0.269 OA
BRANCH  29  32
ATOM     32  C   UNL A   1      37.406  29.548  28.249  1.00  0.00     0.039 A 
ATOM     33  C   UNL A   1      37.438  28.675  29.346  1.00  0.00     0.014 A 
ATOM     34  C   UNL A   1      38.363  29.489  27.251  1.00  0.00     0.014 A 
ATOM     35  C   UNL A   1      38.590  27.941  29.589  1.00  0.00     0.010 A 
ATOM     36  C   UNL A   1      39.567  28.922  27.593  1.00  0.00     0.010 A 
ATOM     37  C   UNL A   1      39.692  28.178  28.778  1.00  0.00    -0.014 A 
BRANCH  37  38
ATOM     38  C   UNL A   1      41.036  27.697  29.050  1.00  0.00     0.031 A 
ATOM     39  C   UNL A   1      41.347  26.307  28.649  1.00  0.00     0.074 A 
ATOM     40  C   UNL A   1      41.985  28.554  29.487  1.00  0.00     0.049 A 
ATOM     41  N   UNL A   1      42.376  25.641  29.035  1.00  0.00    -0.248 NA
ATOM     42  C   UNL A   1      40.474  25.536  27.764  1.00  0.00     0.031 C 
ATOM     43  C   UNL A   1      43.432  28.355  29.491  1.00  0.00     0.029 A 
ATOM     44  N   UNL A   1      41.802  29.743  30.204  1.00  0.00    -0.354 N 
ATOM     45  C   UNL A   1      42.449  24.499  28.266  1.00  0.00     0.074 A 
ATOM     46  C   UNL A   1      41.232  24.473  27.499  1.00  0.00     0.031 C 
ATOM     47  C   UNL A   1      43.987  29.197  30.379  1.00  0.00     0.029 A 
ATOM     48  C   UNL A   1      42.900  29.860  31.081  1.00  0.00     0.049 A 
ATOM     49  H   UNL A   1      41.052  30.375  30.113  1.00  0.00     0.167 HD
ATOM     50  C   UNL A   1      43.599  23.769  28.278  1.00  0.00     0.037 A 
ATOM     51  C   UNL A   1      42.706  29.785  32.433  1.00  0.00     0.037 A 
ATOM     52  C   UNL A   1      44.517  24.297  29.284  1.00  0.00     0.049 A 
ATOM     53  C   UNL A   1      43.314  28.543  33.050  1.00  0.00     0.074 A 
ATOM     54  C   UNL A   1      45.548  25.218  29.208  1.00  0.00     0.029 A 
ATOM     55  N   UNL A   1      44.168  24.209  30.631  1.00  0.00    -0.354 N 
ATOM     56  N   UNL A   1      43.648  27.476  32.374  1.00  0.00    -0.248 NA
ATOM     57  C   UNL A   1      43.624  28.419  34.472  1.00  0.00     0.031 C 
ATOM     58  C   UNL A   1      45.731  25.776  30.501  1.00  0.00     0.029 A 
ATOM     59  C   UNL A   1      44.840  25.168  31.370  1.00  0.00     0.049 A 
ATOM     60  H   UNL A   1      43.532  23.556  31.005  1.00  0.00     0.167 HD
ATOM     61  C   UNL A   1      44.183  26.541  33.221  1.00  0.00     0.074 A 
ATOM     62  C   UNL A   1      44.161  27.188  34.521  1.00  0.00     0.031 C 
ATOM     63  C   UNL A   1      44.609  25.312  32.800  1.00  0.00     0.037 A 
BRANCH  50  64
ATOM     64  C   UNL A   1      43.967  22.814  27.165  1.00  0.00     0.058 A 
ATOM     65  C   UNL A   1      43.179  21.670  26.919  1.00  0.00     0.135 A 
ATOM     66  C   UNL A   1      45.117  22.924  26.356  1.00  0.00     0.135 A 
ATOM     67  F   UNL A   1      42.024  21.464  27.566  1.00  0.00    -0.206 F 
ATOM     68  C   UNL A   1      43.547  20.674  26.014  1.00  0.00     0.059 A 
ATOM     69  C   UNL A   1      45.539  21.912  25.485  1.00  0.00     0.059 A 
ATOM     70  F   UNL A   1      45.856  24.042  26.347  1.00  0.00    -0.206 F 
ATOM     71  C   UNL A   1      44.744  20.787  25.319  1.00  0.00     0.060 A 
BRANCH  71  72
ATOM     72  S   UNL A   1      45.219  19.464  24.190  1.00  0.00     0.124 S 
ATOM     73  O   UNL A   1      44.697  18.280  24.865  1.00  0.00    -0.237 OA
ATOM     74  O   UNL A   1      44.529  19.853  22.966  1.00  0.00    -0.237 OA
ATOM     75  O   UNL A   1      46.675  19.560  24.147  1.00  0.00    -0.744 OA
ENDBRANCH  71  72
ENDBRANCH  50  64
BRANCH  51  76
ATOM     76  C   UNL A   1      41.460  30.484  32.868  1.00  0.00     0.058 A 
ATOM     77  C   UNL A   1      40.342  29.672  33.149  1.00  0.00     0.135 A 
ATOM     78  C   UNL A   1      41.495  31.755  33.459  1.00  0.00     0.135 A 
ATOM     79  F   UNL A   1      40.242  28.453  32.593  1.00  0.00    -0.206 F 
ATOM     80  C   UNL A   1      39.411  30.016  34.123  1.00  0.00     0.059 A 
ATOM     81  C   UNL A   1      40.561  32.126  34.434  1.00  0.00     0.059 A 
ATOM     82  F   UNL A   1      42.520  32.585  33.217  1.00  0.00    -0.206 F 
ATOM     83  C   UNL A   1      39.579  31.211  34.816  1.00  0.00     0.060 A 
BRANCH  83  84
ATOM     84  S   UNL A   1      38.632  31.426  36.345  1.00  0.00     0.124 S 
ATOM     85  O   UNL A   1      39.607  32.077  37.213  1.00  0.00    -0.237 OA
ATOM     86  O   UNL A   1      37.528  32.274  35.891  1.00  0.00    -0.237 OA
ATOM     87  O   UNL A   1      38.274  30.062  36.708  1.00  0.00    -0.744 OA
ENDBRANCH  83  84
ENDBRANCH  51  76
BRANCH  63  88
ATOM     88  C   UNL A   1      44.962  24.166  33.717  1.00  0.00     0.058 A 
ATOM     89  C   UNL A   1      44.020  23.252  34.218  1.00  0.00     0.135 A 
ATOM     90  C   UNL A   1      46.316  23.875  34.016  1.00  0.00     0.135 A 
ATOM     91  F   UNL A   1      42.722  23.343  33.896  1.00  0.00    -0.206 F 
ATOM     92  C   UNL A   1      44.379  22.185  35.039  1.00  0.00     0.059 A 
ATOM     93  C   UNL A   1      46.702  22.780  34.781  1.00  0.00     0.059 A 
ATOM     94  F   UNL A   1      47.316  24.647  33.561  1.00  0.00    -0.206 F 
ATOM     95  C   UNL A   1      45.722  21.962  35.323  1.00  0.00     0.060 A 
BRANCH  95  96
ATOM     96  S   UNL A   1      46.195  20.576  36.371  1.00  0.00     0.124 S 
ATOM     97  O   UNL A   1      45.778  21.056  37.685  1.00  0.00    -0.237 OA
ATOM     98  O   UNL A   1      45.410  19.474  35.825  1.00  0.00    -0.237 OA
ATOM     99  O   UNL A   1      47.635  20.474  36.162  1.00  0.00    -0.744 OA
ENDBRANCH  95  96
ENDBRANCH  63  88
ENDBRANCH  37  38
ENDBRANCH  29  32
ENDBRANCH  27  28
ENDBRANCH  26  27
ENDBRANCH   1  26
TORSDOF 19
ENDMDL
