MODEL 1
REMARK VINA RESULT:     -13.0      0.000      0.000
REMARK SMILES O=C(NCCCNC(=O)[C@@H]1CCCN1S(=O)(=O)c1ccc2c3c(cccc13)C(=O)N2)c1ccc(-c2c3nc(c(-c4c(F)cc(S(=O)(=O)[O-])cc4F)c4ccc([nH]4)c(-c4c(F)cc(S(=O)(=O)[O-])cc4F)c4nc(c(-c5c(F)cc(S(=O)(=O)[O-])cc5F)c5ccc2[nH]5)C=C4)C=C3)cc1
REMARK SMILES IDX 4 1 3 2 1 3 2 4 31 6 32 7 96 8 33 9 95 10 34 11 35 12 36 13
REMARK SMILES IDX 89 14 37 15 94 16 88 17 90 18 38 19 93 20 87 21 86 22 39 24
REMARK SMILES IDX 73 25 52 26 72 27 53 28 56 29 71 30 91 31 54 32 55 33 70 35
REMARK SMILES IDX 92 36 57 37 40 38 41 39 50 40 42 41 43 42 49 43 51 44 44 45
REMARK SMILES IDX 45 46 46 47 47 48 48 49 74 50 75 51 84 52 76 53 77 54 83 55
REMARK SMILES IDX 85 56 78 57 79 58 80 59 81 60 82 61 58 62 59 63 68 64 60 65
REMARK SMILES IDX 61 66 67 67 69 68 62 69 63 70 64 71 65 72 66 73 5 74 6 75
REMARK SMILES IDX 7 76 8 77 9 79 10 80 11 81 14 82 12 83 13 84 15 85 16 86
REMARK SMILES IDX 17 87 18 88 19 89 27 90 20 91 22 92 26 93 21 94 23 95 25 96
REMARK SMILES IDX 30 97 24 98 28 99 29 101
REMARK H PARENT 3 5 90 23 56 34 7 78 30 100
REMARK Flexibility Score: inf
ROOT
ATOM      1  C   UNL A   1      34.816  29.372  27.639  1.00  0.00     0.118 C 
ENDROOT
BRANCH   1   2
ATOM      2  N   UNL A   1      34.971  30.345  28.699  1.00  0.00    -0.352 N 
ATOM      3  O   UNL A   1      35.859  31.135  30.601  1.00  0.00    -0.269 OA
ATOM      4  C   UNL A   1      36.037  30.519  29.552  1.00  0.00     0.251 C 
ATOM      5  H   UNL A   1      34.214  30.963  28.828  1.00  0.00     0.163 HD
BRANCH   4   6
ATOM      6  C   UNL A   1      37.389  29.989  29.233  1.00  0.00     0.039 A 
ATOM      7  C   UNL A   1      37.877  29.976  27.925  1.00  0.00     0.014 A 
ATOM      8  C   UNL A   1      38.243  29.633  30.281  1.00  0.00     0.014 A 
ATOM      9  C   UNL A   1      39.191  29.555  27.669  1.00  0.00     0.010 A 
ATOM     10  C   UNL A   1      39.568  29.240  30.023  1.00  0.00     0.010 A 
ATOM     11  C   UNL A   1      40.059  29.179  28.710  1.00  0.00    -0.014 A 
BRANCH  11  12
ATOM     12  C   UNL A   1      41.477  28.777  28.434  1.00  0.00     0.031 A 
ATOM     13  C   UNL A   1      42.608  29.781  28.505  1.00  0.00     0.074 A 
ATOM     14  C   UNL A   1      41.764  27.496  28.114  1.00  0.00     0.049 A 
ATOM     15  N   UNL A   1      43.885  29.609  28.263  1.00  0.00    -0.248 NA
ATOM     16  C   UNL A   1      42.266  31.151  28.916  1.00  0.00     0.031 C 
ATOM     17  C   UNL A   1      40.790  26.406  28.030  1.00  0.00     0.029 A 
ATOM     18  N   UNL A   1      42.960  26.889  27.804  1.00  0.00    -0.354 N 
ATOM     19  C   UNL A   1      44.499  30.832  28.511  1.00  0.00     0.074 A 
ATOM     20  C   UNL A   1      43.448  31.755  28.887  1.00  0.00     0.031 C 
ATOM     21  C   UNL A   1      41.427  25.265  27.723  1.00  0.00     0.029 A 
ATOM     22  C   UNL A   1      42.845  25.547  27.520  1.00  0.00     0.049 A 
ATOM     23  H   UNL A   1      43.818  27.371  27.786  1.00  0.00     0.167 HD
ATOM     24  C   UNL A   1      45.815  31.160  28.448  1.00  0.00     0.037 A 
ATOM     25  C   UNL A   1      43.761  24.643  27.119  1.00  0.00     0.037 A 
ATOM     26  C   UNL A   1      46.866  30.261  28.040  1.00  0.00     0.049 A 
ATOM     27  C   UNL A   1      45.191  25.075  26.919  1.00  0.00     0.074 A 
ATOM     28  C   UNL A   1      48.222  30.524  27.914  1.00  0.00     0.029 A 
ATOM     29  N   UNL A   1      46.689  28.933  27.685  1.00  0.00    -0.354 N 
ATOM     30  N   UNL A   1      45.746  26.238  27.161  1.00  0.00    -0.248 NA
ATOM     31  C   UNL A   1      46.118  24.068  26.380  1.00  0.00     0.031 C 
ATOM     32  C   UNL A   1      48.854  29.372  27.435  1.00  0.00     0.029 A 
ATOM     33  C   UNL A   1      47.904  28.373  27.318  1.00  0.00     0.049 A 
ATOM     34  H   UNL A   1      45.827  28.457  27.693  1.00  0.00     0.167 HD
ATOM     35  C   UNL A   1      47.092  26.089  26.837  1.00  0.00     0.074 A 
ATOM     36  C   UNL A   1      47.271  24.722  26.401  1.00  0.00     0.031 C 
ATOM     37  C   UNL A   1      48.087  27.008  26.895  1.00  0.00     0.037 A 
BRANCH  24  38
ATOM     38  C   UNL A   1      46.222  32.558  28.839  1.00  0.00     0.058 A 
ATOM     39  C   UNL A   1      46.628  32.856  30.149  1.00  0.00     0.135 A 
ATOM     40  C   UNL A   1      46.327  33.576  27.876  1.00  0.00     0.135 A 
ATOM     41  F   UNL A   1      46.533  31.926  31.114  1.00  0.00    -0.206 F 
ATOM     42  C   UNL A   1      47.128  34.109  30.491  1.00  0.00     0.059 A 
ATOM     43  C   UNL A   1      46.846  34.831  28.189  1.00  0.00     0.059 A 
ATOM     44  F   UNL A   1      45.954  33.347  26.607  1.00  0.00    -0.206 F 
ATOM     45  C   UNL A   1      47.245  35.087  29.500  1.00  0.00     0.060 A 
BRANCH  45  46
ATOM     46  S   UNL A   1      47.943  36.690  29.955  1.00  0.00     0.124 S 
ATOM     47  O   UNL A   1      49.374  36.438  29.812  1.00  0.00    -0.237 OA
ATOM     48  O   UNL A   1      47.353  37.577  28.960  1.00  0.00    -0.237 OA
ATOM     49  O   UNL A   1      47.478  36.889  31.325  1.00  0.00    -0.744 OA
ENDBRANCH  45  46
ENDBRANCH  24  38
BRANCH  25  50
ATOM     50  C   UNL A   1      43.369  23.229  26.860  1.00  0.00     0.058 A 
ATOM     51  C   UNL A   1      43.105  22.350  27.922  1.00  0.00     0.135 A 
ATOM     52  C   UNL A   1      43.293  22.714  25.555  1.00  0.00     0.135 A 
ATOM     53  F   UNL A   1      43.179  22.788  29.188  1.00  0.00    -0.206 F 
ATOM     54  C   UNL A   1      42.812  21.008  27.703  1.00  0.00     0.059 A 
ATOM     55  C   UNL A   1      42.967  21.383  25.310  1.00  0.00     0.059 A 
ATOM     56  F   UNL A   1      43.530  23.510  24.501  1.00  0.00    -0.206 F 
ATOM     57  C   UNL A   1      42.747  20.534  26.393  1.00  0.00     0.060 A 
BRANCH  57  58
ATOM     58  S   UNL A   1      42.363  18.789  26.124  1.00  0.00     0.124 S 
ATOM     59  O   UNL A   1      43.304  18.441  25.065  1.00  0.00    -0.237 OA
ATOM     60  O   UNL A   1      42.636  18.211  27.436  1.00  0.00    -0.237 OA
ATOM     61  O   UNL A   1      40.956  18.810  25.736  1.00  0.00    -0.744 OA
ENDBRANCH  57  58
ENDBRANCH  25  50
BRANCH  37  62
ATOM     62  C   UNL A   1      49.475  26.563  26.511  1.00  0.00     0.058 A 
ATOM     63  C   UNL A   1      50.333  25.944  27.433  1.00  0.00     0.135 A 
ATOM     64  C   UNL A   1      49.938  26.721  25.194  1.00  0.00     0.135 A 
ATOM     65  F   UNL A   1      49.946  25.770  28.706  1.00  0.00    -0.206 F 
ATOM     66  C   UNL A   1      51.612  25.527  27.072  1.00  0.00     0.059 A 
ATOM     67  C   UNL A   1      51.200  26.282  24.802  1.00  0.00     0.059 A 
ATOM     68  F   UNL A   1      49.156  27.296  24.266  1.00  0.00    -0.206 F 
ATOM     69  C   UNL A   1      52.035  25.698  25.753  1.00  0.00     0.060 A 
BRANCH  69  70
ATOM     70  S   UNL A   1      53.688  25.132  25.299  1.00  0.00     0.124 S 
ATOM     71  O   UNL A   1      53.539  23.683  25.381  1.00  0.00    -0.237 OA
ATOM     72  O   UNL A   1      53.843  25.678  23.953  1.00  0.00    -0.237 OA
ATOM     73  O   UNL A   1      54.547  25.732  26.315  1.00  0.00    -0.744 OA
ENDBRANCH  69  70
ENDBRANCH  37  62
ENDBRANCH  11  12
ENDBRANCH   4   6
ENDBRANCH   1   2
BRANCH   1  74
ATOM     74  C   UNL A   1      33.550  29.630  26.826  1.00  0.00     0.042 C 
BRANCH  74  75
ATOM     75  C   UNL A   1      33.468  29.005  25.433  1.00  0.00     0.117 C 
BRANCH  75  76
ATOM     76  N   UNL A   1      32.116  28.779  24.960  1.00  0.00    -0.355 N 
ATOM     77  C   UNL A   1      31.558  27.813  24.196  1.00  0.00     0.238 C 
ATOM     78  H   UNL A   1      31.476  29.466  25.255  1.00  0.00     0.163 HD
ATOM     79  O   UNL A   1      30.318  27.809  24.179  1.00  0.00    -0.273 OA
BRANCH  77  80
ATOM     80  C   UNL A   1      32.304  26.762  23.403  1.00  0.00     0.162 C 
ATOM     81  C   UNL A   1      31.848  26.698  21.944  1.00  0.00     0.032 C 
ATOM     82  N   UNL A   1      32.675  25.384  23.793  1.00  0.00    -0.185 NA
ATOM     83  C   UNL A   1      32.592  25.500  21.390  1.00  0.00     0.019 C 
ATOM     84  C   UNL A   1      32.609  24.531  22.556  1.00  0.00     0.103 C 
BRANCH  82  85
ATOM     85  S   UNL A   1      32.244  24.495  25.159  1.00  0.00     0.244 S 
ATOM     86  O   UNL A   1      32.625  25.333  26.278  1.00  0.00    -0.207 OA
ATOM     87  O   UNL A   1      30.853  24.140  24.973  1.00  0.00    -0.207 OA
BRANCH  85  88
ATOM     88  C   UNL A   1      33.126  22.964  25.312  1.00  0.00     0.090 A 
ATOM     89  C   UNL A   1      32.458  21.723  25.348  1.00  0.00     0.024 A 
ATOM     90  C   UNL A   1      34.555  23.016  25.328  1.00  0.00     0.005 A 
ATOM     91  C   UNL A   1      33.149  20.501  25.194  1.00  0.00     0.028 A 
ATOM     92  C   UNL A   1      35.170  21.803  25.232  1.00  0.00     0.019 A 
ATOM     93  C   UNL A   1      35.451  24.113  25.430  1.00  0.00     0.010 A 
ATOM     94  C   UNL A   1      34.524  20.596  25.113  1.00  0.00     0.050 A 
ATOM     95  C   UNL A   1      36.537  21.570  25.213  1.00  0.00     0.050 A 
ATOM     96  C   UNL A   1      36.845  23.912  25.484  1.00  0.00     0.002 A 
ATOM     97  N   UNL A   1      35.495  19.624  24.956  1.00  0.00    -0.321 N 
ATOM     98  C   UNL A   1      37.415  22.634  25.394  1.00  0.00     0.014 A 
ATOM     99  C   UNL A   1      36.789  20.161  25.004  1.00  0.00     0.256 C 
ATOM    100  H   UNL A   1      35.301  18.667  24.824  1.00  0.00     0.170 HD
ATOM    101  O   UNL A   1      37.815  19.509  24.850  1.00  0.00    -0.269 OA
ENDBRANCH  85  88
ENDBRANCH  82  85
ENDBRANCH  77  80
ENDBRANCH  75  76
ENDBRANCH  74  75
ENDBRANCH   1  74
TORSDOF 15
ENDMDL
MODEL 2
REMARK VINA RESULT:     -13.0      2.450      3.177
REMARK SMILES O=C(NCCCNC(=O)[C@@H]1CCCN1S(=O)(=O)c1ccc2c3c(cccc13)C(=O)N2)c1ccc(-c2c3nc(c(-c4c(F)cc(S(=O)(=O)[O-])cc4F)c4ccc([nH]4)c(-c4c(F)cc(S(=O)(=O)[O-])cc4F)c4nc(c(-c5c(F)cc(S(=O)(=O)[O-])cc5F)c5ccc2[nH]5)C=C4)C=C3)cc1
REMARK SMILES IDX 4 1 3 2 1 3 2 4 31 6 32 7 96 8 33 9 95 10 34 11 35 12 36 13
REMARK SMILES IDX 89 14 37 15 94 16 88 17 90 18 38 19 93 20 87 21 86 22 39 24
REMARK SMILES IDX 73 25 52 26 72 27 53 28 56 29 71 30 91 31 54 32 55 33 70 35
REMARK SMILES IDX 92 36 57 37 40 38 41 39 50 40 42 41 43 42 49 43 51 44 44 45
REMARK SMILES IDX 45 46 46 47 47 48 48 49 74 50 75 51 84 52 76 53 77 54 83 55
REMARK SMILES IDX 85 56 78 57 79 58 80 59 81 60 82 61 58 62 59 63 68 64 60 65
REMARK SMILES IDX 61 66 67 67 69 68 62 69 63 70 64 71 65 72 66 73 5 74 6 75
REMARK SMILES IDX 7 76 8 77 9 79 10 80 11 81 14 82 12 83 13 84 15 85 16 86
REMARK SMILES IDX 17 87 18 88 19 89 27 90 20 91 22 92 26 93 21 94 23 95 25 96
REMARK SMILES IDX 30 97 24 98 28 99 29 101
REMARK H PARENT 3 5 90 23 56 34 7 78 30 100
REMARK Flexibility Score: inf
ROOT
ATOM      1  C   UNL A   1      33.402  28.321  27.286  1.00  0.00     0.118 C 
ENDROOT
BRANCH   1   2
ATOM      2  N   UNL A   1      33.371  29.747  27.526  1.00  0.00    -0.352 N 
ATOM      3  O   UNL A   1      33.964  31.629  28.593  1.00  0.00    -0.269 OA
ATOM      4  C   UNL A   1      34.306  30.528  28.167  1.00  0.00     0.251 C 
ATOM      5  H   UNL A   1      32.577  30.222  27.188  1.00  0.00     0.163 HD
BRANCH   4   6
ATOM      6  C   UNL A   1      35.712  30.077  28.346  1.00  0.00     0.039 A 
ATOM      7  C   UNL A   1      36.646  30.170  27.313  1.00  0.00     0.014 A 
ATOM      8  C   UNL A   1      36.141  29.687  29.619  1.00  0.00     0.014 A 
ATOM      9  C   UNL A   1      37.985  29.821  27.542  1.00  0.00     0.010 A 
ATOM     10  C   UNL A   1      37.490  29.367  29.852  1.00  0.00     0.010 A 
ATOM     11  C   UNL A   1      38.432  29.412  28.813  1.00  0.00    -0.014 A 
BRANCH  11  12
ATOM     12  C   UNL A   1      39.874  29.088  29.063  1.00  0.00     0.031 A 
ATOM     13  C   UNL A   1      40.811  30.098  29.691  1.00  0.00     0.074 A 
ATOM     14  C   UNL A   1      40.360  27.873  28.726  1.00  0.00     0.049 A 
ATOM     15  N   UNL A   1      42.094  29.992  29.944  1.00  0.00    -0.248 NA
ATOM     16  C   UNL A   1      40.233  31.387  30.099  1.00  0.00     0.031 C 
ATOM     17  C   UNL A   1      39.579  26.782  28.137  1.00  0.00     0.029 A 
ATOM     18  N   UNL A   1      41.627  27.345  28.833  1.00  0.00    -0.354 N 
ATOM     19  C   UNL A   1      42.470  31.182  30.560  1.00  0.00     0.074 A 
ATOM     20  C   UNL A   1      41.287  32.017  30.606  1.00  0.00     0.031 C 
ATOM     21  C   UNL A   1      40.370  25.712  27.965  1.00  0.00     0.029 A 
ATOM     22  C   UNL A   1      41.732  26.054  28.366  1.00  0.00     0.049 A 
ATOM     23  H   UNL A   1      42.387  27.845  29.210  1.00  0.00     0.167 HD
ATOM     24  C   UNL A   1      43.680  31.547  31.054  1.00  0.00     0.037 A 
ATOM     25  C   UNL A   1      42.800  25.239  28.245  1.00  0.00     0.037 A 
ATOM     26  C   UNL A   1      44.874  30.741  30.980  1.00  0.00     0.049 A 
ATOM     27  C   UNL A   1      44.159  25.729  28.671  1.00  0.00     0.074 A 
ATOM     28  C   UNL A   1      46.149  31.051  31.425  1.00  0.00     0.029 A 
ATOM     29  N   UNL A   1      44.948  29.473  30.425  1.00  0.00    -0.354 N 
ATOM     30  N   UNL A   1      44.488  26.858  29.250  1.00  0.00    -0.248 NA
ATOM     31  C   UNL A   1      45.296  24.831  28.417  1.00  0.00     0.031 C 
ATOM     32  C   UNL A   1      47.004  29.995  31.092  1.00  0.00     0.029 A 
ATOM     33  C   UNL A   1      46.251  29.000  30.494  1.00  0.00     0.049 A 
ATOM     34  H   UNL A   1      44.188  28.980  30.038  1.00  0.00     0.167 HD
ATOM     35  C   UNL A   1      45.863  26.790  29.460  1.00  0.00     0.074 A 
ATOM     36  C   UNL A   1      46.300  25.503  28.964  1.00  0.00     0.031 C 
ATOM     37  C   UNL A   1      46.686  27.714  30.012  1.00  0.00     0.037 A 
BRANCH  24  38
ATOM     38  C   UNL A   1      43.797  32.884  31.740  1.00  0.00     0.058 A 
ATOM     39  C   UNL A   1      43.944  34.068  31.001  1.00  0.00     0.135 A 
ATOM     40  C   UNL A   1      43.637  32.999  33.132  1.00  0.00     0.135 A 
ATOM     41  F   UNL A   1      44.116  34.017  29.670  1.00  0.00    -0.206 F 
ATOM     42  C   UNL A   1      43.923  35.318  31.615  1.00  0.00     0.059 A 
ATOM     43  C   UNL A   1      43.590  34.239  33.764  1.00  0.00     0.059 A 
ATOM     44  F   UNL A   1      43.492  31.899  33.888  1.00  0.00    -0.206 F 
ATOM     45  C   UNL A   1      43.733  35.394  32.996  1.00  0.00     0.060 A 
BRANCH  45  46
ATOM     46  S   UNL A   1      43.660  37.027  33.764  1.00  0.00     0.124 S 
ATOM     47  O   UNL A   1      42.423  36.935  34.534  1.00  0.00    -0.237 OA
ATOM     48  O   UNL A   1      44.892  37.058  34.543  1.00  0.00    -0.237 OA
ATOM     49  O   UNL A   1      43.618  37.939  32.624  1.00  0.00    -0.744 OA
ENDBRANCH  45  46
ENDBRANCH  24  38
BRANCH  25  50
ATOM     50  C   UNL A   1      42.646  23.867  27.683  1.00  0.00     0.058 A 
ATOM     51  C   UNL A   1      42.508  22.755  28.528  1.00  0.00     0.135 A 
ATOM     52  C   UNL A   1      42.679  23.632  26.299  1.00  0.00     0.135 A 
ATOM     53  F   UNL A   1      42.486  22.924  29.859  1.00  0.00    -0.206 F 
ATOM     54  C   UNL A   1      42.441  21.460  28.026  1.00  0.00     0.059 A 
ATOM     55  C   UNL A   1      42.578  22.348  25.771  1.00  0.00     0.059 A 
ATOM     56  F   UNL A   1      42.804  24.658  25.443  1.00  0.00    -0.206 F 
ATOM     57  C   UNL A   1      42.477  21.267  26.645  1.00  0.00     0.060 A 
BRANCH  57  58
ATOM     58  S   UNL A   1      42.386  19.580  26.006  1.00  0.00     0.124 S 
ATOM     59  O   UNL A   1      43.342  19.630  24.906  1.00  0.00    -0.237 OA
ATOM     60  O   UNL A   1      42.788  18.792  27.167  1.00  0.00    -0.237 OA
ATOM     61  O   UNL A   1      40.985  19.442  25.618  1.00  0.00    -0.744 OA
ENDBRANCH  57  58
ENDBRANCH  25  50
BRANCH  37  62
ATOM     62  C   UNL A   1      48.145  27.361  30.146  1.00  0.00     0.058 A 
ATOM     63  C   UNL A   1      49.095  27.774  29.199  1.00  0.00     0.135 A 
ATOM     64  C   UNL A   1      48.606  26.634  31.256  1.00  0.00     0.135 A 
ATOM     65  F   UNL A   1      48.712  28.468  28.115  1.00  0.00    -0.206 F 
ATOM     66  C   UNL A   1      50.443  27.453  29.330  1.00  0.00     0.059 A 
ATOM     67  C   UNL A   1      49.954  26.329  31.426  1.00  0.00     0.059 A 
ATOM     68  F   UNL A   1      47.745  26.223  32.201  1.00  0.00    -0.206 F 
ATOM     69  C   UNL A   1      50.864  26.732  30.450  1.00  0.00     0.060 A 
BRANCH  69  70
ATOM     70  S   UNL A   1      52.619  26.341  30.614  1.00  0.00     0.124 S 
ATOM     71  O   UNL A   1      52.981  26.022  29.237  1.00  0.00    -0.237 OA
ATOM     72  O   UNL A   1      53.165  27.589  31.140  1.00  0.00    -0.237 OA
ATOM     73  O   UNL A   1      52.634  25.215  31.543  1.00  0.00    -0.744 OA
ENDBRANCH  69  70
ENDBRANCH  37  62
ENDBRANCH  11  12
ENDBRANCH   4   6
ENDBRANCH   1   2
BRANCH   1  74
ATOM     74  C   UNL A   1      33.579  28.008  25.803  1.00  0.00     0.042 C 
BRANCH  74  75
ATOM     75  C   UNL A   1      32.869  28.921  24.801  1.00  0.00     0.117 C 
BRANCH  75  76
ATOM     76  N   UNL A   1      31.576  28.434  24.363  1.00  0.00    -0.355 N 
ATOM     77  C   UNL A   1      31.189  27.324  23.695  1.00  0.00     0.238 C 
ATOM     78  H   UNL A   1      30.830  29.030  24.601  1.00  0.00     0.163 HD
ATOM     79  O   UNL A   1      29.966  27.115  23.690  1.00  0.00    -0.273 OA
BRANCH  77  80
ATOM     80  C   UNL A   1      32.102  26.343  22.994  1.00  0.00     0.162 C 
ATOM     81  C   UNL A   1      31.854  26.290  21.484  1.00  0.00     0.032 C 
ATOM     82  N   UNL A   1      32.503  24.979  23.406  1.00  0.00    -0.185 NA
ATOM     83  C   UNL A   1      32.741  25.155  21.016  1.00  0.00     0.019 C 
ATOM     84  C   UNL A   1      32.661  24.158  22.156  1.00  0.00     0.103 C 
BRANCH  82  85
ATOM     85  S   UNL A   1      31.949  24.030  24.683  1.00  0.00     0.244 S 
ATOM     86  O   UNL A   1      32.064  24.880  25.850  1.00  0.00    -0.207 OA
ATOM     87  O   UNL A   1      30.646  23.548  24.275  1.00  0.00    -0.207 OA
BRANCH  85  88
ATOM     88  C   UNL A   1      32.938  22.587  24.971  1.00  0.00     0.090 A 
ATOM     89  C   UNL A   1      32.364  21.305  25.095  1.00  0.00     0.024 A 
ATOM     90  C   UNL A   1      34.359  22.749  25.007  1.00  0.00     0.005 A 
ATOM     91  C   UNL A   1      33.148  20.131  25.050  1.00  0.00     0.028 A 
ATOM     92  C   UNL A   1      35.065  21.583  25.017  1.00  0.00     0.019 A 
ATOM     93  C   UNL A   1      35.168  23.915  25.035  1.00  0.00     0.010 A 
ATOM     94  C   UNL A   1      34.513  20.324  24.984  1.00  0.00     0.050 A 
ATOM     95  C   UNL A   1      36.445  21.453  25.040  1.00  0.00     0.050 A 
ATOM     96  C   UNL A   1      36.572  23.826  25.128  1.00  0.00     0.002 A 
ATOM     97  N   UNL A   1      35.558  19.419  24.920  1.00  0.00    -0.321 N 
ATOM     98  C   UNL A   1      37.237  22.591  25.149  1.00  0.00     0.014 A 
ATOM     99  C   UNL A   1      36.806  20.056  24.947  1.00  0.00     0.256 C 
ATOM    100  H   UNL A   1      35.438  18.443  24.862  1.00  0.00     0.170 HD
ATOM    101  O   UNL A   1      37.881  19.473  24.863  1.00  0.00    -0.269 OA
ENDBRANCH  85  88
ENDBRANCH  82  85
ENDBRANCH  77  80
ENDBRANCH  75  76
ENDBRANCH  74  75
ENDBRANCH   1  74
TORSDOF 15
ENDMDL
MODEL 3
REMARK VINA RESULT:     -12.9      6.222     11.890
REMARK SMILES O=C(NCCCNC(=O)[C@@H]1CCCN1S(=O)(=O)c1ccc2c3c(cccc13)C(=O)N2)c1ccc(-c2c3nc(c(-c4c(F)cc(S(=O)(=O)[O-])cc4F)c4ccc([nH]4)c(-c4c(F)cc(S(=O)(=O)[O-])cc4F)c4nc(c(-c5c(F)cc(S(=O)(=O)[O-])cc5F)c5ccc2[nH]5)C=C4)C=C3)cc1
REMARK SMILES IDX 4 1 3 2 1 3 2 4 31 6 32 7 96 8 33 9 95 10 34 11 35 12 36 13
REMARK SMILES IDX 89 14 37 15 94 16 88 17 90 18 38 19 93 20 87 21 86 22 39 24
REMARK SMILES IDX 73 25 52 26 72 27 53 28 56 29 71 30 91 31 54 32 55 33 70 35
REMARK SMILES IDX 92 36 57 37 40 38 41 39 50 40 42 41 43 42 49 43 51 44 44 45
REMARK SMILES IDX 45 46 46 47 47 48 48 49 74 50 75 51 84 52 76 53 77 54 83 55
REMARK SMILES IDX 85 56 78 57 79 58 80 59 81 60 82 61 58 62 59 63 68 64 60 65
REMARK SMILES IDX 61 66 67 67 69 68 62 69 63 70 64 71 65 72 66 73 5 74 6 75
REMARK SMILES IDX 7 76 8 77 9 79 10 80 11 81 14 82 12 83 13 84 15 85 16 86
REMARK SMILES IDX 17 87 18 88 19 89 27 90 20 91 22 92 26 93 21 94 23 95 25 96
REMARK SMILES IDX 30 97 24 98 28 99 29 101
REMARK H PARENT 3 5 90 23 56 34 7 78 30 100
REMARK Flexibility Score: inf
ROOT
ATOM      1  C   UNL A   1      38.600  23.652  26.450  1.00  0.00     0.118 C 
ENDROOT
BRANCH   1   2
ATOM      2  N   UNL A   1      40.024  23.494  26.242  1.00  0.00    -0.352 N 
ATOM      3  O   UNL A   1      42.122  24.241  25.983  1.00  0.00    -0.269 OA
ATOM      4  C   UNL A   1      41.036  24.376  26.543  1.00  0.00     0.251 C 
ATOM      5  H   UNL A   1      40.305  22.644  25.831  1.00  0.00     0.163 HD
BRANCH   4   6
ATOM      6  C   UNL A   1      40.849  25.475  27.527  1.00  0.00     0.039 A 
ATOM      7  C   UNL A   1      39.773  25.484  28.415  1.00  0.00     0.014 A 
ATOM      8  C   UNL A   1      41.851  26.442  27.663  1.00  0.00     0.014 A 
ATOM      9  C   UNL A   1      39.675  26.486  29.393  1.00  0.00     0.010 A 
ATOM     10  C   UNL A   1      41.765  27.426  28.662  1.00  0.00     0.010 A 
ATOM     11  C   UNL A   1      40.666  27.475  29.533  1.00  0.00    -0.014 A 
BRANCH  11  12
ATOM     12  C   UNL A   1      40.580  28.514  30.611  1.00  0.00     0.031 A 
ATOM     13  C   UNL A   1      41.510  28.488  31.806  1.00  0.00     0.074 A 
ATOM     14  C   UNL A   1      39.659  29.499  30.526  1.00  0.00     0.049 A 
ATOM     15  N   UNL A   1      41.548  29.289  32.843  1.00  0.00    -0.248 NA
ATOM     16  C   UNL A   1      42.539  27.437  31.834  1.00  0.00     0.031 C 
ATOM     17  C   UNL A   1      38.709  29.677  29.425  1.00  0.00     0.029 A 
ATOM     18  N   UNL A   1      39.371  30.542  31.376  1.00  0.00    -0.354 N 
ATOM     19  C   UNL A   1      42.610  28.858  33.632  1.00  0.00     0.074 A 
ATOM     20  C   UNL A   1      43.170  27.696  32.973  1.00  0.00     0.031 C 
ATOM     21  C   UNL A   1      37.969  30.773  29.650  1.00  0.00     0.029 A 
ATOM     22  C   UNL A   1      38.339  31.344  30.942  1.00  0.00     0.049 A 
ATOM     23  H   UNL A   1      39.857  30.699  32.218  1.00  0.00     0.167 HD
ATOM     24  C   UNL A   1      43.089  29.383  34.788  1.00  0.00     0.037 A 
ATOM     25  C   UNL A   1      37.736  32.403  31.519  1.00  0.00     0.037 A 
ATOM     26  C   UNL A   1      42.518  30.517  35.473  1.00  0.00     0.049 A 
ATOM     27  C   UNL A   1      38.198  32.873  32.874  1.00  0.00     0.074 A 
ATOM     28  C   UNL A   1      42.920  31.091  36.669  1.00  0.00     0.029 A 
ATOM     29  N   UNL A   1      41.424  31.247  35.035  1.00  0.00    -0.354 N 
ATOM     30  N   UNL A   1      39.206  32.449  33.599  1.00  0.00    -0.248 NA
ATOM     31  C   UNL A   1      37.432  33.965  33.493  1.00  0.00     0.031 C 
ATOM     32  C   UNL A   1      42.040  32.133  36.979  1.00  0.00     0.029 A 
ATOM     33  C   UNL A   1      41.124  32.247  35.948  1.00  0.00     0.049 A 
ATOM     34  H   UNL A   1      40.931  31.080  34.198  1.00  0.00     0.167 HD
ATOM     35  C   UNL A   1      39.213  33.245  34.740  1.00  0.00     0.074 A 
ATOM     36  C   UNL A   1      38.124  34.187  34.603  1.00  0.00     0.031 C 
ATOM     37  C   UNL A   1      40.047  33.194  35.807  1.00  0.00     0.037 A 
BRANCH  24  38
ATOM     38  C   UNL A   1      44.310  28.753  35.407  1.00  0.00     0.058 A 
ATOM     39  C   UNL A   1      44.195  27.698  36.326  1.00  0.00     0.135 A 
ATOM     40  C   UNL A   1      45.602  29.116  34.989  1.00  0.00     0.135 A 
ATOM     41  F   UNL A   1      42.986  27.320  36.772  1.00  0.00    -0.206 F 
ATOM     42  C   UNL A   1      45.315  27.023  36.804  1.00  0.00     0.059 A 
ATOM     43  C   UNL A   1      46.735  28.440  35.437  1.00  0.00     0.059 A 
ATOM     44  F   UNL A   1      45.771  30.117  34.110  1.00  0.00    -0.206 F 
ATOM     45  C   UNL A   1      46.580  27.393  36.344  1.00  0.00     0.060 A 
BRANCH  45  46
ATOM     46  S   UNL A   1      48.014  26.470  36.941  1.00  0.00     0.124 S 
ATOM     47  O   UNL A   1      47.865  25.204  36.230  1.00  0.00    -0.237 OA
ATOM     48  O   UNL A   1      49.124  27.312  36.510  1.00  0.00    -0.237 OA
ATOM     49  O   UNL A   1      47.802  26.405  38.384  1.00  0.00    -0.744 OA
ENDBRANCH  45  46
ENDBRANCH  24  38
BRANCH  25  50
ATOM     50  C   UNL A   1      36.610  33.100  30.834  1.00  0.00     0.058 A 
ATOM     51  C   UNL A   1      36.855  34.014  29.798  1.00  0.00     0.135 A 
ATOM     52  C   UNL A   1      35.276  32.905  31.228  1.00  0.00     0.135 A 
ATOM     53  F   UNL A   1      38.114  34.249  29.395  1.00  0.00    -0.206 F 
ATOM     54  C   UNL A   1      35.825  34.732  29.199  1.00  0.00     0.059 A 
ATOM     55  C   UNL A   1      34.225  33.585  30.619  1.00  0.00     0.059 A 
ATOM     56  F   UNL A   1      34.983  32.039  32.210  1.00  0.00    -0.206 F 
ATOM     57  C   UNL A   1      34.513  34.510  29.618  1.00  0.00     0.060 A 
BRANCH  57  58
ATOM     58  S   UNL A   1      33.185  35.447  28.829  1.00  0.00     0.124 S 
ATOM     59  O   UNL A   1      33.937  36.405  28.027  1.00  0.00    -0.237 OA
ATOM     60  O   UNL A   1      32.478  34.407  28.088  1.00  0.00    -0.237 OA
ATOM     61  O   UNL A   1      32.453  36.010  29.960  1.00  0.00    -0.744 OA
ENDBRANCH  57  58
ENDBRANCH  25  50
BRANCH  37  62
ATOM     62  C   UNL A   1      39.845  34.209  36.903  1.00  0.00     0.058 A 
ATOM     63  C   UNL A   1      40.334  35.521  36.794  1.00  0.00     0.135 A 
ATOM     64  C   UNL A   1      39.121  33.878  38.060  1.00  0.00     0.135 A 
ATOM     65  F   UNL A   1      41.037  35.893  35.713  1.00  0.00    -0.206 F 
ATOM     66  C   UNL A   1      40.138  36.458  37.805  1.00  0.00     0.059 A 
ATOM     67  C   UNL A   1      38.884  34.808  39.069  1.00  0.00     0.059 A 
ATOM     68  F   UNL A   1      38.620  32.642  38.214  1.00  0.00    -0.206 F 
ATOM     69  C   UNL A   1      39.409  36.092  38.938  1.00  0.00     0.060 A 
BRANCH  69  70
ATOM     70  S   UNL A   1      39.149  37.326  40.230  1.00  0.00     0.124 S 
ATOM     71  O   UNL A   1      38.525  36.528  41.281  1.00  0.00    -0.237 OA
ATOM     72  O   UNL A   1      40.509  37.780  40.503  1.00  0.00    -0.237 OA
ATOM     73  O   UNL A   1      38.280  38.311  39.593  1.00  0.00    -0.744 OA
ENDBRANCH  69  70
ENDBRANCH  37  62
ENDBRANCH  11  12
ENDBRANCH   4   6
ENDBRANCH   1   2
BRANCH   1  74
ATOM     74  C   UNL A   1      37.808  22.551  25.749  1.00  0.00     0.042 C 
BRANCH  74  75
ATOM     75  C   UNL A   1      36.381  22.881  25.310  1.00  0.00     0.117 C 
BRANCH  75  76
ATOM     76  N   UNL A   1      35.351  22.335  26.172  1.00  0.00    -0.355 N 
ATOM     77  C   UNL A   1      34.027  22.122  26.003  1.00  0.00     0.238 C 
ATOM     78  H   UNL A   1      35.683  22.065  27.058  1.00  0.00     0.163 HD
ATOM     79  O   UNL A   1      33.493  21.421  26.876  1.00  0.00    -0.273 OA
BRANCH  77  80
ATOM     80  C   UNL A   1      33.181  22.638  24.860  1.00  0.00     0.162 C 
ATOM     81  C   UNL A   1      33.677  22.148  23.497  1.00  0.00     0.032 C 
ATOM     82  N   UNL A   1      32.621  23.991  24.647  1.00  0.00    -0.185 NA
ATOM     83  C   UNL A   1      32.806  22.897  22.510  1.00  0.00     0.019 C 
ATOM     84  C   UNL A   1      32.621  24.252  23.166  1.00  0.00     0.103 C 
BRANCH  82  85
ATOM     85  S   UNL A   1      32.883  25.416  25.508  1.00  0.00     0.244 S 
ATOM     86  O   UNL A   1      31.994  25.325  26.648  1.00  0.00    -0.207 OA
ATOM     87  O   UNL A   1      34.313  25.488  25.720  1.00  0.00    -0.207 OA
BRANCH  85  88
ATOM     88  C   UNL A   1      32.446  26.877  24.603  1.00  0.00     0.090 A 
ATOM     89  C   UNL A   1      33.415  27.823  24.207  1.00  0.00     0.024 A 
ATOM     90  C   UNL A   1      31.078  27.042  24.221  1.00  0.00     0.005 A 
ATOM     91  C   UNL A   1      33.126  28.834  23.264  1.00  0.00     0.028 A 
ATOM     92  C   UNL A   1      30.848  28.067  23.352  1.00  0.00     0.019 A 
ATOM     93  C   UNL A   1      29.910  26.324  24.589  1.00  0.00     0.010 A 
ATOM     94  C   UNL A   1      31.814  28.901  22.840  1.00  0.00     0.050 A 
ATOM     95  C   UNL A   1      29.624  28.437  22.817  1.00  0.00     0.050 A 
ATOM     96  C   UNL A   1      28.638  26.711  24.121  1.00  0.00     0.002 A 
ATOM     97  N   UNL A   1      31.192  29.745  21.937  1.00  0.00    -0.321 N 
ATOM     98  C   UNL A   1      28.469  27.787  23.238  1.00  0.00     0.014 A 
ATOM     99  C   UNL A   1      29.812  29.509  21.865  1.00  0.00     0.256 C 
ATOM    100  H   UNL A   1      31.663  30.428  21.408  1.00  0.00     0.170 HD
ATOM    101  O   UNL A   1      29.049  30.101  21.110  1.00  0.00    -0.269 OA
ENDBRANCH  85  88
ENDBRANCH  82  85
ENDBRANCH  77  80
ENDBRANCH  75  76
ENDBRANCH  74  75
ENDBRANCH   1  74
TORSDOF 15
ENDMDL
