MODEL 1
REMARK VINA RESULT:     -11.6      0.000      0.000
REMARK SMILES Cc1cnn([C@H]2CC[C@@]([NH3+])(C(=O)NCCCNC(=O)c3ccc(-c4c5nc(c(-c6c(F)cc(S(=O)(=O)[O-])cc6F)c6ccc([nH]6)c(-c6c(F)cc(S(=O)(=O)[O-])cc6F)c6nc(c(-c7c(F)cc(S(=O)(=O)[O-])cc7F)c7ccc4[nH]7)C=C6)C=C5)cc3)C2)c1
REMARK SMILES IDX 16 1 15 2 14 3 13 4 11 5 12 6 9 8 6 9 7 10 86 11 8 12 5 13
REMARK SMILES IDX 1 14 2 15 3 16 87 17 4 18 10 19 17 23 18 24 19 26 20 27
REMARK SMILES IDX 21 28 85 29 22 30 84 31 23 32 24 33 25 34 78 35 26 36 83 37
REMARK SMILES IDX 77 38 79 39 27 40 82 41 76 42 75 43 28 45 62 46 41 47 61 48
REMARK SMILES IDX 42 49 45 50 60 51 80 52 43 53 44 54 59 56 81 57 46 58 29 59
REMARK SMILES IDX 30 60 39 61 31 62 32 63 38 64 40 65 33 66 34 67 35 68 36 69
REMARK SMILES IDX 37 70 63 71 64 72 73 73 65 74 66 75 72 76 74 77 67 78 68 79
REMARK SMILES IDX 69 80 70 81 71 82 47 83 48 84 57 85 49 86 50 87 56 88 58 89
REMARK SMILES IDX 51 90 52 91 53 92 54 93 55 94
REMARK H PARENT 13 7 10 20 10 21 10 22 17 25 79 44 45 55
REMARK Flexibility Score: inf
ROOT
ATOM      1  C   UNL A   1      35.819  30.000  28.545  1.00  0.00     0.118 C 
ENDROOT
BRANCH   1   2
ATOM      2  C   UNL A   1      35.177  29.077  27.583  1.00  0.00     0.042 C 
BRANCH   2   3
ATOM      3  C   UNL A   1      33.905  29.692  27.127  1.00  0.00     0.118 C 
BRANCH   3   4
ATOM      4  N   UNL A   1      32.826  28.806  27.422  1.00  0.00    -0.351 N 
ATOM      5  C   UNL A   1      31.825  28.466  26.596  1.00  0.00     0.281 C 
ATOM      6  O   UNL A   1      31.183  27.530  27.049  1.00  0.00    -0.268 OA
ATOM      7  H   UNL A   1      32.816  28.404  28.321  1.00  0.00     0.163 HD
BRANCH   5   8
ATOM      8  C   UNL A   1      31.695  29.154  25.174  1.00  0.00     0.176 C 
ATOM      9  C   UNL A   1      32.331  27.415  23.609  1.00  0.00     0.114 C 
ATOM     10  C   UNL A   1      30.792  27.557  23.539  1.00  0.00     0.034 C 
ATOM     11  C   UNL A   1      32.732  28.829  24.082  1.00  0.00     0.106 C 
ATOM     12  C   UNL A   1      30.395  28.688  24.496  1.00  0.00     0.081 C 
BRANCH   9  13
ATOM     13  N   UNL A   1      32.962  26.430  24.487  1.00  0.00    -0.269 N 
ATOM     14  C   UNL A   1      33.098  23.126  25.925  1.00  0.00     0.048 C 
ATOM     15  C   UNL A   1      33.278  24.549  25.594  1.00  0.00    -0.013 A 
ATOM     16  C   UNL A   1      34.317  25.469  25.793  1.00  0.00     0.138 A 
ATOM     17  C   UNL A   1      32.357  25.279  24.907  1.00  0.00     0.112 A 
ATOM     18  N   UNL A   1      34.125  26.634  25.140  1.00  0.00    -0.181 NA
ENDBRANCH   9  13
BRANCH   8  19
ATOM     19  N   UNL A   1      31.732  30.606  25.450  1.00  0.00    -0.345 N 
ATOM     20  H   UNL A   1      31.678  30.763  26.457  1.00  0.00     0.345 HD
ATOM     21  H   UNL A   1      30.943  31.060  24.992  1.00  0.00     0.345 HD
ATOM     22  H   UNL A   1      32.604  30.997  25.092  1.00  0.00     0.345 HD
ENDBRANCH   8  19
ENDBRANCH   5   8
ENDBRANCH   3   4
ENDBRANCH   2   3
ENDBRANCH   1   2
BRANCH   1  23
ATOM     23  N   UNL A   1      36.333  29.332  29.721  1.00  0.00    -0.352 N 
ATOM     24  C   UNL A   1      37.661  29.005  29.899  1.00  0.00     0.251 C 
ATOM     25  H   UNL A   1      35.697  29.097  30.436  1.00  0.00     0.163 HD
ATOM     26  O   UNL A   1      37.983  28.319  30.866  1.00  0.00    -0.269 OA
BRANCH  24  27
ATOM     27  C   UNL A   1      38.640  29.706  28.912  1.00  0.00     0.039 A 
ATOM     28  C   UNL A   1      38.519  29.687  27.587  1.00  0.00     0.014 A 
ATOM     29  C   UNL A   1      40.057  29.649  29.104  1.00  0.00     0.014 A 
ATOM     30  C   UNL A   1      39.967  29.163  26.751  1.00  0.00     0.010 A 
ATOM     31  C   UNL A   1      41.390  29.556  28.293  1.00  0.00     0.010 A 
ATOM     32  C   UNL A   1      41.564  28.566  27.312  1.00  0.00    -0.014 A 
BRANCH  32  33
ATOM     33  C   UNL A   1      43.465  27.870  27.197  1.00  0.00     0.031 A 
ATOM     34  C   UNL A   1      42.145  26.327  27.102  1.00  0.00     0.074 A 
ATOM     35  C   UNL A   1      45.205  28.568  27.039  1.00  0.00     0.049 A 
ATOM     36  N   UNL A   1      41.336  25.899  28.141  1.00  0.00    -0.248 NA
ATOM     37  C   UNL A   1      40.787  25.449  26.072  1.00  0.00     0.031 C 
ATOM     38  C   UNL A   1      47.045  29.270  26.864  1.00  0.00     0.029 A 
ATOM     39  N   UNL A   1      46.795  27.728  27.350  1.00  0.00    -0.354 N 
ATOM     40  C   UNL A   1      41.166  24.479  27.851  1.00  0.00     0.074 A 
ATOM     41  C   UNL A   1      40.492  24.249  26.663  1.00  0.00     0.031 C 
ATOM     42  C   UNL A   1      48.553  29.092  26.596  1.00  0.00     0.029 A 
ATOM     43  C   UNL A   1      48.360  27.731  26.600  1.00  0.00     0.049 A 
ATOM     44  H   UNL A   1      46.756  27.127  28.129  1.00  0.00     0.167 HD
ATOM     45  C   UNL A   1      42.268  23.734  28.006  1.00  0.00     0.037 A 
ATOM     46  C   UNL A   1      49.345  26.765  26.217  1.00  0.00     0.037 A 
ATOM     47  C   UNL A   1      43.105  24.458  28.872  1.00  0.00     0.049 A 
ATOM     48  C   UNL A   1      48.445  25.782  26.750  1.00  0.00     0.074 A 
ATOM     49  C   UNL A   1      42.795  25.143  30.030  1.00  0.00     0.029 A 
ATOM     50  N   UNL A   1      44.150  25.093  28.300  1.00  0.00    -0.354 N 
ATOM     51  N   UNL A   1      48.210  25.696  28.043  1.00  0.00    -0.248 NA
ATOM     52  C   UNL A   1      47.401  25.468  25.791  1.00  0.00     0.031 C 
ATOM     53  C   UNL A   1      43.842  26.014  30.275  1.00  0.00     0.029 A 
ATOM     54  C   UNL A   1      44.719  25.897  29.224  1.00  0.00     0.049 A 
ATOM     55  H   UNL A   1      44.447  24.987  27.367  1.00  0.00     0.167 HD
ATOM     56  C   UNL A   1      46.825  25.609  28.125  1.00  0.00     0.074 A 
ATOM     57  C   UNL A   1      46.411  25.346  26.672  1.00  0.00     0.031 C 
ATOM     58  C   UNL A   1      46.067  26.274  29.107  1.00  0.00     0.037 A 
BRANCH  45  59
ATOM     59  C   UNL A   1      42.701  22.626  27.137  1.00  0.00     0.058 A 
ATOM     60  C   UNL A   1      42.234  21.413  27.604  1.00  0.00     0.135 A 
ATOM     61  C   UNL A   1      43.573  22.634  26.024  1.00  0.00     0.135 A 
ATOM     62  F   UNL A   1      41.298  21.408  28.567  1.00  0.00    -0.206 F 
ATOM     63  C   UNL A   1      42.694  20.229  27.077  1.00  0.00     0.059 A 
ATOM     64  C   UNL A   1      43.956  21.455  25.405  1.00  0.00     0.059 A 
ATOM     65  F   UNL A   1      44.045  23.771  25.486  1.00  0.00    -0.206 F 
ATOM     66  C   UNL A   1      43.501  20.251  25.935  1.00  0.00     0.060 A 
BRANCH  66  67
ATOM     67  S   UNL A   1      43.844  18.685  25.088  1.00  0.00     0.124 S 
ATOM     68  O   UNL A   1      42.662  17.897  25.406  1.00  0.00    -0.237 OA
ATOM     69  O   UNL A   1      43.966  19.116  23.698  1.00  0.00    -0.237 OA
ATOM     70  O   UNL A   1      45.091  18.236  25.701  1.00  0.00    -0.744 OA
ENDBRANCH  66  67
ENDBRANCH  45  59
BRANCH  46  71
ATOM     71  C   UNL A   1      50.176  26.673  24.837  1.00  0.00     0.058 A 
ATOM     72  C   UNL A   1      49.797  27.088  23.521  1.00  0.00     0.135 A 
ATOM     73  C   UNL A   1      51.537  26.290  24.895  1.00  0.00     0.135 A 
ATOM     74  F   UNL A   1      48.553  27.536  23.292  1.00  0.00    -0.206 F 
ATOM     75  C   UNL A   1      50.694  27.118  22.395  1.00  0.00     0.059 A 
ATOM     76  C   UNL A   1      52.467  26.394  23.825  1.00  0.00     0.059 A 
ATOM     77  F   UNL A   1      52.028  25.864  26.066  1.00  0.00    -0.206 F 
ATOM     78  C   UNL A   1      52.054  26.854  22.579  1.00  0.00     0.060 A 
BRANCH  78  79
ATOM     79  S   UNL A   1      53.279  27.224  21.253  1.00  0.00     0.124 S 
ATOM     80  O   UNL A   1      52.704  26.551  20.093  1.00  0.00    -0.237 OA
ATOM     81  O   UNL A   1      53.267  28.682  21.202  1.00  0.00    -0.237 OA
ATOM     82  O   UNL A   1      54.520  26.638  21.754  1.00  0.00    -0.744 OA
ENDBRANCH  78  79
ENDBRANCH  46  71
BRANCH  58  83
ATOM     83  C   UNL A   1      46.631  27.204  30.237  1.00  0.00     0.058 A 
ATOM     84  C   UNL A   1      46.487  28.607  30.485  1.00  0.00     0.135 A 
ATOM     85  C   UNL A   1      47.436  26.558  31.148  1.00  0.00     0.135 A 
ATOM     86  F   UNL A   1      45.517  29.349  29.943  1.00  0.00    -0.206 F 
ATOM     87  C   UNL A   1      47.367  29.340  31.277  1.00  0.00     0.059 A 
ATOM     88  C   UNL A   1      48.181  27.246  32.102  1.00  0.00     0.059 A 
ATOM     89  F   UNL A   1      47.456  25.219  31.159  1.00  0.00    -0.206 F 
ATOM     90  C   UNL A   1      48.169  28.639  32.149  1.00  0.00     0.060 A 
BRANCH  90  91
ATOM     91  S   UNL A   1      49.052  29.542  33.448  1.00  0.00     0.124 S 
ATOM     92  O   UNL A   1      47.998  29.816  34.418  1.00  0.00    -0.237 OA
ATOM     93  O   UNL A   1      50.058  28.573  33.876  1.00  0.00    -0.237 OA
ATOM     94  O   UNL A   1      49.581  30.707  32.747  1.00  0.00    -0.744 OA
ENDBRANCH  90  91
ENDBRANCH  58  83
ENDBRANCH  32  33
ENDBRANCH  24  27
ENDBRANCH   1  23
TORSDOF 15
ENDMDL
MODEL 2
REMARK VINA RESULT:     -11.3      6.950     13.097
REMARK SMILES Cc1cnn([C@H]2CC[C@@]([NH3+])(C(=O)NCCCNC(=O)c3ccc(-c4c5nc(c(-c6c(F)cc(S(=O)(=O)[O-])cc6F)c6ccc([nH]6)c(-c6c(F)cc(S(=O)(=O)[O-])cc6F)c6nc(c(-c7c(F)cc(S(=O)(=O)[O-])cc7F)c7ccc4[nH]7)C=C6)C=C5)cc3)C2)c1
REMARK SMILES IDX 16 1 15 2 14 3 13 4 11 5 12 6 9 8 6 9 7 10 86 11 8 12 5 13
REMARK SMILES IDX 1 14 2 15 3 16 87 17 4 18 10 19 17 23 18 24 19 26 20 27
REMARK SMILES IDX 21 28 85 29 22 30 84 31 23 32 24 33 25 34 78 35 26 36 83 37
REMARK SMILES IDX 77 38 79 39 27 40 82 41 76 42 75 43 28 45 62 46 41 47 61 48
REMARK SMILES IDX 42 49 45 50 60 51 80 52 43 53 44 54 59 56 81 57 46 58 29 59
REMARK SMILES IDX 30 60 39 61 31 62 32 63 38 64 40 65 33 66 34 67 35 68 36 69
REMARK SMILES IDX 37 70 63 71 64 72 73 73 65 74 66 75 72 76 74 77 67 78 68 79
REMARK SMILES IDX 69 80 70 81 71 82 47 83 48 84 57 85 49 86 50 87 56 88 58 89
REMARK SMILES IDX 51 90 52 91 53 92 54 93 55 94
REMARK H PARENT 13 7 10 20 10 21 10 22 17 25 79 44 45 55
REMARK Flexibility Score: inf
ROOT
ATOM      1  C   UNL A   1      39.348  24.257  26.754  1.00  0.00     0.118 C 
ENDROOT
BRANCH   1   2
ATOM      2  C   UNL A   1      37.959  24.085  26.274  1.00  0.00     0.042 C 
BRANCH   2   3
ATOM      3  C   UNL A   1      37.861  22.767  25.596  1.00  0.00     0.118 C 
BRANCH   3   4
ATOM      4  N   UNL A   1      37.170  22.929  24.359  1.00  0.00    -0.351 N 
ATOM      5  C   UNL A   1      36.007  22.354  24.015  1.00  0.00     0.281 C 
ATOM      6  O   UNL A   1      35.560  22.851  22.992  1.00  0.00    -0.268 OA
ATOM      7  H   UNL A   1      37.587  23.522  23.693  1.00  0.00     0.163 HD
BRANCH   5   8
ATOM      8  C   UNL A   1      35.325  21.294  24.976  1.00  0.00     0.176 C 
ATOM      9  C   UNL A   1      33.335  22.417  25.787  1.00  0.00     0.114 C 
ATOM     10  C   UNL A   1      32.881  21.379  24.734  1.00  0.00     0.034 C 
ATOM     11  C   UNL A   1      34.653  21.779  26.275  1.00  0.00     0.106 C 
ATOM     12  C   UNL A   1      34.136  20.638  24.255  1.00  0.00     0.081 C 
BRANCH   9  13
ATOM     13  N   UNL A   1      33.598  23.808  25.416  1.00  0.00    -0.269 N 
ATOM     14  C   UNL A   1      32.707  26.808  23.626  1.00  0.00     0.048 C 
ATOM     15  C   UNL A   1      33.381  25.752  24.398  1.00  0.00    -0.013 A 
ATOM     16  C   UNL A   1      34.431  25.747  25.327  1.00  0.00     0.138 A 
ATOM     17  C   UNL A   1      33.006  24.444  24.361  1.00  0.00     0.112 A 
ATOM     18  N   UNL A   1      34.590  24.556  25.941  1.00  0.00    -0.181 NA
ENDBRANCH   9  13
BRANCH   8  19
ATOM     19  N   UNL A   1      36.405  20.346  25.323  1.00  0.00    -0.345 N 
ATOM     20  H   UNL A   1      36.165  19.415  24.980  1.00  0.00     0.345 HD
ATOM     21  H   UNL A   1      36.520  20.316  26.336  1.00  0.00     0.345 HD
ATOM     22  H   UNL A   1      37.278  20.652  24.892  1.00  0.00     0.345 HD
ENDBRANCH   8  19
ENDBRANCH   5   8
ENDBRANCH   3   4
ENDBRANCH   2   3
ENDBRANCH   1   2
BRANCH   1  23
ATOM     23  N   UNL A   1      39.998  25.431  26.210  1.00  0.00    -0.352 N 
ATOM     24  C   UNL A   1      40.367  26.523  26.967  1.00  0.00     0.251 C 
ATOM     25  H   UNL A   1      40.188  25.450  25.244  1.00  0.00     0.163 HD
ATOM     26  O   UNL A   1      40.789  27.528  26.401  1.00  0.00    -0.269 OA
BRANCH  24  27
ATOM     27  C   UNL A   1      40.357  26.280  28.506  1.00  0.00     0.039 A 
ATOM     28  C   UNL A   1      39.328  25.782  29.186  1.00  0.00     0.014 A 
ATOM     29  C   UNL A   1      40.905  27.242  29.414  1.00  0.00     0.014 A 
ATOM     30  C   UNL A   1      38.845  26.760  30.557  1.00  0.00     0.010 A 
ATOM     31  C   UNL A   1      40.662  27.846  30.834  1.00  0.00     0.010 A 
ATOM     32  C   UNL A   1      39.399  28.344  31.195  1.00  0.00    -0.014 A 
BRANCH  32  33
ATOM     33  C   UNL A   1      39.487  29.959  32.417  1.00  0.00     0.031 A 
ATOM     34  C   UNL A   1      38.101  30.256  30.959  1.00  0.00     0.074 A 
ATOM     35  C   UNL A   1      40.315  30.449  34.034  1.00  0.00     0.049 A 
ATOM     36  N   UNL A   1      38.377  30.419  29.612  1.00  0.00    -0.248 NA
ATOM     37  C   UNL A   1      36.397  29.741  30.248  1.00  0.00     0.031 C 
ATOM     38  C   UNL A   1      41.163  30.990  35.736  1.00  0.00     0.029 A 
ATOM     39  N   UNL A   1      40.540  32.121  34.730  1.00  0.00    -0.354 N 
ATOM     40  C   UNL A   1      37.271  31.255  29.157  1.00  0.00     0.074 A 
ATOM     41  C   UNL A   1      36.040  30.629  29.269  1.00  0.00     0.031 C 
ATOM     42  C   UNL A   1      41.322  31.942  36.939  1.00  0.00     0.029 A 
ATOM     43  C   UNL A   1      40.463  32.818  36.318  1.00  0.00     0.049 A 
ATOM     44  H   UNL A   1      40.756  32.788  34.040  1.00  0.00     0.167 HD
ATOM     45  C   UNL A   1      37.286  32.513  29.618  1.00  0.00     0.037 A 
ATOM     46  C   UNL A   1      39.910  33.990  36.926  1.00  0.00     0.037 A 
ATOM     47  C   UNL A   1      38.618  32.773  29.986  1.00  0.00     0.049 A 
ATOM     48  C   UNL A   1      39.453  34.336  35.610  1.00  0.00     0.074 A 
ATOM     49  C   UNL A   1      39.791  32.464  29.327  1.00  0.00     0.029 A 
ATOM     50  N   UNL A   1      38.885  32.754  31.309  1.00  0.00    -0.354 N 
ATOM     51  N   UNL A   1      40.296  34.680  34.659  1.00  0.00    -0.248 NA
ATOM     52  C   UNL A   1      38.230  33.623  35.288  1.00  0.00     0.031 C 
ATOM     53  C   UNL A   1      40.809  32.542  30.262  1.00  0.00     0.029 A 
ATOM     54  C   UNL A   1      40.224  32.813  31.476  1.00  0.00     0.049 A 
ATOM     55  H   UNL A   1      38.217  32.707  32.031  1.00  0.00     0.167 HD
ATOM     56  C   UNL A   1      39.881  33.934  33.561  1.00  0.00     0.074 A 
ATOM     57  C   UNL A   1      38.512  33.402  34.005  1.00  0.00     0.031 C 
ATOM     58  C   UNL A   1      40.773  33.313  32.667  1.00  0.00     0.037 A 
BRANCH  45  59
ATOM     59  C   UNL A   1      36.117  33.297  30.051  1.00  0.00     0.058 A 
ATOM     60  C   UNL A   1      35.616  34.061  29.017  1.00  0.00     0.135 A 
ATOM     61  C   UNL A   1      35.551  33.445  31.339  1.00  0.00     0.135 A 
ATOM     62  F   UNL A   1      36.051  33.823  27.768  1.00  0.00    -0.206 F 
ATOM     63  C   UNL A   1      34.667  35.030  29.248  1.00  0.00     0.059 A 
ATOM     64  C   UNL A   1      34.513  34.334  31.569  1.00  0.00     0.059 A 
ATOM     65  F   UNL A   1      35.957  32.716  32.393  1.00  0.00    -0.206 F 
ATOM     66  C   UNL A   1      34.068  35.119  30.508  1.00  0.00     0.060 A 
BRANCH  66  67
ATOM     67  S   UNL A   1      32.621  36.193  30.704  1.00  0.00     0.124 S 
ATOM     68  O   UNL A   1      32.137  36.311  29.335  1.00  0.00    -0.237 OA
ATOM     69  O   UNL A   1      31.784  35.408  31.609  1.00  0.00    -0.237 OA
ATOM     70  O   UNL A   1      33.179  37.409  31.288  1.00  0.00    -0.744 OA
ENDBRANCH  66  67
ENDBRANCH  45  59
BRANCH  46  71
ATOM     71  C   UNL A   1      39.080  34.108  38.304  1.00  0.00     0.058 A 
ATOM     72  C   UNL A   1      38.262  33.132  38.956  1.00  0.00     0.135 A 
ATOM     73  C   UNL A   1      39.278  35.252  39.113  1.00  0.00     0.135 A 
ATOM     74  F   UNL A   1      38.012  31.958  38.355  1.00  0.00    -0.206 F 
ATOM     75  C   UNL A   1      37.712  33.293  40.278  1.00  0.00     0.059 A 
ATOM     76  C   UNL A   1      38.824  35.400  40.453  1.00  0.00     0.059 A 
ATOM     77  F   UNL A   1      40.016  36.257  38.624  1.00  0.00    -0.206 F 
ATOM     78  C   UNL A   1      38.076  34.395  41.055  1.00  0.00     0.060 A 
BRANCH  78  79
ATOM     79  S   UNL A   1      37.683  34.457  42.855  1.00  0.00     0.124 S 
ATOM     80  O   UNL A   1      38.280  35.724  43.266  1.00  0.00    -0.237 OA
ATOM     81  O   UNL A   1      36.224  34.419  42.867  1.00  0.00    -0.237 OA
ATOM     82  O   UNL A   1      38.333  33.265  43.393  1.00  0.00    -0.744 OA
ENDBRANCH  78  79
ENDBRANCH  46  71
BRANCH  58  83
ATOM     83  C   UNL A   1      42.339  33.345  32.753  1.00  0.00     0.058 A 
ATOM     84  C   UNL A   1      43.307  32.319  33.001  1.00  0.00     0.135 A 
ATOM     85  C   UNL A   1      42.887  34.597  32.587  1.00  0.00     0.135 A 
ATOM     86  F   UNL A   1      43.040  31.016  32.867  1.00  0.00    -0.206 F 
ATOM     87  C   UNL A   1      44.600  32.575  33.446  1.00  0.00     0.059 A 
ATOM     88  C   UNL A   1      44.234  34.857  32.823  1.00  0.00     0.059 A 
ATOM     89  F   UNL A   1      42.112  35.585  32.122  1.00  0.00    -0.206 F 
ATOM     90  C   UNL A   1      45.086  33.853  33.280  1.00  0.00     0.060 A 
BRANCH  90  91
ATOM     91  S   UNL A   1      46.860  34.152  33.492  1.00  0.00     0.124 S 
ATOM     92  O   UNL A   1      46.889  35.480  34.095  1.00  0.00    -0.237 OA
ATOM     93  O   UNL A   1      47.261  33.057  34.373  1.00  0.00    -0.237 OA
ATOM     94  O   UNL A   1      47.380  34.066  32.131  1.00  0.00    -0.744 OA
ENDBRANCH  90  91
ENDBRANCH  58  83
ENDBRANCH  32  33
ENDBRANCH  24  27
ENDBRANCH   1  23
TORSDOF 15
ENDMDL
MODEL 3
REMARK VINA RESULT:     -11.2      5.577      9.901
REMARK SMILES Cc1cnn([C@H]2CC[C@@]([NH3+])(C(=O)NCCCNC(=O)c3ccc(-c4c5nc(c(-c6c(F)cc(S(=O)(=O)[O-])cc6F)c6ccc([nH]6)c(-c6c(F)cc(S(=O)(=O)[O-])cc6F)c6nc(c(-c7c(F)cc(S(=O)(=O)[O-])cc7F)c7ccc4[nH]7)C=C6)C=C5)cc3)C2)c1
REMARK SMILES IDX 16 1 15 2 14 3 13 4 11 5 12 6 9 8 6 9 7 10 86 11 8 12 5 13
REMARK SMILES IDX 1 14 2 15 3 16 87 17 4 18 10 19 17 23 18 24 19 26 20 27
REMARK SMILES IDX 21 28 85 29 22 30 84 31 23 32 24 33 25 34 78 35 26 36 83 37
REMARK SMILES IDX 77 38 79 39 27 40 82 41 76 42 75 43 28 45 62 46 41 47 61 48
REMARK SMILES IDX 42 49 45 50 60 51 80 52 43 53 44 54 59 56 81 57 46 58 29 59
REMARK SMILES IDX 30 60 39 61 31 62 32 63 38 64 40 65 33 66 34 67 35 68 36 69
REMARK SMILES IDX 37 70 63 71 64 72 73 73 65 74 66 75 72 76 74 77 67 78 68 79
REMARK SMILES IDX 69 80 70 81 71 82 47 83 48 84 57 85 49 86 50 87 56 88 58 89
REMARK SMILES IDX 51 90 52 91 53 92 54 93 55 94
REMARK H PARENT 13 7 10 20 10 21 10 22 17 25 79 44 45 55
REMARK Flexibility Score: inf
ROOT
ATOM      1  C   UNL A   1      32.123  31.536  26.840  1.00  0.00     0.118 C 
ENDROOT
BRANCH   1   2
ATOM      2  C   UNL A   1      30.928  31.859  26.029  1.00  0.00     0.042 C 
BRANCH   2   3
ATOM      3  C   UNL A   1      30.815  30.852  24.944  1.00  0.00     0.118 C 
BRANCH   3   4
ATOM      4  N   UNL A   1      31.932  29.967  25.010  1.00  0.00    -0.351 N 
ATOM      5  C   UNL A   1      32.241  29.005  24.127  1.00  0.00     0.281 C 
ATOM      6  O   UNL A   1      33.362  28.566  24.332  1.00  0.00    -0.268 OA
ATOM      7  H   UNL A   1      32.538  30.075  25.779  1.00  0.00     0.163 HD
BRANCH   5   8
ATOM      8  C   UNL A   1      31.260  28.682  22.924  1.00  0.00     0.176 C 
ATOM      9  C   UNL A   1      30.589  26.383  23.301  1.00  0.00     0.114 C 
ATOM     10  C   UNL A   1      29.396  27.282  23.701  1.00  0.00     0.034 C 
ATOM     11  C   UNL A   1      31.303  27.286  22.273  1.00  0.00     0.106 C 
ATOM     12  C   UNL A   1      29.805  28.733  23.419  1.00  0.00     0.081 C 
BRANCH   9  13
ATOM     13  N   UNL A   1      31.569  25.938  24.292  1.00  0.00    -0.269 N 
ATOM     14  C   UNL A   1      34.843  24.685  25.136  1.00  0.00     0.048 C 
ATOM     15  C   UNL A   1      33.433  25.106  25.128  1.00  0.00    -0.013 A 
ATOM     16  C   UNL A   1      32.534  25.513  26.123  1.00  0.00     0.138 A 
ATOM     17  C   UNL A   1      32.696  25.226  23.989  1.00  0.00     0.112 A 
ATOM     18  N   UNL A   1      31.379  26.004  25.626  1.00  0.00    -0.181 NA
ENDBRANCH   9  13
BRANCH   8  19
ATOM     19  N   UNL A   1      31.574  29.698  21.896  1.00  0.00    -0.345 N 
ATOM     20  H   UNL A   1      31.022  30.538  22.069  1.00  0.00     0.345 HD
ATOM     21  H   UNL A   1      31.350  29.327  20.973  1.00  0.00     0.345 HD
ATOM     22  H   UNL A   1      32.567  29.929  21.938  1.00  0.00     0.345 HD
ENDBRANCH   8  19
ENDBRANCH   5   8
ENDBRANCH   3   4
ENDBRANCH   2   3
ENDBRANCH   1   2
BRANCH   1  23
ATOM     23  N   UNL A   1      32.668  32.682  27.534  1.00  0.00    -0.352 N 
ATOM     24  C   UNL A   1      33.936  32.718  28.078  1.00  0.00     0.251 C 
ATOM     25  H   UNL A   1      32.102  33.483  27.624  1.00  0.00     0.163 HD
ATOM     26  O   UNL A   1      34.264  33.682  28.765  1.00  0.00    -0.269 OA
BRANCH  24  27
ATOM     27  C   UNL A   1      34.880  31.575  27.601  1.00  0.00     0.039 A 
ATOM     28  C   UNL A   1      34.595  30.278  27.679  1.00  0.00     0.014 A 
ATOM     29  C   UNL A   1      36.285  31.611  27.870  1.00  0.00     0.014 A 
ATOM     30  C   UNL A   1      35.833  29.328  28.475  1.00  0.00     0.010 A 
ATOM     31  C   UNL A   1      37.479  30.664  28.221  1.00  0.00     0.010 A 
ATOM     32  C   UNL A   1      37.379  29.750  29.283  1.00  0.00    -0.014 A 
BRANCH  32  33
ATOM     33  C   UNL A   1      39.126  29.477  30.277  1.00  0.00     0.031 A 
ATOM     34  C   UNL A   1      37.894  30.696  31.341  1.00  0.00     0.074 A 
ATOM     35  C   UNL A   1      40.675  28.421  30.122  1.00  0.00     0.049 A 
ATOM     36  N   UNL A   1      37.526  31.979  30.975  1.00  0.00    -0.248 NA
ATOM     37  C   UNL A   1      36.276  30.835  32.359  1.00  0.00     0.031 C 
ATOM     38  C   UNL A   1      42.311  27.319  29.992  1.00  0.00     0.029 A 
ATOM     39  N   UNL A   1      42.288  28.650  30.945  1.00  0.00    -0.354 N 
ATOM     40  C   UNL A   1      37.293  32.625  32.263  1.00  0.00     0.074 A 
ATOM     41  C   UNL A   1      36.241  32.062  32.966  1.00  0.00     0.031 C 
ATOM     42  C   UNL A   1      43.625  26.754  30.570  1.00  0.00     0.029 A 
ATOM     43  C   UNL A   1      43.476  27.596  31.646  1.00  0.00     0.049 A 
ATOM     44  H   UNL A   1      42.546  29.597  31.008  1.00  0.00     0.167 HD
ATOM     45  C   UNL A   1      38.392  32.831  32.999  1.00  0.00     0.037 A 
ATOM     46  C   UNL A   1      44.277  27.557  32.832  1.00  0.00     0.037 A 
ATOM     47  C   UNL A   1      39.470  32.816  32.096  1.00  0.00     0.049 A 
ATOM     48  C   UNL A   1      43.652  28.801  33.177  1.00  0.00     0.074 A 
ATOM     49  C   UNL A   1      39.584  33.398  30.850  1.00  0.00     0.029 A 
ATOM     50  N   UNL A   1      40.224  31.696  32.085  1.00  0.00    -0.354 N 
ATOM     51  N   UNL A   1      43.902  29.905  32.504  1.00  0.00    -0.248 NA
ATOM     52  C   UNL A   1      42.340  28.574  33.755  1.00  0.00     0.031 C 
ATOM     53  C   UNL A   1      40.630  32.762  30.203  1.00  0.00     0.029 A 
ATOM     54  C   UNL A   1      41.070  31.760  31.035  1.00  0.00     0.049 A 
ATOM     55  H   UNL A   1      40.166  30.957  32.734  1.00  0.00     0.167 HD
ATOM     56  C   UNL A   1      42.642  30.443  32.266  1.00  0.00     0.074 A 
ATOM     57  C   UNL A   1      41.737  29.618  33.189  1.00  0.00     0.031 C 
ATOM     58  C   UNL A   1      42.276  31.041  31.046  1.00  0.00     0.037 A 
BRANCH  45  59
ATOM     59  C   UNL A   1      38.507  32.673  34.459  1.00  0.00     0.058 A 
ATOM     60  C   UNL A   1      38.615  33.897  35.087  1.00  0.00     0.135 A 
ATOM     61  C   UNL A   1      38.628  31.498  35.237  1.00  0.00     0.135 A 
ATOM     62  F   UNL A   1      38.360  35.011  34.381  1.00  0.00    -0.206 F 
ATOM     63  C   UNL A   1      38.949  33.982  36.419  1.00  0.00     0.059 A 
ATOM     64  C   UNL A   1      38.849  31.563  36.604  1.00  0.00     0.059 A 
ATOM     65  F   UNL A   1      38.502  30.268  34.712  1.00  0.00    -0.206 F 
ATOM     66  C   UNL A   1      38.998  32.817  37.191  1.00  0.00     0.060 A 
BRANCH  66  67
ATOM     67  S   UNL A   1      39.142  32.977  38.991  1.00  0.00     0.124 S 
ATOM     68  O   UNL A   1      38.190  31.982  39.466  1.00  0.00    -0.237 OA
ATOM     69  O   UNL A   1      40.552  32.664  39.210  1.00  0.00    -0.237 OA
ATOM     70  O   UNL A   1      38.780  34.371  39.236  1.00  0.00    -0.744 OA
ENDBRANCH  66  67
ENDBRANCH  45  59
BRANCH  46  71
ATOM     71  C   UNL A   1      44.555  26.305  33.812  1.00  0.00     0.058 A 
ATOM     72  C   UNL A   1      43.622  25.423  34.443  1.00  0.00     0.135 A 
ATOM     73  C   UNL A   1      45.890  25.865  33.980  1.00  0.00     0.135 A 
ATOM     74  F   UNL A   1      42.305  25.657  34.341  1.00  0.00    -0.206 F 
ATOM     75  C   UNL A   1      43.996  24.229  35.157  1.00  0.00     0.059 A 
ATOM     76  C   UNL A   1      46.282  24.647  34.600  1.00  0.00     0.059 A 
ATOM     77  F   UNL A   1      46.874  26.604  33.452  1.00  0.00    -0.206 F 
ATOM     78  C   UNL A   1      45.326  23.801  35.151  1.00  0.00     0.060 A 
BRANCH  78  79
ATOM     79  S   UNL A   1      45.783  22.116  35.742  1.00  0.00     0.124 S 
ATOM     80  O   UNL A   1      45.615  22.231  37.188  1.00  0.00    -0.237 OA
ATOM     81  O   UNL A   1      44.811  21.264  35.064  1.00  0.00    -0.237 OA
ATOM     82  O   UNL A   1      47.162  21.952  35.292  1.00  0.00    -0.744 OA
ENDBRANCH  78  79
ENDBRANCH  46  71
BRANCH  58  83
ATOM     83  C   UNL A   1      43.190  31.193  29.780  1.00  0.00     0.058 A 
ATOM     84  C   UNL A   1      43.153  30.571  28.491  1.00  0.00     0.135 A 
ATOM     85  C   UNL A   1      44.239  32.068  29.945  1.00  0.00     0.135 A 
ATOM     86  F   UNL A   1      42.068  29.958  28.007  1.00  0.00    -0.206 F 
ATOM     87  C   UNL A   1      44.251  30.505  27.639  1.00  0.00     0.059 A 
ATOM     88  C   UNL A   1      45.264  32.186  29.009  1.00  0.00     0.059 A 
ATOM     89  F   UNL A   1      44.245  32.879  31.011  1.00  0.00    -0.206 F 
ATOM     90  C   UNL A   1      45.285  31.385  27.869  1.00  0.00     0.060 A 
BRANCH  90  91
ATOM     91  S   UNL A   1      46.555  31.600  26.595  1.00  0.00     0.124 S 
ATOM     92  O   UNL A   1      47.785  31.291  27.315  1.00  0.00    -0.237 OA
ATOM     93  O   UNL A   1      46.158  30.621  25.586  1.00  0.00    -0.237 OA
ATOM     94  O   UNL A   1      46.394  32.994  26.193  1.00  0.00    -0.744 OA
ENDBRANCH  90  91
ENDBRANCH  58  83
ENDBRANCH  32  33
ENDBRANCH  24  27
ENDBRANCH   1  23
TORSDOF 15
ENDMDL
