MODEL 1
REMARK VINA RESULT:     -14.9      0.000      0.000
REMARK SMILES Cc1ccc(-c2csc(NC(=O)[C@H]3[C@@H](C(=O)NCCCNC(=O)c4ccc(-c5c6nc(c(-c7c(F)cc(S(=O)(=O)[O-])cc7F)c7ccc([nH]7)c(-c7c(F)cc(S(=O)(=O)[O-])cc7F)c7nc(c(-c8c(F)cc(S(=O)(=O)[O-])cc8F)c8ccc5[nH]8)C=C7)C=C6)cc4)[C@H]4C=C[C@@H]3C4)c2C(=O)NC2CC2)cc1
REMARK SMILES IDX 18 1 17 2 15 3 16 4 14 6 13 7 93 8 90 9 92 10 94 11 91 12
REMARK SMILES IDX 11 13 10 14 12 16 9 17 6 18 7 19 95 20 8 21 5 22 1 23 2 24
REMARK SMILES IDX 3 25 103 26 4 27 102 28 96 29 97 30 98 31 99 33 100 34
REMARK SMILES IDX 101 35 19 36 20 37 21 38 22 39 23 41 24 42 25 43 89 44 26 45
REMARK SMILES IDX 88 46 27 47 28 48 29 49 82 50 30 51 87 52 81 53 83 54 31 55
REMARK SMILES IDX 86 56 80 57 79 58 32 60 66 61 45 62 65 63 46 64 49 65 64 66
REMARK SMILES IDX 84 67 47 68 48 69 63 71 85 72 50 73 33 74 34 75 43 76 35 77
REMARK SMILES IDX 36 78 42 79 44 80 37 81 38 82 39 83 40 84 41 85 67 86 68 87
REMARK SMILES IDX 77 88 69 89 70 90 76 91 78 92 71 93 72 94 73 95 74 96 75 97
REMARK SMILES IDX 51 98 52 99 61 100 53 101 54 102 60 103 62 104 55 105 56 106
REMARK SMILES IDX 57 107 58 108 59 109
REMARK H PARENT 17 5 10 15 98 32 21 40 83 59 49 70
REMARK Flexibility Score: inf
ROOT
ATOM      1  C   UNL A   1      37.224  21.470  24.702  1.00  0.00     0.117 C 
ENDROOT
BRANCH   1   2
ATOM      2  N   UNL A   1      36.253  21.230  25.763  1.00  0.00    -0.356 N 
ATOM      3  C   UNL A   1      34.902  21.455  25.778  1.00  0.00     0.224 C 
ATOM      4  O   UNL A   1      34.273  21.161  26.795  1.00  0.00    -0.275 OA
ATOM      5  H   UNL A   1      36.624  20.851  26.592  1.00  0.00     0.163 HD
BRANCH   3   6
ATOM      6  C   UNL A   1      34.232  21.917  24.484  1.00  0.00     0.098 C 
ATOM      7  C   UNL A   1      33.422  23.279  24.444  1.00  0.00     0.099 C 
ATOM      8  C   UNL A   1      31.991  22.775  24.110  1.00  0.00     0.025 C 
ATOM      9  C   UNL A   1      33.148  20.867  24.087  1.00  0.00     0.025 C 
ATOM     10  C   UNL A   1      31.448  21.922  25.224  1.00  0.00    -0.027 C 
ATOM     11  C   UNL A   1      32.313  21.667  23.093  1.00  0.00     0.017 C 
ATOM     12  C   UNL A   1      32.117  20.762  25.191  1.00  0.00    -0.027 C 
BRANCH   7  13
ATOM     13  C   UNL A   1      33.651  24.220  25.627  1.00  0.00     0.229 C 
ATOM     14  N   UNL A   1      32.649  24.989  26.152  1.00  0.00    -0.317 N 
ATOM     15  H   UNL A   1      32.702  25.138  27.124  1.00  0.00     0.170 HD
ATOM     16  O   UNL A   1      34.784  24.366  26.096  1.00  0.00    -0.274 OA
BRANCH  14  17
ATOM     17  C   UNL A   1      31.571  25.590  25.525  1.00  0.00     0.108 A 
ATOM     18  C   UNL A   1      30.221  26.975  24.226  1.00  0.00     0.007 A 
ATOM     19  C   UNL A   1      29.296  26.216  24.921  1.00  0.00     0.076 A 
ATOM     20  C   UNL A   1      31.589  26.558  24.518  1.00  0.00     0.082 A 
ATOM     21  S   UNL A   1      30.013  24.977  25.828  1.00  0.00    -0.125 S 
BRANCH  18  22
ATOM     22  C   UNL A   1      29.703  28.013  23.339  1.00  0.00    -0.017 A 
ATOM     23  C   UNL A   1      28.368  31.486  21.175  1.00  0.00     0.044 C 
ATOM     24  C   UNL A   1      28.819  30.204  21.811  1.00  0.00    -0.051 A 
ATOM     25  C   UNL A   1      30.185  29.948  21.943  1.00  0.00     0.004 A 
ATOM     26  C   UNL A   1      27.898  29.314  22.387  1.00  0.00     0.004 A 
ATOM     27  C   UNL A   1      30.620  28.847  22.677  1.00  0.00     0.009 A 
ATOM     28  C   UNL A   1      28.335  28.221  23.151  1.00  0.00     0.009 A 
ENDBRANCH  18  22
BRANCH  20  29
ATOM     29  C   UNL A   1      32.865  27.152  24.119  1.00  0.00     0.255 C 
ATOM     30  O   UNL A   1      33.475  26.681  23.153  1.00  0.00    -0.269 OA
ATOM     31  N   UNL A   1      33.442  28.272  24.668  1.00  0.00    -0.349 N 
ATOM     32  H   UNL A   1      34.284  28.490  24.206  1.00  0.00     0.164 HD
BRANCH  31  33
ATOM     33  C   UNL A   1      33.181  29.208  25.705  1.00  0.00     0.082 C 
ATOM     34  C   UNL A   1      32.409  29.057  26.968  1.00  0.00     0.027 C 
ATOM     35  C   UNL A   1      33.910  29.005  27.007  1.00  0.00     0.027 C 
ENDBRANCH  31  33
ENDBRANCH  20  29
ENDBRANCH  14  17
ENDBRANCH   7  13
ENDBRANCH   3   6
ENDBRANCH   1   2
BRANCH   1  36
ATOM     36  C   UNL A   1      37.775  22.893  24.755  1.00  0.00     0.042 C 
BRANCH  36  37
ATOM     37  C   UNL A   1      37.941  23.389  26.188  1.00  0.00     0.118 C 
BRANCH  37  38
ATOM     38  N   UNL A   1      39.257  23.111  26.749  1.00  0.00    -0.352 N 
ATOM     39  C   UNL A   1      40.253  24.020  27.073  1.00  0.00     0.251 C 
ATOM     40  H   UNL A   1      39.464  22.163  26.919  1.00  0.00     0.163 HD
ATOM     41  O   UNL A   1      41.407  23.686  27.251  1.00  0.00    -0.269 OA
BRANCH  39  42
ATOM     42  C   UNL A   1      39.817  25.408  27.343  1.00  0.00     0.039 A 
ATOM     43  C   UNL A   1      40.383  26.415  26.550  1.00  0.00     0.014 A 
ATOM     44  C   UNL A   1      39.122  25.712  28.507  1.00  0.00     0.014 A 
ATOM     45  C   UNL A   1      40.406  27.725  27.021  1.00  0.00     0.010 A 
ATOM     46  C   UNL A   1      39.223  26.992  29.013  1.00  0.00     0.010 A 
ATOM     47  C   UNL A   1      39.901  27.989  28.292  1.00  0.00    -0.014 A 
BRANCH  47  48
ATOM     48  C   UNL A   1      40.110  29.246  29.004  1.00  0.00     0.031 A 
ATOM     49  C   UNL A   1      39.040  30.271  29.037  1.00  0.00     0.074 A 
ATOM     50  C   UNL A   1      41.222  29.409  29.752  1.00  0.00     0.049 A 
ATOM     51  N   UNL A   1      39.213  31.507  29.367  1.00  0.00    -0.248 NA
ATOM     52  C   UNL A   1      37.666  29.973  28.649  1.00  0.00     0.031 C 
ATOM     53  C   UNL A   1      41.422  30.371  30.830  1.00  0.00     0.029 A 
ATOM     54  N   UNL A   1      42.476  28.828  29.572  1.00  0.00    -0.354 N 
ATOM     55  C   UNL A   1      37.970  32.088  29.506  1.00  0.00     0.074 A 
ATOM     56  C   UNL A   1      37.044  31.105  28.994  1.00  0.00     0.031 C 
ATOM     57  C   UNL A   1      42.736  30.486  31.077  1.00  0.00     0.029 A 
ATOM     58  C   UNL A   1      43.438  29.733  30.053  1.00  0.00     0.049 A 
ATOM     59  H   UNL A   1      42.656  27.943  29.179  1.00  0.00     0.167 HD
ATOM     60  C   UNL A   1      37.855  33.282  30.160  1.00  0.00     0.037 A 
ATOM     61  C   UNL A   1      44.382  30.268  29.221  1.00  0.00     0.037 A 
ATOM     62  C   UNL A   1      39.172  33.799  30.536  1.00  0.00     0.049 A 
ATOM     63  C   UNL A   1      44.277  31.767  29.060  1.00  0.00     0.074 A 
ATOM     64  C   UNL A   1      39.899  33.719  31.713  1.00  0.00     0.029 A 
ATOM     65  N   UNL A   1      40.056  34.236  29.555  1.00  0.00    -0.354 N 
ATOM     66  N   UNL A   1      43.225  32.465  29.386  1.00  0.00    -0.248 NA
ATOM     67  C   UNL A   1      45.344  32.597  28.504  1.00  0.00     0.031 C 
ATOM     68  C   UNL A   1      41.246  34.039  31.419  1.00  0.00     0.029 A 
ATOM     69  C   UNL A   1      41.336  34.334  30.070  1.00  0.00     0.049 A 
ATOM     70  H   UNL A   1      39.806  34.444  28.626  1.00  0.00     0.167 HD
ATOM     71  C   UNL A   1      43.425  33.780  29.059  1.00  0.00     0.074 A 
ATOM     72  C   UNL A   1      44.778  33.818  28.537  1.00  0.00     0.031 C 
ATOM     73  C   UNL A   1      42.457  34.728  29.231  1.00  0.00     0.037 A 
BRANCH  60  74
ATOM     74  C   UNL A   1      36.552  33.819  30.732  1.00  0.00     0.058 A 
ATOM     75  C   UNL A   1      35.483  34.178  29.881  1.00  0.00     0.135 A 
ATOM     76  C   UNL A   1      36.310  34.065  32.099  1.00  0.00     0.135 A 
ATOM     77  F   UNL A   1      35.505  33.903  28.570  1.00  0.00    -0.206 F 
ATOM     78  C   UNL A   1      34.337  34.844  30.327  1.00  0.00     0.059 A 
ATOM     79  C   UNL A   1      35.199  34.781  32.565  1.00  0.00     0.059 A 
ATOM     80  F   UNL A   1      37.111  33.568  33.049  1.00  0.00    -0.206 F 
ATOM     81  C   UNL A   1      34.222  35.181  31.668  1.00  0.00     0.060 A 
BRANCH  81  82
ATOM     82  S   UNL A   1      32.783  36.120  32.210  1.00  0.00     0.124 S 
ATOM     83  O   UNL A   1      32.499  36.952  31.044  1.00  0.00    -0.237 OA
ATOM     84  O   UNL A   1      31.815  35.064  32.488  1.00  0.00    -0.237 OA
ATOM     85  O   UNL A   1      33.270  36.845  33.381  1.00  0.00    -0.744 OA
ENDBRANCH  81  82
ENDBRANCH  60  74
BRANCH  61  86
ATOM     86  C   UNL A   1      44.840  29.319  28.170  1.00  0.00     0.058 A 
ATOM     87  C   UNL A   1      45.783  28.345  28.549  1.00  0.00     0.135 A 
ATOM     88  C   UNL A   1      44.060  29.063  27.034  1.00  0.00     0.135 A 
ATOM     89  F   UNL A   1      46.574  28.555  29.613  1.00  0.00    -0.206 F 
ATOM     90  C   UNL A   1      45.819  27.092  27.947  1.00  0.00     0.059 A 
ATOM     91  C   UNL A   1      44.085  27.815  26.409  1.00  0.00     0.059 A 
ATOM     92  F   UNL A   1      43.156  29.962  26.617  1.00  0.00    -0.206 F 
ATOM     93  C   UNL A   1      44.909  26.814  26.928  1.00  0.00     0.060 A 
BRANCH  93  94
ATOM     94  S   UNL A   1      44.697  25.084  26.442  1.00  0.00     0.124 S 
ATOM     95  O   UNL A   1      43.546  25.155  25.549  1.00  0.00    -0.237 OA
ATOM     96  O   UNL A   1      45.978  24.799  25.796  1.00  0.00    -0.237 OA
ATOM     97  O   UNL A   1      44.469  24.405  27.713  1.00  0.00    -0.744 OA
ENDBRANCH  93  94
ENDBRANCH  61  86
BRANCH  73  98
ATOM     98  C   UNL A   1      42.534  36.140  28.711  1.00  0.00     0.058 A 
ATOM     99  C   UNL A   1      43.086  37.207  29.439  1.00  0.00     0.135 A 
ATOM    100  C   UNL A   1      42.158  36.434  27.379  1.00  0.00     0.135 A 
ATOM    101  F   UNL A   1      43.584  37.024  30.671  1.00  0.00    -0.206 F 
ATOM    102  C   UNL A   1      43.181  38.498  28.917  1.00  0.00     0.059 A 
ATOM    103  C   UNL A   1      42.293  37.702  26.820  1.00  0.00     0.059 A 
ATOM    104  F   UNL A   1      41.652  35.490  26.573  1.00  0.00    -0.206 F 
ATOM    105  C   UNL A   1      42.776  38.738  27.608  1.00  0.00     0.060 A 
BRANCH 105 106
ATOM    106  S   UNL A   1      42.923  40.395  26.914  1.00  0.00     0.124 S 
ATOM    107  O   UNL A   1      43.892  40.176  25.844  1.00  0.00    -0.237 OA
ATOM    108  O   UNL A   1      41.562  40.690  26.478  1.00  0.00    -0.237 OA
ATOM    109  O   UNL A   1      43.396  41.188  28.045  1.00  0.00    -0.744 OA
ENDBRANCH 105 106
ENDBRANCH  73  98
ENDBRANCH  47  48
ENDBRANCH  39  42
ENDBRANCH  37  38
ENDBRANCH  36  37
ENDBRANCH   1  36
TORSDOF 18
ENDMDL
MODEL 2
REMARK VINA RESULT:     -14.4      1.330      2.026
REMARK SMILES Cc1ccc(-c2csc(NC(=O)[C@H]3[C@@H](C(=O)NCCCNC(=O)c4ccc(-c5c6nc(c(-c7c(F)cc(S(=O)(=O)[O-])cc7F)c7ccc([nH]7)c(-c7c(F)cc(S(=O)(=O)[O-])cc7F)c7nc(c(-c8c(F)cc(S(=O)(=O)[O-])cc8F)c8ccc5[nH]8)C=C7)C=C6)cc4)[C@H]4C=C[C@@H]3C4)c2C(=O)NC2CC2)cc1
REMARK SMILES IDX 18 1 17 2 15 3 16 4 14 6 13 7 93 8 90 9 92 10 94 11 91 12
REMARK SMILES IDX 11 13 10 14 12 16 9 17 6 18 7 19 95 20 8 21 5 22 1 23 2 24
REMARK SMILES IDX 3 25 103 26 4 27 102 28 96 29 97 30 98 31 99 33 100 34
REMARK SMILES IDX 101 35 19 36 20 37 21 38 22 39 23 41 24 42 25 43 89 44 26 45
REMARK SMILES IDX 88 46 27 47 28 48 29 49 82 50 30 51 87 52 81 53 83 54 31 55
REMARK SMILES IDX 86 56 80 57 79 58 32 60 66 61 45 62 65 63 46 64 49 65 64 66
REMARK SMILES IDX 84 67 47 68 48 69 63 71 85 72 50 73 33 74 34 75 43 76 35 77
REMARK SMILES IDX 36 78 42 79 44 80 37 81 38 82 39 83 40 84 41 85 67 86 68 87
REMARK SMILES IDX 77 88 69 89 70 90 76 91 78 92 71 93 72 94 73 95 74 96 75 97
REMARK SMILES IDX 51 98 52 99 61 100 53 101 54 102 60 103 62 104 55 105 56 106
REMARK SMILES IDX 57 107 58 108 59 109
REMARK H PARENT 17 5 10 15 98 32 21 40 83 59 49 70
REMARK Flexibility Score: inf
ROOT
ATOM      1  C   UNL A   1      36.653  22.297  24.155  1.00  0.00     0.117 C 
ENDROOT
BRANCH   1   2
ATOM      2  N   UNL A   1      35.400  22.222  24.896  1.00  0.00    -0.356 N 
ATOM      3  C   UNL A   1      34.234  22.919  24.714  1.00  0.00     0.224 C 
ATOM      4  O   UNL A   1      33.288  22.679  25.464  1.00  0.00    -0.275 OA
ATOM      5  H   UNL A   1      35.390  21.576  25.638  1.00  0.00     0.163 HD
BRANCH   3   6
ATOM      6  C   UNL A   1      34.127  23.844  23.501  1.00  0.00     0.098 C 
ATOM      7  C   UNL A   1      33.414  25.254  23.631  1.00  0.00     0.099 C 
ATOM      8  C   UNL A   1      32.220  25.084  22.652  1.00  0.00     0.025 C 
ATOM      9  C   UNL A   1      33.270  23.130  22.410  1.00  0.00     0.025 C 
ATOM     10  C   UNL A   1      31.274  24.019  23.137  1.00  0.00    -0.027 C 
ATOM     11  C   UNL A   1      32.898  24.305  21.513  1.00  0.00     0.017 C 
ATOM     12  C   UNL A   1      31.888  22.841  22.961  1.00  0.00    -0.027 C 
BRANCH   7  13
ATOM     13  C   UNL A   1      33.177  25.746  25.059  1.00  0.00     0.229 C 
ATOM     14  N   UNL A   1      31.961  26.214  25.476  1.00  0.00    -0.317 N 
ATOM     15  H   UNL A   1      31.742  26.025  26.417  1.00  0.00     0.170 HD
ATOM     16  O   UNL A   1      34.114  25.806  25.861  1.00  0.00    -0.274 OA
BRANCH  14  17
ATOM     17  C   UNL A   1      30.991  26.912  24.777  1.00  0.00     0.108 A 
ATOM     18  C   UNL A   1      29.830  28.527  23.565  1.00  0.00     0.007 A 
ATOM     19  C   UNL A   1      28.850  27.585  23.830  1.00  0.00     0.076 A 
ATOM     20  C   UNL A   1      31.135  28.101  24.057  1.00  0.00     0.082 A 
ATOM     21  S   UNL A   1      29.468  26.186  24.561  1.00  0.00    -0.125 S 
BRANCH  18  22
ATOM     22  C   UNL A   1      29.420  29.734  22.852  1.00  0.00    -0.017 A 
ATOM     23  C   UNL A   1      27.663  33.241  21.078  1.00  0.00     0.044 C 
ATOM     24  C   UNL A   1      28.398  32.062  21.646  1.00  0.00    -0.051 A 
ATOM     25  C   UNL A   1      28.800  32.084  22.983  1.00  0.00     0.004 A 
ATOM     26  C   UNL A   1      28.579  30.888  20.898  1.00  0.00     0.004 A 
ATOM     27  C   UNL A   1      29.331  30.938  23.571  1.00  0.00     0.009 A 
ATOM     28  C   UNL A   1      29.087  29.725  21.496  1.00  0.00     0.009 A 
ENDBRANCH  18  22
BRANCH  20  29
ATOM     29  C   UNL A   1      32.408  28.823  24.113  1.00  0.00     0.255 C 
ATOM     30  O   UNL A   1      33.143  28.829  23.120  1.00  0.00    -0.269 OA
ATOM     31  N   UNL A   1      32.854  29.594  25.160  1.00  0.00    -0.349 N 
ATOM     32  H   UNL A   1      33.725  30.000  24.944  1.00  0.00     0.164 HD
BRANCH  31  33
ATOM     33  C   UNL A   1      32.429  29.977  26.461  1.00  0.00     0.082 C 
ATOM     34  C   UNL A   1      32.943  31.038  27.369  1.00  0.00     0.027 C 
ATOM     35  C   UNL A   1      31.688  31.282  26.579  1.00  0.00     0.027 C 
ENDBRANCH  31  33
ENDBRANCH  20  29
ENDBRANCH  14  17
ENDBRANCH   7  13
ENDBRANCH   3   6
ENDBRANCH   1   2
BRANCH   1  36
ATOM     36  C   UNL A   1      37.841  21.873  25.015  1.00  0.00     0.042 C 
BRANCH  36  37
ATOM     37  C   UNL A   1      38.161  22.902  26.095  1.00  0.00     0.118 C 
BRANCH  37  38
ATOM     38  N   UNL A   1      39.401  22.625  26.810  1.00  0.00    -0.352 N 
ATOM     39  C   UNL A   1      40.344  23.535  27.262  1.00  0.00     0.251 C 
ATOM     40  H   UNL A   1      39.591  21.676  26.994  1.00  0.00     0.163 HD
ATOM     41  O   UNL A   1      41.469  23.206  27.577  1.00  0.00    -0.269 OA
BRANCH  39  42
ATOM     42  C   UNL A   1      39.869  24.918  27.490  1.00  0.00     0.039 A 
ATOM     43  C   UNL A   1      40.374  25.910  26.639  1.00  0.00     0.014 A 
ATOM     44  C   UNL A   1      39.201  25.247  28.664  1.00  0.00     0.014 A 
ATOM     45  C   UNL A   1      40.367  27.238  27.055  1.00  0.00     0.010 A 
ATOM     46  C   UNL A   1      39.274  26.550  29.113  1.00  0.00     0.010 A 
ATOM     47  C   UNL A   1      39.894  27.538  28.331  1.00  0.00    -0.014 A 
BRANCH  47  48
ATOM     48  C   UNL A   1      40.081  28.830  28.985  1.00  0.00     0.031 A 
ATOM     49  C   UNL A   1      39.034  29.873  28.889  1.00  0.00     0.074 A 
ATOM     50  C   UNL A   1      41.146  29.016  29.794  1.00  0.00     0.049 A 
ATOM     51  N   UNL A   1      39.210  31.122  29.160  1.00  0.00    -0.248 NA
ATOM     52  C   UNL A   1      37.682  29.577  28.428  1.00  0.00     0.031 C 
ATOM     53  C   UNL A   1      41.294  30.034  30.828  1.00  0.00     0.029 A 
ATOM     54  N   UNL A   1      42.396  28.404  29.731  1.00  0.00    -0.354 N 
ATOM     55  C   UNL A   1      37.973  31.732  29.184  1.00  0.00     0.074 A 
ATOM     56  C   UNL A   1      37.063  30.737  28.667  1.00  0.00     0.031 C 
ATOM     57  C   UNL A   1      42.592  30.141  31.155  1.00  0.00     0.029 A 
ATOM     58  C   UNL A   1      43.343  29.318  30.224  1.00  0.00     0.049 A 
ATOM     59  H   UNL A   1      42.583  27.495  29.401  1.00  0.00     0.167 HD
ATOM     60  C   UNL A   1      37.841  32.963  29.762  1.00  0.00     0.037 A 
ATOM     61  C   UNL A   1      44.350  29.790  29.428  1.00  0.00     0.037 A 
ATOM     62  C   UNL A   1      39.140  33.478  30.195  1.00  0.00     0.049 A 
ATOM     63  C   UNL A   1      44.288  31.279  29.177  1.00  0.00     0.074 A 
ATOM     64  C   UNL A   1      39.786  33.453  31.420  1.00  0.00     0.029 A 
ATOM     65  N   UNL A   1      40.096  33.843  29.253  1.00  0.00    -0.354 N 
ATOM     66  N   UNL A   1      43.231  32.012  29.393  1.00  0.00    -0.248 NA
ATOM     67  C   UNL A   1      45.405  32.057  28.648  1.00  0.00     0.031 C 
ATOM     68  C   UNL A   1      41.157  33.732  31.200  1.00  0.00     0.029 A 
ATOM     69  C   UNL A   1      41.341  33.949  29.845  1.00  0.00     0.049 A 
ATOM     70  H   UNL A   1      39.912  34.003  28.299  1.00  0.00     0.167 HD
ATOM     71  C   UNL A   1      43.480  33.302  29.008  1.00  0.00     0.074 A 
ATOM     72  C   UNL A   1      44.865  33.287  28.576  1.00  0.00     0.031 C 
ATOM     73  C   UNL A   1      42.523  34.275  29.062  1.00  0.00     0.037 A 
BRANCH  60  74
ATOM     74  C   UNL A   1      36.514  33.554  30.215  1.00  0.00     0.058 A 
ATOM     75  C   UNL A   1      35.566  34.009  29.272  1.00  0.00     0.135 A 
ATOM     76  C   UNL A   1      36.138  33.760  31.557  1.00  0.00     0.135 A 
ATOM     77  F   UNL A   1      35.715  33.785  27.960  1.00  0.00    -0.206 F 
ATOM     78  C   UNL A   1      34.416  34.724  29.623  1.00  0.00     0.059 A 
ATOM     79  C   UNL A   1      35.024  34.521  31.935  1.00  0.00     0.059 A 
ATOM     80  F   UNL A   1      36.802  33.179  32.564  1.00  0.00    -0.206 F 
ATOM     81  C   UNL A   1      34.174  35.014  30.957  1.00  0.00     0.060 A 
BRANCH  81  82
ATOM     82  S   UNL A   1      32.738  36.016  31.385  1.00  0.00     0.124 S 
ATOM     83  O   UNL A   1      32.117  36.238  30.082  1.00  0.00    -0.237 OA
ATOM     84  O   UNL A   1      32.010  35.135  32.293  1.00  0.00    -0.237 OA
ATOM     85  O   UNL A   1      33.322  37.205  32.001  1.00  0.00    -0.744 OA
ENDBRANCH  81  82
ENDBRANCH  60  74
BRANCH  61  86
ATOM     86  C   UNL A   1      44.857  28.774  28.465  1.00  0.00     0.058 A 
ATOM     87  C   UNL A   1      44.277  28.757  27.182  1.00  0.00     0.135 A 
ATOM     88  C   UNL A   1      46.132  28.208  28.611  1.00  0.00     0.135 A 
ATOM     89  F   UNL A   1      43.047  29.260  26.995  1.00  0.00    -0.206 F 
ATOM     90  C   UNL A   1      45.002  28.372  26.060  1.00  0.00     0.059 A 
ATOM     91  C   UNL A   1      46.875  27.809  27.499  1.00  0.00     0.059 A 
ATOM     92  F   UNL A   1      46.727  28.184  29.812  1.00  0.00    -0.206 F 
ATOM     93  C   UNL A   1      46.328  27.974  26.224  1.00  0.00     0.060 A 
BRANCH  93  94
ATOM     94  S   UNL A   1      47.361  27.870  24.744  1.00  0.00     0.124 S 
ATOM     95  O   UNL A   1      46.784  28.905  23.893  1.00  0.00    -0.237 OA
ATOM     96  O   UNL A   1      48.687  28.169  25.286  1.00  0.00    -0.237 OA
ATOM     97  O   UNL A   1      47.162  26.498  24.291  1.00  0.00    -0.744 OA
ENDBRANCH  93  94
ENDBRANCH  61  86
BRANCH  73  98
ATOM     98  C   UNL A   1      42.663  35.654  28.471  1.00  0.00     0.058 A 
ATOM     99  C   UNL A   1      42.418  35.949  27.120  1.00  0.00     0.135 A 
ATOM    100  C   UNL A   1      42.933  36.765  29.303  1.00  0.00     0.135 A 
ATOM    101  F   UNL A   1      42.039  34.993  26.257  1.00  0.00    -0.206 F 
ATOM    102  C   UNL A   1      42.515  37.243  26.607  1.00  0.00     0.059 A 
ATOM    103  C   UNL A   1      42.984  38.072  28.824  1.00  0.00     0.059 A 
ATOM    104  F   UNL A   1      43.149  36.616  30.618  1.00  0.00    -0.206 F 
ATOM    105  C   UNL A   1      42.807  38.298  27.466  1.00  0.00     0.060 A 
BRANCH 105 106
ATOM    106  S   UNL A   1      42.905  39.978  26.820  1.00  0.00     0.124 S 
ATOM    107  O   UNL A   1      43.060  40.752  28.047  1.00  0.00    -0.237 OA
ATOM    108  O   UNL A   1      44.080  39.928  25.955  1.00  0.00    -0.237 OA
ATOM    109  O   UNL A   1      41.632  40.142  26.124  1.00  0.00    -0.744 OA
ENDBRANCH 105 106
ENDBRANCH  73  98
ENDBRANCH  47  48
ENDBRANCH  39  42
ENDBRANCH  37  38
ENDBRANCH  36  37
ENDBRANCH   1  36
TORSDOF 18
ENDMDL
MODEL 3
REMARK VINA RESULT:     -14.3      1.484      1.983
REMARK SMILES Cc1ccc(-c2csc(NC(=O)[C@H]3[C@@H](C(=O)NCCCNC(=O)c4ccc(-c5c6nc(c(-c7c(F)cc(S(=O)(=O)[O-])cc7F)c7ccc([nH]7)c(-c7c(F)cc(S(=O)(=O)[O-])cc7F)c7nc(c(-c8c(F)cc(S(=O)(=O)[O-])cc8F)c8ccc5[nH]8)C=C7)C=C6)cc4)[C@H]4C=C[C@@H]3C4)c2C(=O)NC2CC2)cc1
REMARK SMILES IDX 18 1 17 2 15 3 16 4 14 6 13 7 93 8 90 9 92 10 94 11 91 12
REMARK SMILES IDX 11 13 10 14 12 16 9 17 6 18 7 19 95 20 8 21 5 22 1 23 2 24
REMARK SMILES IDX 3 25 103 26 4 27 102 28 96 29 97 30 98 31 99 33 100 34
REMARK SMILES IDX 101 35 19 36 20 37 21 38 22 39 23 41 24 42 25 43 89 44 26 45
REMARK SMILES IDX 88 46 27 47 28 48 29 49 82 50 30 51 87 52 81 53 83 54 31 55
REMARK SMILES IDX 86 56 80 57 79 58 32 60 66 61 45 62 65 63 46 64 49 65 64 66
REMARK SMILES IDX 84 67 47 68 48 69 63 71 85 72 50 73 33 74 34 75 43 76 35 77
REMARK SMILES IDX 36 78 42 79 44 80 37 81 38 82 39 83 40 84 41 85 67 86 68 87
REMARK SMILES IDX 77 88 69 89 70 90 76 91 78 92 71 93 72 94 73 95 74 96 75 97
REMARK SMILES IDX 51 98 52 99 61 100 53 101 54 102 60 103 62 104 55 105 56 106
REMARK SMILES IDX 57 107 58 108 59 109
REMARK H PARENT 17 5 10 15 98 32 21 40 83 59 49 70
REMARK Flexibility Score: inf
ROOT
ATOM      1  C   UNL A   1      36.262  21.193  24.927  1.00  0.00     0.117 C 
ENDROOT
BRANCH   1   2
ATOM      2  N   UNL A   1      35.608  21.312  26.225  1.00  0.00    -0.356 N 
ATOM      3  C   UNL A   1      34.364  21.794  26.536  1.00  0.00     0.224 C 
ATOM      4  O   UNL A   1      34.014  21.788  27.717  1.00  0.00    -0.275 OA
ATOM      5  H   UNL A   1      36.140  21.000  26.992  1.00  0.00     0.163 HD
BRANCH   3   6
ATOM      6  C   UNL A   1      33.428  22.172  25.388  1.00  0.00     0.098 C 
ATOM      7  C   UNL A   1      33.271  23.688  24.950  1.00  0.00     0.099 C 
ATOM      8  C   UNL A   1      31.767  23.939  25.250  1.00  0.00     0.025 C 
ATOM      9  C   UNL A   1      31.971  21.783  25.789  1.00  0.00     0.025 C 
ATOM     10  C   UNL A   1      31.487  23.831  26.724  1.00  0.00    -0.027 C 
ATOM     11  C   UNL A   1      31.162  22.602  24.790  1.00  0.00     0.017 C 
ATOM     12  C   UNL A   1      31.575  22.533  27.045  1.00  0.00    -0.027 C 
BRANCH   7  13
ATOM     13  C   UNL A   1      34.334  24.646  25.489  1.00  0.00     0.229 C 
ATOM     14  N   UNL A   1      34.113  25.991  25.606  1.00  0.00    -0.317 N 
ATOM     15  H   UNL A   1      34.562  26.423  26.367  1.00  0.00     0.170 HD
ATOM     16  O   UNL A   1      35.465  24.231  25.763  1.00  0.00    -0.274 OA
BRANCH  14  17
ATOM     17  C   UNL A   1      33.352  26.836  24.817  1.00  0.00     0.108 A 
ATOM     18  C   UNL A   1      31.765  28.359  24.049  1.00  0.00     0.007 A 
ATOM     19  C   UNL A   1      32.395  27.963  22.881  1.00  0.00     0.076 A 
ATOM     20  C   UNL A   1      32.379  27.753  25.225  1.00  0.00     0.082 A 
ATOM     21  S   UNL A   1      33.740  26.972  23.167  1.00  0.00    -0.125 S 
BRANCH  18  22
ATOM     22  C   UNL A   1      30.647  29.290  23.921  1.00  0.00    -0.017 A 
ATOM     23  C   UNL A   1      27.585  32.158  22.961  1.00  0.00     0.044 C 
ATOM     24  C   UNL A   1      28.572  31.118  23.402  1.00  0.00    -0.051 A 
ATOM     25  C   UNL A   1      28.581  29.872  22.773  1.00  0.00     0.004 A 
ATOM     26  C   UNL A   1      29.568  31.414  24.348  1.00  0.00     0.004 A 
ATOM     27  C   UNL A   1      29.594  28.958  23.052  1.00  0.00     0.009 A 
ATOM     28  C   UNL A   1      30.605  30.505  24.608  1.00  0.00     0.009 A 
ENDBRANCH  18  22
BRANCH  20  29
ATOM     29  C   UNL A   1      31.967  27.782  26.629  1.00  0.00     0.255 C 
ATOM     30  O   UNL A   1      31.022  27.075  26.996  1.00  0.00    -0.269 OA
ATOM     31  N   UNL A   1      32.591  28.472  27.641  1.00  0.00    -0.349 N 
ATOM     32  H   UNL A   1      32.142  28.306  28.501  1.00  0.00     0.164 HD
BRANCH  31  33
ATOM     33  C   UNL A   1      33.694  29.353  27.810  1.00  0.00     0.082 C 
ATOM     34  C   UNL A   1      34.627  29.932  26.807  1.00  0.00     0.027 C 
ATOM     35  C   UNL A   1      33.508  30.774  27.350  1.00  0.00     0.027 C 
ENDBRANCH  31  33
ENDBRANCH  20  29
ENDBRANCH  14  17
ENDBRANCH   7  13
ENDBRANCH   3   6
ENDBRANCH   1   2
BRANCH   1  36
ATOM     36  C   UNL A   1      37.779  21.106  25.068  1.00  0.00     0.042 C 
BRANCH  36  37
ATOM     37  C   UNL A   1      38.342  22.248  25.908  1.00  0.00     0.118 C 
BRANCH  37  38
ATOM     38  N   UNL A   1      39.654  21.960  26.473  1.00  0.00    -0.352 N 
ATOM     39  C   UNL A   1      40.655  22.861  26.804  1.00  0.00     0.251 C 
ATOM     40  H   UNL A   1      39.854  21.009  26.640  1.00  0.00     0.163 HD
ATOM     41  O   UNL A   1      41.805  22.520  26.986  1.00  0.00    -0.269 OA
BRANCH  39  42
ATOM     42  C   UNL A   1      40.225  24.251  27.078  1.00  0.00     0.039 A 
ATOM     43  C   UNL A   1      40.838  25.262  26.327  1.00  0.00     0.014 A 
ATOM     44  C   UNL A   1      39.485  24.546  28.217  1.00  0.00     0.014 A 
ATOM     45  C   UNL A   1      40.859  26.564  26.819  1.00  0.00     0.010 A 
ATOM     46  C   UNL A   1      39.582  25.817  28.747  1.00  0.00     0.010 A 
ATOM     47  C   UNL A   1      40.304  26.815  28.072  1.00  0.00    -0.014 A 
BRANCH  47  48
ATOM     48  C   UNL A   1      40.498  28.058  28.813  1.00  0.00     0.031 A 
ATOM     49  C   UNL A   1      39.477  29.130  28.752  1.00  0.00     0.074 A 
ATOM     50  C   UNL A   1      41.539  28.166  29.666  1.00  0.00     0.049 A 
ATOM     51  N   UNL A   1      39.672  30.355  29.108  1.00  0.00    -0.248 NA
ATOM     52  C   UNL A   1      38.135  28.897  28.231  1.00  0.00     0.031 C 
ATOM     53  C   UNL A   1      41.676  29.113  30.767  1.00  0.00     0.029 A 
ATOM     54  N   UNL A   1      42.777  27.530  29.602  1.00  0.00    -0.354 N 
ATOM     55  C   UNL A   1      38.449  30.991  29.133  1.00  0.00     0.074 A 
ATOM     56  C   UNL A   1      37.534  30.054  28.525  1.00  0.00     0.031 C 
ATOM     57  C   UNL A   1      42.964  29.167  31.141  1.00  0.00     0.029 A 
ATOM     58  C   UNL A   1      43.728  28.388  30.182  1.00  0.00     0.049 A 
ATOM     59  H   UNL A   1      42.954  26.639  29.220  1.00  0.00     0.167 HD
ATOM     60  C   UNL A   1      38.325  32.186  29.784  1.00  0.00     0.037 A 
ATOM     61  C   UNL A   1      44.770  28.884  29.450  1.00  0.00     0.037 A 
ATOM     62  C   UNL A   1      39.620  32.641  30.290  1.00  0.00     0.049 A 
ATOM     63  C   UNL A   1      44.749  30.387  29.293  1.00  0.00     0.074 A 
ATOM     64  C   UNL A   1      40.226  32.523  31.531  1.00  0.00     0.029 A 
ATOM     65  N   UNL A   1      40.614  33.042  29.403  1.00  0.00    -0.354 N 
ATOM     66  N   UNL A   1      43.702  31.130  29.523  1.00  0.00    -0.248 NA
ATOM     67  C   UNL A   1      45.900  31.171  28.850  1.00  0.00     0.031 C 
ATOM     68  C   UNL A   1      41.609  32.782  31.371  1.00  0.00     0.029 A 
ATOM     69  C   UNL A   1      41.841  33.080  30.040  1.00  0.00     0.049 A 
ATOM     70  H   UNL A   1      40.465  33.266  28.456  1.00  0.00     0.167 HD
ATOM     71  C   UNL A   1      43.992  32.436  29.229  1.00  0.00     0.074 A 
ATOM     72  C   UNL A   1      45.389  32.416  28.841  1.00  0.00     0.031 C 
ATOM     73  C   UNL A   1      43.055  33.427  29.316  1.00  0.00     0.037 A 
BRANCH  60  74
ATOM     74  C   UNL A   1      36.998  32.779  30.233  1.00  0.00     0.058 A 
ATOM     75  C   UNL A   1      36.125  33.387  29.301  1.00  0.00     0.135 A 
ATOM     76  C   UNL A   1      36.550  32.840  31.568  1.00  0.00     0.135 A 
ATOM     77  F   UNL A   1      36.345  33.314  27.982  1.00  0.00    -0.206 F 
ATOM     78  C   UNL A   1      34.986  34.107  29.674  1.00  0.00     0.059 A 
ATOM     79  C   UNL A   1      35.446  33.601  31.974  1.00  0.00     0.059 A 
ATOM     80  F   UNL A   1      37.130  32.113  32.531  1.00  0.00    -0.206 F 
ATOM     81  C   UNL A   1      34.676  34.246  31.018  1.00  0.00     0.060 A 
BRANCH  81  82
ATOM     82  S   UNL A   1      33.257  35.254  31.486  1.00  0.00     0.124 S 
ATOM     83  O   UNL A   1      32.712  34.514  32.620  1.00  0.00    -0.237 OA
ATOM     84  O   UNL A   1      33.882  36.533  31.803  1.00  0.00    -0.237 OA
ATOM     85  O   UNL A   1      32.423  35.246  30.286  1.00  0.00    -0.744 OA
ENDBRANCH  81  82
ENDBRANCH  60  74
BRANCH  61  86
ATOM     86  C   UNL A   1      45.285  27.920  28.439  1.00  0.00     0.058 A 
ATOM     87  C   UNL A   1      46.226  26.969  28.877  1.00  0.00     0.135 A 
ATOM     88  C   UNL A   1      44.556  27.629  27.278  1.00  0.00     0.135 A 
ATOM     89  F   UNL A   1      46.970  27.214  29.968  1.00  0.00    -0.206 F 
ATOM     90  C   UNL A   1      46.305  25.705  28.304  1.00  0.00     0.059 A 
ATOM     91  C   UNL A   1      44.625  26.368  26.681  1.00  0.00     0.059 A 
ATOM     92  F   UNL A   1      43.657  28.504  26.806  1.00  0.00    -0.206 F 
ATOM     93  C   UNL A   1      45.442  25.391  27.255  1.00  0.00     0.060 A 
BRANCH  93  94
ATOM     94  S   UNL A   1      45.276  23.649  26.799  1.00  0.00     0.124 S 
ATOM     95  O   UNL A   1      44.363  23.715  25.663  1.00  0.00    -0.237 OA
ATOM     96  O   UNL A   1      46.658  23.295  26.476  1.00  0.00    -0.237 OA
ATOM     97  O   UNL A   1      44.736  23.036  28.007  1.00  0.00    -0.744 OA
ENDBRANCH  93  94
ENDBRANCH  61  86
BRANCH  73  98
ATOM     98  C   UNL A   1      43.245  34.836  28.819  1.00  0.00     0.058 A 
ATOM     99  C   UNL A   1      43.340  35.175  27.460  1.00  0.00     0.135 A 
ATOM    100  C   UNL A   1      43.207  35.925  29.723  1.00  0.00     0.135 A 
ATOM    101  F   UNL A   1      43.269  34.238  26.503  1.00  0.00    -0.206 F 
ATOM    102  C   UNL A   1      43.474  36.494  27.026  1.00  0.00     0.059 A 
ATOM    103  C   UNL A   1      43.288  37.252  29.309  1.00  0.00     0.059 A 
ATOM    104  F   UNL A   1      43.084  35.730  31.044  1.00  0.00    -0.206 F 
ATOM    105  C   UNL A   1      43.455  37.527  27.958  1.00  0.00     0.060 A 
BRANCH 105 106
ATOM    106  S   UNL A   1      43.597  39.237  27.406  1.00  0.00     0.124 S 
ATOM    107  O   UNL A   1      44.684  39.140  26.437  1.00  0.00    -0.237 OA
ATOM    108  O   UNL A   1      42.277  39.510  26.845  1.00  0.00    -0.237 OA
ATOM    109  O   UNL A   1      43.907  39.958  28.637  1.00  0.00    -0.744 OA
ENDBRANCH 105 106
ENDBRANCH  73  98
ENDBRANCH  47  48
ENDBRANCH  39  42
ENDBRANCH  37  38
ENDBRANCH  36  37
ENDBRANCH   1  36
TORSDOF 18
ENDMDL
