MODEL 1
REMARK VINA RESULT:     -11.3      0.000      0.000
REMARK SMILES Cc1c(CC(=O)N[C@H](CO)C(=O)NCCCNC(=O)c2ccc(-c3c4nc(c(-c5c(F)cc(S(=O)(=O)[O-])cc5F)c5ccc([nH]5)c(-c5c(F)cc(S(=O)(=O)[O-])cc5F)c5nc(c(-c6c(F)cc(S(=O)(=O)[O-])cc6F)c6ccc3[nH]6)C=C5)C=C4)cc2)cc(-c2ccc(S(C)(=O)=O)cc2)n1-c1ccc(F)cc1
REMARK SMILES IDX 14 1 13 2 11 3 12 4 8 6 7 7 5 8 6 9 4 11 3 12 1 13 2 14
REMARK SMILES IDX 98 15 86 16 87 17 99 18 100 19 105 20 101 21 104 22 102 23
REMARK SMILES IDX 103 24 88 25 89 26 97 27 90 28 96 29 91 30 92 31 93 32 94 33
REMARK SMILES IDX 95 34 9 35 10 36 15 38 16 39 17 40 18 41 19 43 20 44 21 45
REMARK SMILES IDX 85 46 22 47 84 48 23 49 24 50 25 51 78 52 26 53 83 54 77 55
REMARK SMILES IDX 79 56 27 57 82 58 76 59 75 60 28 62 62 63 41 64 61 65 42 66
REMARK SMILES IDX 45 67 60 68 80 69 43 70 44 71 59 73 81 74 46 75 29 76 30 77
REMARK SMILES IDX 39 78 31 79 32 80 38 81 40 82 33 83 34 84 35 85 36 86 37 87
REMARK SMILES IDX 63 88 64 89 73 90 65 91 66 92 72 93 74 94 67 95 68 96 69 97
REMARK SMILES IDX 70 98 71 99 47 100 48 101 57 102 49 103 50 104 56 105 58 106
REMARK SMILES IDX 51 107 52 108 53 109 54 110 55 111
REMARK H PARENT 13 5 7 10 10 37 17 42 79 61 45 72
REMARK Flexibility Score: inf
ROOT
ATOM      1  C   UNL A   1      43.815  23.157  28.145  1.00  0.00     0.117 C 
ENDROOT
BRANCH   1   2
ATOM      2  N   UNL A   1      44.950  22.762  27.330  1.00  0.00    -0.354 N 
ATOM      3  C   UNL A   1      45.088  22.294  26.061  1.00  0.00     0.244 C 
ATOM      4  O   UNL A   1      46.238  22.012  25.704  1.00  0.00    -0.273 OA
ATOM      5  H   UNL A   1      45.810  22.853  27.801  1.00  0.00     0.163 HD
BRANCH   3   6
ATOM      6  C   UNL A   1      43.919  22.168  25.067  1.00  0.00     0.197 C 
BRANCH   6   7
ATOM      7  N   UNL A   1      43.065  21.016  25.387  1.00  0.00    -0.342 N 
ATOM      8  C   UNL A   1      41.794  20.997  25.889  1.00  0.00     0.225 C 
ATOM      9  O   UNL A   1      41.276  19.893  26.079  1.00  0.00    -0.275 OA
ATOM     10  H   UNL A   1      43.464  20.133  25.214  1.00  0.00     0.164 HD
BRANCH   8  11
ATOM     11  C   UNL A   1      41.015  22.284  26.144  1.00  0.00     0.137 C 
BRANCH  11  12
ATOM     12  C   UNL A   1      39.531  22.114  26.028  1.00  0.00    -0.017 A 
ATOM     13  C   UNL A   1      38.736  24.539  26.450  1.00  0.00     0.065 C 
ATOM     14  C   UNL A   1      38.554  23.098  26.100  1.00  0.00     0.024 A 
ATOM     15  N   UNL A   1      37.323  22.510  25.827  1.00  0.00    -0.314 N 
ATOM     16  C   UNL A   1      38.857  20.883  25.815  1.00  0.00     0.033 A 
ATOM     17  C   UNL A   1      37.510  21.141  25.636  1.00  0.00     0.053 A 
BRANCH  15  18
ATOM     18  C   UNL A   1      36.074  23.187  25.773  1.00  0.00     0.046 A 
ATOM     19  C   UNL A   1      35.174  23.063  26.841  1.00  0.00     0.029 A 
ATOM     20  C   UNL A   1      35.736  23.933  24.636  1.00  0.00     0.029 A 
ATOM     21  C   UNL A   1      33.934  23.696  26.772  1.00  0.00     0.041 A 
ATOM     22  C   UNL A   1      34.487  24.549  24.570  1.00  0.00     0.041 A 
ATOM     23  C   UNL A   1      33.601  24.429  25.637  1.00  0.00     0.123 A 
ATOM     24  F   UNL A   1      32.404  25.025  25.571  1.00  0.00    -0.207 F 
ENDBRANCH  15  18
BRANCH  17  25
ATOM     25  C   UNL A   1      36.476  20.196  25.193  1.00  0.00    -0.001 A 
ATOM     26  C   UNL A   1      36.776  18.837  24.997  1.00  0.00     0.011 A 
ATOM     27  C   UNL A   1      35.165  20.641  24.979  1.00  0.00     0.011 A 
ATOM     28  C   UNL A   1      35.800  17.950  24.536  1.00  0.00     0.021 A 
ATOM     29  C   UNL A   1      34.183  19.759  24.520  1.00  0.00     0.021 A 
ATOM     30  C   UNL A   1      34.511  18.424  24.280  1.00  0.00     0.067 A 
BRANCH  30  31
ATOM     31  S   UNL A   1      33.276  17.295  23.680  1.00  0.00     0.175 S 
ATOM     32  C   UNL A   1      32.288  18.275  22.581  1.00  0.00     0.163 C 
ATOM     33  O   UNL A   1      33.949  16.280  22.920  1.00  0.00    -0.224 OA
ATOM     34  O   UNL A   1      32.421  16.945  24.816  1.00  0.00    -0.224 OA
ENDBRANCH  30  31
ENDBRANCH  17  25
ENDBRANCH  11  12
ENDBRANCH   8  11
ENDBRANCH   6   7
BRANCH   6  35
ATOM     35  C   UNL A   1      44.345  22.188  23.601  1.00  0.00     0.191 C 
BRANCH  35  36
ATOM     36  O   UNL A   1      44.816  20.900  23.190  1.00  0.00    -0.394 OA
ATOM     37  H   UNL A   1      45.447  20.562  23.845  1.00  0.00     0.210 HD
ENDBRANCH  35  36
ENDBRANCH   6  35
ENDBRANCH   3   6
ENDBRANCH   1   2
BRANCH   1  38
ATOM     38  C   UNL A   1      44.186  24.075  29.324  1.00  0.00     0.042 C 
BRANCH  38  39
ATOM     39  C   UNL A   1      43.415  23.877  30.648  1.00  0.00     0.118 C 
BRANCH  39  40
ATOM     40  N   UNL A   1      44.181  23.251  31.703  1.00  0.00    -0.352 N 
ATOM     41  C   UNL A   1      44.595  23.782  32.916  1.00  0.00     0.251 C 
ATOM     42  H   UNL A   1      44.446  22.317  31.537  1.00  0.00     0.163 HD
ATOM     43  O   UNL A   1      45.286  23.054  33.628  1.00  0.00    -0.269 OA
BRANCH  41  44
ATOM     44  C   UNL A   1      44.359  25.224  33.312  1.00  0.00     0.039 A 
ATOM     45  C   UNL A   1      43.388  25.465  34.270  1.00  0.00     0.014 A 
ATOM     46  C   UNL A   1      44.852  26.362  32.645  1.00  0.00     0.014 A 
ATOM     47  C   UNL A   1      42.984  26.797  34.590  1.00  0.00     0.010 A 
ATOM     48  C   UNL A   1      44.359  27.723  32.914  1.00  0.00     0.010 A 
ATOM     49  C   UNL A   1      43.388  28.001  33.898  1.00  0.00    -0.014 A 
BRANCH  49  50
ATOM     50  C   UNL A   1      42.334  29.262  33.985  1.00  0.00     0.031 A 
ATOM     51  C   UNL A   1      41.394  28.928  32.870  1.00  0.00     0.074 A 
ATOM     52  C   UNL A   1      42.052  30.491  34.604  1.00  0.00     0.049 A 
ATOM     53  N   UNL A   1      41.860  28.737  31.666  1.00  0.00    -0.248 NA
ATOM     54  C   UNL A   1      40.065  28.354  33.106  1.00  0.00     0.031 C 
ATOM     55  C   UNL A   1      42.872  31.239  35.574  1.00  0.00     0.029 A 
ATOM     56  N   UNL A   1      40.930  31.400  34.519  1.00  0.00    -0.354 N 
ATOM     57  C   UNL A   1      40.802  28.312  30.906  1.00  0.00     0.074 A 
ATOM     58  C   UNL A   1      39.823  27.856  31.887  1.00  0.00     0.031 C 
ATOM     59  C   UNL A   1      42.219  32.332  36.079  1.00  0.00     0.029 A 
ATOM     60  C   UNL A   1      40.896  32.506  35.471  1.00  0.00     0.049 A 
ATOM     61  H   UNL A   1      40.221  31.279  33.847  1.00  0.00     0.167 HD
ATOM     62  C   UNL A   1      40.574  29.029  29.769  1.00  0.00     0.037 A 
ATOM     63  C   UNL A   1      39.947  33.520  35.700  1.00  0.00     0.037 A 
ATOM     64  C   UNL A   1      39.511  29.983  29.946  1.00  0.00     0.049 A 
ATOM     65  C   UNL A   1      39.215  33.663  34.437  1.00  0.00     0.074 A 
ATOM     66  C   UNL A   1      38.272  29.905  30.552  1.00  0.00     0.029 A 
ATOM     67  N   UNL A   1      39.862  31.318  29.924  1.00  0.00    -0.354 N 
ATOM     68  N   UNL A   1      39.729  34.270  33.412  1.00  0.00    -0.248 NA
ATOM     69  C   UNL A   1      37.831  33.223  34.286  1.00  0.00     0.031 C 
ATOM     70  C   UNL A   1      38.208  31.065  31.353  1.00  0.00     0.029 A 
ATOM     71  C   UNL A   1      39.153  31.978  30.901  1.00  0.00     0.049 A 
ATOM     72  H   UNL A   1      40.513  31.729  29.310  1.00  0.00     0.167 HD
ATOM     73  C   UNL A   1      38.961  33.829  32.383  1.00  0.00     0.074 A 
ATOM     74  C   UNL A   1      37.694  33.445  32.979  1.00  0.00     0.031 C 
ATOM     75  C   UNL A   1      39.626  33.261  31.350  1.00  0.00     0.037 A 
BRANCH  62  76
ATOM     76  C   UNL A   1      41.793  29.297  28.931  1.00  0.00     0.058 A 
ATOM     77  C   UNL A   1      41.985  28.552  27.764  1.00  0.00     0.135 A 
ATOM     78  C   UNL A   1      42.800  30.225  29.282  1.00  0.00     0.135 A 
ATOM     79  F   UNL A   1      41.043  27.687  27.354  1.00  0.00    -0.206 F 
ATOM     80  C   UNL A   1      43.141  28.687  27.000  1.00  0.00     0.059 A 
ATOM     81  C   UNL A   1      43.984  30.337  28.564  1.00  0.00     0.059 A 
ATOM     82  F   UNL A   1      42.627  31.063  30.317  1.00  0.00    -0.206 F 
ATOM     83  C   UNL A   1      44.144  29.565  27.419  1.00  0.00     0.060 A 
BRANCH  83  84
ATOM     84  S   UNL A   1      45.659  29.672  26.445  1.00  0.00     0.124 S 
ATOM     85  O   UNL A   1      45.608  31.043  25.940  1.00  0.00    -0.237 OA
ATOM     86  O   UNL A   1      46.678  29.419  27.457  1.00  0.00    -0.237 OA
ATOM     87  O   UNL A   1      45.491  28.639  25.428  1.00  0.00    -0.744 OA
ENDBRANCH  83  84
ENDBRANCH  62  76
BRANCH  63  88
ATOM     88  C   UNL A   1      39.448  34.673  36.665  1.00  0.00     0.058 A 
ATOM     89  C   UNL A   1      38.668  34.382  37.848  1.00  0.00     0.135 A 
ATOM     90  C   UNL A   1      40.051  35.941  36.730  1.00  0.00     0.135 A 
ATOM     91  F   UNL A   1      37.980  33.236  37.959  1.00  0.00    -0.206 F 
ATOM     92  C   UNL A   1      38.609  35.188  39.008  1.00  0.00     0.059 A 
ATOM     93  C   UNL A   1      39.978  36.788  37.882  1.00  0.00     0.059 A 
ATOM     94  F   UNL A   1      40.817  36.362  35.714  1.00  0.00    -0.206 F 
ATOM     95  C   UNL A   1      39.299  36.385  39.035  1.00  0.00     0.060 A 
BRANCH  95  96
ATOM     96  S   UNL A   1      39.403  37.306  40.610  1.00  0.00     0.124 S 
ATOM     97  O   UNL A   1      40.833  37.566  40.741  1.00  0.00    -0.237 OA
ATOM     98  O   UNL A   1      38.573  38.480  40.345  1.00  0.00    -0.237 OA
ATOM     99  O   UNL A   1      38.846  36.373  41.586  1.00  0.00    -0.744 OA
ENDBRANCH  95  96
ENDBRANCH  63  88
BRANCH  75 100
ATOM    100  C   UNL A   1      40.894  33.955  30.887  1.00  0.00     0.058 A 
ATOM    101  C   UNL A   1      42.149  33.954  31.541  1.00  0.00     0.135 A 
ATOM    102  C   UNL A   1      40.798  34.757  29.740  1.00  0.00     0.135 A 
ATOM    103  F   UNL A   1      42.402  33.147  32.582  1.00  0.00    -0.206 F 
ATOM    104  C   UNL A   1      43.199  34.783  31.137  1.00  0.00     0.059 A 
ATOM    105  C   UNL A   1      41.850  35.553  29.289  1.00  0.00     0.059 A 
ATOM    106  F   UNL A   1      39.653  34.778  29.038  1.00  0.00    -0.206 F 
ATOM    107  C   UNL A   1      43.033  35.595  30.020  1.00  0.00     0.060 A 
BRANCH 107 108
ATOM    108  S   UNL A   1      44.371  36.704  29.527  1.00  0.00     0.124 S 
ATOM    109  O   UNL A   1      45.524  35.807  29.534  1.00  0.00    -0.237 OA
ATOM    110  O   UNL A   1      43.942  37.163  28.209  1.00  0.00    -0.237 OA
ATOM    111  O   UNL A   1      44.374  37.719  30.576  1.00  0.00    -0.744 OA
ENDBRANCH 107 108
ENDBRANCH  75 100
ENDBRANCH  49  50
ENDBRANCH  41  44
ENDBRANCH  39  40
ENDBRANCH  38  39
ENDBRANCH   1  38
TORSDOF 21
ENDMDL
MODEL 2
REMARK VINA RESULT:     -10.9      3.545      5.614
REMARK SMILES Cc1c(CC(=O)N[C@H](CO)C(=O)NCCCNC(=O)c2ccc(-c3c4nc(c(-c5c(F)cc(S(=O)(=O)[O-])cc5F)c5ccc([nH]5)c(-c5c(F)cc(S(=O)(=O)[O-])cc5F)c5nc(c(-c6c(F)cc(S(=O)(=O)[O-])cc6F)c6ccc3[nH]6)C=C5)C=C4)cc2)cc(-c2ccc(S(C)(=O)=O)cc2)n1-c1ccc(F)cc1
REMARK SMILES IDX 14 1 13 2 11 3 12 4 8 6 7 7 5 8 6 9 4 11 3 12 1 13 2 14
REMARK SMILES IDX 98 15 86 16 87 17 99 18 100 19 105 20 101 21 104 22 102 23
REMARK SMILES IDX 103 24 88 25 89 26 97 27 90 28 96 29 91 30 92 31 93 32 94 33
REMARK SMILES IDX 95 34 9 35 10 36 15 38 16 39 17 40 18 41 19 43 20 44 21 45
REMARK SMILES IDX 85 46 22 47 84 48 23 49 24 50 25 51 78 52 26 53 83 54 77 55
REMARK SMILES IDX 79 56 27 57 82 58 76 59 75 60 28 62 62 63 41 64 61 65 42 66
REMARK SMILES IDX 45 67 60 68 80 69 43 70 44 71 59 73 81 74 46 75 29 76 30 77
REMARK SMILES IDX 39 78 31 79 32 80 38 81 40 82 33 83 34 84 35 85 36 86 37 87
REMARK SMILES IDX 63 88 64 89 73 90 65 91 66 92 72 93 74 94 67 95 68 96 69 97
REMARK SMILES IDX 70 98 71 99 47 100 48 101 57 102 49 103 50 104 56 105 58 106
REMARK SMILES IDX 51 107 52 108 53 109 54 110 55 111
REMARK H PARENT 13 5 7 10 10 37 17 42 79 61 45 72
REMARK Flexibility Score: inf
ROOT
ATOM      1  C   UNL A   1      46.822  29.210  34.550  1.00  0.00     0.117 C 
ENDROOT
BRANCH   1   2
ATOM      2  N   UNL A   1      47.653  29.811  33.522  1.00  0.00    -0.354 N 
ATOM      3  C   UNL A   1      47.509  30.009  32.184  1.00  0.00     0.244 C 
ATOM      4  O   UNL A   1      48.469  30.528  31.602  1.00  0.00    -0.273 OA
ATOM      5  H   UNL A   1      48.510  30.148  33.869  1.00  0.00     0.163 HD
BRANCH   3   6
ATOM      6  C   UNL A   1      46.221  29.682  31.406  1.00  0.00     0.197 C 
BRANCH   6   7
ATOM      7  N   UNL A   1      46.515  29.285  30.023  1.00  0.00    -0.342 N 
ATOM      8  C   UNL A   1      46.483  28.042  29.457  1.00  0.00     0.225 C 
ATOM      9  O   UNL A   1      46.775  27.955  28.261  1.00  0.00    -0.275 OA
ATOM     10  H   UNL A   1      46.771  30.018  29.418  1.00  0.00     0.164 HD
BRANCH   8  11
ATOM     11  C   UNL A   1      46.039  26.813  30.246  1.00  0.00     0.137 C 
BRANCH  11  12
ATOM     12  C   UNL A   1      45.180  25.875  29.455  1.00  0.00    -0.017 A 
ATOM     13  C   UNL A   1      42.859  26.975  29.761  1.00  0.00     0.065 C 
ATOM     14  C   UNL A   1      43.821  25.980  29.197  1.00  0.00     0.024 A 
ATOM     15  N   UNL A   1      43.461  24.951  28.331  1.00  0.00    -0.314 N 
ATOM     16  C   UNL A   1      45.628  24.689  28.816  1.00  0.00     0.033 A 
ATOM     17  C   UNL A   1      44.583  24.160  28.082  1.00  0.00     0.053 A 
BRANCH  15  18
ATOM     18  C   UNL A   1      42.161  24.729  27.802  1.00  0.00     0.046 A 
ATOM     19  C   UNL A   1      41.268  23.895  28.490  1.00  0.00     0.029 A 
ATOM     20  C   UNL A   1      41.799  25.306  26.578  1.00  0.00     0.029 A 
ATOM     21  C   UNL A   1      40.006  23.647  27.954  1.00  0.00     0.041 A 
ATOM     22  C   UNL A   1      40.540  25.039  26.041  1.00  0.00     0.041 A 
ATOM     23  C   UNL A   1      39.656  24.216  26.733  1.00  0.00     0.123 A 
ATOM     24  F   UNL A   1      38.447  23.965  26.217  1.00  0.00    -0.207 F 
ENDBRANCH  15  18
BRANCH  17  25
ATOM     25  C   UNL A   1      44.646  23.059  27.112  1.00  0.00    -0.001 A 
ATOM     26  C   UNL A   1      43.571  22.167  26.961  1.00  0.00     0.011 A 
ATOM     27  C   UNL A   1      45.782  22.897  26.308  1.00  0.00     0.011 A 
ATOM     28  C   UNL A   1      43.652  21.096  26.068  1.00  0.00     0.021 A 
ATOM     29  C   UNL A   1      45.869  21.831  25.409  1.00  0.00     0.021 A 
ATOM     30  C   UNL A   1      44.813  20.923  25.310  1.00  0.00     0.067 A 
BRANCH  30  31
ATOM     31  S   UNL A   1      44.918  19.551  24.185  1.00  0.00     0.175 S 
ATOM     32  C   UNL A   1      43.701  18.406  24.781  1.00  0.00     0.163 C 
ATOM     33  O   UNL A   1      44.517  20.021  22.889  1.00  0.00    -0.224 OA
ATOM     34  O   UNL A   1      46.224  18.922  24.390  1.00  0.00    -0.224 OA
ENDBRANCH  30  31
ENDBRANCH  17  25
ENDBRANCH  11  12
ENDBRANCH   8  11
ENDBRANCH   6   7
BRANCH   6  35
ATOM     35  C   UNL A   1      45.155  30.772  31.486  1.00  0.00     0.191 C 
BRANCH  35  36
ATOM     36  O   UNL A   1      45.423  31.669  32.568  1.00  0.00    -0.394 OA
ATOM     37  H   UNL A   1      45.527  31.163  33.390  1.00  0.00     0.210 HD
ENDBRANCH  35  36
ENDBRANCH   6  35
ENDBRANCH   3   6
ENDBRANCH   1   2
BRANCH   1  38
ATOM     38  C   UNL A   1      47.180  27.746  34.861  1.00  0.00     0.042 C 
BRANCH  38  39
ATOM     39  C   UNL A   1      46.929  26.702  33.751  1.00  0.00     0.118 C 
BRANCH  39  40
ATOM     40  N   UNL A   1      46.486  25.410  34.227  1.00  0.00    -0.352 N 
ATOM     41  C   UNL A   1      45.193  24.924  34.360  1.00  0.00     0.251 C 
ATOM     42  H   UNL A   1      47.202  24.789  34.495  1.00  0.00     0.163 HD
ATOM     43  O   UNL A   1      45.076  23.798  34.841  1.00  0.00    -0.269 OA
BRANCH  41  44
ATOM     44  C   UNL A   1      43.961  25.759  34.081  1.00  0.00     0.039 A 
ATOM     45  C   UNL A   1      44.143  26.932  33.368  1.00  0.00     0.014 A 
ATOM     46  C   UNL A   1      42.692  25.593  34.668  1.00  0.00     0.014 A 
ATOM     47  C   UNL A   1      43.072  27.862  33.195  1.00  0.00     0.010 A 
ATOM     48  C   UNL A   1      41.625  26.602  34.565  1.00  0.00     0.010 A 
ATOM     49  C   UNL A   1      41.773  27.795  33.828  1.00  0.00    -0.014 A 
BRANCH  49  50
ATOM     50  C   UNL A   1      40.999  29.234  34.022  1.00  0.00     0.031 A 
ATOM     51  C   UNL A   1      39.846  29.069  33.084  1.00  0.00     0.074 A 
ATOM     52  C   UNL A   1      41.052  30.503  34.623  1.00  0.00     0.049 A 
ATOM     53  N   UNL A   1      40.068  28.776  31.831  1.00  0.00    -0.248 NA
ATOM     54  C   UNL A   1      38.489  28.761  33.549  1.00  0.00     0.031 C 
ATOM     55  C   UNL A   1      42.143  31.095  35.419  1.00  0.00     0.029 A 
ATOM     56  N   UNL A   1      40.120  31.607  34.673  1.00  0.00    -0.354 N 
ATOM     57  C   UNL A   1      38.841  28.548  31.265  1.00  0.00     0.074 A 
ATOM     58  C   UNL A   1      37.965  28.301  32.406  1.00  0.00     0.031 C 
ATOM     59  C   UNL A   1      41.793  32.299  35.971  1.00  0.00     0.029 A 
ATOM     60  C   UNL A   1      40.445  32.712  35.569  1.00  0.00     0.049 A 
ATOM     61  H   UNL A   1      39.302  31.613  34.126  1.00  0.00     0.167 HD
ATOM     62  C   UNL A   1      38.569  29.280  30.147  1.00  0.00     0.037 A 
ATOM     63  C   UNL A   1      39.749  33.891  35.899  1.00  0.00     0.037 A 
ATOM     64  C   UNL A   1      37.743  30.421  30.445  1.00  0.00     0.049 A 
ATOM     65  C   UNL A   1      38.863  34.153  34.760  1.00  0.00     0.074 A 
ATOM     66  C   UNL A   1      36.625  30.588  31.240  1.00  0.00     0.029 A 
ATOM     67  N   UNL A   1      38.326  31.664  30.310  1.00  0.00    -0.354 N 
ATOM     68  N   UNL A   1      39.307  34.637  33.642  1.00  0.00    -0.248 NA
ATOM     69  C   UNL A   1      37.416  33.982  34.846  1.00  0.00     0.031 C 
ATOM     70  C   UNL A   1      36.907  31.751  31.989  1.00  0.00     0.029 A 
ATOM     71  C   UNL A   1      37.919  32.460  31.355  1.00  0.00     0.049 A 
ATOM     72  H   UNL A   1      38.934  31.936  29.584  1.00  0.00     0.167 HD
ATOM     73  C   UNL A   1      38.315  34.335  32.765  1.00  0.00     0.074 A 
ATOM     74  C   UNL A   1      37.112  34.208  33.568  1.00  0.00     0.031 C 
ATOM     75  C   UNL A   1      38.688  33.637  31.667  1.00  0.00     0.037 A 
BRANCH  62  76
ATOM     76  C   UNL A   1      39.664  29.299  29.118  1.00  0.00     0.058 A 
ATOM     77  C   UNL A   1      39.549  28.476  27.995  1.00  0.00     0.135 A 
ATOM     78  C   UNL A   1      40.846  30.064  29.243  1.00  0.00     0.135 A 
ATOM     79  F   UNL A   1      38.430  27.759  27.798  1.00  0.00    -0.206 F 
ATOM     80  C   UNL A   1      40.574  28.379  27.058  1.00  0.00     0.059 A 
ATOM     81  C   UNL A   1      41.903  29.943  28.350  1.00  0.00     0.059 A 
ATOM     82  F   UNL A   1      40.974  30.971  30.227  1.00  0.00    -0.206 F 
ATOM     83  C   UNL A   1      41.755  29.098  27.256  1.00  0.00     0.060 A 
BRANCH  83  84
ATOM     84  S   UNL A   1      43.093  28.904  26.060  1.00  0.00     0.124 S 
ATOM     85  O   UNL A   1      43.780  27.711  26.551  1.00  0.00    -0.237 OA
ATOM     86  O   UNL A   1      42.351  28.727  24.815  1.00  0.00    -0.237 OA
ATOM     87  O   UNL A   1      43.853  30.142  26.185  1.00  0.00    -0.744 OA
ENDBRANCH  83  84
ENDBRANCH  62  76
BRANCH  63  88
ATOM     88  C   UNL A   1      39.635  35.132  36.877  1.00  0.00     0.058 A 
ATOM     89  C   UNL A   1      38.904  35.045  38.123  1.00  0.00     0.135 A 
ATOM     90  C   UNL A   1      40.541  36.207  36.872  1.00  0.00     0.135 A 
ATOM     91  F   UNL A   1      37.961  34.109  38.308  1.00  0.00    -0.206 F 
ATOM     92  C   UNL A   1      39.142  35.838  39.268  1.00  0.00     0.059 A 
ATOM     93  C   UNL A   1      40.775  37.043  38.010  1.00  0.00     0.059 A 
ATOM     94  F   UNL A   1      41.304  36.423  35.792  1.00  0.00    -0.206 F 
ATOM     95  C   UNL A   1      40.111  36.822  39.219  1.00  0.00     0.060 A 
BRANCH  95  96
ATOM     96  S   UNL A   1      40.568  37.686  40.764  1.00  0.00     0.124 S 
ATOM     97  O   UNL A   1      40.684  39.076  40.337  1.00  0.00    -0.237 OA
ATOM     98  O   UNL A   1      39.436  37.389  41.639  1.00  0.00    -0.237 OA
ATOM     99  O   UNL A   1      41.822  37.045  41.151  1.00  0.00    -0.744 OA
ENDBRANCH  95  96
ENDBRANCH  63  88
BRANCH  75 100
ATOM    100  C   UNL A   1      39.971  34.071  30.982  1.00  0.00     0.058 A 
ATOM    101  C   UNL A   1      41.291  33.895  31.461  1.00  0.00     0.135 A 
ATOM    102  C   UNL A   1      39.841  34.803  29.792  1.00  0.00     0.135 A 
ATOM    103  F   UNL A   1      41.558  33.124  32.526  1.00  0.00    -0.206 F 
ATOM    104  C   UNL A   1      42.391  34.503  30.852  1.00  0.00     0.059 A 
ATOM    105  C   UNL A   1      40.930  35.375  29.138  1.00  0.00     0.059 A 
ATOM    106  F   UNL A   1      38.625  34.977  29.249  1.00  0.00    -0.206 F 
ATOM    107  C   UNL A   1      42.198  35.259  29.700  1.00  0.00     0.060 A 
BRANCH 107 108
ATOM    108  S   UNL A   1      43.612  36.087  28.940  1.00  0.00     0.124 S 
ATOM    109  O   UNL A   1      43.126  37.459  28.816  1.00  0.00    -0.237 OA
ATOM    110  O   UNL A   1      44.672  35.884  29.922  1.00  0.00    -0.237 OA
ATOM    111  O   UNL A   1      43.781  35.378  27.676  1.00  0.00    -0.744 OA
ENDBRANCH 107 108
ENDBRANCH  75 100
ENDBRANCH  49  50
ENDBRANCH  41  44
ENDBRANCH  39  40
ENDBRANCH  38  39
ENDBRANCH   1  38
TORSDOF 21
ENDMDL
MODEL 3
REMARK VINA RESULT:     -10.8      6.962     16.350
REMARK SMILES Cc1c(CC(=O)N[C@H](CO)C(=O)NCCCNC(=O)c2ccc(-c3c4nc(c(-c5c(F)cc(S(=O)(=O)[O-])cc5F)c5ccc([nH]5)c(-c5c(F)cc(S(=O)(=O)[O-])cc5F)c5nc(c(-c6c(F)cc(S(=O)(=O)[O-])cc6F)c6ccc3[nH]6)C=C5)C=C4)cc2)cc(-c2ccc(S(C)(=O)=O)cc2)n1-c1ccc(F)cc1
REMARK SMILES IDX 14 1 13 2 11 3 12 4 8 6 7 7 5 8 6 9 4 11 3 12 1 13 2 14
REMARK SMILES IDX 98 15 86 16 87 17 99 18 100 19 105 20 101 21 104 22 102 23
REMARK SMILES IDX 103 24 88 25 89 26 97 27 90 28 96 29 91 30 92 31 93 32 94 33
REMARK SMILES IDX 95 34 9 35 10 36 15 38 16 39 17 40 18 41 19 43 20 44 21 45
REMARK SMILES IDX 85 46 22 47 84 48 23 49 24 50 25 51 78 52 26 53 83 54 77 55
REMARK SMILES IDX 79 56 27 57 82 58 76 59 75 60 28 62 62 63 41 64 61 65 42 66
REMARK SMILES IDX 45 67 60 68 80 69 43 70 44 71 59 73 81 74 46 75 29 76 30 77
REMARK SMILES IDX 39 78 31 79 32 80 38 81 40 82 33 83 34 84 35 85 36 86 37 87
REMARK SMILES IDX 63 88 64 89 73 90 65 91 66 92 72 93 74 94 67 95 68 96 69 97
REMARK SMILES IDX 70 98 71 99 47 100 48 101 57 102 49 103 50 104 56 105 58 106
REMARK SMILES IDX 51 107 52 108 53 109 54 110 55 111
REMARK H PARENT 13 5 7 10 10 37 17 42 79 61 45 72
REMARK Flexibility Score: inf
ROOT
ATOM      1  C   UNL A   1      47.507  36.525  28.540  1.00  0.00     0.117 C 
ENDROOT
BRANCH   1   2
ATOM      2  N   UNL A   1      48.005  37.869  28.309  1.00  0.00    -0.354 N 
ATOM      3  C   UNL A   1      47.854  38.775  27.306  1.00  0.00     0.244 C 
ATOM      4  O   UNL A   1      48.480  39.835  27.429  1.00  0.00    -0.273 OA
ATOM      5  H   UNL A   1      48.578  38.197  29.039  1.00  0.00     0.163 HD
BRANCH   3   6
ATOM      6  C   UNL A   1      46.920  38.566  26.100  1.00  0.00     0.197 C 
BRANCH   6   7
ATOM      7  N   UNL A   1      45.513  38.510  26.515  1.00  0.00    -0.342 N 
ATOM      8  C   UNL A   1      44.740  39.484  27.081  1.00  0.00     0.225 C 
ATOM      9  O   UNL A   1      43.569  39.197  27.348  1.00  0.00    -0.275 OA
ATOM     10  H   UNL A   1      45.061  37.648  26.364  1.00  0.00     0.164 HD
BRANCH   8  11
ATOM     11  C   UNL A   1      45.274  40.894  27.316  1.00  0.00     0.137 C 
BRANCH  11  12
ATOM     12  C   UNL A   1      45.328  41.725  26.072  1.00  0.00    -0.017 A 
ATOM     13  C   UNL A   1      47.734  42.662  26.223  1.00  0.00     0.065 C 
ATOM     14  C   UNL A   1      46.409  42.438  25.571  1.00  0.00     0.024 A 
ATOM     15  N   UNL A   1      46.046  42.971  24.338  1.00  0.00    -0.314 N 
ATOM     16  C   UNL A   1      44.251  41.927  25.168  1.00  0.00     0.033 A 
ATOM     17  C   UNL A   1      44.714  42.643  24.080  1.00  0.00     0.053 A 
BRANCH  15  18
ATOM     18  C   UNL A   1      46.884  43.742  23.488  1.00  0.00     0.046 A 
ATOM     19  C   UNL A   1      47.850  43.099  22.701  1.00  0.00     0.029 A 
ATOM     20  C   UNL A   1      46.770  45.139  23.478  1.00  0.00     0.029 A 
ATOM     21  C   UNL A   1      48.697  43.857  21.896  1.00  0.00     0.041 A 
ATOM     22  C   UNL A   1      47.633  45.890  22.681  1.00  0.00     0.041 A 
ATOM     23  C   UNL A   1      48.584  45.244  21.897  1.00  0.00     0.123 A 
ATOM     24  F   UNL A   1      49.409  45.969  21.129  1.00  0.00    -0.207 F 
ENDBRANCH  15  18
BRANCH  17  25
ATOM     25  C   UNL A   1      44.004  42.904  22.821  1.00  0.00    -0.001 A 
ATOM     26  C   UNL A   1      44.694  42.946  21.598  1.00  0.00     0.011 A 
ATOM     27  C   UNL A   1      42.616  43.097  22.825  1.00  0.00     0.011 A 
ATOM     28  C   UNL A   1      44.022  43.236  20.408  1.00  0.00     0.021 A 
ATOM     29  C   UNL A   1      41.936  43.384  21.639  1.00  0.00     0.021 A 
ATOM     30  C   UNL A   1      42.646  43.475  20.441  1.00  0.00     0.067 A 
BRANCH  30  31
ATOM     31  S   UNL A   1      41.797  43.858  18.927  1.00  0.00     0.175 S 
ATOM     32  C   UNL A   1      42.532  45.380  18.389  1.00  0.00     0.163 C 
ATOM     33  O   UNL A   1      42.116  42.828  17.978  1.00  0.00    -0.224 OA
ATOM     34  O   UNL A   1      40.407  44.160  19.275  1.00  0.00    -0.224 OA
ENDBRANCH  30  31
ENDBRANCH  17  25
ENDBRANCH  11  12
ENDBRANCH   8  11
ENDBRANCH   6   7
BRANCH   6  35
ATOM     35  C   UNL A   1      47.312  37.391  25.207  1.00  0.00     0.191 C 
BRANCH  35  36
ATOM     36  O   UNL A   1      48.589  37.617  24.600  1.00  0.00    -0.394 OA
ATOM     37  H   UNL A   1      48.962  38.449  24.932  1.00  0.00     0.210 HD
ENDBRANCH  35  36
ENDBRANCH   6  35
ENDBRANCH   3   6
ENDBRANCH   1   2
BRANCH   1  38
ATOM     38  C   UNL A   1      47.733  36.017  29.975  1.00  0.00     0.042 C 
BRANCH  38  39
ATOM     39  C   UNL A   1      46.481  35.657  30.807  1.00  0.00     0.118 C 
BRANCH  39  40
ATOM     40  N   UNL A   1      45.359  36.551  30.622  1.00  0.00    -0.352 N 
ATOM     41  C   UNL A   1      44.142  36.309  30.001  1.00  0.00     0.251 C 
ATOM     42  H   UNL A   1      45.475  37.457  30.989  1.00  0.00     0.163 HD
ATOM     43  O   UNL A   1      43.363  37.258  29.929  1.00  0.00    -0.269 OA
BRANCH  41  44
ATOM     44  C   UNL A   1      43.813  35.005  29.304  1.00  0.00     0.039 A 
ATOM     45  C   UNL A   1      43.228  34.011  30.068  1.00  0.00     0.014 A 
ATOM     46  C   UNL A   1      44.252  34.612  28.025  1.00  0.00     0.014 A 
ATOM     47  C   UNL A   1      43.028  32.698  29.542  1.00  0.00     0.010 A 
ATOM     48  C   UNL A   1      44.130  33.232  27.527  1.00  0.00     0.010 A 
ATOM     49  C   UNL A   1      43.518  32.203  28.273  1.00  0.00    -0.014 A 
BRANCH  49  50
ATOM     50  C   UNL A   1      43.757  30.578  28.185  1.00  0.00     0.031 A 
ATOM     51  C   UNL A   1      44.895  30.402  29.140  1.00  0.00     0.074 A 
ATOM     52  C   UNL A   1      43.386  29.390  27.534  1.00  0.00     0.049 A 
ATOM     53  N   UNL A   1      45.993  31.088  28.972  1.00  0.00    -0.248 NA
ATOM     54  C   UNL A   1      44.710  29.872  30.495  1.00  0.00     0.031 C 
ATOM     55  C   UNL A   1      42.472  29.218  26.390  1.00  0.00     0.029 A 
ATOM     56  N   UNL A   1      43.742  28.003  27.740  1.00  0.00    -0.354 N 
ATOM     57  C   UNL A   1      46.780  30.828  30.063  1.00  0.00     0.074 A 
ATOM     58  C   UNL A   1      45.848  30.303  31.054  1.00  0.00     0.031 C 
ATOM     59  C   UNL A   1      42.230  27.899  26.108  1.00  0.00     0.029 A 
ATOM     60  C   UNL A   1      42.997  27.005  26.980  1.00  0.00     0.049 A 
ATOM     61  H   UNL A   1      44.456  27.744  28.366  1.00  0.00     0.167 HD
ATOM     62  C   UNL A   1      48.039  30.385  29.782  1.00  0.00     0.037 A 
ATOM     63  C   UNL A   1      43.044  25.597  26.977  1.00  0.00     0.037 A 
ATOM     64  C   UNL A   1      48.139  28.954  29.906  1.00  0.00     0.049 A 
ATOM     65  C   UNL A   1      44.385  25.251  27.461  1.00  0.00     0.074 A 
ATOM     66  C   UNL A   1      47.666  28.058  30.845  1.00  0.00     0.029 A 
ATOM     67  N   UNL A   1      48.346  28.241  28.742  1.00  0.00    -0.354 N 
ATOM     68  N   UNL A   1      45.435  25.363  26.708  1.00  0.00    -0.248 NA
ATOM     69  C   UNL A   1      44.607  24.663  28.779  1.00  0.00     0.031 C 
ATOM     70  C   UNL A   1      47.081  27.030  30.074  1.00  0.00     0.029 A 
ATOM     71  C   UNL A   1      47.575  27.103  28.778  1.00  0.00     0.049 A 
ATOM     72  H   UNL A   1      48.947  28.506  28.008  1.00  0.00     0.167 HD
ATOM     73  C   UNL A   1      46.452  25.362  27.607  1.00  0.00     0.074 A 
ATOM     74  C   UNL A   1      45.941  24.668  28.775  1.00  0.00     0.031 C 
ATOM     75  C   UNL A   1      47.299  26.417  27.542  1.00  0.00     0.037 A 
BRANCH  62  76
ATOM     76  C   UNL A   1      48.774  31.177  28.738  1.00  0.00     0.058 A 
ATOM     77  C   UNL A   1      49.854  31.972  29.130  1.00  0.00     0.135 A 
ATOM     78  C   UNL A   1      48.402  31.216  27.374  1.00  0.00     0.135 A 
ATOM     79  F   UNL A   1      50.283  31.943  30.403  1.00  0.00    -0.206 F 
ATOM     80  C   UNL A   1      50.512  32.801  28.226  1.00  0.00     0.059 A 
ATOM     81  C   UNL A   1      49.009  32.075  26.467  1.00  0.00     0.059 A 
ATOM     82  F   UNL A   1      47.458  30.387  26.899  1.00  0.00    -0.206 F 
ATOM     83  C   UNL A   1      50.068  32.863  26.903  1.00  0.00     0.060 A 
BRANCH  83  84
ATOM     84  S   UNL A   1      50.897  33.994  25.767  1.00  0.00     0.124 S 
ATOM     85  O   UNL A   1      49.817  34.903  25.389  1.00  0.00    -0.237 OA
ATOM     86  O   UNL A   1      51.925  34.573  26.627  1.00  0.00    -0.237 OA
ATOM     87  O   UNL A   1      51.370  33.126  24.695  1.00  0.00    -0.744 OA
ENDBRANCH  83  84
ENDBRANCH  62  76
BRANCH  63  88
ATOM     88  C   UNL A   1      42.344  24.250  26.524  1.00  0.00     0.058 A 
ATOM     89  C   UNL A   1      42.896  23.434  25.464  1.00  0.00     0.135 A 
ATOM     90  C   UNL A   1      41.460  23.526  27.342  1.00  0.00     0.135 A 
ATOM     91  F   UNL A   1      43.730  23.954  24.553  1.00  0.00    -0.206 F 
ATOM     92  C   UNL A   1      42.702  22.041  25.320  1.00  0.00     0.059 A 
ATOM     93  C   UNL A   1      41.224  22.121  27.194  1.00  0.00     0.059 A 
ATOM     94  F   UNL A   1      40.868  24.135  28.378  1.00  0.00    -0.206 F 
ATOM     95  C   UNL A   1      41.885  21.376  26.215  1.00  0.00     0.060 A 
BRANCH  95  96
ATOM     96  S   UNL A   1      41.822  19.549  26.159  1.00  0.00     0.124 S 
ATOM     97  O   UNL A   1      42.247  19.169  27.502  1.00  0.00    -0.237 OA
ATOM     98  O   UNL A   1      40.417  19.292  25.849  1.00  0.00    -0.237 OA
ATOM     99  O   UNL A   1      42.755  19.210  25.088  1.00  0.00    -0.744 OA
ENDBRANCH  95  96
ENDBRANCH  63  88
BRANCH  75 100
ATOM    100  C   UNL A   1      47.732  26.865  26.158  1.00  0.00     0.058 A 
ATOM    101  C   UNL A   1      46.987  27.653  25.250  1.00  0.00     0.135 A 
ATOM    102  C   UNL A   1      48.960  26.376  25.687  1.00  0.00     0.135 A 
ATOM    103  F   UNL A   1      45.852  28.268  25.614  1.00  0.00    -0.206 F 
ATOM    104  C   UNL A   1      47.392  27.846  23.927  1.00  0.00     0.059 A 
ATOM    105  C   UNL A   1      49.409  26.600  24.387  1.00  0.00     0.059 A 
ATOM    106  F   UNL A   1      49.746  25.656  26.504  1.00  0.00    -0.206 F 
ATOM    107  C   UNL A   1      48.597  27.298  23.498  1.00  0.00     0.060 A 
BRANCH 107 108
ATOM    108  S   UNL A   1      49.098  27.504  21.774  1.00  0.00     0.124 S 
ATOM    109  O   UNL A   1      48.754  28.901  21.526  1.00  0.00    -0.237 OA
ATOM    110  O   UNL A   1      50.526  27.207  21.815  1.00  0.00    -0.237 OA
ATOM    111  O   UNL A   1      48.273  26.532  21.064  1.00  0.00    -0.744 OA
ENDBRANCH 107 108
ENDBRANCH  75 100
ENDBRANCH  49  50
ENDBRANCH  41  44
ENDBRANCH  39  40
ENDBRANCH  38  39
ENDBRANCH   1  38
TORSDOF 21
ENDMDL
