MODEL 1
REMARK VINA RESULT:     -12.1      0.000      0.000
REMARK SMILES C[C@@H](C(=O)NCCCNC(=O)c1ccc(-c2c3nc(c(-c4c(F)cc(S(=O)(=O)[O-])cc4F)c4ccc([nH]4)c(-c4c(F)cc(S(=O)(=O)[O-])cc4F)c4nc(c(-c5c(F)cc(S(=O)(=O)[O-])cc5F)c5ccc2[nH]5)C=C4)C=C3)cc1)c1ccccc1-c1ccn(C(F)F)c(=O)c1
REMARK SMILES IDX 7 1 6 2 5 3 3 4 4 5 2 7 1 8 78 9 79 10 83 11 80 12 82 13
REMARK SMILES IDX 81 14 84 15 85 16 93 17 86 18 91 19 87 20 92 21 88 22 89 23
REMARK SMILES IDX 90 24 8 25 9 26 10 27 11 29 12 30 13 31 77 32 14 33 76 34
REMARK SMILES IDX 15 35 16 36 17 37 70 38 18 39 75 40 69 41 71 42 19 43 74 44
REMARK SMILES IDX 68 45 67 46 20 48 54 49 33 50 53 51 34 52 37 53 52 54 72 55
REMARK SMILES IDX 35 56 36 57 51 59 73 60 38 61 21 62 22 63 31 64 23 65 24 66
REMARK SMILES IDX 30 67 32 68 25 69 26 70 27 71 28 72 29 73 55 74 56 75 65 76
REMARK SMILES IDX 57 77 58 78 64 79 66 80 59 81 60 82 61 83 62 84 63 85 39 86
REMARK SMILES IDX 40 87 49 88 41 89 42 90 48 91 50 92 43 93 44 94 45 95 46 96
REMARK SMILES IDX 47 97
REMARK H PARENT 5 6 9 28 71 47 37 58
REMARK Flexibility Score: inf
ROOT
ATOM      1  C   UNL A   1      33.883  28.301  26.034  1.00  0.00     0.042 C 
ENDROOT
BRANCH   1   2
ATOM      2  C   UNL A   1      33.169  29.154  24.984  1.00  0.00     0.117 C 
BRANCH   2   3
ATOM      3  N   UNL A   1      33.772  29.085  23.660  1.00  0.00    -0.356 N 
ATOM      4  C   UNL A   1      33.615  28.176  22.645  1.00  0.00     0.227 C 
ATOM      5  O   UNL A   1      34.327  28.337  21.652  1.00  0.00    -0.274 OA
ATOM      6  H   UNL A   1      34.399  29.816  23.459  1.00  0.00     0.163 HD
BRANCH   4   7
ATOM      7  C   UNL A   1      32.651  26.989  22.828  1.00  0.00     0.106 C 
ATOM      8  C   UNL A   1      32.968  26.067  21.639  1.00  0.00     0.023 C 
BRANCH   7   9
ATOM      9  C   UNL A   1      31.145  27.317  23.009  1.00  0.00    -0.028 A 
ATOM     10  C   UNL A   1      30.586  28.439  22.362  1.00  0.00     0.005 A 
ATOM     11  C   UNL A   1      30.274  26.573  23.858  1.00  0.00    -0.014 A 
ATOM     12  C   UNL A   1      29.224  28.748  22.448  1.00  0.00     0.000 A 
ATOM     13  C   UNL A   1      28.905  26.901  23.940  1.00  0.00     0.009 A 
ATOM     14  C   UNL A   1      28.379  27.969  23.223  1.00  0.00     0.001 A 
BRANCH  11  15
ATOM     15  C   UNL A   1      30.727  25.432  24.682  1.00  0.00    -0.011 A 
ATOM     16  C   UNL A   1      31.117  25.562  26.073  1.00  0.00     0.027 A 
ATOM     17  C   UNL A   1      30.879  24.248  24.063  1.00  0.00     0.080 A 
ATOM     18  C   UNL A   1      31.806  24.580  26.669  1.00  0.00     0.095 A 
ATOM     19  C   UNL A   1      31.606  23.134  24.727  1.00  0.00     0.255 A 
ATOM     20  N   UNL A   1      32.099  23.409  25.994  1.00  0.00    -0.258 N 
ATOM     21  O   UNL A   1      31.764  22.093  24.102  1.00  0.00    -0.269 OA
BRANCH  20  22
ATOM     22  C   UNL A   1      32.993  22.431  26.564  1.00  0.00     0.451 C 
ATOM     23  F   UNL A   1      34.231  22.532  26.031  1.00  0.00    -0.185 F 
ATOM     24  F   UNL A   1      33.085  22.611  27.904  1.00  0.00    -0.185 F 
ENDBRANCH  20  22
ENDBRANCH  11  15
ENDBRANCH   7   9
ENDBRANCH   4   7
ENDBRANCH   2   3
ENDBRANCH   1   2
BRANCH   1  25
ATOM     25  C   UNL A   1      33.498  28.603  27.480  1.00  0.00     0.118 C 
BRANCH  25  26
ATOM     26  N   UNL A   1      33.551  30.026  27.782  1.00  0.00    -0.352 N 
ATOM     27  C   UNL A   1      34.558  30.771  28.350  1.00  0.00     0.251 C 
ATOM     28  H   UNL A   1      32.742  30.533  27.544  1.00  0.00     0.163 HD
ATOM     29  O   UNL A   1      34.320  31.918  28.719  1.00  0.00    -0.269 OA
BRANCH  27  30
ATOM     30  C   UNL A   1      35.909  30.197  28.545  1.00  0.00     0.039 A 
ATOM     31  C   UNL A   1      36.795  30.171  27.464  1.00  0.00     0.014 A 
ATOM     32  C   UNL A   1      36.304  29.672  29.779  1.00  0.00     0.014 A 
ATOM     33  C   UNL A   1      38.101  29.707  27.643  1.00  0.00     0.010 A 
ATOM     34  C   UNL A   1      37.627  29.270  29.973  1.00  0.00     0.010 A 
ATOM     35  C   UNL A   1      38.545  29.302  28.912  1.00  0.00    -0.014 A 
BRANCH  35  36
ATOM     36  C   UNL A   1      39.975  28.971  29.165  1.00  0.00     0.031 A 
ATOM     37  C   UNL A   1      40.934  30.030  29.637  1.00  0.00     0.074 A 
ATOM     38  C   UNL A   1      40.423  27.732  28.874  1.00  0.00     0.049 A 
ATOM     39  N   UNL A   1      42.230  29.950  29.801  1.00  0.00    -0.248 NA
ATOM     40  C   UNL A   1      40.373  31.355  29.947  1.00  0.00     0.031 C 
ATOM     41  C   UNL A   1      39.598  26.631  28.367  1.00  0.00     0.029 A 
ATOM     42  N   UNL A   1      41.686  27.192  28.935  1.00  0.00    -0.354 N 
ATOM     43  C   UNL A   1      42.643  31.214  30.208  1.00  0.00     0.074 A 
ATOM     44  C   UNL A   1      41.463  32.050  30.246  1.00  0.00     0.031 C 
ATOM     45  C   UNL A   1      40.372  25.553  28.166  1.00  0.00     0.029 A 
ATOM     46  C   UNL A   1      41.756  25.895  28.477  1.00  0.00     0.049 A 
ATOM     47  H   UNL A   1      42.467  27.686  29.274  1.00  0.00     0.167 HD
ATOM     48  C   UNL A   1      43.890  31.631  30.529  1.00  0.00     0.037 A 
ATOM     49  C   UNL A   1      42.816  25.082  28.294  1.00  0.00     0.037 A 
ATOM     50  C   UNL A   1      45.054  30.781  30.522  1.00  0.00     0.049 A 
ATOM     51  C   UNL A   1      44.193  25.585  28.640  1.00  0.00     0.074 A 
ATOM     52  C   UNL A   1      46.340  31.088  30.933  1.00  0.00     0.029 A 
ATOM     53  N   UNL A   1      45.081  29.472  30.068  1.00  0.00    -0.354 N 
ATOM     54  N   UNL A   1      44.545  26.749  29.131  1.00  0.00    -0.248 NA
ATOM     55  C   UNL A   1      45.319  24.669  28.403  1.00  0.00     0.031 C 
ATOM     56  C   UNL A   1      47.158  29.988  30.665  1.00  0.00     0.029 A 
ATOM     57  C   UNL A   1      46.371  28.975  30.142  1.00  0.00     0.049 A 
ATOM     58  H   UNL A   1      44.300  28.970  29.742  1.00  0.00     0.167 HD
ATOM     59  C   UNL A   1      45.927  26.697  29.278  1.00  0.00     0.074 A 
ATOM     60  C   UNL A   1      46.346  25.380  28.848  1.00  0.00     0.031 C 
ATOM     61  C   UNL A   1      46.775  27.657  29.721  1.00  0.00     0.037 A 
BRANCH  48  62
ATOM     62  C   UNL A   1      44.090  33.070  30.916  1.00  0.00     0.058 A 
ATOM     63  C   UNL A   1      44.393  34.056  29.965  1.00  0.00     0.135 A 
ATOM     64  C   UNL A   1      43.855  33.485  32.238  1.00  0.00     0.135 A 
ATOM     65  F   UNL A   1      44.640  33.715  28.690  1.00  0.00    -0.206 F 
ATOM     66  C   UNL A   1      44.455  35.403  30.310  1.00  0.00     0.059 A 
ATOM     67  C   UNL A   1      43.886  34.829  32.600  1.00  0.00     0.059 A 
ATOM     68  F   UNL A   1      43.563  32.582  33.187  1.00  0.00    -0.206 F 
ATOM     69  C   UNL A   1      44.189  35.780  31.629  1.00  0.00     0.060 A 
BRANCH  69  70
ATOM     70  S   UNL A   1      44.211  37.538  32.042  1.00  0.00     0.124 S 
ATOM     71  O   UNL A   1      45.623  37.747  32.350  1.00  0.00    -0.237 OA
ATOM     72  O   UNL A   1      43.734  38.153  30.808  1.00  0.00    -0.237 OA
ATOM     73  O   UNL A   1      43.302  37.633  33.179  1.00  0.00    -0.744 OA
ENDBRANCH  69  70
ENDBRANCH  48  62
BRANCH  49  74
ATOM     74  C   UNL A   1      42.633  23.718  27.726  1.00  0.00     0.058 A 
ATOM     75  C   UNL A   1      42.537  22.592  28.557  1.00  0.00     0.135 A 
ATOM     76  C   UNL A   1      42.588  23.508  26.338  1.00  0.00     0.135 A 
ATOM     77  F   UNL A   1      42.581  22.736  29.891  1.00  0.00    -0.206 F 
ATOM     78  C   UNL A   1      42.441  21.305  28.035  1.00  0.00     0.059 A 
ATOM     79  C   UNL A   1      42.459  22.234  25.792  1.00  0.00     0.059 A 
ATOM     80  F   UNL A   1      42.658  24.551  25.497  1.00  0.00    -0.206 F 
ATOM     81  C   UNL A   1      42.407  21.136  26.650  1.00  0.00     0.060 A 
BRANCH  81  82
ATOM     82  S   UNL A   1      42.269  19.464  25.984  1.00  0.00     0.124 S 
ATOM     83  O   UNL A   1      42.693  18.659  27.123  1.00  0.00    -0.237 OA
ATOM     84  O   UNL A   1      40.853  19.387  25.637  1.00  0.00    -0.237 OA
ATOM     85  O   UNL A   1      43.183  19.481  24.845  1.00  0.00    -0.744 OA
ENDBRANCH  81  82
ENDBRANCH  49  74
BRANCH  61  86
ATOM     86  C   UNL A   1      48.240  27.323  29.783  1.00  0.00     0.058 A 
ATOM     87  C   UNL A   1      49.113  27.660  28.738  1.00  0.00     0.135 A 
ATOM     88  C   UNL A   1      48.790  26.735  30.934  1.00  0.00     0.135 A 
ATOM     89  F   UNL A   1      48.637  28.213  27.611  1.00  0.00    -0.206 F 
ATOM     90  C   UNL A   1      50.480  27.419  28.827  1.00  0.00     0.059 A 
ATOM     91  C   UNL A   1      50.158  26.513  31.057  1.00  0.00     0.059 A 
ATOM     92  F   UNL A   1      48.000  26.400  31.966  1.00  0.00    -0.206 F 
ATOM     93  C   UNL A   1      50.995  26.854  29.996  1.00  0.00     0.060 A 
BRANCH  93  94
ATOM     94  S   UNL A   1      52.778  26.610  30.123  1.00  0.00     0.124 S 
ATOM     95  O   UNL A   1      53.234  27.946  30.497  1.00  0.00    -0.237 OA
ATOM     96  O   UNL A   1      52.880  25.591  31.164  1.00  0.00    -0.237 OA
ATOM     97  O   UNL A   1      53.159  26.171  28.784  1.00  0.00    -0.744 OA
ENDBRANCH  93  94
ENDBRANCH  61  86
ENDBRANCH  35  36
ENDBRANCH  27  30
ENDBRANCH  25  26
ENDBRANCH   1  25
TORSDOF 16
ENDMDL
MODEL 2
REMARK VINA RESULT:     -11.9      3.409      4.573
REMARK SMILES C[C@@H](C(=O)NCCCNC(=O)c1ccc(-c2c3nc(c(-c4c(F)cc(S(=O)(=O)[O-])cc4F)c4ccc([nH]4)c(-c4c(F)cc(S(=O)(=O)[O-])cc4F)c4nc(c(-c5c(F)cc(S(=O)(=O)[O-])cc5F)c5ccc2[nH]5)C=C4)C=C3)cc1)c1ccccc1-c1ccn(C(F)F)c(=O)c1
REMARK SMILES IDX 7 1 6 2 5 3 3 4 4 5 2 7 1 8 78 9 79 10 83 11 80 12 82 13
REMARK SMILES IDX 81 14 84 15 85 16 93 17 86 18 91 19 87 20 92 21 88 22 89 23
REMARK SMILES IDX 90 24 8 25 9 26 10 27 11 29 12 30 13 31 77 32 14 33 76 34
REMARK SMILES IDX 15 35 16 36 17 37 70 38 18 39 75 40 69 41 71 42 19 43 74 44
REMARK SMILES IDX 68 45 67 46 20 48 54 49 33 50 53 51 34 52 37 53 52 54 72 55
REMARK SMILES IDX 35 56 36 57 51 59 73 60 38 61 21 62 22 63 31 64 23 65 24 66
REMARK SMILES IDX 30 67 32 68 25 69 26 70 27 71 28 72 29 73 55 74 56 75 65 76
REMARK SMILES IDX 57 77 58 78 64 79 66 80 59 81 60 82 61 83 62 84 63 85 39 86
REMARK SMILES IDX 40 87 49 88 41 89 42 90 48 91 50 92 43 93 44 94 45 95 46 96
REMARK SMILES IDX 47 97
REMARK H PARENT 5 6 9 28 71 47 37 58
REMARK Flexibility Score: inf
ROOT
ATOM      1  C   UNL A   1      33.297  27.834  26.918  1.00  0.00     0.042 C 
ENDROOT
BRANCH   1   2
ATOM      2  C   UNL A   1      31.779  27.958  27.069  1.00  0.00     0.117 C 
BRANCH   2   3
ATOM      3  N   UNL A   1      31.088  26.678  27.132  1.00  0.00    -0.356 N 
ATOM      4  C   UNL A   1      30.377  25.989  26.183  1.00  0.00     0.227 C 
ATOM      5  O   UNL A   1      29.831  24.949  26.556  1.00  0.00    -0.274 OA
ATOM      6  H   UNL A   1      31.140  26.229  28.007  1.00  0.00     0.163 HD
BRANCH   4   7
ATOM      7  C   UNL A   1      30.231  26.576  24.766  1.00  0.00     0.106 C 
ATOM      8  C   UNL A   1      29.093  25.754  24.140  1.00  0.00     0.023 C 
BRANCH   7   9
ATOM      9  C   UNL A   1      31.514  26.671  23.899  1.00  0.00    -0.028 A 
ATOM     10  C   UNL A   1      32.461  25.624  23.925  1.00  0.00     0.005 A 
ATOM     11  C   UNL A   1      31.842  27.805  23.100  1.00  0.00    -0.014 A 
ATOM     12  C   UNL A   1      33.606  25.635  23.122  1.00  0.00     0.000 A 
ATOM     13  C   UNL A   1      33.005  27.804  22.302  1.00  0.00     0.009 A 
ATOM     14  C   UNL A   1      33.871  26.717  22.297  1.00  0.00     0.001 A 
BRANCH  11  15
ATOM     15  C   UNL A   1      31.007  29.025  23.043  1.00  0.00    -0.011 A 
ATOM     16  C   UNL A   1      30.871  29.946  24.155  1.00  0.00     0.027 A 
ATOM     17  C   UNL A   1      30.265  29.210  21.938  1.00  0.00     0.080 A 
ATOM     18  C   UNL A   1      29.876  30.843  24.161  1.00  0.00     0.095 A 
ATOM     19  C   UNL A   1      29.183  30.230  21.915  1.00  0.00     0.255 A 
ATOM     20  N   UNL A   1      29.009  30.947  23.089  1.00  0.00    -0.258 N 
ATOM     21  O   UNL A   1      28.500  30.326  20.903  1.00  0.00    -0.269 OA
BRANCH  20  22
ATOM     22  C   UNL A   1      27.833  31.779  23.167  1.00  0.00     0.451 C 
ATOM     23  F   UNL A   1      27.132  31.527  24.297  1.00  0.00    -0.185 F 
ATOM     24  F   UNL A   1      28.187  33.087  23.163  1.00  0.00    -0.185 F 
ENDBRANCH  20  22
ENDBRANCH  11  15
ENDBRANCH   7   9
ENDBRANCH   4   7
ENDBRANCH   2   3
ENDBRANCH   1   2
BRANCH   1  25
ATOM     25  C   UNL A   1      33.933  28.836  25.957  1.00  0.00     0.118 C 
BRANCH  25  26
ATOM     26  N   UNL A   1      33.804  30.208  26.423  1.00  0.00    -0.352 N 
ATOM     27  C   UNL A   1      34.500  30.878  27.402  1.00  0.00     0.251 C 
ATOM     28  H   UNL A   1      33.113  30.740  25.967  1.00  0.00     0.163 HD
ATOM     29  O   UNL A   1      34.091  31.968  27.791  1.00  0.00    -0.269 OA
BRANCH  27  30
ATOM     30  C   UNL A   1      35.716  30.285  28.008  1.00  0.00     0.039 A 
ATOM     31  C   UNL A   1      36.922  30.351  27.304  1.00  0.00     0.014 A 
ATOM     32  C   UNL A   1      35.673  29.655  29.255  1.00  0.00     0.014 A 
ATOM     33  C   UNL A   1      38.097  29.870  27.888  1.00  0.00     0.010 A 
ATOM     34  C   UNL A   1      36.856  29.235  29.864  1.00  0.00     0.010 A 
ATOM     35  C   UNL A   1      38.084  29.356  29.195  1.00  0.00    -0.014 A 
BRANCH  35  36
ATOM     36  C   UNL A   1      39.346  29.002  29.902  1.00  0.00     0.031 A 
ATOM     37  C   UNL A   1      39.828  29.823  31.067  1.00  0.00     0.074 A 
ATOM     38  C   UNL A   1      40.104  27.991  29.426  1.00  0.00     0.049 A 
ATOM     39  N   UNL A   1      40.954  29.729  31.728  1.00  0.00    -0.248 NA
ATOM     40  C   UNL A   1      38.944  30.901  31.541  1.00  0.00     0.031 C 
ATOM     41  C   UNL A   1      39.764  27.149  28.275  1.00  0.00     0.029 A 
ATOM     42  N   UNL A   1      41.328  27.514  29.830  1.00  0.00    -0.354 N 
ATOM     43  C   UNL A   1      40.926  30.747  32.676  1.00  0.00     0.074 A 
ATOM     44  C   UNL A   1      39.681  31.460  32.492  1.00  0.00     0.031 C 
ATOM     45  C   UNL A   1      40.751  26.263  28.067  1.00  0.00     0.029 A 
ATOM     46  C   UNL A   1      41.818  26.503  29.033  1.00  0.00     0.049 A 
ATOM     47  H   UNL A   1      41.809  27.862  30.615  1.00  0.00     0.167 HD
ATOM     48  C   UNL A   1      41.852  31.047  33.618  1.00  0.00     0.037 A 
ATOM     49  C   UNL A   1      43.004  25.863  29.053  1.00  0.00     0.037 A 
ATOM     50  C   UNL A   1      43.072  30.308  33.816  1.00  0.00     0.049 A 
ATOM     51  C   UNL A   1      44.021  26.237  30.100  1.00  0.00     0.074 A 
ATOM     52  C   UNL A   1      44.020  30.473  34.812  1.00  0.00     0.029 A 
ATOM     53  N   UNL A   1      43.524  29.282  33.001  1.00  0.00    -0.354 N 
ATOM     54  N   UNL A   1      43.926  27.127  31.059  1.00  0.00    -0.248 NA
ATOM     55  C   UNL A   1      45.308  25.526  30.067  1.00  0.00     0.031 C 
ATOM     56  C   UNL A   1      45.076  29.594  34.560  1.00  0.00     0.029 A 
ATOM     57  C   UNL A   1      44.761  28.840  33.441  1.00  0.00     0.049 A 
ATOM     58  H   UNL A   1      43.040  28.922  32.224  1.00  0.00     0.167 HD
ATOM     59  C   UNL A   1      45.130  27.069  31.751  1.00  0.00     0.074 A 
ATOM     60  C   UNL A   1      45.929  26.041  31.119  1.00  0.00     0.031 C 
ATOM     61  C   UNL A   1      45.543  27.807  32.810  1.00  0.00     0.037 A 
BRANCH  48  62
ATOM     62  C   UNL A   1      41.605  32.226  34.518  1.00  0.00     0.058 A 
ATOM     63  C   UNL A   1      42.061  33.512  34.194  1.00  0.00     0.135 A 
ATOM     64  C   UNL A   1      40.797  32.085  35.659  1.00  0.00     0.135 A 
ATOM     65  F   UNL A   1      42.847  33.702  33.122  1.00  0.00    -0.206 F 
ATOM     66  C   UNL A   1      41.724  34.618  34.968  1.00  0.00     0.059 A 
ATOM     67  C   UNL A   1      40.427  33.181  36.434  1.00  0.00     0.059 A 
ATOM     68  F   UNL A   1      40.336  30.876  36.015  1.00  0.00    -0.206 F 
ATOM     69  C   UNL A   1      40.897  34.444  36.080  1.00  0.00     0.060 A 
BRANCH  69  70
ATOM     70  S   UNL A   1      40.419  35.901  37.034  1.00  0.00     0.124 S 
ATOM     71  O   UNL A   1      39.556  35.311  38.053  1.00  0.00    -0.237 OA
ATOM     72  O   UNL A   1      41.707  36.399  37.506  1.00  0.00    -0.237 OA
ATOM     73  O   UNL A   1      39.745  36.746  36.054  1.00  0.00    -0.744 OA
ENDBRANCH  69  70
ENDBRANCH  48  62
BRANCH  49  74
ATOM     74  C   UNL A   1      43.320  24.824  28.033  1.00  0.00     0.058 A 
ATOM     75  C   UNL A   1      42.959  23.483  28.227  1.00  0.00     0.135 A 
ATOM     76  C   UNL A   1      44.024  25.147  26.861  1.00  0.00     0.135 A 
ATOM     77  F   UNL A   1      42.290  23.121  29.333  1.00  0.00    -0.206 F 
ATOM     78  C   UNL A   1      43.314  22.492  27.316  1.00  0.00     0.059 A 
ATOM     79  C   UNL A   1      44.362  24.179  25.919  1.00  0.00     0.059 A 
ATOM     80  F   UNL A   1      44.379  26.417  26.617  1.00  0.00    -0.206 F 
ATOM     81  C   UNL A   1      44.020  22.850  26.167  1.00  0.00     0.060 A 
BRANCH  81  82
ATOM     82  S   UNL A   1      44.465  21.559  24.985  1.00  0.00     0.124 S 
ATOM     83  O   UNL A   1      45.843  21.276  25.368  1.00  0.00    -0.237 OA
ATOM     84  O   UNL A   1      43.490  20.517  25.288  1.00  0.00    -0.237 OA
ATOM     85  O   UNL A   1      44.288  22.213  23.692  1.00  0.00    -0.744 OA
ENDBRANCH  81  82
ENDBRANCH  49  74
BRANCH  61  86
ATOM     86  C   UNL A   1      46.909  27.526  33.372  1.00  0.00     0.058 A 
ATOM     87  C   UNL A   1      48.037  28.241  32.944  1.00  0.00     0.135 A 
ATOM     88  C   UNL A   1      47.078  26.589  34.405  1.00  0.00     0.135 A 
ATOM     89  F   UNL A   1      47.933  29.139  31.952  1.00  0.00    -0.206 F 
ATOM     90  C   UNL A   1      49.289  28.034  33.516  1.00  0.00     0.059 A 
ATOM     91  C   UNL A   1      48.313  26.387  35.011  1.00  0.00     0.059 A 
ATOM     92  F   UNL A   1      46.029  25.882  34.855  1.00  0.00    -0.206 F 
ATOM     93  C   UNL A   1      49.414  27.111  34.557  1.00  0.00     0.060 A 
BRANCH  93  94
ATOM     94  S   UNL A   1      51.030  26.902  35.334  1.00  0.00     0.124 S 
ATOM     95  O   UNL A   1      50.658  26.478  36.680  1.00  0.00    -0.237 OA
ATOM     96  O   UNL A   1      51.648  25.879  34.495  1.00  0.00    -0.237 OA
ATOM     97  O   UNL A   1      51.629  28.230  35.238  1.00  0.00    -0.744 OA
ENDBRANCH  93  94
ENDBRANCH  61  86
ENDBRANCH  35  36
ENDBRANCH  27  30
ENDBRANCH  25  26
ENDBRANCH   1  25
TORSDOF 16
ENDMDL
MODEL 3
REMARK VINA RESULT:     -11.9      2.189      3.468
REMARK SMILES C[C@@H](C(=O)NCCCNC(=O)c1ccc(-c2c3nc(c(-c4c(F)cc(S(=O)(=O)[O-])cc4F)c4ccc([nH]4)c(-c4c(F)cc(S(=O)(=O)[O-])cc4F)c4nc(c(-c5c(F)cc(S(=O)(=O)[O-])cc5F)c5ccc2[nH]5)C=C4)C=C3)cc1)c1ccccc1-c1ccn(C(F)F)c(=O)c1
REMARK SMILES IDX 7 1 6 2 5 3 3 4 4 5 2 7 1 8 78 9 79 10 83 11 80 12 82 13
REMARK SMILES IDX 81 14 84 15 85 16 93 17 86 18 91 19 87 20 92 21 88 22 89 23
REMARK SMILES IDX 90 24 8 25 9 26 10 27 11 29 12 30 13 31 77 32 14 33 76 34
REMARK SMILES IDX 15 35 16 36 17 37 70 38 18 39 75 40 69 41 71 42 19 43 74 44
REMARK SMILES IDX 68 45 67 46 20 48 54 49 33 50 53 51 34 52 37 53 52 54 72 55
REMARK SMILES IDX 35 56 36 57 51 59 73 60 38 61 21 62 22 63 31 64 23 65 24 66
REMARK SMILES IDX 30 67 32 68 25 69 26 70 27 71 28 72 29 73 55 74 56 75 65 76
REMARK SMILES IDX 57 77 58 78 64 79 66 80 59 81 60 82 61 83 62 84 63 85 39 86
REMARK SMILES IDX 40 87 49 88 41 89 42 90 48 91 50 92 43 93 44 94 45 95 46 96
REMARK SMILES IDX 47 97
REMARK H PARENT 5 6 9 28 71 47 37 58
REMARK Flexibility Score: inf
ROOT
ATOM      1  C   UNL A   1      33.217  27.881  27.040  1.00  0.00     0.042 C 
ENDROOT
BRANCH   1   2
ATOM      2  C   UNL A   1      31.696  27.944  27.194  1.00  0.00     0.117 C 
BRANCH   2   3
ATOM      3  N   UNL A   1      31.050  26.639  27.194  1.00  0.00    -0.356 N 
ATOM      4  C   UNL A   1      30.380  25.965  26.205  1.00  0.00     0.227 C 
ATOM      5  O   UNL A   1      29.866  24.892  26.526  1.00  0.00    -0.274 OA
ATOM      6  H   UNL A   1      31.104  26.157  28.051  1.00  0.00     0.163 HD
BRANCH   4   7
ATOM      7  C   UNL A   1      30.236  26.604  24.811  1.00  0.00     0.106 C 
ATOM      8  C   UNL A   1      29.058  25.847  24.177  1.00  0.00     0.023 C 
BRANCH   7   9
ATOM      9  C   UNL A   1      31.509  26.678  23.927  1.00  0.00    -0.028 A 
ATOM     10  C   UNL A   1      32.449  25.626  23.956  1.00  0.00     0.005 A 
ATOM     11  C   UNL A   1      31.834  27.799  23.108  1.00  0.00    -0.014 A 
ATOM     12  C   UNL A   1      33.584  25.617  23.139  1.00  0.00     0.000 A 
ATOM     13  C   UNL A   1      32.986  27.779  22.295  1.00  0.00     0.009 A 
ATOM     14  C   UNL A   1      33.845  26.686  22.295  1.00  0.00     0.001 A 
BRANCH  11  15
ATOM     15  C   UNL A   1      31.006  29.022  23.044  1.00  0.00    -0.011 A 
ATOM     16  C   UNL A   1      30.895  29.965  24.141  1.00  0.00     0.027 A 
ATOM     17  C   UNL A   1      30.245  29.194  21.949  1.00  0.00     0.080 A 
ATOM     18  C   UNL A   1      29.906  30.868  24.149  1.00  0.00     0.095 A 
ATOM     19  C   UNL A   1      29.169  30.220  21.927  1.00  0.00     0.255 A 
ATOM     20  N   UNL A   1      29.021  30.959  23.091  1.00  0.00    -0.258 N 
ATOM     21  O   UNL A   1      28.470  30.303  20.925  1.00  0.00    -0.269 OA
BRANCH  20  22
ATOM     22  C   UNL A   1      27.852  31.800  23.175  1.00  0.00     0.451 C 
ATOM     23  F   UNL A   1      27.085  31.464  24.238  1.00  0.00    -0.185 F 
ATOM     24  F   UNL A   1      28.220  33.098  23.303  1.00  0.00    -0.185 F 
ENDBRANCH  20  22
ENDBRANCH  11  15
ENDBRANCH   7   9
ENDBRANCH   4   7
ENDBRANCH   2   3
ENDBRANCH   1   2
BRANCH   1  25
ATOM     25  C   UNL A   1      33.836  29.053  26.282  1.00  0.00     0.118 C 
BRANCH  25  26
ATOM     26  N   UNL A   1      33.729  30.306  27.014  1.00  0.00    -0.352 N 
ATOM     27  C   UNL A   1      34.554  30.840  27.976  1.00  0.00     0.251 C 
ATOM     28  H   UNL A   1      32.944  30.856  26.787  1.00  0.00     0.163 HD
ATOM     29  O   UNL A   1      34.170  31.808  28.627  1.00  0.00    -0.269 OA
BRANCH  27  30
ATOM     30  C   UNL A   1      35.882  30.244  28.252  1.00  0.00     0.039 A 
ATOM     31  C   UNL A   1      36.845  30.242  27.238  1.00  0.00     0.014 A 
ATOM     32  C   UNL A   1      36.180  29.676  29.493  1.00  0.00     0.014 A 
ATOM     33  C   UNL A   1      38.130  29.757  27.498  1.00  0.00     0.010 A 
ATOM     34  C   UNL A   1      37.481  29.254  29.772  1.00  0.00     0.010 A 
ATOM     35  C   UNL A   1      38.475  29.307  28.782  1.00  0.00    -0.014 A 
BRANCH  35  36
ATOM     36  C   UNL A   1      39.879  28.953  29.129  1.00  0.00     0.031 A 
ATOM     37  C   UNL A   1      40.813  29.986  29.700  1.00  0.00     0.074 A 
ATOM     38  C   UNL A   1      40.335  27.717  28.837  1.00  0.00     0.049 A 
ATOM     39  N   UNL A   1      42.092  29.886  29.955  1.00  0.00    -0.248 NA
ATOM     40  C   UNL A   1      40.243  31.309  30.006  1.00  0.00     0.031 C 
ATOM     41  C   UNL A   1      39.538  26.640  28.240  1.00  0.00     0.029 A 
ATOM     42  N   UNL A   1      41.585  27.160  28.974  1.00  0.00    -0.354 N 
ATOM     43  C   UNL A   1      42.486  31.133  30.427  1.00  0.00     0.074 A 
ATOM     44  C   UNL A   1      41.315  31.982  30.402  1.00  0.00     0.031 C 
ATOM     45  C   UNL A   1      40.314  25.559  28.065  1.00  0.00     0.029 A 
ATOM     46  C   UNL A   1      41.675  25.875  28.486  1.00  0.00     0.049 A 
ATOM     47  H   UNL A   1      42.344  27.635  29.383  1.00  0.00     0.167 HD
ATOM     48  C   UNL A   1      43.712  31.526  30.849  1.00  0.00     0.037 A 
ATOM     49  C   UNL A   1      42.737  25.055  28.358  1.00  0.00     0.037 A 
ATOM     50  C   UNL A   1      44.864  30.663  30.902  1.00  0.00     0.049 A 
ATOM     51  C   UNL A   1      44.090  25.531  28.817  1.00  0.00     0.074 A 
ATOM     52  C   UNL A   1      46.119  30.942  31.414  1.00  0.00     0.029 A 
ATOM     53  N   UNL A   1      44.911  29.366  30.415  1.00  0.00    -0.354 N 
ATOM     54  N   UNL A   1      44.417  26.677  29.365  1.00  0.00    -0.248 NA
ATOM     55  C   UNL A   1      45.221  24.609  28.636  1.00  0.00     0.031 C 
ATOM     56  C   UNL A   1      46.944  29.841  31.175  1.00  0.00     0.029 A 
ATOM     57  C   UNL A   1      46.187  28.851  30.568  1.00  0.00     0.049 A 
ATOM     58  H   UNL A   1      44.151  28.883  30.019  1.00  0.00     0.167 HD
ATOM     59  C   UNL A   1      45.784  26.604  29.610  1.00  0.00     0.074 A 
ATOM     60  C   UNL A   1      46.220  25.295  29.175  1.00  0.00     0.031 C 
ATOM     61  C   UNL A   1      46.607  27.541  30.140  1.00  0.00     0.037 A 
BRANCH  48  62
ATOM     62  C   UNL A   1      43.897  32.952  31.290  1.00  0.00     0.058 A 
ATOM     63  C   UNL A   1      43.756  33.336  32.631  1.00  0.00     0.135 A 
ATOM     64  C   UNL A   1      44.342  33.921  30.374  1.00  0.00     0.135 A 
ATOM     65  F   UNL A   1      43.321  32.454  33.546  1.00  0.00    -0.206 F 
ATOM     66  C   UNL A   1      44.049  34.630  33.051  1.00  0.00     0.059 A 
ATOM     67  C   UNL A   1      44.665  35.214  30.776  1.00  0.00     0.059 A 
ATOM     68  F   UNL A   1      44.493  33.606  29.078  1.00  0.00    -0.206 F 
ATOM     69  C   UNL A   1      44.514  35.559  32.117  1.00  0.00     0.060 A 
BRANCH  69  70
ATOM     70  S   UNL A   1      44.950  37.214  32.693  1.00  0.00     0.124 S 
ATOM     71  O   UNL A   1      46.276  37.386  32.108  1.00  0.00    -0.237 OA
ATOM     72  O   UNL A   1      43.890  38.033  32.113  1.00  0.00    -0.237 OA
ATOM     73  O   UNL A   1      44.918  37.090  34.147  1.00  0.00    -0.744 OA
ENDBRANCH  69  70
ENDBRANCH  48  62
BRANCH  49  74
ATOM     74  C   UNL A   1      42.582  23.709  27.739  1.00  0.00     0.058 A 
ATOM     75  C   UNL A   1      42.441  22.558  28.530  1.00  0.00     0.135 A 
ATOM     76  C   UNL A   1      42.610  23.541  26.345  1.00  0.00     0.135 A 
ATOM     77  F   UNL A   1      42.415  22.662  29.867  1.00  0.00    -0.206 F 
ATOM     78  C   UNL A   1      42.370  21.288  27.964  1.00  0.00     0.059 A 
ATOM     79  C   UNL A   1      42.508  22.285  25.755  1.00  0.00     0.059 A 
ATOM     80  F   UNL A   1      42.725  24.610  25.541  1.00  0.00    -0.206 F 
ATOM     81  C   UNL A   1      42.409  21.162  26.575  1.00  0.00     0.060 A 
BRANCH  81  82
ATOM     82  S   UNL A   1      42.304  19.511  25.851  1.00  0.00     0.124 S 
ATOM     83  O   UNL A   1      42.675  18.672  26.984  1.00  0.00    -0.237 OA
ATOM     84  O   UNL A   1      40.906  19.446  25.436  1.00  0.00    -0.237 OA
ATOM     85  O   UNL A   1      43.270  19.563  24.758  1.00  0.00    -0.744 OA
ENDBRANCH  81  82
ENDBRANCH  49  74
BRANCH  61  86
ATOM     86  C   UNL A   1      48.060  27.188  30.300  1.00  0.00     0.058 A 
ATOM     87  C   UNL A   1      49.015  27.568  29.345  1.00  0.00     0.135 A 
ATOM     88  C   UNL A   1      48.514  26.535  31.458  1.00  0.00     0.135 A 
ATOM     89  F   UNL A   1      48.633  28.184  28.214  1.00  0.00    -0.206 F 
ATOM     90  C   UNL A   1      50.369  27.308  29.528  1.00  0.00     0.059 A 
ATOM     91  C   UNL A   1      49.866  26.291  31.675  1.00  0.00     0.059 A 
ATOM     92  F   UNL A   1      47.642  26.155  32.406  1.00  0.00    -0.206 F 
ATOM     93  C   UNL A   1      50.786  26.677  30.702  1.00  0.00     0.060 A 
BRANCH  93  94
ATOM     94  S   UNL A   1      52.552  26.407  30.956  1.00  0.00     0.124 S 
ATOM     95  O   UNL A   1      53.030  26.265  29.584  1.00  0.00    -0.237 OA
ATOM     96  O   UNL A   1      52.959  27.629  31.645  1.00  0.00    -0.237 OA
ATOM     97  O   UNL A   1      52.600  25.192  31.764  1.00  0.00    -0.744 OA
ENDBRANCH  93  94
ENDBRANCH  61  86
ENDBRANCH  35  36
ENDBRANCH  27  30
ENDBRANCH  25  26
ENDBRANCH   1  25
TORSDOF 16
ENDMDL
