MODEL 1
REMARK VINA RESULT:     -14.1      0.000      0.000
REMARK SMILES NS(=O)(=O)c1ccc(-n2nc(C(=O)NCCCNC(=O)c3ccc(-c4c5nc(c(-c6c(F)cc(S(=O)(=O)[O-])cc6F)c6ccc([nH]6)c(-c6c(F)cc(S(=O)(=O)[O-])cc6F)c6nc(c(-c7c(F)cc(S(=O)(=O)[O-])cc7F)c7ccc4[nH]7)C=C6)C=C5)cc3)c(Cl)c2-c2ccc(Cl)cc2)cc1
REMARK SMILES IDX 16 1 15 2 14 3 12 4 13 5 11 7 9 8 10 9 89 10 87 11 88 12
REMARK SMILES IDX 8 13 5 14 6 15 98 16 7 17 97 18 2 19 3 20 4 21 1 22 90 25
REMARK SMILES IDX 91 26 96 27 92 28 95 29 93 30 94 31 17 32 18 33 19 34 20 36
REMARK SMILES IDX 21 37 22 38 86 39 23 40 85 41 24 42 25 43 26 44 79 45 27 46
REMARK SMILES IDX 84 47 78 48 80 49 28 50 83 51 77 52 76 53 29 55 63 56 42 57
REMARK SMILES IDX 62 58 43 59 46 60 61 61 81 62 44 63 45 64 60 66 82 67 47 68
REMARK SMILES IDX 30 69 31 70 40 71 32 72 33 73 39 74 41 75 34 76 35 77 36 78
REMARK SMILES IDX 37 79 38 80 64 81 65 82 74 83 66 84 67 85 73 86 75 87 68 88
REMARK SMILES IDX 69 89 70 90 71 91 72 92 48 93 49 94 58 95 50 96 51 97 57 98
REMARK SMILES IDX 59 99 52 100 53 101 54 102 55 103 56 104
REMARK H PARENT 14 6 1 23 1 24 18 35 80 54 46 65
REMARK Flexibility Score: inf
ROOT
ATOM      1  C   UNL A   1      36.409  21.948  25.522  1.00  0.00     0.042 C 
ENDROOT
BRANCH   1   2
ATOM      2  C   UNL A   1      35.627  22.384  24.277  1.00  0.00     0.118 C 
BRANCH   2   3
ATOM      3  N   UNL A   1      34.403  21.610  24.089  1.00  0.00    -0.351 N 
ATOM      4  C   UNL A   1      33.072  21.991  24.069  1.00  0.00     0.273 C 
ATOM      5  O   UNL A   1      32.249  21.132  23.749  1.00  0.00    -0.267 OA
ATOM      6  H   UNL A   1      34.550  20.646  23.953  1.00  0.00     0.163 HD
BRANCH   4   7
ATOM      7  C   UNL A   1      32.684  23.385  24.332  1.00  0.00     0.169 A 
ATOM      8  N   UNL A   1      31.928  25.359  23.934  1.00  0.00    -0.231 N 
ATOM      9  N   UNL A   1      32.046  24.122  23.392  1.00  0.00    -0.160 NA
ATOM     10  C   UNL A   1      32.665  25.474  25.098  1.00  0.00     0.094 A 
ATOM     11  C   UNL A   1      32.777  24.158  25.505  1.00  0.00     0.100 A 
ATOM     12  Cl  UNL A   1      32.924  23.689  27.128  1.00  0.00    -0.079 Cl
BRANCH   8  13
ATOM     13  C   UNL A   1      30.972  26.286  23.455  1.00  0.00     0.065 A 
ATOM     14  C   UNL A   1      29.141  28.296  22.882  1.00  0.00     0.082 A 
ATOM     15  C   UNL A   1      28.725  27.177  23.610  1.00  0.00     0.024 A 
ATOM     16  C   UNL A   1      30.453  28.397  22.405  1.00  0.00     0.024 A 
ATOM     17  C   UNL A   1      29.637  26.152  23.874  1.00  0.00     0.030 A 
ATOM     18  C   UNL A   1      31.378  27.399  22.711  1.00  0.00     0.030 A 
BRANCH  14  19
ATOM     19  S   UNL A   1      28.025  29.630  22.572  1.00  0.00     0.238 S 
ATOM     20  O   UNL A   1      26.797  29.420  23.319  1.00  0.00    -0.207 OA
ATOM     21  O   UNL A   1      28.042  29.940  21.171  1.00  0.00    -0.207 OA
BRANCH  19  22
ATOM     22  N   UNL A   1      28.782  30.918  23.348  1.00  0.00    -0.225 NA
ATOM     23  H   UNL A   1      29.343  30.567  24.124  1.00  0.00     0.137 HD
ATOM     24  H   UNL A   1      28.076  31.563  23.704  1.00  0.00     0.137 HD
ENDBRANCH  19  22
ENDBRANCH  14  19
ENDBRANCH   8  13
BRANCH  10  25
ATOM     25  C   UNL A   1      32.898  26.630  25.950  1.00  0.00     0.002 A 
ATOM     26  C   UNL A   1      31.816  27.127  26.692  1.00  0.00     0.012 A 
ATOM     27  C   UNL A   1      34.047  27.409  25.786  1.00  0.00     0.012 A 
ATOM     28  C   UNL A   1      31.861  28.417  27.217  1.00  0.00     0.021 A 
ATOM     29  C   UNL A   1      34.088  28.702  26.309  1.00  0.00     0.021 A 
ATOM     30  C   UNL A   1      32.987  29.207  27.004  1.00  0.00     0.041 A 
ATOM     31  Cl  UNL A   1      33.001  30.838  27.552  1.00  0.00    -0.084 Cl
ENDBRANCH  10  25
ENDBRANCH   4   7
ENDBRANCH   2   3
ENDBRANCH   1   2
BRANCH   1  32
ATOM     32  C   UNL A   1      37.730  22.644  25.703  1.00  0.00     0.118 C 
BRANCH  32  33
ATOM     33  N   UNL A   1      38.716  21.907  26.501  1.00  0.00    -0.352 N 
ATOM     34  C   UNL A   1      39.870  22.429  27.087  1.00  0.00     0.251 C 
ATOM     35  H   UNL A   1      38.546  20.948  26.636  1.00  0.00     0.163 HD
ATOM     36  O   UNL A   1      40.788  21.696  27.432  1.00  0.00    -0.269 OA
BRANCH  34  37
ATOM     37  C   UNL A   1      39.952  23.895  27.257  1.00  0.00     0.039 A 
ATOM     38  C   UNL A   1      38.864  24.767  27.181  1.00  0.00     0.014 A 
ATOM     39  C   UNL A   1      41.191  24.375  27.635  1.00  0.00     0.014 A 
ATOM     40  C   UNL A   1      39.058  26.093  27.577  1.00  0.00     0.010 A 
ATOM     41  C   UNL A   1      41.247  25.495  28.397  1.00  0.00     0.010 A 
ATOM     42  C   UNL A   1      40.265  26.441  28.206  1.00  0.00    -0.014 A 
BRANCH  42  43
ATOM     43  C   UNL A   1      40.596  27.776  28.670  1.00  0.00     0.031 A 
ATOM     44  C   UNL A   1      41.812  28.368  28.080  1.00  0.00     0.074 A 
ATOM     45  C   UNL A   1      39.749  28.521  29.419  1.00  0.00     0.049 A 
ATOM     46  N   UNL A   1      42.976  28.468  28.626  1.00  0.00    -0.248 NA
ATOM     47  C   UNL A   1      41.774  28.764  26.667  1.00  0.00     0.031 C 
ATOM     48  C   UNL A   1      38.362  28.243  29.838  1.00  0.00     0.029 A 
ATOM     49  N   UNL A   1      39.954  29.765  29.918  1.00  0.00    -0.354 N 
ATOM     50  C   UNL A   1      43.761  29.161  27.714  1.00  0.00     0.074 A 
ATOM     51  C   UNL A   1      43.045  29.123  26.465  1.00  0.00     0.031 C 
ATOM     52  C   UNL A   1      37.796  29.363  30.336  1.00  0.00     0.029 A 
ATOM     53  C   UNL A   1      38.830  30.369  30.462  1.00  0.00     0.049 A 
ATOM     54  H   UNL A   1      40.835  30.205  29.897  1.00  0.00     0.167 HD
ATOM     55  C   UNL A   1      44.817  29.916  28.128  1.00  0.00     0.037 A 
ATOM     56  C   UNL A   1      38.759  31.611  31.000  1.00  0.00     0.037 A 
ATOM     57  C   UNL A   1      45.143  29.645  29.509  1.00  0.00     0.049 A 
ATOM     58  C   UNL A   1      40.144  31.968  31.401  1.00  0.00     0.074 A 
ATOM     59  C   UNL A   1      45.522  28.517  30.213  1.00  0.00     0.029 A 
ATOM     60  N   UNL A   1      44.693  30.535  30.459  1.00  0.00    -0.354 N 
ATOM     61  N   UNL A   1      40.813  31.337  32.332  1.00  0.00    -0.248 NA
ATOM     62  C   UNL A   1      40.958  32.702  30.445  1.00  0.00     0.031 C 
ATOM     63  C   UNL A   1      44.822  28.602  31.454  1.00  0.00     0.029 A 
ATOM     64  C   UNL A   1      44.109  29.803  31.465  1.00  0.00     0.049 A 
ATOM     65  H   UNL A   1      44.774  31.515  30.423  1.00  0.00     0.167 HD
ATOM     66  C   UNL A   1      42.112  31.249  31.849  1.00  0.00     0.074 A 
ATOM     67  C   UNL A   1      42.157  32.182  30.724  1.00  0.00     0.031 C 
ATOM     68  C   UNL A   1      42.949  30.233  32.223  1.00  0.00     0.037 A 
BRANCH  55  69
ATOM     69  C   UNL A   1      45.330  31.139  27.409  1.00  0.00     0.058 A 
ATOM     70  C   UNL A   1      46.660  31.155  26.944  1.00  0.00     0.135 A 
ATOM     71  C   UNL A   1      44.662  32.384  27.391  1.00  0.00     0.135 A 
ATOM     72  F   UNL A   1      47.391  30.029  26.920  1.00  0.00    -0.206 F 
ATOM     73  C   UNL A   1      47.303  32.333  26.561  1.00  0.00     0.059 A 
ATOM     74  C   UNL A   1      45.264  33.559  26.958  1.00  0.00     0.059 A 
ATOM     75  F   UNL A   1      43.429  32.543  27.885  1.00  0.00    -0.206 F 
ATOM     76  C   UNL A   1      46.599  33.533  26.591  1.00  0.00     0.060 A 
BRANCH  76  77
ATOM     77  S   UNL A   1      47.459  35.071  26.223  1.00  0.00     0.124 S 
ATOM     78  O   UNL A   1      48.161  34.722  24.994  1.00  0.00    -0.237 OA
ATOM     79  O   UNL A   1      46.352  36.012  26.083  1.00  0.00    -0.237 OA
ATOM     80  O   UNL A   1      48.301  35.274  27.398  1.00  0.00    -0.744 OA
ENDBRANCH  76  77
ENDBRANCH  55  69
BRANCH  56  81
ATOM     81  C   UNL A   1      37.660  32.594  30.831  1.00  0.00     0.058 A 
ATOM     82  C   UNL A   1      37.525  33.343  29.651  1.00  0.00     0.135 A 
ATOM     83  C   UNL A   1      36.559  32.621  31.715  1.00  0.00     0.135 A 
ATOM     84  F   UNL A   1      38.518  33.360  28.748  1.00  0.00    -0.206 F 
ATOM     85  C   UNL A   1      36.349  34.035  29.337  1.00  0.00     0.059 A 
ATOM     86  C   UNL A   1      35.380  33.307  31.427  1.00  0.00     0.059 A 
ATOM     87  F   UNL A   1      36.564  31.900  32.846  1.00  0.00    -0.206 F 
ATOM     88  C   UNL A   1      35.273  33.992  30.223  1.00  0.00     0.060 A 
BRANCH  88  89
ATOM     89  S   UNL A   1      33.693  34.734  29.742  1.00  0.00     0.124 S 
ATOM     90  O   UNL A   1      33.108  33.683  28.916  1.00  0.00    -0.237 OA
ATOM     91  O   UNL A   1      33.054  34.962  31.032  1.00  0.00    -0.237 OA
ATOM     92  O   UNL A   1      34.090  35.942  29.024  1.00  0.00    -0.744 OA
ENDBRANCH  88  89
ENDBRANCH  56  81
BRANCH  68  93
ATOM     93  C   UNL A   1      42.521  29.339  33.367  1.00  0.00     0.058 A 
ATOM     94  C   UNL A   1      41.758  28.168  33.208  1.00  0.00     0.135 A 
ATOM     95  C   UNL A   1      43.046  29.581  34.644  1.00  0.00     0.135 A 
ATOM     96  F   UNL A   1      41.300  27.804  32.006  1.00  0.00    -0.206 F 
ATOM     97  C   UNL A   1      41.506  27.294  34.269  1.00  0.00     0.059 A 
ATOM     98  C   UNL A   1      42.830  28.711  35.713  1.00  0.00     0.059 A 
ATOM     99  F   UNL A   1      43.835  30.648  34.854  1.00  0.00    -0.206 F 
ATOM    100  C   UNL A   1      42.051  27.572  35.520  1.00  0.00     0.060 A 
BRANCH 100 101
ATOM    101  S   UNL A   1      41.804  26.392  36.867  1.00  0.00     0.124 S 
ATOM    102  O   UNL A   1      41.802  25.115  36.160  1.00  0.00    -0.237 OA
ATOM    103  O   UNL A   1      42.960  26.639  37.723  1.00  0.00    -0.237 OA
ATOM    104  O   UNL A   1      40.521  26.791  37.439  1.00  0.00    -0.744 OA
ENDBRANCH 100 101
ENDBRANCH  68  93
ENDBRANCH  42  43
ENDBRANCH  34  37
ENDBRANCH  32  33
ENDBRANCH   1  32
TORSDOF 17
ENDMDL
MODEL 2
REMARK VINA RESULT:     -13.4      2.115      3.080
REMARK SMILES NS(=O)(=O)c1ccc(-n2nc(C(=O)NCCCNC(=O)c3ccc(-c4c5nc(c(-c6c(F)cc(S(=O)(=O)[O-])cc6F)c6ccc([nH]6)c(-c6c(F)cc(S(=O)(=O)[O-])cc6F)c6nc(c(-c7c(F)cc(S(=O)(=O)[O-])cc7F)c7ccc4[nH]7)C=C6)C=C5)cc3)c(Cl)c2-c2ccc(Cl)cc2)cc1
REMARK SMILES IDX 16 1 15 2 14 3 12 4 13 5 11 7 9 8 10 9 89 10 87 11 88 12
REMARK SMILES IDX 8 13 5 14 6 15 98 16 7 17 97 18 2 19 3 20 4 21 1 22 90 25
REMARK SMILES IDX 91 26 96 27 92 28 95 29 93 30 94 31 17 32 18 33 19 34 20 36
REMARK SMILES IDX 21 37 22 38 86 39 23 40 85 41 24 42 25 43 26 44 79 45 27 46
REMARK SMILES IDX 84 47 78 48 80 49 28 50 83 51 77 52 76 53 29 55 63 56 42 57
REMARK SMILES IDX 62 58 43 59 46 60 61 61 81 62 44 63 45 64 60 66 82 67 47 68
REMARK SMILES IDX 30 69 31 70 40 71 32 72 33 73 39 74 41 75 34 76 35 77 36 78
REMARK SMILES IDX 37 79 38 80 64 81 65 82 74 83 66 84 67 85 73 86 75 87 68 88
REMARK SMILES IDX 69 89 70 90 71 91 72 92 48 93 49 94 58 95 50 96 51 97 57 98
REMARK SMILES IDX 59 99 52 100 53 101 54 102 55 103 56 104
REMARK H PARENT 14 6 1 23 1 24 18 35 80 54 46 65
REMARK Flexibility Score: inf
ROOT
ATOM      1  C   UNL A   1      36.407  23.113  26.003  1.00  0.00     0.042 C 
ENDROOT
BRANCH   1   2
ATOM      2  C   UNL A   1      35.515  23.682  24.893  1.00  0.00     0.118 C 
BRANCH   2   3
ATOM      3  N   UNL A   1      34.271  22.932  24.740  1.00  0.00    -0.351 N 
ATOM      4  C   UNL A   1      32.957  23.352  24.623  1.00  0.00     0.273 C 
ATOM      5  O   UNL A   1      32.116  22.490  24.364  1.00  0.00    -0.267 OA
ATOM      6  H   UNL A   1      34.388  21.955  24.716  1.00  0.00     0.163 HD
BRANCH   4   7
ATOM      7  C   UNL A   1      32.611  24.778  24.716  1.00  0.00     0.169 A 
ATOM      8  N   UNL A   1      32.381  26.726  25.599  1.00  0.00    -0.231 N 
ATOM      9  N   UNL A   1      32.920  25.501  25.818  1.00  0.00    -0.160 NA
ATOM     10  C   UNL A   1      31.560  26.726  24.488  1.00  0.00     0.094 A 
ATOM     11  C   UNL A   1      32.040  25.648  23.768  1.00  0.00     0.100 A 
ATOM     12  Cl  UNL A   1      31.961  25.541  22.078  1.00  0.00    -0.079 Cl
BRANCH   8  13
ATOM     13  C   UNL A   1      32.831  27.867  26.306  1.00  0.00     0.065 A 
ATOM     14  C   UNL A   1      33.746  30.287  27.319  1.00  0.00     0.082 A 
ATOM     15  C   UNL A   1      34.668  29.349  26.848  1.00  0.00     0.024 A 
ATOM     16  C   UNL A   1      32.374  30.006  27.325  1.00  0.00     0.024 A 
ATOM     17  C   UNL A   1      34.212  28.120  26.364  1.00  0.00     0.030 A 
ATOM     18  C   UNL A   1      31.913  28.802  26.796  1.00  0.00     0.030 A 
BRANCH  14  19
ATOM     19  S   UNL A   1      34.286  31.868  27.893  1.00  0.00     0.238 S 
ATOM     20  O   UNL A   1      33.207  32.830  27.755  1.00  0.00    -0.207 OA
ATOM     21  O   UNL A   1      35.616  32.113  27.412  1.00  0.00    -0.207 OA
BRANCH  19  22
ATOM     22  N   UNL A   1      34.425  31.619  29.552  1.00  0.00    -0.225 NA
ATOM     23  H   UNL A   1      33.608  31.109  29.890  1.00  0.00     0.137 HD
ATOM     24  H   UNL A   1      34.484  32.519  30.028  1.00  0.00     0.137 HD
ENDBRANCH  19  22
ENDBRANCH  14  19
ENDBRANCH   8  13
BRANCH  10  25
ATOM     25  C   UNL A   1      30.720  27.781  23.941  1.00  0.00     0.002 A 
ATOM     26  C   UNL A   1      29.335  27.563  23.902  1.00  0.00     0.012 A 
ATOM     27  C   UNL A   1      31.285  28.816  23.190  1.00  0.00     0.012 A 
ATOM     28  C   UNL A   1      28.527  28.338  23.070  1.00  0.00     0.021 A 
ATOM     29  C   UNL A   1      30.475  29.588  22.356  1.00  0.00     0.021 A 
ATOM     30  C   UNL A   1      29.105  29.332  22.284  1.00  0.00     0.041 A 
ATOM     31  Cl  UNL A   1      28.130  30.214  21.175  1.00  0.00    -0.084 Cl
ENDBRANCH  10  25
ENDBRANCH   4   7
ENDBRANCH   2   3
ENDBRANCH   1   2
BRANCH   1  32
ATOM     32  C   UNL A   1      37.882  23.183  25.713  1.00  0.00     0.118 C 
BRANCH  32  33
ATOM     33  N   UNL A   1      38.725  22.345  26.573  1.00  0.00    -0.352 N 
ATOM     34  C   UNL A   1      39.857  22.752  27.281  1.00  0.00     0.251 C 
ATOM     35  H   UNL A   1      38.465  21.400  26.659  1.00  0.00     0.163 HD
ATOM     36  O   UNL A   1      40.675  21.935  27.684  1.00  0.00    -0.269 OA
BRANCH  34  37
ATOM     37  C   UNL A   1      40.041  24.201  27.508  1.00  0.00     0.039 A 
ATOM     38  C   UNL A   1      39.035  25.160  27.381  1.00  0.00     0.014 A 
ATOM     39  C   UNL A   1      41.281  24.566  27.994  1.00  0.00     0.014 A 
ATOM     40  C   UNL A   1      39.302  26.454  27.837  1.00  0.00     0.010 A 
ATOM     41  C   UNL A   1      41.366  25.656  28.798  1.00  0.00     0.010 A 
ATOM     42  C   UNL A   1      40.480  26.684  28.567  1.00  0.00    -0.014 A 
BRANCH  42  43
ATOM     43  C   UNL A   1      40.879  27.974  29.101  1.00  0.00     0.031 A 
ATOM     44  C   UNL A   1      42.015  28.619  28.416  1.00  0.00     0.074 A 
ATOM     45  C   UNL A   1      40.140  28.647  30.014  1.00  0.00     0.049 A 
ATOM     46  N   UNL A   1      43.240  28.673  28.817  1.00  0.00    -0.248 NA
ATOM     47  C   UNL A   1      41.803  29.138  27.059  1.00  0.00     0.031 C 
ATOM     48  C   UNL A   1      38.815  28.329  30.579  1.00  0.00     0.029 A 
ATOM     49  N   UNL A   1      40.418  29.842  30.591  1.00  0.00    -0.354 N 
ATOM     50  C   UNL A   1      43.910  29.445  27.877  1.00  0.00     0.074 A 
ATOM     51  C   UNL A   1      43.041  29.516  26.731  1.00  0.00     0.031 C 
ATOM     52  C   UNL A   1      38.327  29.400  31.242  1.00  0.00     0.029 A 
ATOM     53  C   UNL A   1      39.377  30.394  31.324  1.00  0.00     0.049 A 
ATOM     54  H   UNL A   1      41.293  30.284  30.498  1.00  0.00     0.167 HD
ATOM     55  C   UNL A   1      45.016  30.163  28.219  1.00  0.00     0.037 A 
ATOM     56  C   UNL A   1      39.385  31.582  31.974  1.00  0.00     0.037 A 
ATOM     57  C   UNL A   1      45.512  29.772  29.519  1.00  0.00     0.049 A 
ATOM     58  C   UNL A   1      40.814  31.906  32.226  1.00  0.00     0.074 A 
ATOM     59  C   UNL A   1      45.967  28.586  30.067  1.00  0.00     0.029 A 
ATOM     60  N   UNL A   1      45.193  30.573  30.593  1.00  0.00    -0.354 N 
ATOM     61  N   UNL A   1      41.589  31.196  33.006  1.00  0.00    -0.248 NA
ATOM     62  C   UNL A   1      41.506  32.724  31.243  1.00  0.00     0.031 C 
ATOM     63  C   UNL A   1      45.430  28.559  31.389  1.00  0.00     0.029 A 
ATOM     64  C   UNL A   1      44.735  29.754  31.596  1.00  0.00     0.049 A 
ATOM     65  H   UNL A   1      45.278  31.552  30.633  1.00  0.00     0.167 HD
ATOM     66  C   UNL A   1      42.816  31.154  32.356  1.00  0.00     0.074 A 
ATOM     67  C   UNL A   1      42.727  32.184  31.321  1.00  0.00     0.031 C 
ATOM     68  C   UNL A   1      43.684  30.112  32.530  1.00  0.00     0.037 A 
BRANCH  55  69
ATOM     69  C   UNL A   1      45.445  31.446  27.552  1.00  0.00     0.058 A 
ATOM     70  C   UNL A   1      46.750  31.546  27.029  1.00  0.00     0.135 A 
ATOM     71  C   UNL A   1      44.728  32.660  27.637  1.00  0.00     0.135 A 
ATOM     72  F   UNL A   1      47.523  30.455  26.905  1.00  0.00    -0.206 F 
ATOM     73  C   UNL A   1      47.326  32.770  26.688  1.00  0.00     0.059 A 
ATOM     74  C   UNL A   1      45.261  33.883  27.248  1.00  0.00     0.059 A 
ATOM     75  F   UNL A   1      43.514  32.738  28.195  1.00  0.00    -0.206 F 
ATOM     76  C   UNL A   1      46.577  33.936  26.820  1.00  0.00     0.060 A 
BRANCH  76  77
ATOM     77  S   UNL A   1      47.356  35.528  26.506  1.00  0.00     0.124 S 
ATOM     78  O   UNL A   1      46.192  36.391  26.345  1.00  0.00    -0.237 OA
ATOM     79  O   UNL A   1      48.138  35.728  27.722  1.00  0.00    -0.237 OA
ATOM     80  O   UNL A   1      48.138  35.286  25.298  1.00  0.00    -0.744 OA
ENDBRANCH  76  77
ENDBRANCH  55  69
BRANCH  56  81
ATOM     81  C   UNL A   1      38.283  32.574  32.034  1.00  0.00     0.058 A 
ATOM     82  C   UNL A   1      37.741  33.135  30.866  1.00  0.00     0.135 A 
ATOM     83  C   UNL A   1      37.551  32.786  33.223  1.00  0.00     0.135 A 
ATOM     84  F   UNL A   1      38.364  32.968  29.688  1.00  0.00    -0.206 F 
ATOM     85  C   UNL A   1      36.520  33.820  30.864  1.00  0.00     0.059 A 
ATOM     86  C   UNL A   1      36.337  33.469  33.247  1.00  0.00     0.059 A 
ATOM     87  F   UNL A   1      37.954  32.250  34.385  1.00  0.00    -0.206 F 
ATOM     88  C   UNL A   1      35.814  33.962  32.058  1.00  0.00     0.060 A 
BRANCH  88  89
ATOM     89  S   UNL A   1      34.156  34.688  32.031  1.00  0.00     0.124 S 
ATOM     90  O   UNL A   1      33.774  34.511  30.633  1.00  0.00    -0.237 OA
ATOM     91  O   UNL A   1      33.442  33.860  32.996  1.00  0.00    -0.237 OA
ATOM     92  O   UNL A   1      34.382  36.069  32.446  1.00  0.00    -0.744 OA
ENDBRANCH  88  89
ENDBRANCH  56  81
BRANCH  68  93
ATOM     93  C   UNL A   1      43.396  29.119  33.635  1.00  0.00     0.058 A 
ATOM     94  C   UNL A   1      43.712  29.333  34.989  1.00  0.00     0.135 A 
ATOM     95  C   UNL A   1      42.619  27.990  33.341  1.00  0.00     0.135 A 
ATOM     96  F   UNL A   1      44.365  30.435  35.377  1.00  0.00    -0.206 F 
ATOM     97  C   UNL A   1      43.301  28.458  35.998  1.00  0.00     0.059 A 
ATOM     98  C   UNL A   1      42.175  27.115  34.332  1.00  0.00     0.059 A 
ATOM     99  F   UNL A   1      42.228  27.756  32.077  1.00  0.00    -0.206 F 
ATOM    100  C   UNL A   1      42.527  27.350  35.659  1.00  0.00     0.060 A 
BRANCH 100 101
ATOM    101  S   UNL A   1      41.916  26.273  36.975  1.00  0.00     0.124 S 
ATOM    102  O   UNL A   1      41.753  25.000  36.280  1.00  0.00    -0.237 OA
ATOM    103  O   UNL A   1      42.996  26.324  37.957  1.00  0.00    -0.237 OA
ATOM    104  O   UNL A   1      40.674  26.918  37.395  1.00  0.00    -0.744 OA
ENDBRANCH 100 101
ENDBRANCH  68  93
ENDBRANCH  42  43
ENDBRANCH  34  37
ENDBRANCH  32  33
ENDBRANCH   1  32
TORSDOF 17
ENDMDL
MODEL 3
REMARK VINA RESULT:     -13.1      3.101      8.030
REMARK SMILES NS(=O)(=O)c1ccc(-n2nc(C(=O)NCCCNC(=O)c3ccc(-c4c5nc(c(-c6c(F)cc(S(=O)(=O)[O-])cc6F)c6ccc([nH]6)c(-c6c(F)cc(S(=O)(=O)[O-])cc6F)c6nc(c(-c7c(F)cc(S(=O)(=O)[O-])cc7F)c7ccc4[nH]7)C=C6)C=C5)cc3)c(Cl)c2-c2ccc(Cl)cc2)cc1
REMARK SMILES IDX 16 1 15 2 14 3 12 4 13 5 11 7 9 8 10 9 89 10 87 11 88 12
REMARK SMILES IDX 8 13 5 14 6 15 98 16 7 17 97 18 2 19 3 20 4 21 1 22 90 25
REMARK SMILES IDX 91 26 96 27 92 28 95 29 93 30 94 31 17 32 18 33 19 34 20 36
REMARK SMILES IDX 21 37 22 38 86 39 23 40 85 41 24 42 25 43 26 44 79 45 27 46
REMARK SMILES IDX 84 47 78 48 80 49 28 50 83 51 77 52 76 53 29 55 63 56 42 57
REMARK SMILES IDX 62 58 43 59 46 60 61 61 81 62 44 63 45 64 60 66 82 67 47 68
REMARK SMILES IDX 30 69 31 70 40 71 32 72 33 73 39 74 41 75 34 76 35 77 36 78
REMARK SMILES IDX 37 79 38 80 64 81 65 82 74 83 66 84 67 85 73 86 75 87 68 88
REMARK SMILES IDX 69 89 70 90 71 91 72 92 48 93 49 94 58 95 50 96 51 97 57 98
REMARK SMILES IDX 59 99 52 100 53 101 54 102 55 103 56 104
REMARK H PARENT 14 6 1 23 1 24 18 35 80 54 46 65
REMARK Flexibility Score: inf
ROOT
ATOM      1  C   UNL A   1      36.808  21.797  23.865  1.00  0.00     0.042 C 
ENDROOT
BRANCH   1   2
ATOM      2  C   UNL A   1      35.556  22.676  23.977  1.00  0.00     0.118 C 
BRANCH   2   3
ATOM      3  N   UNL A   1      34.324  21.891  23.978  1.00  0.00    -0.351 N 
ATOM      4  C   UNL A   1      32.999  22.267  24.114  1.00  0.00     0.273 C 
ATOM      5  O   UNL A   1      32.148  21.394  23.936  1.00  0.00    -0.267 OA
ATOM      6  H   UNL A   1      34.460  20.923  23.861  1.00  0.00     0.163 HD
BRANCH   4   7
ATOM      7  C   UNL A   1      32.636  23.670  24.371  1.00  0.00     0.169 A 
ATOM      8  N   UNL A   1      31.966  25.670  23.954  1.00  0.00    -0.231 N 
ATOM      9  N   UNL A   1      32.081  24.436  23.404  1.00  0.00    -0.160 NA
ATOM     10  C   UNL A   1      32.632  25.749  25.162  1.00  0.00     0.094 A 
ATOM     11  C   UNL A   1      32.679  24.426  25.558  1.00  0.00     0.100 A 
ATOM     12  Cl  UNL A   1      32.710  23.934  27.180  1.00  0.00    -0.079 Cl
BRANCH   8  13
ATOM     13  C   UNL A   1      31.070  26.631  23.428  1.00  0.00     0.065 A 
ATOM     14  C   UNL A   1      29.314  28.685  22.779  1.00  0.00     0.082 A 
ATOM     15  C   UNL A   1      28.820  27.527  23.386  1.00  0.00     0.024 A 
ATOM     16  C   UNL A   1      30.671  28.805  22.458  1.00  0.00     0.024 A 
ATOM     17  C   UNL A   1      29.696  26.481  23.688  1.00  0.00     0.030 A 
ATOM     18  C   UNL A   1      31.556  27.784  22.803  1.00  0.00     0.030 A 
BRANCH  14  19
ATOM     19  S   UNL A   1      28.241  30.043  22.428  1.00  0.00     0.238 S 
ATOM     20  O   UNL A   1      28.024  30.134  20.994  1.00  0.00    -0.207 OA
ATOM     21  O   UNL A   1      28.628  31.168  23.231  1.00  0.00    -0.207 OA
BRANCH  19  22
ATOM     22  N   UNL A   1      26.770  29.507  23.048  1.00  0.00    -0.225 NA
ATOM     23  H   UNL A   1      26.134  29.292  22.280  1.00  0.00     0.137 HD
ATOM     24  H   UNL A   1      26.361  30.236  23.634  1.00  0.00     0.137 HD
ENDBRANCH  19  22
ENDBRANCH  14  19
ENDBRANCH   8  13
BRANCH  10  25
ATOM     25  C   UNL A   1      32.845  26.888  26.043  1.00  0.00     0.002 A 
ATOM     26  C   UNL A   1      31.721  27.466  26.652  1.00  0.00     0.012 A 
ATOM     27  C   UNL A   1      34.060  27.579  26.023  1.00  0.00     0.012 A 
ATOM     28  C   UNL A   1      31.798  28.752  27.185  1.00  0.00     0.021 A 
ATOM     29  C   UNL A   1      34.133  28.867  26.554  1.00  0.00     0.021 A 
ATOM     30  C   UNL A   1      32.998  29.454  27.113  1.00  0.00     0.041 A 
ATOM     31  Cl  UNL A   1      33.066  31.081  27.668  1.00  0.00    -0.084 Cl
ENDBRANCH  10  25
ENDBRANCH   4   7
ENDBRANCH   2   3
ENDBRANCH   1   2
BRANCH   1  32
ATOM     32  C   UNL A   1      37.449  21.458  25.184  1.00  0.00     0.118 C 
BRANCH  32  33
ATOM     33  N   UNL A   1      38.228  20.215  25.194  1.00  0.00    -0.352 N 
ATOM     34  C   UNL A   1      39.515  20.043  25.707  1.00  0.00     0.251 C 
ATOM     35  H   UNL A   1      37.800  19.422  24.799  1.00  0.00     0.163 HD
ATOM     36  O   UNL A   1      40.204  19.087  25.373  1.00  0.00    -0.269 OA
BRANCH  34  37
ATOM     37  C   UNL A   1      40.020  21.063  26.651  1.00  0.00     0.039 A 
ATOM     38  C   UNL A   1      41.029  20.846  27.591  1.00  0.00     0.014 A 
ATOM     39  C   UNL A   1      39.512  22.334  26.469  1.00  0.00     0.014 A 
ATOM     40  C   UNL A   1      41.550  21.956  28.261  1.00  0.00     0.010 A 
ATOM     41  C   UNL A   1      40.295  23.396  26.786  1.00  0.00     0.010 A 
ATOM     42  C   UNL A   1      41.179  23.241  27.829  1.00  0.00    -0.014 A 
BRANCH  42  43
ATOM     43  C   UNL A   1      41.646  24.478  28.430  1.00  0.00     0.031 A 
ATOM     44  C   UNL A   1      40.701  25.609  28.367  1.00  0.00     0.074 A 
ATOM     45  C   UNL A   1      42.768  24.545  29.186  1.00  0.00     0.049 A 
ATOM     46  N   UNL A   1      40.738  26.613  27.558  1.00  0.00    -0.248 NA
ATOM     47  C   UNL A   1      39.492  25.549  29.198  1.00  0.00     0.031 C 
ATOM     48  C   UNL A   1      43.669  23.470  29.639  1.00  0.00     0.029 A 
ATOM     49  N   UNL A   1      43.305  25.639  29.781  1.00  0.00    -0.354 N 
ATOM     50  C   UNL A   1      39.689  27.440  27.938  1.00  0.00     0.074 A 
ATOM     51  C   UNL A   1      38.844  26.644  28.790  1.00  0.00     0.031 C 
ATOM     52  C   UNL A   1      44.501  23.937  30.596  1.00  0.00     0.029 A 
ATOM     53  C   UNL A   1      44.333  25.373  30.674  1.00  0.00     0.049 A 
ATOM     54  H   UNL A   1      42.989  26.553  29.593  1.00  0.00     0.167 HD
ATOM     55  C   UNL A   1      39.739  28.783  27.715  1.00  0.00     0.037 A 
ATOM     56  C   UNL A   1      45.017  26.278  31.414  1.00  0.00     0.037 A 
ATOM     57  C   UNL A   1      40.819  29.124  26.818  1.00  0.00     0.049 A 
ATOM     58  C   UNL A   1      44.868  27.581  30.716  1.00  0.00     0.074 A 
ATOM     59  C   UNL A   1      41.149  28.777  25.521  1.00  0.00     0.029 A 
ATOM     60  N   UNL A   1      41.982  29.613  27.374  1.00  0.00    -0.354 N 
ATOM     61  N   UNL A   1      45.354  27.823  29.525  1.00  0.00    -0.248 NA
ATOM     62  C   UNL A   1      43.774  28.448  31.125  1.00  0.00     0.031 C 
ATOM     63  C   UNL A   1      42.567  28.606  25.532  1.00  0.00     0.029 A 
ATOM     64  C   UNL A   1      43.028  28.921  26.813  1.00  0.00     0.049 A 
ATOM     65  H   UNL A   1      42.049  30.325  28.048  1.00  0.00     0.167 HD
ATOM     66  C   UNL A   1      44.379  28.575  28.882  1.00  0.00     0.074 A 
ATOM     67  C   UNL A   1      43.470  28.999  29.946  1.00  0.00     0.031 C 
ATOM     68  C   UNL A   1      44.241  28.557  27.521  1.00  0.00     0.037 A 
BRANCH  55  69
ATOM     69  C   UNL A   1      39.047  29.820  28.566  1.00  0.00     0.058 A 
ATOM     70  C   UNL A   1      39.502  30.046  29.880  1.00  0.00     0.135 A 
ATOM     71  C   UNL A   1      37.803  30.406  28.241  1.00  0.00     0.135 A 
ATOM     72  F   UNL A   1      40.671  29.533  30.297  1.00  0.00    -0.206 F 
ATOM     73  C   UNL A   1      38.744  30.739  30.823  1.00  0.00     0.059 A 
ATOM     74  C   UNL A   1      37.058  31.150  29.148  1.00  0.00     0.059 A 
ATOM     75  F   UNL A   1      37.200  30.204  27.064  1.00  0.00    -0.206 F 
ATOM     76  C   UNL A   1      37.513  31.271  30.451  1.00  0.00     0.060 A 
BRANCH  76  77
ATOM     77  S   UNL A   1      36.474  32.051  31.696  1.00  0.00     0.124 S 
ATOM     78  O   UNL A   1      36.908  31.362  32.906  1.00  0.00    -0.237 OA
ATOM     79  O   UNL A   1      36.864  33.453  31.582  1.00  0.00    -0.237 OA
ATOM     80  O   UNL A   1      35.120  31.745  31.244  1.00  0.00    -0.744 OA
ENDBRANCH  76  77
ENDBRANCH  55  69
BRANCH  56  81
ATOM     81  C   UNL A   1      45.443  26.135  32.828  1.00  0.00     0.058 A 
ATOM     82  C   UNL A   1      44.506  26.109  33.874  1.00  0.00     0.135 A 
ATOM     83  C   UNL A   1      46.758  25.742  33.162  1.00  0.00     0.135 A 
ATOM     84  F   UNL A   1      43.229  26.450  33.641  1.00  0.00    -0.206 F 
ATOM     85  C   UNL A   1      44.837  25.670  35.162  1.00  0.00     0.059 A 
ATOM     86  C   UNL A   1      47.113  25.307  34.437  1.00  0.00     0.059 A 
ATOM     87  F   UNL A   1      47.718  25.683  32.226  1.00  0.00    -0.206 F 
ATOM     88  C   UNL A   1      46.140  25.250  35.428  1.00  0.00     0.060 A 
BRANCH  88  89
ATOM     89  S   UNL A   1      46.528  24.516  37.036  1.00  0.00     0.124 S 
ATOM     90  O   UNL A   1      47.861  23.969  36.803  1.00  0.00    -0.237 OA
ATOM     91  O   UNL A   1      46.459  25.670  37.925  1.00  0.00    -0.237 OA
ATOM     92  O   UNL A   1      45.471  23.526  37.221  1.00  0.00    -0.744 OA
ENDBRANCH  88  89
ENDBRANCH  56  81
BRANCH  68  93
ATOM     93  C   UNL A   1      45.327  27.894  26.701  1.00  0.00     0.058 A 
ATOM     94  C   UNL A   1      45.294  26.549  26.290  1.00  0.00     0.135 A 
ATOM     95  C   UNL A   1      46.349  28.691  26.167  1.00  0.00     0.135 A 
ATOM     96  F   UNL A   1      44.300  25.738  26.670  1.00  0.00    -0.206 F 
ATOM     97  C   UNL A   1      46.243  26.014  25.416  1.00  0.00     0.059 A 
ATOM     98  C   UNL A   1      47.294  28.187  25.273  1.00  0.00     0.059 A 
ATOM     99  F   UNL A   1      46.406  29.999  26.468  1.00  0.00    -0.206 F 
ATOM    100  C   UNL A   1      47.240  26.844  24.907  1.00  0.00     0.060 A 
BRANCH 100 101
ATOM    101  S   UNL A   1      48.408  26.174  23.701  1.00  0.00     0.124 S 
ATOM    102  O   UNL A   1      48.321  27.145  22.616  1.00  0.00    -0.237 OA
ATOM    103  O   UNL A   1      49.665  26.167  24.445  1.00  0.00    -0.237 OA
ATOM    104  O   UNL A   1      47.867  24.851  23.401  1.00  0.00    -0.744 OA
ENDBRANCH 100 101
ENDBRANCH  68  93
ENDBRANCH  42  43
ENDBRANCH  34  37
ENDBRANCH  32  33
ENDBRANCH   1  32
TORSDOF 17
ENDMDL
