MODEL 1
REMARK VINA RESULT:     -12.0      0.000      0.000
REMARK SMILES Cc1cc(O[C@@H](C)C(=O)NCCC(=O)NCCCNC(=O)c2ccc(-c3c4nc(c(-c5c(F)cc(S(=O)(=O)[O-])cc5F)c5ccc([nH]5)c(-c5c(F)cc(S(=O)(=O)[O-])cc5F)c5nc(c(-c6c(F)cc(S(=O)(=O)[O-])cc6F)c6ccc3[nH]6)C=C5)C=C4)cc2)c2c3c(c(=O)oc2c1)CCCC3
REMARK SMILES IDX 16 1 15 2 13 3 14 4 12 6 11 7 10 8 8 9 9 10 6 12 7 13 5 14
REMARK SMILES IDX 4 15 1 16 2 17 3 18 95 19 94 20 88 21 93 22 89 23 91 24
REMARK SMILES IDX 90 25 99 26 92 27 96 28 98 29 97 30 17 31 18 32 19 33 20 34
REMARK SMILES IDX 21 36 22 37 23 38 87 39 24 40 86 41 25 42 26 43 27 44 80 45
REMARK SMILES IDX 28 46 85 47 79 48 81 49 29 50 84 51 78 52 77 53 30 55 64 56
REMARK SMILES IDX 43 57 63 58 44 59 47 60 62 61 82 62 45 63 46 64 61 66 83 67
REMARK SMILES IDX 48 68 31 69 32 70 41 71 33 72 34 73 40 74 42 75 35 76 36 77
REMARK SMILES IDX 37 78 38 79 39 80 65 81 66 82 75 83 67 84 68 85 74 86 76 87
REMARK SMILES IDX 69 88 70 89 71 90 72 91 73 92 49 93 50 94 59 95 51 96 52 97
REMARK SMILES IDX 58 98 60 99 53 100 54 101 55 102 56 103 57 104
REMARK H PARENT 15 5 10 11 19 35 81 54 47 65
REMARK Flexibility Score: inf
ROOT
ATOM      1  C   UNL A   1      33.674  23.896  26.405  1.00  0.00     0.117 C 
ENDROOT
BRANCH   1   2
ATOM      2  N   UNL A   1      32.439  23.293  26.864  1.00  0.00    -0.356 N 
ATOM      3  C   UNL A   1      31.173  23.763  26.705  1.00  0.00     0.221 C 
ATOM      4  O   UNL A   1      30.262  23.257  27.361  1.00  0.00    -0.275 OA
ATOM      5  H   UNL A   1      32.526  22.441  27.350  1.00  0.00     0.163 HD
BRANCH   3   6
ATOM      6  C   UNL A   1      30.908  24.871  25.715  1.00  0.00     0.121 C 
BRANCH   6   7
ATOM      7  C   UNL A   1      30.776  24.392  24.269  1.00  0.00     0.126 C 
BRANCH   7   8
ATOM      8  N   UNL A   1      32.051  24.389  23.571  1.00  0.00    -0.352 N 
ATOM      9  C   UNL A   1      32.666  25.280  22.759  1.00  0.00     0.260 C 
ATOM     10  O   UNL A   1      33.445  24.776  21.937  1.00  0.00    -0.271 OA
ATOM     11  H   UNL A   1      32.575  23.570  23.720  1.00  0.00     0.163 HD
BRANCH   9  12
ATOM     12  C   UNL A   1      32.572  26.824  22.898  1.00  0.00     0.258 C 
ATOM     13  C   UNL A   1      33.660  27.510  22.077  1.00  0.00     0.064 C 
BRANCH  12  14
ATOM     14  O   UNL A   1      32.141  27.560  24.028  1.00  0.00    -0.480 OA
BRANCH  14  15
ATOM     15  C   UNL A   1      31.230  28.563  24.023  1.00  0.00     0.132 A 
ATOM     16  C   UNL A   1      28.051  29.515  22.165  1.00  0.00     0.044 C 
ATOM     17  C   UNL A   1      29.152  29.544  23.186  1.00  0.00    -0.044 A 
ATOM     18  C   UNL A   1      30.032  28.460  23.305  1.00  0.00     0.050 A 
ATOM     19  C   UNL A   1      29.425  30.700  23.906  1.00  0.00     0.051 A 
ATOM     20  C   UNL A   1      30.541  30.739  24.746  1.00  0.00     0.142 A 
ATOM     21  C   UNL A   1      31.468  29.693  24.841  1.00  0.00     0.063 A 
ATOM     22  O   UNL A   1      30.663  31.921  25.495  1.00  0.00    -0.422 OA
ATOM     23  C   UNL A   1      32.585  29.864  25.812  1.00  0.00    -0.023 A 
ATOM     24  C   UNL A   1      31.607  32.044  26.493  1.00  0.00     0.339 A 
ATOM     25  C   UNL A   1      32.612  30.960  26.601  1.00  0.00     0.042 A 
ATOM     26  C   UNL A   1      33.648  28.792  25.959  1.00  0.00     0.037 C 
ATOM     27  O   UNL A   1      31.618  33.019  27.237  1.00  0.00    -0.246 OA
ATOM     28  C   UNL A   1      33.650  31.196  27.671  1.00  0.00     0.043 C 
ATOM     29  C   UNL A   1      34.487  28.880  27.237  1.00  0.00     0.005 C 
ATOM     30  C   UNL A   1      34.885  30.310  27.546  1.00  0.00     0.005 C 
ENDBRANCH  14  15
ENDBRANCH  12  14
ENDBRANCH   9  12
ENDBRANCH   7   8
ENDBRANCH   6   7
ENDBRANCH   3   6
ENDBRANCH   1   2
BRANCH   1  31
ATOM     31  C   UNL A   1      34.821  22.908  26.552  1.00  0.00     0.042 C 
BRANCH  31  32
ATOM     32  C   UNL A   1      36.139  23.443  26.027  1.00  0.00     0.118 C 
BRANCH  32  33
ATOM     33  N   UNL A   1      37.192  22.444  26.071  1.00  0.00    -0.352 N 
ATOM     34  C   UNL A   1      38.544  22.606  26.262  1.00  0.00     0.251 C 
ATOM     35  H   UNL A   1      36.894  21.514  25.945  1.00  0.00     0.163 HD
ATOM     36  O   UNL A   1      39.307  21.674  26.023  1.00  0.00    -0.269 OA
BRANCH  34  37
ATOM     37  C   UNL A   1      39.071  23.909  26.722  1.00  0.00     0.039 A 
ATOM     38  C   UNL A   1      39.685  24.778  25.822  1.00  0.00     0.014 A 
ATOM     39  C   UNL A   1      38.974  24.259  28.071  1.00  0.00     0.014 A 
ATOM     40  C   UNL A   1      40.393  25.872  26.294  1.00  0.00     0.010 A 
ATOM     41  C   UNL A   1      39.568  25.442  28.522  1.00  0.00     0.010 A 
ATOM     42  C   UNL A   1      40.327  26.236  27.647  1.00  0.00    -0.014 A 
BRANCH  42  43
ATOM     43  C   UNL A   1      41.043  27.453  28.115  1.00  0.00     0.031 A 
ATOM     44  C   UNL A   1      40.288  28.598  28.743  1.00  0.00     0.074 A 
ATOM     45  C   UNL A   1      42.389  27.501  28.021  1.00  0.00     0.049 A 
ATOM     46  N   UNL A   1      40.740  29.761  29.138  1.00  0.00    -0.248 NA
ATOM     47  C   UNL A   1      38.841  28.421  28.949  1.00  0.00     0.031 C 
ATOM     48  C   UNL A   1      43.237  26.440  27.464  1.00  0.00     0.029 A 
ATOM     49  N   UNL A   1      43.286  28.463  28.409  1.00  0.00    -0.354 N 
ATOM     50  C   UNL A   1      39.636  30.457  29.620  1.00  0.00     0.074 A 
ATOM     51  C   UNL A   1      38.485  29.601  29.439  1.00  0.00     0.031 C 
ATOM     52  C   UNL A   1      44.525  26.781  27.608  1.00  0.00     0.029 A 
ATOM     53  C   UNL A   1      44.598  28.122  28.169  1.00  0.00     0.049 A 
ATOM     54  H   UNL A   1      43.018  29.316  28.819  1.00  0.00     0.167 HD
ATOM     55  C   UNL A   1      39.593  31.692  30.177  1.00  0.00     0.037 A 
ATOM     56  C   UNL A   1      45.733  28.822  28.346  1.00  0.00     0.037 A 
ATOM     57  C   UNL A   1      40.750  32.526  30.378  1.00  0.00     0.049 A 
ATOM     58  C   UNL A   1      45.641  30.221  28.886  1.00  0.00     0.074 A 
ATOM     59  C   UNL A   1      40.809  33.797  30.925  1.00  0.00     0.029 A 
ATOM     60  N   UNL A   1      42.052  32.170  30.057  1.00  0.00    -0.354 N 
ATOM     61  N   UNL A   1      44.584  30.876  29.301  1.00  0.00    -0.248 NA
ATOM     62  C   UNL A   1      46.894  30.984  28.965  1.00  0.00     0.031 C 
ATOM     63  C   UNL A   1      42.140  34.225  30.898  1.00  0.00     0.029 A 
ATOM     64  C   UNL A   1      42.919  33.202  30.382  1.00  0.00     0.049 A 
ATOM     65  H   UNL A   1      42.322  31.311  29.658  1.00  0.00     0.167 HD
ATOM     66  C   UNL A   1      45.047  32.121  29.709  1.00  0.00     0.074 A 
ATOM     67  C   UNL A   1      46.482  32.117  29.514  1.00  0.00     0.031 C 
ATOM     68  C   UNL A   1      44.346  33.176  30.193  1.00  0.00     0.037 A 
BRANCH  55  69
ATOM     69  C   UNL A   1      38.259  32.229  30.622  1.00  0.00     0.058 A 
ATOM     70  C   UNL A   1      37.813  32.077  31.943  1.00  0.00     0.135 A 
ATOM     71  C   UNL A   1      37.468  32.993  29.747  1.00  0.00     0.135 A 
ATOM     72  F   UNL A   1      38.518  31.341  32.816  1.00  0.00    -0.206 F 
ATOM     73  C   UNL A   1      36.633  32.667  32.384  1.00  0.00     0.059 A 
ATOM     74  C   UNL A   1      36.295  33.613  30.174  1.00  0.00     0.059 A 
ATOM     75  F   UNL A   1      37.846  33.166  28.471  1.00  0.00    -0.206 F 
ATOM     76  C   UNL A   1      35.886  33.444  31.495  1.00  0.00     0.060 A 
BRANCH  76  77
ATOM     77  S   UNL A   1      34.390  34.247  32.106  1.00  0.00     0.124 S 
ATOM     78  O   UNL A   1      34.944  35.384  32.836  1.00  0.00    -0.237 OA
ATOM     79  O   UNL A   1      33.687  34.571  30.869  1.00  0.00    -0.237 OA
ATOM     80  O   UNL A   1      33.762  33.221  32.932  1.00  0.00    -0.744 OA
ENDBRANCH  76  77
ENDBRANCH  55  69
BRANCH  56  81
ATOM     81  C   UNL A   1      47.049  28.229  27.984  1.00  0.00     0.058 A 
ATOM     82  C   UNL A   1      47.567  28.366  26.688  1.00  0.00     0.135 A 
ATOM     83  C   UNL A   1      47.806  27.501  28.917  1.00  0.00     0.135 A 
ATOM     84  F   UNL A   1      46.880  29.048  25.760  1.00  0.00    -0.206 F 
ATOM     85  C   UNL A   1      48.772  27.779  26.320  1.00  0.00     0.059 A 
ATOM     86  C   UNL A   1      49.032  26.935  28.582  1.00  0.00     0.059 A 
ATOM     87  F   UNL A   1      47.365  27.352  30.175  1.00  0.00    -0.206 F 
ATOM     88  C   UNL A   1      49.497  27.063  27.274  1.00  0.00     0.060 A 
BRANCH  88  89
ATOM     89  S   UNL A   1      51.065  26.315  26.786  1.00  0.00     0.124 S 
ATOM     90  O   UNL A   1      52.023  27.157  27.492  1.00  0.00    -0.237 OA
ATOM     91  O   UNL A   1      50.921  24.951  27.288  1.00  0.00    -0.237 OA
ATOM     92  O   UNL A   1      51.061  26.444  25.332  1.00  0.00    -0.744 OA
ENDBRANCH  88  89
ENDBRANCH  56  81
BRANCH  68  93
ATOM     93  C   UNL A   1      45.127  34.402  30.574  1.00  0.00     0.058 A 
ATOM     94  C   UNL A   1      45.351  35.444  29.662  1.00  0.00     0.135 A 
ATOM     95  C   UNL A   1      45.617  34.555  31.881  1.00  0.00     0.135 A 
ATOM     96  F   UNL A   1      44.910  35.342  28.397  1.00  0.00    -0.206 F 
ATOM     97  C   UNL A   1      46.057  36.585  30.024  1.00  0.00     0.059 A 
ATOM     98  C   UNL A   1      46.299  35.702  32.274  1.00  0.00     0.059 A 
ATOM     99  F   UNL A   1      45.420  33.592  32.796  1.00  0.00    -0.206 F 
ATOM    100  C   UNL A   1      46.524  36.706  31.334  1.00  0.00     0.060 A 
BRANCH 100 101
ATOM    101  S   UNL A   1      47.413  38.208  31.793  1.00  0.00     0.124 S 
ATOM    102  O   UNL A   1      48.025  38.588  30.524  1.00  0.00    -0.237 OA
ATOM    103  O   UNL A   1      46.338  39.074  32.264  1.00  0.00    -0.237 OA
ATOM    104  O   UNL A   1      48.342  37.752  32.824  1.00  0.00    -0.744 OA
ENDBRANCH 100 101
ENDBRANCH  68  93
ENDBRANCH  42  43
ENDBRANCH  34  37
ENDBRANCH  32  33
ENDBRANCH  31  32
ENDBRANCH   1  31
TORSDOF 18
ENDMDL
MODEL 2
REMARK VINA RESULT:     -12.0      4.924      6.505
REMARK SMILES Cc1cc(O[C@@H](C)C(=O)NCCC(=O)NCCCNC(=O)c2ccc(-c3c4nc(c(-c5c(F)cc(S(=O)(=O)[O-])cc5F)c5ccc([nH]5)c(-c5c(F)cc(S(=O)(=O)[O-])cc5F)c5nc(c(-c6c(F)cc(S(=O)(=O)[O-])cc6F)c6ccc3[nH]6)C=C5)C=C4)cc2)c2c3c(c(=O)oc2c1)CCCC3
REMARK SMILES IDX 16 1 15 2 13 3 14 4 12 6 11 7 10 8 8 9 9 10 6 12 7 13 5 14
REMARK SMILES IDX 4 15 1 16 2 17 3 18 95 19 94 20 88 21 93 22 89 23 91 24
REMARK SMILES IDX 90 25 99 26 92 27 96 28 98 29 97 30 17 31 18 32 19 33 20 34
REMARK SMILES IDX 21 36 22 37 23 38 87 39 24 40 86 41 25 42 26 43 27 44 80 45
REMARK SMILES IDX 28 46 85 47 79 48 81 49 29 50 84 51 78 52 77 53 30 55 64 56
REMARK SMILES IDX 43 57 63 58 44 59 47 60 62 61 82 62 45 63 46 64 61 66 83 67
REMARK SMILES IDX 48 68 31 69 32 70 41 71 33 72 34 73 40 74 42 75 35 76 36 77
REMARK SMILES IDX 37 78 38 79 39 80 65 81 66 82 75 83 67 84 68 85 74 86 76 87
REMARK SMILES IDX 69 88 70 89 71 90 72 91 73 92 49 93 50 94 59 95 51 96 52 97
REMARK SMILES IDX 58 98 60 99 53 100 54 101 55 102 56 103 57 104
REMARK H PARENT 15 5 10 11 19 35 81 54 47 65
REMARK Flexibility Score: inf
ROOT
ATOM      1  C   UNL A   1      40.219  21.561  26.710  1.00  0.00     0.117 C 
ENDROOT
BRANCH   1   2
ATOM      2  N   UNL A   1      39.296  22.651  26.956  1.00  0.00    -0.356 N 
ATOM      3  C   UNL A   1      38.241  23.038  26.190  1.00  0.00     0.221 C 
ATOM      4  O   UNL A   1      37.709  24.126  26.415  1.00  0.00    -0.275 OA
ATOM      5  H   UNL A   1      39.451  23.174  27.776  1.00  0.00     0.163 HD
BRANCH   3   6
ATOM      6  C   UNL A   1      37.731  22.122  25.105  1.00  0.00     0.121 C 
BRANCH   6   7
ATOM      7  C   UNL A   1      36.219  22.188  24.897  1.00  0.00     0.126 C 
BRANCH   7   8
ATOM      8  N   UNL A   1      35.835  23.250  23.983  1.00  0.00    -0.352 N 
ATOM      9  C   UNL A   1      34.901  24.230  24.037  1.00  0.00     0.260 C 
ATOM     10  O   UNL A   1      34.481  24.603  22.932  1.00  0.00    -0.271 OA
ATOM     11  H   UNL A   1      36.363  23.260  23.152  1.00  0.00     0.163 HD
BRANCH   9  12
ATOM     12  C   UNL A   1      34.469  24.976  25.328  1.00  0.00     0.258 C 
ATOM     13  C   UNL A   1      33.746  24.032  26.285  1.00  0.00     0.064 C 
BRANCH  12  14
ATOM     14  O   UNL A   1      34.088  26.334  25.449  1.00  0.00    -0.480 OA
BRANCH  14  15
ATOM     15  C   UNL A   1      32.880  26.852  25.121  1.00  0.00     0.132 A 
ATOM     16  C   UNL A   1      29.785  25.843  23.154  1.00  0.00     0.044 C 
ATOM     17  C   UNL A   1      30.687  26.629  24.062  1.00  0.00    -0.044 A 
ATOM     18  C   UNL A   1      31.884  26.069  24.525  1.00  0.00     0.050 A 
ATOM     19  C   UNL A   1      30.442  27.973  24.319  1.00  0.00     0.051 A 
ATOM     20  C   UNL A   1      31.373  28.712  25.054  1.00  0.00     0.142 A 
ATOM     21  C   UNL A   1      32.602  28.192  25.480  1.00  0.00     0.063 A 
ATOM     22  O   UNL A   1      30.976  30.030  25.335  1.00  0.00    -0.422 OA
ATOM     23  C   UNL A   1      33.472  29.091  26.291  1.00  0.00    -0.023 A 
ATOM     24  C   UNL A   1      31.700  30.829  26.193  1.00  0.00     0.339 A 
ATOM     25  C   UNL A   1      33.015  30.312  26.642  1.00  0.00     0.042 A 
ATOM     26  C   UNL A   1      34.831  28.619  26.771  1.00  0.00     0.037 C 
ATOM     27  O   UNL A   1      31.277  31.926  26.546  1.00  0.00    -0.246 OA
ATOM     28  C   UNL A   1      33.777  31.270  27.526  1.00  0.00     0.043 C 
ATOM     29  C   UNL A   1      35.441  29.444  27.907  1.00  0.00     0.005 C 
ATOM     30  C   UNL A   1      35.255  30.931  27.679  1.00  0.00     0.005 C 
ENDBRANCH  14  15
ENDBRANCH  12  14
ENDBRANCH   9  12
ENDBRANCH   7   8
ENDBRANCH   6   7
ENDBRANCH   3   6
ENDBRANCH   1   2
BRANCH   1  31
ATOM     31  C   UNL A   1      41.497  21.772  27.507  1.00  0.00     0.042 C 
BRANCH  31  32
ATOM     32  C   UNL A   1      41.803  23.234  27.767  1.00  0.00     0.118 C 
BRANCH  32  33
ATOM     33  N   UNL A   1      42.155  23.945  26.551  1.00  0.00    -0.352 N 
ATOM     34  C   UNL A   1      41.988  25.273  26.234  1.00  0.00     0.251 C 
ATOM     35  H   UNL A   1      42.575  23.395  25.850  1.00  0.00     0.163 HD
ATOM     36  O   UNL A   1      42.120  25.640  25.070  1.00  0.00    -0.269 OA
BRANCH  34  37
ATOM     37  C   UNL A   1      41.618  26.240  27.290  1.00  0.00     0.039 A 
ATOM     38  C   UNL A   1      42.364  27.402  27.473  1.00  0.00     0.014 A 
ATOM     39  C   UNL A   1      40.529  25.973  28.123  1.00  0.00     0.014 A 
ATOM     40  C   UNL A   1      42.172  28.172  28.611  1.00  0.00     0.010 A 
ATOM     41  C   UNL A   1      40.248  26.834  29.189  1.00  0.00     0.010 A 
ATOM     42  C   UNL A   1      41.097  27.915  29.474  1.00  0.00    -0.014 A 
BRANCH  42  43
ATOM     43  C   UNL A   1      40.874  28.798  30.650  1.00  0.00     0.031 A 
ATOM     44  C   UNL A   1      39.789  29.845  30.634  1.00  0.00     0.074 A 
ATOM     45  C   UNL A   1      41.623  28.616  31.759  1.00  0.00     0.049 A 
ATOM     46  N   UNL A   1      39.503  30.747  31.539  1.00  0.00    -0.248 NA
ATOM     47  C   UNL A   1      38.914  29.893  29.451  1.00  0.00     0.031 C 
ATOM     48  C   UNL A   1      42.682  27.611  31.911  1.00  0.00     0.029 A 
ATOM     49  N   UNL A   1      41.597  29.246  32.977  1.00  0.00    -0.354 N 
ATOM     50  C   UNL A   1      38.435  31.477  31.030  1.00  0.00     0.074 A 
ATOM     51  C   UNL A   1      38.141  30.936  29.721  1.00  0.00     0.031 C 
ATOM     52  C   UNL A   1      43.154  27.650  33.164  1.00  0.00     0.029 A 
ATOM     53  C   UNL A   1      42.510  28.745  33.876  1.00  0.00     0.049 A 
ATOM     54  H   UNL A   1      40.985  29.987  33.188  1.00  0.00     0.167 HD
ATOM     55  C   UNL A   1      37.753  32.494  31.610  1.00  0.00     0.037 A 
ATOM     56  C   UNL A   1      42.824  29.142  35.124  1.00  0.00     0.037 A 
ATOM     57  C   UNL A   1      38.037  33.006  32.927  1.00  0.00     0.049 A 
ATOM     58  C   UNL A   1      42.107  30.327  35.704  1.00  0.00     0.074 A 
ATOM     59  C   UNL A   1      37.409  34.041  33.599  1.00  0.00     0.029 A 
ATOM     60  N   UNL A   1      39.016  32.515  33.777  1.00  0.00    -0.354 N 
ATOM     61  N   UNL A   1      41.125  31.028  35.191  1.00  0.00    -0.248 NA
ATOM     62  C   UNL A   1      42.554  30.789  37.025  1.00  0.00     0.031 C 
ATOM     63  C   UNL A   1      38.036  34.201  34.840  1.00  0.00     0.029 A 
ATOM     64  C   UNL A   1      39.020  33.234  34.962  1.00  0.00     0.049 A 
ATOM     65  H   UNL A   1      39.621  31.765  33.570  1.00  0.00     0.167 HD
ATOM     66  C   UNL A   1      40.822  32.001  36.137  1.00  0.00     0.074 A 
ATOM     67  C   UNL A   1      41.709  31.782  37.260  1.00  0.00     0.031 C 
ATOM     68  C   UNL A   1      39.900  32.993  36.075  1.00  0.00     0.037 A 
BRANCH  55  69
ATOM     69  C   UNL A   1      36.624  33.128  30.842  1.00  0.00     0.058 A 
ATOM     70  C   UNL A   1      35.286  32.937  31.218  1.00  0.00     0.135 A 
ATOM     71  C   UNL A   1      36.889  34.017  29.787  1.00  0.00     0.135 A 
ATOM     72  F   UNL A   1      34.975  32.083  32.206  1.00  0.00    -0.206 F 
ATOM     73  C   UNL A   1      34.249  33.609  30.578  1.00  0.00     0.059 A 
ATOM     74  C   UNL A   1      35.867  34.719  29.149  1.00  0.00     0.059 A 
ATOM     75  F   UNL A   1      38.150  34.233  29.385  1.00  0.00    -0.206 F 
ATOM     76  C   UNL A   1      34.550  34.507  29.553  1.00  0.00     0.060 A 
BRANCH  76  77
ATOM     77  S   UNL A   1      33.193  35.411  28.778  1.00  0.00     0.124 S 
ATOM     78  O   UNL A   1      33.915  36.414  28.001  1.00  0.00    -0.237 OA
ATOM     79  O   UNL A   1      32.531  34.367  28.004  1.00  0.00    -0.237 OA
ATOM     80  O   UNL A   1      32.432  35.927  29.912  1.00  0.00    -0.744 OA
ENDBRANCH  76  77
ENDBRANCH  55  69
BRANCH  56  81
ATOM     81  C   UNL A   1      43.882  28.436  35.896  1.00  0.00     0.058 A 
ATOM     82  C   UNL A   1      45.226  28.826  35.798  1.00  0.00     0.135 A 
ATOM     83  C   UNL A   1      43.576  27.348  36.732  1.00  0.00     0.135 A 
ATOM     84  F   UNL A   1      45.568  29.855  35.010  1.00  0.00    -0.206 F 
ATOM     85  C   UNL A   1      46.232  28.148  36.477  1.00  0.00     0.059 A 
ATOM     86  C   UNL A   1      44.561  26.677  37.448  1.00  0.00     0.059 A 
ATOM     87  F   UNL A   1      42.305  26.942  36.874  1.00  0.00    -0.206 F 
ATOM     88  C   UNL A   1      45.890  27.073  37.299  1.00  0.00     0.060 A 
BRANCH  88  89
ATOM     89  S   UNL A   1      47.204  26.208  38.182  1.00  0.00     0.124 S 
ATOM     90  O   UNL A   1      48.161  27.284  38.410  1.00  0.00    -0.237 OA
ATOM     91  O   UNL A   1      46.504  25.714  39.364  1.00  0.00    -0.237 OA
ATOM     92  O   UNL A   1      47.624  25.179  37.235  1.00  0.00    -0.744 OA
ENDBRANCH  88  89
ENDBRANCH  56  81
BRANCH  68  93
ATOM     93  C   UNL A   1      39.783  33.896  37.271  1.00  0.00     0.058 A 
ATOM     94  C   UNL A   1      40.476  35.113  37.344  1.00  0.00     0.135 A 
ATOM     95  C   UNL A   1      38.931  33.559  38.335  1.00  0.00     0.135 A 
ATOM     96  F   UNL A   1      41.310  35.477  36.355  1.00  0.00    -0.206 F 
ATOM     97  C   UNL A   1      40.350  35.955  38.442  1.00  0.00     0.059 A 
ATOM     98  C   UNL A   1      38.765  34.401  39.430  1.00  0.00     0.059 A 
ATOM     99  F   UNL A   1      38.237  32.410  38.310  1.00  0.00    -0.206 F 
ATOM    100  C   UNL A   1      39.488  35.591  39.480  1.00  0.00     0.060 A 
BRANCH 100 101
ATOM    101  S   UNL A   1      39.315  36.710  40.885  1.00  0.00     0.124 S 
ATOM    102  O   UNL A   1      40.705  36.891  41.290  1.00  0.00    -0.237 OA
ATOM    103  O   UNL A   1      38.674  37.872  40.279  1.00  0.00    -0.237 OA
ATOM    104  O   UNL A   1      38.484  35.957  41.820  1.00  0.00    -0.744 OA
ENDBRANCH 100 101
ENDBRANCH  68  93
ENDBRANCH  42  43
ENDBRANCH  34  37
ENDBRANCH  32  33
ENDBRANCH  31  32
ENDBRANCH   1  31
TORSDOF 18
ENDMDL
MODEL 3
REMARK VINA RESULT:     -11.7      0.883      7.974
REMARK SMILES Cc1cc(O[C@@H](C)C(=O)NCCC(=O)NCCCNC(=O)c2ccc(-c3c4nc(c(-c5c(F)cc(S(=O)(=O)[O-])cc5F)c5ccc([nH]5)c(-c5c(F)cc(S(=O)(=O)[O-])cc5F)c5nc(c(-c6c(F)cc(S(=O)(=O)[O-])cc6F)c6ccc3[nH]6)C=C5)C=C4)cc2)c2c3c(c(=O)oc2c1)CCCC3
REMARK SMILES IDX 16 1 15 2 13 3 14 4 12 6 11 7 10 8 8 9 9 10 6 12 7 13 5 14
REMARK SMILES IDX 4 15 1 16 2 17 3 18 95 19 94 20 88 21 93 22 89 23 91 24
REMARK SMILES IDX 90 25 99 26 92 27 96 28 98 29 97 30 17 31 18 32 19 33 20 34
REMARK SMILES IDX 21 36 22 37 23 38 87 39 24 40 86 41 25 42 26 43 27 44 80 45
REMARK SMILES IDX 28 46 85 47 79 48 81 49 29 50 84 51 78 52 77 53 30 55 64 56
REMARK SMILES IDX 43 57 63 58 44 59 47 60 62 61 82 62 45 63 46 64 61 66 83 67
REMARK SMILES IDX 48 68 31 69 32 70 41 71 33 72 34 73 40 74 42 75 35 76 36 77
REMARK SMILES IDX 37 78 38 79 39 80 65 81 66 82 75 83 67 84 68 85 74 86 76 87
REMARK SMILES IDX 69 88 70 89 71 90 72 91 73 92 49 93 50 94 59 95 51 96 52 97
REMARK SMILES IDX 58 98 60 99 53 100 54 101 55 102 56 103 57 104
REMARK H PARENT 15 5 10 11 19 35 81 54 47 65
REMARK Flexibility Score: inf
ROOT
ATOM      1  C   UNL A   1      34.907  23.643  23.661  1.00  0.00     0.117 C 
ENDROOT
BRANCH   1   2
ATOM      2  N   UNL A   1      34.072  22.670  24.336  1.00  0.00    -0.356 N 
ATOM      3  C   UNL A   1      32.883  22.881  24.961  1.00  0.00     0.221 C 
ATOM      4  O   UNL A   1      32.425  21.999  25.688  1.00  0.00    -0.275 OA
ATOM      5  H   UNL A   1      34.406  21.743  24.345  1.00  0.00     0.163 HD
BRANCH   3   6
ATOM      6  C   UNL A   1      32.140  24.175  24.730  1.00  0.00     0.121 C 
BRANCH   6   7
ATOM      7  C   UNL A   1      31.166  24.129  23.553  1.00  0.00     0.126 C 
BRANCH   7   8
ATOM      8  N   UNL A   1      31.795  24.520  22.302  1.00  0.00    -0.352 N 
ATOM      9  C   UNL A   1      31.969  25.712  21.683  1.00  0.00     0.260 C 
ATOM     10  O   UNL A   1      32.048  25.645  20.448  1.00  0.00    -0.271 OA
ATOM     11  H   UNL A   1      32.173  23.761  21.801  1.00  0.00     0.163 HD
BRANCH   9  12
ATOM     12  C   UNL A   1      32.218  27.063  22.408  1.00  0.00     0.258 C 
ATOM     13  C   UNL A   1      33.682  27.478  22.293  1.00  0.00     0.064 C 
BRANCH  12  14
ATOM     14  O   UNL A   1      31.561  27.551  23.562  1.00  0.00    -0.480 OA
BRANCH  14  15
ATOM     15  C   UNL A   1      30.756  28.640  23.617  1.00  0.00     0.132 A 
ATOM     16  C   UNL A   1      27.743  30.051  21.773  1.00  0.00     0.044 C 
ATOM     17  C   UNL A   1      28.812  29.889  22.817  1.00  0.00    -0.044 A 
ATOM     18  C   UNL A   1      29.575  28.715  22.868  1.00  0.00     0.050 A 
ATOM     19  C   UNL A   1      29.179  30.953  23.631  1.00  0.00     0.051 A 
ATOM     20  C   UNL A   1      30.268  30.814  24.495  1.00  0.00     0.142 A 
ATOM     21  C   UNL A   1      31.082  29.674  24.526  1.00  0.00     0.063 A 
ATOM     22  O   UNL A   1      30.487  31.916  25.337  1.00  0.00    -0.422 OA
ATOM     23  C   UNL A   1      32.183  29.656  25.531  1.00  0.00    -0.023 A 
ATOM     24  C   UNL A   1      31.408  31.866  26.361  1.00  0.00     0.339 A 
ATOM     25  C   UNL A   1      32.297  30.679  26.404  1.00  0.00     0.042 A 
ATOM     26  C   UNL A   1      33.128  28.473  25.616  1.00  0.00     0.037 C 
ATOM     27  O   UNL A   1      31.496  32.775  27.180  1.00  0.00    -0.246 OA
ATOM     28  C   UNL A   1      33.321  30.726  27.512  1.00  0.00     0.043 C 
ATOM     29  C   UNL A   1      33.934  28.377  26.914  1.00  0.00     0.005 C 
ATOM     30  C   UNL A   1      34.464  29.731  27.343  1.00  0.00     0.005 C 
ENDBRANCH  14  15
ENDBRANCH  12  14
ENDBRANCH   9  12
ENDBRANCH   7   8
ENDBRANCH   6   7
ENDBRANCH   3   6
ENDBRANCH   1   2
BRANCH   1  31
ATOM     31  C   UNL A   1      36.373  23.364  23.955  1.00  0.00     0.042 C 
BRANCH  31  32
ATOM     32  C   UNL A   1      36.741  23.584  25.410  1.00  0.00     0.118 C 
BRANCH  32  33
ATOM     33  N   UNL A   1      37.655  22.569  25.903  1.00  0.00    -0.352 N 
ATOM     34  C   UNL A   1      38.890  22.715  26.489  1.00  0.00     0.251 C 
ATOM     35  H   UNL A   1      37.344  21.640  25.803  1.00  0.00     0.163 HD
ATOM     36  O   UNL A   1      39.621  21.736  26.616  1.00  0.00    -0.269 OA
BRANCH  34  37
ATOM     37  C   UNL A   1      39.342  24.052  26.930  1.00  0.00     0.039 A 
ATOM     38  C   UNL A   1      39.930  24.932  26.023  1.00  0.00     0.014 A 
ATOM     39  C   UNL A   1      39.199  24.425  28.269  1.00  0.00     0.014 A 
ATOM     40  C   UNL A   1      40.574  26.069  26.486  1.00  0.00     0.010 A 
ATOM     41  C   UNL A   1      39.725  25.645  28.705  1.00  0.00     0.010 A 
ATOM     42  C   UNL A   1      40.462  26.458  27.828  1.00  0.00    -0.014 A 
BRANCH  42  43
ATOM     43  C   UNL A   1      41.106  27.719  28.284  1.00  0.00     0.031 A 
ATOM     44  C   UNL A   1      42.592  27.923  28.136  1.00  0.00     0.074 A 
ATOM     45  C   UNL A   1      40.334  28.707  28.785  1.00  0.00     0.049 A 
ATOM     46  N   UNL A   1      43.329  28.925  28.543  1.00  0.00    -0.248 NA
ATOM     47  C   UNL A   1      43.354  26.867  27.448  1.00  0.00     0.031 C 
ATOM     48  C   UNL A   1      38.877  28.644  28.947  1.00  0.00     0.029 A 
ATOM     49  N   UNL A   1      40.655  29.964  29.229  1.00  0.00    -0.354 N 
ATOM     50  C   UNL A   1      44.635  28.614  28.181  1.00  0.00     0.074 A 
ATOM     51  C   UNL A   1      44.599  27.313  27.548  1.00  0.00     0.031 C 
ATOM     52  C   UNL A   1      38.427  29.826  29.388  1.00  0.00     0.029 A 
ATOM     53  C   UNL A   1      39.566  30.698  29.639  1.00  0.00     0.049 A 
ATOM     54  H   UNL A   1      41.576  30.308  29.252  1.00  0.00     0.167 HD
ATOM     55  C   UNL A   1      45.758  29.353  28.347  1.00  0.00     0.037 A 
ATOM     56  C   UNL A   1      39.490  31.924  30.191  1.00  0.00     0.037 A 
ATOM     57  C   UNL A   1      45.779  30.660  28.954  1.00  0.00     0.049 A 
ATOM     58  C   UNL A   1      40.763  32.681  30.441  1.00  0.00     0.074 A 
ATOM     59  C   UNL A   1      46.868  31.486  29.178  1.00  0.00     0.029 A 
ATOM     60  N   UNL A   1      44.662  31.338  29.420  1.00  0.00    -0.354 N 
ATOM     61  N   UNL A   1      41.992  32.354  30.124  1.00  0.00    -0.248 NA
ATOM     62  C   UNL A   1      40.641  33.968  31.139  1.00  0.00     0.031 C 
ATOM     63  C   UNL A   1      46.414  32.646  29.814  1.00  0.00     0.029 A 
ATOM     64  C   UNL A   1      45.037  32.566  29.942  1.00  0.00     0.049 A 
ATOM     65  H   UNL A   1      43.739  30.999  29.384  1.00  0.00     0.167 HD
ATOM     66  C   UNL A   1      42.788  33.404  30.567  1.00  0.00     0.074 A 
ATOM     67  C   UNL A   1      41.898  34.386  31.150  1.00  0.00     0.031 C 
ATOM     68  C   UNL A   1      44.136  33.537  30.506  1.00  0.00     0.037 A 
BRANCH  55  69
ATOM     69  C   UNL A   1      47.066  28.786  27.865  1.00  0.00     0.058 A 
ATOM     70  C   UNL A   1      47.896  28.038  28.713  1.00  0.00     0.135 A 
ATOM     71  C   UNL A   1      47.441  28.902  26.515  1.00  0.00     0.135 A 
ATOM     72  F   UNL A   1      47.597  27.912  30.015  1.00  0.00    -0.206 F 
ATOM     73  C   UNL A   1      49.050  27.421  28.241  1.00  0.00     0.059 A 
ATOM     74  C   UNL A   1      48.579  28.271  26.017  1.00  0.00     0.059 A 
ATOM     75  F   UNL A   1      46.685  29.609  25.662  1.00  0.00    -0.206 F 
ATOM     76  C   UNL A   1      49.377  27.533  26.888  1.00  0.00     0.060 A 
BRANCH  76  77
ATOM     77  S   UNL A   1      50.847  26.674  26.288  1.00  0.00     0.124 S 
ATOM     78  O   UNL A   1      51.913  27.557  26.752  1.00  0.00    -0.237 OA
ATOM     79  O   UNL A   1      50.751  25.387  26.968  1.00  0.00    -0.237 OA
ATOM     80  O   UNL A   1      50.655  26.633  24.842  1.00  0.00    -0.744 OA
ENDBRANCH  76  77
ENDBRANCH  55  69
BRANCH  56  81
ATOM     81  C   UNL A   1      38.172  32.498  30.573  1.00  0.00     0.058 A 
ATOM     82  C   UNL A   1      37.418  33.243  29.654  1.00  0.00     0.135 A 
ATOM     83  C   UNL A   1      37.647  32.332  31.866  1.00  0.00     0.135 A 
ATOM     84  F   UNL A   1      37.879  33.434  28.409  1.00  0.00    -0.206 F 
ATOM     85  C   UNL A   1      36.206  33.825  30.008  1.00  0.00     0.059 A 
ATOM     86  C   UNL A   1      36.420  32.875  32.232  1.00  0.00     0.059 A 
ATOM     87  F   UNL A   1      38.319  31.616  32.781  1.00  0.00    -0.206 F 
ATOM     88  C   UNL A   1      35.716  33.637  31.301  1.00  0.00     0.060 A 
BRANCH  88  89
ATOM     89  S   UNL A   1      34.138  34.390  31.745  1.00  0.00     0.124 S 
ATOM     90  O   UNL A   1      33.483  34.483  30.446  1.00  0.00    -0.237 OA
ATOM     91  O   UNL A   1      33.581  33.409  32.672  1.00  0.00    -0.237 OA
ATOM     92  O   UNL A   1      34.529  35.661  32.347  1.00  0.00    -0.744 OA
ENDBRANCH  88  89
ENDBRANCH  56  81
BRANCH  68  93
ATOM     93  C   UNL A   1      44.726  34.806  31.055  1.00  0.00     0.058 A 
ATOM     94  C   UNL A   1      45.159  34.899  32.386  1.00  0.00     0.135 A 
ATOM     95  C   UNL A   1      44.899  35.927  30.226  1.00  0.00     0.135 A 
ATOM     96  F   UNL A   1      45.007  33.858  33.221  1.00  0.00    -0.206 F 
ATOM     97  C   UNL A   1      45.721  36.067  32.885  1.00  0.00     0.059 A 
ATOM     98  C   UNL A   1      45.489  37.096  30.696  1.00  0.00     0.059 A 
ATOM     99  F   UNL A   1      44.511  35.886  28.942  1.00  0.00    -0.206 F 
ATOM    100  C   UNL A   1      45.885  37.160  32.031  1.00  0.00     0.060 A 
BRANCH 100 101
ATOM    101  S   UNL A   1      46.644  38.659  32.690  1.00  0.00     0.124 S 
ATOM    102  O   UNL A   1      46.481  39.587  31.576  1.00  0.00    -0.237 OA
ATOM    103  O   UNL A   1      45.826  38.929  33.867  1.00  0.00    -0.237 OA
ATOM    104  O   UNL A   1      48.019  38.251  32.967  1.00  0.00    -0.744 OA
ENDBRANCH 100 101
ENDBRANCH  68  93
ENDBRANCH  42  43
ENDBRANCH  34  37
ENDBRANCH  32  33
ENDBRANCH  31  32
ENDBRANCH   1  31
TORSDOF 18
ENDMDL
