MODEL 1
REMARK VINA RESULT:     -11.2      0.000      0.000
REMARK SMILES Cn1cc(/C=C/C(=O)N(CC(=O)NCCCNC(=O)c2ccc(-c3c4nc(c(-c5c(F)cc(S(=O)(=O)[O-])cc5F)c5ccc([nH]5)c(-c5c(F)cc(S(=O)(=O)[O-])cc5F)c5nc(c(-c6c(F)cc(S(=O)(=O)[O-])cc6F)c6ccc3[nH]6)C=C5)C=C4)cc2)C(C)(C)C)cn1
REMARK SMILES IDX 14 1 13 2 11 3 12 4 10 6 9 7 7 8 8 9 6 10 5 11 4 12 1 13
REMARK SMILES IDX 2 14 3 15 91 16 90 17 86 18 87 19 88 20 89 21 15 22 16 23
REMARK SMILES IDX 17 24 18 25 19 27 20 28 21 29 85 30 22 31 84 32 23 33 24 34
REMARK SMILES IDX 25 35 78 36 26 37 83 38 77 39 79 40 27 41 82 42 76 43 75 44
REMARK SMILES IDX 28 46 62 47 41 48 61 49 42 50 45 51 60 52 80 53 43 54 44 55
REMARK SMILES IDX 59 57 81 58 46 59 29 60 30 61 39 62 31 63 32 64 38 65 40 66
REMARK SMILES IDX 33 67 34 68 35 69 36 70 37 71 63 72 64 73 73 74 65 75 66 76
REMARK SMILES IDX 72 77 74 78 67 79 68 80 69 81 70 82 71 83 47 84 48 85 57 86
REMARK SMILES IDX 49 87 50 88 56 89 58 90 51 91 52 92 53 93 54 94 55 95
REMARK H PARENT 13 5 17 26 79 45 45 56
REMARK Flexibility Score: inf
ROOT
ATOM      1  C   UNL A   1      32.617  26.065  26.421  1.00  0.00     0.117 C 
ENDROOT
BRANCH   1   2
ATOM      2  N   UNL A   1      31.461  25.309  26.864  1.00  0.00    -0.354 N 
ATOM      3  C   UNL A   1      30.856  24.190  26.379  1.00  0.00     0.239 C 
ATOM      4  O   UNL A   1      30.118  23.589  27.171  1.00  0.00    -0.273 OA
ATOM      5  H   UNL A   1      31.031  25.676  27.670  1.00  0.00     0.163 HD
BRANCH   3   6
ATOM      6  C   UNL A   1      31.146  23.561  25.000  1.00  0.00     0.220 C 
BRANCH   6   7
ATOM      7  N   UNL A   1      32.428  22.877  24.805  1.00  0.00    -0.325 N 
BRANCH   7   8
ATOM      8  C   UNL A   1      32.956  21.924  25.680  1.00  0.00     0.247 C 
ATOM      9  O   UNL A   1      33.514  22.251  26.731  1.00  0.00    -0.270 OA
BRANCH   8  10
ATOM     10  C   UNL A   1      32.950  20.430  25.455  1.00  0.00     0.072 C 
ATOM     11  C   UNL A   1      33.779  19.598  24.805  1.00  0.00     0.017 C 
BRANCH  11  12
ATOM     12  C   UNL A   1      33.576  18.219  24.519  1.00  0.00     0.013 A 
ATOM     13  C   UNL A   1      32.635  14.870  25.419  1.00  0.00     0.173 C 
ATOM     14  N   UNL A   1      33.063  16.116  24.833  1.00  0.00    -0.275 N 
ATOM     15  C   UNL A   1      32.987  17.349  25.407  1.00  0.00     0.116 A 
ATOM     16  N   UNL A   1      33.638  16.127  23.617  1.00  0.00    -0.181 NA
ATOM     17  C   UNL A   1      33.961  17.413  23.430  1.00  0.00     0.143 A 
ENDBRANCH  11  12
ENDBRANCH   8  10
ENDBRANCH   7   8
BRANCH   7  18
ATOM     18  C   UNL A   1      33.190  23.194  23.516  1.00  0.00     0.035 C 
ATOM     19  C   UNL A   1      34.712  23.036  23.696  1.00  0.00     0.034 C 
ATOM     20  C   UNL A   1      32.705  22.284  22.361  1.00  0.00     0.034 C 
ATOM     21  C   UNL A   1      32.990  24.648  22.995  1.00  0.00     0.034 C 
ENDBRANCH   7  18
ENDBRANCH   6   7
ENDBRANCH   3   6
ENDBRANCH   1   2
BRANCH   1  22
ATOM     22  C   UNL A   1      32.499  27.572  26.553  1.00  0.00     0.042 C 
BRANCH  22  23
ATOM     23  C   UNL A   1      33.829  28.295  26.673  1.00  0.00     0.118 C 
BRANCH  23  24
ATOM     24  N   UNL A   1      33.664  29.680  27.088  1.00  0.00    -0.352 N 
ATOM     25  C   UNL A   1      34.492  30.468  27.852  1.00  0.00     0.251 C 
ATOM     26  H   UNL A   1      32.838  30.116  26.777  1.00  0.00     0.163 HD
ATOM     27  O   UNL A   1      34.079  31.543  28.272  1.00  0.00    -0.269 OA
BRANCH  25  28
ATOM     28  C   UNL A   1      35.865  30.018  28.177  1.00  0.00     0.039 A 
ATOM     29  C   UNL A   1      36.853  30.098  27.192  1.00  0.00     0.014 A 
ATOM     30  C   UNL A   1      36.176  29.494  29.435  1.00  0.00     0.014 A 
ATOM     31  C   UNL A   1      38.162  29.705  27.487  1.00  0.00     0.010 A 
ATOM     32  C   UNL A   1      37.495  29.174  29.750  1.00  0.00     0.010 A 
ATOM     33  C   UNL A   1      38.501  29.267  28.777  1.00  0.00    -0.014 A 
BRANCH  33  34
ATOM     34  C   UNL A   1      39.897  28.897  29.128  1.00  0.00     0.031 A 
ATOM     35  C   UNL A   1      40.797  29.899  29.805  1.00  0.00     0.074 A 
ATOM     36  C   UNL A   1      40.377  27.687  28.776  1.00  0.00     0.049 A 
ATOM     37  N   UNL A   1      42.063  29.793  30.116  1.00  0.00    -0.248 NA
ATOM     38  C   UNL A   1      40.204  31.201  30.156  1.00  0.00     0.031 C 
ATOM     39  C   UNL A   1      39.621  26.649  28.070  1.00  0.00     0.029 A 
ATOM     40  N   UNL A   1      41.619  27.128  28.948  1.00  0.00    -0.354 N 
ATOM     41  C   UNL A   1      42.423  31.016  30.670  1.00  0.00     0.074 A 
ATOM     42  C   UNL A   1      41.253  31.864  30.622  1.00  0.00     0.031 C 
ATOM     43  C   UNL A   1      40.410  25.578  27.883  1.00  0.00     0.029 A 
ATOM     44  C   UNL A   1      41.737  25.863  28.420  1.00  0.00     0.049 A 
ATOM     45  H   UNL A   1      42.358  27.591  29.405  1.00  0.00     0.167 HD
ATOM     46  C   UNL A   1      43.618  31.391  31.186  1.00  0.00     0.037 A 
ATOM     47  C   UNL A   1      42.796  25.033  28.364  1.00  0.00     0.037 A 
ATOM     48  C   UNL A   1      44.764  30.526  31.280  1.00  0.00     0.049 A 
ATOM     49  C   UNL A   1      44.105  25.472  28.966  1.00  0.00     0.074 A 
ATOM     50  C   UNL A   1      45.987  30.784  31.875  1.00  0.00     0.029 A 
ATOM     51  N   UNL A   1      44.831  29.238  30.770  1.00  0.00    -0.354 N 
ATOM     52  N   UNL A   1      44.401  26.602  29.564  1.00  0.00    -0.248 NA
ATOM     53  C   UNL A   1      45.225  24.522  28.891  1.00  0.00     0.031 C 
ATOM     54  C   UNL A   1      46.810  29.669  31.684  1.00  0.00     0.029 A 
ATOM     55  C   UNL A   1      46.083  28.700  31.013  1.00  0.00     0.049 A 
ATOM     56  H   UNL A   1      44.098  28.776  30.302  1.00  0.00     0.167 HD
ATOM     57  C   UNL A   1      45.727  26.483  29.966  1.00  0.00     0.074 A 
ATOM     58  C   UNL A   1      46.174  25.169  29.553  1.00  0.00     0.031 C 
ATOM     59  C   UNL A   1      46.506  27.381  30.616  1.00  0.00     0.037 A 
BRANCH  46  60
ATOM     60  C   UNL A   1      43.760  32.795  31.705  1.00  0.00     0.058 A 
ATOM     61  C   UNL A   1      43.920  33.889  30.841  1.00  0.00     0.135 A 
ATOM     62  C   UNL A   1      43.640  33.057  33.080  1.00  0.00     0.135 A 
ATOM     63  F   UNL A   1      44.055  33.694  29.520  1.00  0.00    -0.206 F 
ATOM     64  C   UNL A   1      43.959  35.194  31.323  1.00  0.00     0.059 A 
ATOM     65  C   UNL A   1      43.652  34.355  33.580  1.00  0.00     0.059 A 
ATOM     66  F   UNL A   1      43.488  32.045  33.950  1.00  0.00    -0.206 F 
ATOM     67  C   UNL A   1      43.816  35.418  32.694  1.00  0.00     0.060 A 
BRANCH  67  68
ATOM     68  S   UNL A   1      43.816  37.120  33.294  1.00  0.00     0.124 S 
ATOM     69  O   UNL A   1      45.017  37.136  34.123  1.00  0.00    -0.237 OA
ATOM     70  O   UNL A   1      43.891  37.888  32.054  1.00  0.00    -0.237 OA
ATOM     71  O   UNL A   1      42.553  37.226  34.017  1.00  0.00    -0.744 OA
ENDBRANCH  67  68
ENDBRANCH  46  60
BRANCH  47  72
ATOM     72  C   UNL A   1      42.676  23.696  27.720  1.00  0.00     0.058 A 
ATOM     73  C   UNL A   1      42.422  22.547  28.484  1.00  0.00     0.135 A 
ATOM     74  C   UNL A   1      42.852  23.535  26.337  1.00  0.00     0.135 A 
ATOM     75  F   UNL A   1      42.250  22.648  29.810  1.00  0.00    -0.206 F 
ATOM     76  C   UNL A   1      42.388  21.281  27.908  1.00  0.00     0.059 A 
ATOM     77  C   UNL A   1      42.795  22.282  25.734  1.00  0.00     0.059 A 
ATOM     78  F   UNL A   1      43.078  24.605  25.558  1.00  0.00    -0.206 F 
ATOM     79  C   UNL A   1      42.584  21.159  26.532  1.00  0.00     0.060 A 
BRANCH  79  80
ATOM     80  S   UNL A   1      42.545  19.512  25.793  1.00  0.00     0.124 S 
ATOM     81  O   UNL A   1      41.143  19.398  25.407  1.00  0.00    -0.237 OA
ATOM     82  O   UNL A   1      43.500  19.641  24.697  1.00  0.00    -0.237 OA
ATOM     83  O   UNL A   1      42.972  18.644  26.888  1.00  0.00    -0.744 OA
ENDBRANCH  79  80
ENDBRANCH  47  72
BRANCH  59  84
ATOM     84  C   UNL A   1      47.906  26.961  30.969  1.00  0.00     0.058 A 
ATOM     85  C   UNL A   1      48.179  26.184  32.106  1.00  0.00     0.135 A 
ATOM     86  C   UNL A   1      48.979  27.297  30.129  1.00  0.00     0.135 A 
ATOM     87  F   UNL A   1      47.189  25.843  32.945  1.00  0.00    -0.206 F 
ATOM     88  C   UNL A   1      49.472  25.773  32.408  1.00  0.00     0.059 A 
ATOM     89  C   UNL A   1      50.276  26.873  30.398  1.00  0.00     0.059 A 
ATOM     90  F   UNL A   1      48.770  28.030  29.023  1.00  0.00    -0.206 F 
ATOM     91  C   UNL A   1      50.515  26.121  31.547  1.00  0.00     0.060 A 
BRANCH  91  92
ATOM     92  S   UNL A   1      52.184  25.551  31.932  1.00  0.00     0.124 S 
ATOM     93  O   UNL A   1      52.528  26.396  33.070  1.00  0.00    -0.237 OA
ATOM     94  O   UNL A   1      51.973  24.139  32.231  1.00  0.00    -0.237 OA
ATOM     95  O   UNL A   1      52.926  25.820  30.704  1.00  0.00    -0.744 OA
ENDBRANCH  91  92
ENDBRANCH  59  84
ENDBRANCH  33  34
ENDBRANCH  25  28
ENDBRANCH  23  24
ENDBRANCH  22  23
ENDBRANCH   1  22
TORSDOF 18
ENDMDL
MODEL 2
REMARK VINA RESULT:     -11.0      4.573     10.563
REMARK SMILES Cn1cc(/C=C/C(=O)N(CC(=O)NCCCNC(=O)c2ccc(-c3c4nc(c(-c5c(F)cc(S(=O)(=O)[O-])cc5F)c5ccc([nH]5)c(-c5c(F)cc(S(=O)(=O)[O-])cc5F)c5nc(c(-c6c(F)cc(S(=O)(=O)[O-])cc6F)c6ccc3[nH]6)C=C5)C=C4)cc2)C(C)(C)C)cn1
REMARK SMILES IDX 14 1 13 2 11 3 12 4 10 6 9 7 7 8 8 9 6 10 5 11 4 12 1 13
REMARK SMILES IDX 2 14 3 15 91 16 90 17 86 18 87 19 88 20 89 21 15 22 16 23
REMARK SMILES IDX 17 24 18 25 19 27 20 28 21 29 85 30 22 31 84 32 23 33 24 34
REMARK SMILES IDX 25 35 78 36 26 37 83 38 77 39 79 40 27 41 82 42 76 43 75 44
REMARK SMILES IDX 28 46 62 47 41 48 61 49 42 50 45 51 60 52 80 53 43 54 44 55
REMARK SMILES IDX 59 57 81 58 46 59 29 60 30 61 39 62 31 63 32 64 38 65 40 66
REMARK SMILES IDX 33 67 34 68 35 69 36 70 37 71 63 72 64 73 73 74 65 75 66 76
REMARK SMILES IDX 72 77 74 78 67 79 68 80 69 81 70 82 71 83 47 84 48 85 57 86
REMARK SMILES IDX 49 87 50 88 56 89 58 90 51 91 52 92 53 93 54 94 55 95
REMARK H PARENT 13 5 17 26 79 45 45 56
REMARK Flexibility Score: inf
ROOT
ATOM      1  C   UNL A   1      37.883  23.223  25.931  1.00  0.00     0.117 C 
ENDROOT
BRANCH   1   2
ATOM      2  N   UNL A   1      37.470  23.193  24.541  1.00  0.00    -0.354 N 
ATOM      3  C   UNL A   1      36.388  22.651  23.917  1.00  0.00     0.239 C 
ATOM      4  O   UNL A   1      36.136  23.097  22.790  1.00  0.00    -0.273 OA
ATOM      5  H   UNL A   1      38.091  23.654  23.931  1.00  0.00     0.163 HD
BRANCH   3   6
ATOM      6  C   UNL A   1      35.401  21.661  24.570  1.00  0.00     0.220 C 
BRANCH   6   7
ATOM      7  N   UNL A   1      34.132  22.184  25.084  1.00  0.00    -0.325 N 
BRANCH   7   8
ATOM      8  C   UNL A   1      34.023  23.182  26.056  1.00  0.00     0.247 C 
ATOM      9  O   UNL A   1      34.306  22.964  27.238  1.00  0.00    -0.270 OA
BRANCH   8  10
ATOM     10  C   UNL A   1      33.534  24.590  25.816  1.00  0.00     0.072 C 
ATOM     11  C   UNL A   1      34.159  25.738  25.510  1.00  0.00     0.017 C 
BRANCH  11  12
ATOM     12  C   UNL A   1      33.603  27.046  25.472  1.00  0.00     0.013 A 
ATOM     13  C   UNL A   1      33.119  30.355  26.789  1.00  0.00     0.173 C 
ATOM     14  N   UNL A   1      33.157  29.100  26.079  1.00  0.00    -0.275 N 
ATOM     15  C   UNL A   1      33.967  28.040  26.353  1.00  0.00     0.116 A 
ATOM     16  N   UNL A   1      32.306  28.875  25.061  1.00  0.00    -0.181 NA
ATOM     17  C   UNL A   1      32.573  27.614  24.698  1.00  0.00     0.143 A 
ENDBRANCH  11  12
ENDBRANCH   8  10
ENDBRANCH   7   8
BRANCH   7  18
ATOM     18  C   UNL A   1      32.852  21.635  24.448  1.00  0.00     0.035 C 
ATOM     19  C   UNL A   1      31.632  21.807  25.375  1.00  0.00     0.034 C 
ATOM     20  C   UNL A   1      32.577  22.329  23.092  1.00  0.00     0.034 C 
ATOM     21  C   UNL A   1      32.902  20.113  24.120  1.00  0.00     0.034 C 
ENDBRANCH   7  18
ENDBRANCH   6   7
ENDBRANCH   3   6
ENDBRANCH   1   2
BRANCH   1  22
ATOM     22  C   UNL A   1      39.077  22.351  26.274  1.00  0.00     0.042 C 
BRANCH  22  23
ATOM     23  C   UNL A   1      40.164  23.060  27.061  1.00  0.00     0.118 C 
BRANCH  23  24
ATOM     24  N   UNL A   1      41.258  23.502  26.208  1.00  0.00    -0.352 N 
ATOM     25  C   UNL A   1      41.888  24.723  26.155  1.00  0.00     0.251 C 
ATOM     26  H   UNL A   1      41.596  22.827  25.575  1.00  0.00     0.163 HD
ATOM     27  O   UNL A   1      42.645  24.969  25.223  1.00  0.00    -0.269 OA
BRANCH  25  28
ATOM     28  C   UNL A   1      41.644  25.738  27.207  1.00  0.00     0.039 A 
ATOM     29  C   UNL A   1      40.549  25.578  28.059  1.00  0.00     0.014 A 
ATOM     30  C   UNL A   1      42.472  26.857  27.337  1.00  0.00     0.014 A 
ATOM     31  C   UNL A   1      40.317  26.510  29.076  1.00  0.00     0.010 A 
ATOM     32  C   UNL A   1      42.285  27.742  28.396  1.00  0.00     0.010 A 
ATOM     33  C   UNL A   1      41.200  27.584  29.272  1.00  0.00    -0.014 A 
BRANCH  33  34
ATOM     34  C   UNL A   1      41.005  28.555  30.380  1.00  0.00     0.031 A 
ATOM     35  C   UNL A   1      41.837  28.449  31.632  1.00  0.00     0.074 A 
ATOM     36  C   UNL A   1      40.033  29.486  30.290  1.00  0.00     0.049 A 
ATOM     37  N   UNL A   1      41.760  29.148  32.735  1.00  0.00    -0.248 NA
ATOM     38  C   UNL A   1      42.877  27.406  31.659  1.00  0.00     0.031 C 
ATOM     39  C   UNL A   1      39.125  29.656  29.152  1.00  0.00     0.029 A 
ATOM     40  N   UNL A   1      39.634  30.456  31.177  1.00  0.00    -0.354 N 
ATOM     41  C   UNL A   1      42.715  28.613  33.593  1.00  0.00     0.074 A 
ATOM     42  C   UNL A   1      43.338  27.509  32.898  1.00  0.00     0.031 C 
ATOM     43  C   UNL A   1      38.287  30.675  29.404  1.00  0.00     0.029 A 
ATOM     44  C   UNL A   1      38.570  31.207  30.734  1.00  0.00     0.049 A 
ATOM     45  H   UNL A   1      40.067  30.598  32.049  1.00  0.00     0.167 HD
ATOM     46  C   UNL A   1      43.052  29.018  34.841  1.00  0.00     0.037 A 
ATOM     47  C   UNL A   1      37.893  32.205  31.335  1.00  0.00     0.037 A 
ATOM     48  C   UNL A   1      42.466  30.151  35.507  1.00  0.00     0.049 A 
ATOM     49  C   UNL A   1      38.306  32.645  32.715  1.00  0.00     0.074 A 
ATOM     50  C   UNL A   1      42.810  30.698  36.732  1.00  0.00     0.029 A 
ATOM     51  N   UNL A   1      41.419  30.911  35.009  1.00  0.00    -0.354 N 
ATOM     52  N   UNL A   1      39.271  32.183  33.474  1.00  0.00    -0.248 NA
ATOM     53  C   UNL A   1      37.543  33.747  33.319  1.00  0.00     0.031 C 
ATOM     54  C   UNL A   1      41.941  31.761  36.996  1.00  0.00     0.029 A 
ATOM     55  C   UNL A   1      41.088  31.906  35.914  1.00  0.00     0.049 A 
ATOM     56  H   UNL A   1      40.977  30.766  34.142  1.00  0.00     0.167 HD
ATOM     57  C   UNL A   1      39.251  32.960  34.628  1.00  0.00     0.074 A 
ATOM     58  C   UNL A   1      38.187  33.928  34.463  1.00  0.00     0.031 C 
ATOM     59  C   UNL A   1      40.041  32.878  35.726  1.00  0.00     0.037 A 
BRANCH  46  60
ATOM     60  C   UNL A   1      44.111  28.246  35.578  1.00  0.00     0.058 A 
ATOM     61  C   UNL A   1      43.790  27.169  36.418  1.00  0.00     0.135 A 
ATOM     62  C   UNL A   1      45.471  28.530  35.365  1.00  0.00     0.135 A 
ATOM     63  F   UNL A   1      42.507  26.865  36.668  1.00  0.00    -0.206 F 
ATOM     64  C   UNL A   1      44.780  26.402  37.025  1.00  0.00     0.059 A 
ATOM     65  C   UNL A   1      46.476  27.761  35.942  1.00  0.00     0.059 A 
ATOM     66  F   UNL A   1      45.831  29.552  34.573  1.00  0.00    -0.206 F 
ATOM     67  C   UNL A   1      46.121  26.701  36.774  1.00  0.00     0.060 A 
BRANCH  67  68
ATOM     68  S   UNL A   1      47.390  25.663  37.527  1.00  0.00     0.124 S 
ATOM     69  O   UNL A   1      47.584  24.646  36.497  1.00  0.00    -0.237 OA
ATOM     70  O   UNL A   1      48.495  26.600  37.706  1.00  0.00    -0.237 OA
ATOM     71  O   UNL A   1      46.762  25.195  38.758  1.00  0.00    -0.744 OA
ENDBRANCH  67  68
ENDBRANCH  46  60
BRANCH  47  72
ATOM     72  C   UNL A   1      36.752  32.868  30.644  1.00  0.00     0.058 A 
ATOM     73  C   UNL A   1      36.972  33.856  29.674  1.00  0.00     0.135 A 
ATOM     74  C   UNL A   1      35.423  32.555  30.969  1.00  0.00     0.135 A 
ATOM     75  F   UNL A   1      38.225  34.194  29.333  1.00  0.00    -0.206 F 
ATOM     76  C   UNL A   1      35.918  34.543  29.080  1.00  0.00     0.059 A 
ATOM     77  C   UNL A   1      34.351  33.207  30.367  1.00  0.00     0.059 A 
ATOM     78  F   UNL A   1      35.157  31.602  31.877  1.00  0.00    -0.206 F 
ATOM     79  C   UNL A   1      34.610  34.215  29.440  1.00  0.00     0.060 A 
BRANCH  79  80
ATOM     80  S   UNL A   1      33.247  35.114  28.668  1.00  0.00     0.124 S 
ATOM     81  O   UNL A   1      33.963  36.125  27.898  1.00  0.00    -0.237 OA
ATOM     82  O   UNL A   1      32.586  34.069  27.893  1.00  0.00    -0.237 OA
ATOM     83  O   UNL A   1      32.486  35.612  29.811  1.00  0.00    -0.744 OA
ENDBRANCH  79  80
ENDBRANCH  47  72
BRANCH  59  84
ATOM     84  C   UNL A   1      39.824  33.890  36.816  1.00  0.00     0.058 A 
ATOM     85  C   UNL A   1      39.059  33.596  37.955  1.00  0.00     0.135 A 
ATOM     86  C   UNL A   1      40.434  35.152  36.741  1.00  0.00     0.135 A 
ATOM     87  F   UNL A   1      38.449  32.406  38.071  1.00  0.00    -0.206 F 
ATOM     88  C   UNL A   1      38.889  34.527  38.974  1.00  0.00     0.059 A 
ATOM     89  C   UNL A   1      40.300  36.088  37.761  1.00  0.00     0.059 A 
ATOM     90  F   UNL A   1      41.185  35.480  35.677  1.00  0.00    -0.206 F 
ATOM     91  C   UNL A   1      39.515  35.771  38.869  1.00  0.00     0.060 A 
BRANCH  91  92
ATOM     92  S   UNL A   1      39.316  36.958  40.214  1.00  0.00     0.124 S 
ATOM     93  O   UNL A   1      38.376  36.260  41.085  1.00  0.00    -0.237 OA
ATOM     94  O   UNL A   1      40.677  37.086  40.724  1.00  0.00    -0.237 OA
ATOM     95  O   UNL A   1      38.790  38.144  39.545  1.00  0.00    -0.744 OA
ENDBRANCH  91  92
ENDBRANCH  59  84
ENDBRANCH  33  34
ENDBRANCH  25  28
ENDBRANCH  23  24
ENDBRANCH  22  23
ENDBRANCH   1  22
TORSDOF 18
ENDMDL
MODEL 3
REMARK VINA RESULT:     -10.8      3.528      4.574
REMARK SMILES Cn1cc(/C=C/C(=O)N(CC(=O)NCCCNC(=O)c2ccc(-c3c4nc(c(-c5c(F)cc(S(=O)(=O)[O-])cc5F)c5ccc([nH]5)c(-c5c(F)cc(S(=O)(=O)[O-])cc5F)c5nc(c(-c6c(F)cc(S(=O)(=O)[O-])cc6F)c6ccc3[nH]6)C=C5)C=C4)cc2)C(C)(C)C)cn1
REMARK SMILES IDX 14 1 13 2 11 3 12 4 10 6 9 7 7 8 8 9 6 10 5 11 4 12 1 13
REMARK SMILES IDX 2 14 3 15 91 16 90 17 86 18 87 19 88 20 89 21 15 22 16 23
REMARK SMILES IDX 17 24 18 25 19 27 20 28 21 29 85 30 22 31 84 32 23 33 24 34
REMARK SMILES IDX 25 35 78 36 26 37 83 38 77 39 79 40 27 41 82 42 76 43 75 44
REMARK SMILES IDX 28 46 62 47 41 48 61 49 42 50 45 51 60 52 80 53 43 54 44 55
REMARK SMILES IDX 59 57 81 58 46 59 29 60 30 61 39 62 31 63 32 64 38 65 40 66
REMARK SMILES IDX 33 67 34 68 35 69 36 70 37 71 63 72 64 73 73 74 65 75 66 76
REMARK SMILES IDX 72 77 74 78 67 79 68 80 69 81 70 82 71 83 47 84 48 85 57 86
REMARK SMILES IDX 49 87 50 88 56 89 58 90 51 91 52 92 53 93 54 94 55 95
REMARK H PARENT 13 5 17 26 79 45 45 56
REMARK Flexibility Score: inf
ROOT
ATOM      1  C   UNL A   1      33.454  30.831  27.095  1.00  0.00     0.117 C 
ENDROOT
BRANCH   1   2
ATOM      2  N   UNL A   1      33.870  29.906  26.059  1.00  0.00    -0.354 N 
ATOM      3  C   UNL A   1      33.176  29.041  25.269  1.00  0.00     0.239 C 
ATOM      4  O   UNL A   1      33.760  28.657  24.247  1.00  0.00    -0.273 OA
ATOM      5  H   UNL A   1      34.841  29.903  25.894  1.00  0.00     0.163 HD
BRANCH   3   6
ATOM      6  C   UNL A   1      31.700  28.647  25.482  1.00  0.00     0.220 C 
BRANCH   6   7
ATOM      7  N   UNL A   1      31.263  27.324  25.027  1.00  0.00    -0.325 N 
BRANCH   7   8
ATOM      8  C   UNL A   1      31.489  26.133  25.724  1.00  0.00     0.247 C 
ATOM      9  O   UNL A   1      30.816  25.826  26.712  1.00  0.00    -0.270 OA
BRANCH   8  10
ATOM     10  C   UNL A   1      32.560  25.119  25.400  1.00  0.00     0.072 C 
ATOM     11  C   UNL A   1      33.889  25.096  25.591  1.00  0.00     0.017 C 
BRANCH  11  12
ATOM     12  C   UNL A   1      34.822  24.149  25.088  1.00  0.00     0.013 A 
ATOM     13  C   UNL A   1      37.783  22.128  25.346  1.00  0.00     0.173 C 
ATOM     14  N   UNL A   1      36.574  22.841  25.013  1.00  0.00    -0.275 N 
ATOM     15  C   UNL A   1      35.833  23.614  25.855  1.00  0.00     0.116 A 
ATOM     16  N   UNL A   1      36.100  22.813  23.755  1.00  0.00    -0.181 NA
ATOM     17  C   UNL A   1      35.034  23.622  23.799  1.00  0.00     0.143 A 
ENDBRANCH  11  12
ENDBRANCH   8  10
ENDBRANCH   7   8
BRANCH   7  18
ATOM     18  C   UNL A   1      30.446  27.275  23.733  1.00  0.00     0.035 C 
ATOM     19  C   UNL A   1      29.244  26.317  23.850  1.00  0.00     0.034 C 
ATOM     20  C   UNL A   1      29.949  28.690  23.350  1.00  0.00     0.034 C 
ATOM     21  C   UNL A   1      31.244  26.778  22.491  1.00  0.00     0.034 C 
ENDBRANCH   7  18
ENDBRANCH   6   7
ENDBRANCH   3   6
ENDBRANCH   1   2
BRANCH   1  22
ATOM     22  C   UNL A   1      34.580  31.517  27.847  1.00  0.00     0.042 C 
BRANCH  22  23
ATOM     23  C   UNL A   1      35.520  30.568  28.567  1.00  0.00     0.118 C 
BRANCH  23  24
ATOM     24  N   UNL A   1      35.504  30.769  30.009  1.00  0.00    -0.352 N 
ATOM     25  C   UNL A   1      36.481  30.507  30.940  1.00  0.00     0.251 C 
ATOM     26  H   UNL A   1      34.670  31.148  30.370  1.00  0.00     0.163 HD
ATOM     27  O   UNL A   1      36.201  30.546  32.133  1.00  0.00    -0.269 OA
BRANCH  25  28
ATOM     28  C   UNL A   1      37.857  30.168  30.507  1.00  0.00     0.039 A 
ATOM     29  C   UNL A   1      38.732  29.590  31.430  1.00  0.00     0.014 A 
ATOM     30  C   UNL A   1      38.295  30.442  29.208  1.00  0.00     0.014 A 
ATOM     31  C   UNL A   1      40.025  29.236  31.035  1.00  0.00     0.010 A 
ATOM     32  C   UNL A   1      39.557  30.020  28.795  1.00  0.00     0.010 A 
ATOM     33  C   UNL A   1      40.440  29.421  29.706  1.00  0.00    -0.014 A 
BRANCH  33  34
ATOM     34  C   UNL A   1      41.791  29.002  29.251  1.00  0.00     0.031 A 
ATOM     35  C   UNL A   1      42.915  30.004  29.199  1.00  0.00     0.074 A 
ATOM     36  C   UNL A   1      41.989  27.740  28.818  1.00  0.00     0.049 A 
ATOM     37  N   UNL A   1      44.136  29.852  28.756  1.00  0.00    -0.248 NA
ATOM     38  C   UNL A   1      42.622  31.364  29.685  1.00  0.00     0.031 C 
ATOM     39  C   UNL A   1      40.967  26.691  28.768  1.00  0.00     0.029 A 
ATOM     40  N   UNL A   1      43.113  27.127  28.321  1.00  0.00    -0.354 N 
ATOM     41  C   UNL A   1      44.746  31.095  28.883  1.00  0.00     0.074 A 
ATOM     42  C   UNL A   1      43.752  32.002  29.412  1.00  0.00     0.031 C 
ATOM     43  C   UNL A   1      41.514  25.564  28.284  1.00  0.00     0.029 A 
ATOM     44  C   UNL A   1      42.913  25.817  27.952  1.00  0.00     0.049 A 
ATOM     45  H   UNL A   1      43.981  27.584  28.235  1.00  0.00     0.167 HD
ATOM     46  C   UNL A   1      46.024  31.443  28.599  1.00  0.00     0.037 A 
ATOM     47  C   UNL A   1      43.757  24.925  27.399  1.00  0.00     0.037 A 
ATOM     48  C   UNL A   1      47.024  30.524  28.124  1.00  0.00     0.049 A 
ATOM     49  C   UNL A   1      45.177  25.337  27.114  1.00  0.00     0.074 A 
ATOM     50  C   UNL A   1      48.370  30.760  27.901  1.00  0.00     0.029 A 
ATOM     51  N   UNL A   1      46.792  29.196  27.800  1.00  0.00    -0.354 N 
ATOM     52  N   UNL A   1      45.758  26.495  27.323  1.00  0.00    -0.248 NA
ATOM     53  C   UNL A   1      46.061  24.321  26.524  1.00  0.00     0.031 C 
ATOM     54  C   UNL A   1      48.942  29.588  27.398  1.00  0.00     0.029 A 
ATOM     55  C   UNL A   1      47.964  28.608  27.354  1.00  0.00     0.049 A 
ATOM     56  H   UNL A   1      45.923  28.738  27.875  1.00  0.00     0.167 HD
ATOM     57  C   UNL A   1      47.081  26.334  26.923  1.00  0.00     0.074 A 
ATOM     58  C   UNL A   1      47.218  24.966  26.469  1.00  0.00     0.031 C 
ATOM     59  C   UNL A   1      48.090  27.238  26.928  1.00  0.00     0.037 A 
BRANCH  46  60
ATOM     60  C   UNL A   1      46.433  32.876  28.801  1.00  0.00     0.058 A 
ATOM     61  C   UNL A   1      46.964  33.327  30.019  1.00  0.00     0.135 A 
ATOM     62  C   UNL A   1      46.380  33.785  27.731  1.00  0.00     0.135 A 
ATOM     63  F   UNL A   1      47.023  32.504  31.077  1.00  0.00    -0.206 F 
ATOM     64  C   UNL A   1      47.426  34.631  30.170  1.00  0.00     0.059 A 
ATOM     65  C   UNL A   1      46.858  35.085  27.854  1.00  0.00     0.059 A 
ATOM     66  F   UNL A   1      45.878  33.404  26.545  1.00  0.00    -0.206 F 
ATOM     67  C   UNL A   1      47.376  35.501  29.079  1.00  0.00     0.060 A 
BRANCH  67  68
ATOM     68  S   UNL A   1      48.028  37.172  29.279  1.00  0.00     0.124 S 
ATOM     69  O   UNL A   1      47.604  37.489  30.639  1.00  0.00    -0.237 OA
ATOM     70  O   UNL A   1      49.462  36.972  29.094  1.00  0.00    -0.237 OA
ATOM     71  O   UNL A   1      47.362  37.926  28.223  1.00  0.00    -0.744 OA
ENDBRANCH  67  68
ENDBRANCH  46  60
BRANCH  47  72
ATOM     72  C   UNL A   1      43.295  23.547  27.074  1.00  0.00     0.058 A 
ATOM     73  C   UNL A   1      43.117  22.590  28.085  1.00  0.00     0.135 A 
ATOM     74  C   UNL A   1      43.062  23.150  25.750  1.00  0.00     0.135 A 
ATOM     75  F   UNL A   1      43.332  22.920  29.367  1.00  0.00    -0.206 F 
ATOM     76  C   UNL A   1      42.766  21.276  27.791  1.00  0.00     0.059 A 
ATOM     77  C   UNL A   1      42.681  21.848  25.433  1.00  0.00     0.059 A 
ATOM     78  F   UNL A   1      43.199  24.032  24.747  1.00  0.00    -0.206 F 
ATOM     79  C   UNL A   1      42.557  20.914  26.459  1.00  0.00     0.060 A 
BRANCH  79  80
ATOM     80  S   UNL A   1      42.107  19.205  26.085  1.00  0.00     0.124 S 
ATOM     81  O   UNL A   1      42.956  18.926  24.933  1.00  0.00    -0.237 OA
ATOM     82  O   UNL A   1      42.459  18.514  27.321  1.00  0.00    -0.237 OA
ATOM     83  O   UNL A   1      40.675  19.290  25.809  1.00  0.00    -0.744 OA
ENDBRANCH  79  80
ENDBRANCH  47  72
BRANCH  59  84
ATOM     84  C   UNL A   1      49.446  26.769  26.477  1.00  0.00     0.058 A 
ATOM     85  C   UNL A   1      50.339  26.139  27.357  1.00  0.00     0.135 A 
ATOM     86  C   UNL A   1      49.832  26.906  25.134  1.00  0.00     0.135 A 
ATOM     87  F   UNL A   1      50.020  25.990  28.652  1.00  0.00    -0.206 F 
ATOM     88  C   UNL A   1      51.578  25.680  26.925  1.00  0.00     0.059 A 
ATOM     89  C   UNL A   1      51.055  26.429  24.675  1.00  0.00     0.059 A 
ATOM     90  F   UNL A   1      49.009  27.492  24.249  1.00  0.00    -0.206 F 
ATOM     91  C   UNL A   1      51.928  25.828  25.581  1.00  0.00     0.060 A 
BRANCH  91  92
ATOM     92  S   UNL A   1      53.524  25.195  25.025  1.00  0.00     0.124 S 
ATOM     93  O   UNL A   1      53.403  23.775  25.338  1.00  0.00    -0.237 OA
ATOM     94  O   UNL A   1      53.520  25.534  23.606  1.00  0.00    -0.237 OA
ATOM     95  O   UNL A   1      54.484  25.937  25.837  1.00  0.00    -0.744 OA
ENDBRANCH  91  92
ENDBRANCH  59  84
ENDBRANCH  33  34
ENDBRANCH  25  28
ENDBRANCH  23  24
ENDBRANCH  22  23
ENDBRANCH   1  22
TORSDOF 18
ENDMDL
