MODEL 1
REMARK VINA RESULT:     -11.5      0.000      0.000
REMARK SMILES O=C(C[NH+]1CC(c2nc(-c3cccs3)no2)C1)NCCCNC(=O)c1ccc(-c2c3nc(c(-c4c(F)cc(S(=O)(=O)[O-])cc4F)c4ccc([nH]4)c(-c4c(F)cc(S(=O)(=O)[O-])cc4F)c4nc(c(-c5c(F)cc(S(=O)(=O)[O-])cc5F)c5ccc2[nH]5)C=C4)C=C3)cc1
REMARK SMILES IDX 20 1 19 2 18 3 1 4 2 5 3 7 4 8 5 9 17 10 6 12 7 13 8 14
REMARK SMILES IDX 16 15 9 16 15 17 10 18 11 19 14 20 12 21 13 22 21 23 22 24
REMARK SMILES IDX 23 25 24 27 25 28 26 29 90 30 27 31 89 32 28 33 29 34 30 35
REMARK SMILES IDX 83 36 31 37 88 38 82 39 84 40 32 41 87 42 81 43 80 44 33 46
REMARK SMILES IDX 67 47 46 48 66 49 47 50 50 51 65 52 85 53 48 54 49 55 64 57
REMARK SMILES IDX 86 58 51 59 34 60 35 61 44 62 36 63 37 64 43 65 45 66 38 67
REMARK SMILES IDX 39 68 40 69 41 70 42 71 68 72 69 73 78 74 70 75 71 76 77 77
REMARK SMILES IDX 79 78 72 79 73 80 74 81 75 82 76 83 52 84 53 85 62 86 54 87
REMARK SMILES IDX 55 88 61 89 63 90 56 91 57 92 58 93 59 94 60 95
REMARK H PARENT 18 6 4 11 22 26 84 45 50 56
REMARK Flexibility Score: inf
ROOT
ATOM      1  C   UNL A   1      32.232  27.974  26.994  1.00  0.00     0.042 C 
ENDROOT
BRANCH   1   2
ATOM      2  C   UNL A   1      31.485  28.361  25.728  1.00  0.00     0.118 C 
BRANCH   2   3
ATOM      3  N   UNL A   1      31.397  27.279  24.767  1.00  0.00    -0.351 N 
ATOM      4  O   UNL A   1      33.165  27.964  23.473  1.00  0.00    -0.269 OA
ATOM      5  C   UNL A   1      32.314  27.123  23.751  1.00  0.00     0.275 C 
ATOM      6  H   UNL A   1      30.657  26.634  24.844  1.00  0.00     0.163 HD
BRANCH   5   7
ATOM      7  C   UNL A   1      32.215  25.801  22.980  1.00  0.00     0.363 C 
BRANCH   7   8
ATOM      8  N   UNL A   1      33.439  24.967  23.093  1.00  0.00    -0.325 N 
ATOM      9  C   UNL A   1      33.587  24.469  24.502  1.00  0.00     0.282 C 
ATOM     10  C   UNL A   1      33.196  23.552  22.707  1.00  0.00     0.282 C 
ATOM     11  H   UNL A   1      34.140  25.536  22.619  1.00  0.00     0.348 HD
ATOM     12  C   UNL A   1      34.067  23.120  23.917  1.00  0.00     0.188 C 
BRANCH  12  13
ATOM     13  C   UNL A   1      33.507  21.845  24.509  1.00  0.00     0.241 A 
ATOM     14  N   UNL A   1      34.208  20.736  24.606  1.00  0.00    -0.190 NA
ATOM     15  O   UNL A   1      32.188  21.665  24.820  1.00  0.00    -0.338 OA
ATOM     16  C   UNL A   1      33.242  19.796  24.885  1.00  0.00     0.212 A 
ATOM     17  N   UNL A   1      32.018  20.307  25.073  1.00  0.00    -0.056 NA
BRANCH  16  18
ATOM     18  C   UNL A   1      33.536  18.331  24.870  1.00  0.00     0.075 A 
ATOM     19  C   UNL A   1      34.674  17.784  24.313  1.00  0.00     0.024 A 
ATOM     20  S   UNL A   1      32.487  17.128  25.480  1.00  0.00    -0.140 S 
ATOM     21  C   UNL A   1      34.664  16.359  24.356  1.00  0.00     0.012 A 
ATOM     22  C   UNL A   1      33.518  15.871  24.946  1.00  0.00     0.065 A 
ENDBRANCH  16  18
ENDBRANCH  12  13
ENDBRANCH   7   8
ENDBRANCH   5   7
ENDBRANCH   2   3
ENDBRANCH   1   2
BRANCH   1  23
ATOM     23  C   UNL A   1      33.610  28.611  27.128  1.00  0.00     0.118 C 
BRANCH  23  24
ATOM     24  N   UNL A   1      33.569  29.976  27.640  1.00  0.00    -0.352 N 
ATOM     25  C   UNL A   1      34.536  30.692  28.306  1.00  0.00     0.251 C 
ATOM     26  H   UNL A   1      32.724  30.456  27.487  1.00  0.00     0.163 HD
ATOM     27  O   UNL A   1      34.266  31.797  28.769  1.00  0.00    -0.269 OA
BRANCH  25  28
ATOM     28  C   UNL A   1      35.887  30.121  28.491  1.00  0.00     0.039 A 
ATOM     29  C   UNL A   1      36.769  30.102  27.407  1.00  0.00     0.014 A 
ATOM     30  C   UNL A   1      36.291  29.623  29.732  1.00  0.00     0.014 A 
ATOM     31  C   UNL A   1      38.086  29.668  27.590  1.00  0.00     0.010 A 
ATOM     32  C   UNL A   1      37.620  29.257  29.929  1.00  0.00     0.010 A 
ATOM     33  C   UNL A   1      38.535  29.289  28.864  1.00  0.00    -0.014 A 
BRANCH  33  34
ATOM     34  C   UNL A   1      39.956  28.942  29.128  1.00  0.00     0.031 A 
ATOM     35  C   UNL A   1      40.903  29.995  29.633  1.00  0.00     0.074 A 
ATOM     36  C   UNL A   1      40.416  27.716  28.810  1.00  0.00     0.049 A 
ATOM     37  N   UNL A   1      42.204  29.945  29.755  1.00  0.00    -0.248 NA
ATOM     38  C   UNL A   1      40.310  31.284  30.025  1.00  0.00     0.031 C 
ATOM     39  C   UNL A   1      39.604  26.617  28.280  1.00  0.00     0.029 A 
ATOM     40  N   UNL A   1      41.685  27.195  28.858  1.00  0.00    -0.354 N 
ATOM     41  C   UNL A   1      42.589  31.201  30.209  1.00  0.00     0.074 A 
ATOM     42  C   UNL A   1      41.388  32.002  30.307  1.00  0.00     0.031 C 
ATOM     43  C   UNL A   1      40.393  25.552  28.059  1.00  0.00     0.029 A 
ATOM     44  C   UNL A   1      41.771  25.906  28.385  1.00  0.00     0.049 A 
ATOM     45  H   UNL A   1      42.460  27.696  29.200  1.00  0.00     0.167 HD
ATOM     46  C   UNL A   1      43.831  31.642  30.526  1.00  0.00     0.037 A 
ATOM     47  C   UNL A   1      42.842  25.106  28.209  1.00  0.00     0.037 A 
ATOM     48  C   UNL A   1      45.018  30.831  30.456  1.00  0.00     0.049 A 
ATOM     49  C   UNL A   1      44.210  25.615  28.572  1.00  0.00     0.074 A 
ATOM     50  C   UNL A   1      46.313  31.173  30.802  1.00  0.00     0.029 A 
ATOM     51  N   UNL A   1      45.054  29.516  30.016  1.00  0.00    -0.354 N 
ATOM     52  N   UNL A   1      44.552  26.794  29.034  1.00  0.00    -0.248 NA
ATOM     53  C   UNL A   1      45.337  24.689  28.395  1.00  0.00     0.031 C 
ATOM     54  C   UNL A   1      47.139  30.074  30.542  1.00  0.00     0.029 A 
ATOM     55  C   UNL A   1      46.351  29.034  30.074  1.00  0.00     0.049 A 
ATOM     56  H   UNL A   1      44.274  29.001  29.708  1.00  0.00     0.167 HD
ATOM     57  C   UNL A   1      45.927  26.739  29.234  1.00  0.00     0.074 A 
ATOM     58  C   UNL A   1      46.355  25.413  28.842  1.00  0.00     0.031 C 
ATOM     59  C   UNL A   1      46.757  27.701  29.705  1.00  0.00     0.037 A 
BRANCH  46  60
ATOM     60  C   UNL A   1      43.968  33.069  30.977  1.00  0.00     0.058 A 
ATOM     61  C   UNL A   1      43.968  33.414  32.338  1.00  0.00     0.135 A 
ATOM     62  C   UNL A   1      44.134  34.101  30.040  1.00  0.00     0.135 A 
ATOM     63  F   UNL A   1      43.797  32.468  33.275  1.00  0.00    -0.206 F 
ATOM     64  C   UNL A   1      44.096  34.735  32.752  1.00  0.00     0.059 A 
ATOM     65  C   UNL A   1      44.291  35.427  30.432  1.00  0.00     0.059 A 
ATOM     66  F   UNL A   1      44.143  33.827  28.726  1.00  0.00    -0.206 F 
ATOM     67  C   UNL A   1      44.253  35.735  31.792  1.00  0.00     0.060 A 
BRANCH  67  68
ATOM     68  S   UNL A   1      44.416  37.447  32.345  1.00  0.00     0.124 S 
ATOM     69  O   UNL A   1      44.148  38.175  31.108  1.00  0.00    -0.237 OA
ATOM     70  O   UNL A   1      43.385  37.544  33.373  1.00  0.00    -0.237 OA
ATOM     71  O   UNL A   1      45.790  37.517  32.829  1.00  0.00    -0.744 OA
ENDBRANCH  67  68
ENDBRANCH  46  60
BRANCH  47  72
ATOM     72  C   UNL A   1      42.659  23.730  27.675  1.00  0.00     0.058 A 
ATOM     73  C   UNL A   1      42.565  22.631  28.541  1.00  0.00     0.135 A 
ATOM     74  C   UNL A   1      42.557  23.489  26.296  1.00  0.00     0.135 A 
ATOM     75  F   UNL A   1      42.664  22.812  29.866  1.00  0.00    -0.206 F 
ATOM     76  C   UNL A   1      42.390  21.338  28.060  1.00  0.00     0.059 A 
ATOM     77  C   UNL A   1      42.359  22.206  25.792  1.00  0.00     0.059 A 
ATOM     78  F   UNL A   1      42.624  24.509  25.427  1.00  0.00    -0.206 F 
ATOM     79  C   UNL A   1      42.286  21.136  26.683  1.00  0.00     0.060 A 
BRANCH  79  80
ATOM     80  S   UNL A   1      42.007  19.459  26.072  1.00  0.00     0.124 S 
ATOM     81  O   UNL A   1      42.846  19.439  24.879  1.00  0.00    -0.237 OA
ATOM     82  O   UNL A   1      42.468  18.643  27.190  1.00  0.00    -0.237 OA
ATOM     83  O   UNL A   1      40.566  19.426  25.834  1.00  0.00    -0.744 OA
ENDBRANCH  79  80
ENDBRANCH  47  72
BRANCH  59  84
ATOM     84  C   UNL A   1      48.207  27.348  29.882  1.00  0.00     0.058 A 
ATOM     85  C   UNL A   1      49.137  27.507  28.845  1.00  0.00     0.135 A 
ATOM     86  C   UNL A   1      48.682  26.930  31.135  1.00  0.00     0.135 A 
ATOM     87  F   UNL A   1      48.731  27.896  27.626  1.00  0.00    -0.206 F 
ATOM     88  C   UNL A   1      50.492  27.258  29.044  1.00  0.00     0.059 A 
ATOM     89  C   UNL A   1      50.034  26.697  31.363  1.00  0.00     0.059 A 
ATOM     90  F   UNL A   1      47.831  26.771  32.162  1.00  0.00    -0.206 F 
ATOM     91  C   UNL A   1      50.931  26.860  30.309  1.00  0.00     0.060 A 
BRANCH  91  92
ATOM     92  S   UNL A   1      52.700  26.608  30.572  1.00  0.00     0.124 S 
ATOM     93  O   UNL A   1      52.703  25.444  31.452  1.00  0.00    -0.237 OA
ATOM     94  O   UNL A   1      53.189  26.380  29.216  1.00  0.00    -0.237 OA
ATOM     95  O   UNL A   1      53.133  27.859  31.185  1.00  0.00    -0.744 OA
ENDBRANCH  91  92
ENDBRANCH  59  84
ENDBRANCH  33  34
ENDBRANCH  25  28
ENDBRANCH  23  24
ENDBRANCH   1  23
TORSDOF 16
ENDMDL
MODEL 2
REMARK VINA RESULT:     -11.4      2.974      4.096
REMARK SMILES O=C(C[NH+]1CC(c2nc(-c3cccs3)no2)C1)NCCCNC(=O)c1ccc(-c2c3nc(c(-c4c(F)cc(S(=O)(=O)[O-])cc4F)c4ccc([nH]4)c(-c4c(F)cc(S(=O)(=O)[O-])cc4F)c4nc(c(-c5c(F)cc(S(=O)(=O)[O-])cc5F)c5ccc2[nH]5)C=C4)C=C3)cc1
REMARK SMILES IDX 20 1 19 2 18 3 1 4 2 5 3 7 4 8 5 9 17 10 6 12 7 13 8 14
REMARK SMILES IDX 16 15 9 16 15 17 10 18 11 19 14 20 12 21 13 22 21 23 22 24
REMARK SMILES IDX 23 25 24 27 25 28 26 29 90 30 27 31 89 32 28 33 29 34 30 35
REMARK SMILES IDX 83 36 31 37 88 38 82 39 84 40 32 41 87 42 81 43 80 44 33 46
REMARK SMILES IDX 67 47 46 48 66 49 47 50 50 51 65 52 85 53 48 54 49 55 64 57
REMARK SMILES IDX 86 58 51 59 34 60 35 61 44 62 36 63 37 64 43 65 45 66 38 67
REMARK SMILES IDX 39 68 40 69 41 70 42 71 68 72 69 73 78 74 70 75 71 76 77 77
REMARK SMILES IDX 79 78 72 79 73 80 74 81 75 82 76 83 52 84 53 85 62 86 54 87
REMARK SMILES IDX 55 88 61 89 63 90 56 91 57 92 58 93 59 94 60 95
REMARK H PARENT 18 6 4 11 22 26 84 45 50 56
REMARK Flexibility Score: inf
ROOT
ATOM      1  C   UNL A   1      35.351  32.109  27.810  1.00  0.00     0.042 C 
ENDROOT
BRANCH   1   2
ATOM      2  C   UNL A   1      33.856  31.908  28.000  1.00  0.00     0.118 C 
BRANCH   2   3
ATOM      3  N   UNL A   1      33.318  30.840  27.181  1.00  0.00    -0.351 N 
ATOM      4  O   UNL A   1      31.402  31.947  26.572  1.00  0.00    -0.269 OA
ATOM      5  C   UNL A   1      32.156  30.984  26.456  1.00  0.00     0.275 C 
ATOM      6  H   UNL A   1      33.800  29.982  27.143  1.00  0.00     0.163 HD
BRANCH   5   7
ATOM      7  C   UNL A   1      31.861  29.854  25.463  1.00  0.00     0.363 C 
BRANCH   7   8
ATOM      8  N   UNL A   1      32.972  29.614  24.505  1.00  0.00    -0.325 N 
ATOM      9  C   UNL A   1      33.662  28.323  24.839  1.00  0.00     0.282 C 
ATOM     10  C   UNL A   1      32.510  28.951  23.258  1.00  0.00     0.282 C 
ATOM     11  H   UNL A   1      33.446  30.517  24.485  1.00  0.00     0.348 HD
ATOM     12  C   UNL A   1      33.778  28.056  23.319  1.00  0.00     0.188 C 
BRANCH  12  13
ATOM     13  C   UNL A   1      33.440  26.672  22.809  1.00  0.00     0.241 A 
ATOM     14  N   UNL A   1      33.186  25.660  23.611  1.00  0.00    -0.190 NA
ATOM     15  O   UNL A   1      33.549  26.295  21.500  1.00  0.00    -0.338 OA
ATOM     16  C   UNL A   1      33.253  24.582  22.759  1.00  0.00     0.212 A 
ATOM     17  N   UNL A   1      33.420  24.910  21.470  1.00  0.00    -0.056 NA
BRANCH  16  18
ATOM     18  C   UNL A   1      33.243  23.174  23.262  1.00  0.00     0.075 A 
ATOM     19  C   UNL A   1      32.388  22.198  22.790  1.00  0.00     0.024 A 
ATOM     20  S   UNL A   1      34.235  22.592  24.525  1.00  0.00    -0.140 S 
ATOM     21  C   UNL A   1      32.527  20.971  23.502  1.00  0.00     0.012 A 
ATOM     22  C   UNL A   1      33.484  21.054  24.490  1.00  0.00     0.065 A 
ENDBRANCH  16  18
ENDBRANCH  12  13
ENDBRANCH   7   8
ENDBRANCH   5   7
ENDBRANCH   2   3
ENDBRANCH   1   2
BRANCH   1  23
ATOM     23  C   UNL A   1      36.127  32.302  29.107  1.00  0.00     0.118 C 
BRANCH  23  24
ATOM     24  N   UNL A   1      35.794  31.318  30.132  1.00  0.00    -0.352 N 
ATOM     25  C   UNL A   1      36.538  30.267  30.614  1.00  0.00     0.251 C 
ATOM     26  H   UNL A   1      34.903  31.422  30.538  1.00  0.00     0.163 HD
ATOM     27  O   UNL A   1      36.031  29.470  31.398  1.00  0.00    -0.269 OA
BRANCH  25  28
ATOM     28  C   UNL A   1      37.935  30.080  30.166  1.00  0.00     0.039 A 
ATOM     29  C   UNL A   1      38.960  30.099  31.117  1.00  0.00     0.014 A 
ATOM     30  C   UNL A   1      38.233  29.868  28.818  1.00  0.00     0.014 A 
ATOM     31  C   UNL A   1      40.272  29.814  30.729  1.00  0.00     0.010 A 
ATOM     32  C   UNL A   1      39.528  29.517  28.445  1.00  0.00     0.010 A 
ATOM     33  C   UNL A   1      40.558  29.473  29.398  1.00  0.00    -0.014 A 
BRANCH  33  34
ATOM     34  C   UNL A   1      41.915  29.042  28.969  1.00  0.00     0.031 A 
ATOM     35  C   UNL A   1      43.018  30.054  28.839  1.00  0.00     0.074 A 
ATOM     36  C   UNL A   1      42.122  27.764  28.592  1.00  0.00     0.049 A 
ATOM     37  N   UNL A   1      44.208  29.916  28.315  1.00  0.00    -0.248 NA
ATOM     38  C   UNL A   1      42.732  31.409  29.337  1.00  0.00     0.031 C 
ATOM     39  C   UNL A   1      41.123  26.692  28.640  1.00  0.00     0.029 A 
ATOM     40  N   UNL A   1      43.235  27.154  28.068  1.00  0.00    -0.354 N 
ATOM     41  C   UNL A   1      44.803  31.170  28.394  1.00  0.00     0.074 A 
ATOM     42  C   UNL A   1      43.830  32.063  28.985  1.00  0.00     0.031 C 
ATOM     43  C   UNL A   1      41.670  25.559  28.171  1.00  0.00     0.029 A 
ATOM     44  C   UNL A   1      43.039  25.831  27.745  1.00  0.00     0.049 A 
ATOM     45  H   UNL A   1      44.092  27.620  27.936  1.00  0.00     0.167 HD
ATOM     46  C   UNL A   1      46.052  31.539  28.019  1.00  0.00     0.037 A 
ATOM     47  C   UNL A   1      43.861  24.942  27.152  1.00  0.00     0.037 A 
ATOM     48  C   UNL A   1      47.026  30.638  27.462  1.00  0.00     0.049 A 
ATOM     49  C   UNL A   1      45.245  25.373  26.749  1.00  0.00     0.074 A 
ATOM     50  C   UNL A   1      48.334  30.906  27.096  1.00  0.00     0.029 A 
ATOM     51  N   UNL A   1      46.803  29.295  27.196  1.00  0.00    -0.354 N 
ATOM     52  N   UNL A   1      45.804  26.554  26.863  1.00  0.00    -0.248 NA
ATOM     53  C   UNL A   1      46.111  24.354  26.138  1.00  0.00     0.031 C 
ATOM     54  C   UNL A   1      48.893  29.732  26.579  1.00  0.00     0.029 A 
ATOM     55  C   UNL A   1      47.946  28.723  26.662  1.00  0.00     0.049 A 
ATOM     56  H   UNL A   1      45.958  28.819  27.361  1.00  0.00     0.167 HD
ATOM     57  C   UNL A   1      47.096  26.411  26.372  1.00  0.00     0.074 A 
ATOM     58  C   UNL A   1      47.237  25.031  25.957  1.00  0.00     0.031 C 
ATOM     59  C   UNL A   1      48.079  27.340  26.279  1.00  0.00     0.037 A 
BRANCH  46  60
ATOM     60  C   UNL A   1      46.435  32.981  28.200  1.00  0.00     0.058 A 
ATOM     61  C   UNL A   1      47.033  33.441  29.384  1.00  0.00     0.135 A 
ATOM     62  C   UNL A   1      46.232  33.908  27.165  1.00  0.00     0.135 A 
ATOM     63  F   UNL A   1      47.237  32.599  30.409  1.00  0.00    -0.206 F 
ATOM     64  C   UNL A   1      47.387  34.775  29.547  1.00  0.00     0.059 A 
ATOM     65  C   UNL A   1      46.602  35.243  27.297  1.00  0.00     0.059 A 
ATOM     66  F   UNL A   1      45.664  33.521  26.012  1.00  0.00    -0.206 F 
ATOM     67  C   UNL A   1      47.165  35.670  28.499  1.00  0.00     0.060 A 
BRANCH  67  68
ATOM     68  S   UNL A   1      47.627  37.401  28.727  1.00  0.00     0.124 S 
ATOM     69  O   UNL A   1      47.121  37.999  27.495  1.00  0.00    -0.237 OA
ATOM     70  O   UNL A   1      46.910  37.760  29.946  1.00  0.00    -0.237 OA
ATOM     71  O   UNL A   1      49.080  37.350  28.849  1.00  0.00    -0.744 OA
ENDBRANCH  67  68
ENDBRANCH  46  60
BRANCH  47  72
ATOM     72  C   UNL A   1      43.399  23.549  26.917  1.00  0.00     0.058 A 
ATOM     73  C   UNL A   1      43.000  23.131  25.640  1.00  0.00     0.135 A 
ATOM     74  C   UNL A   1      43.363  22.605  27.956  1.00  0.00     0.135 A 
ATOM     75  F   UNL A   1      43.011  23.999  24.617  1.00  0.00    -0.206 F 
ATOM     76  C   UNL A   1      42.568  21.831  25.400  1.00  0.00     0.059 A 
ATOM     77  C   UNL A   1      42.956  21.293  27.736  1.00  0.00     0.059 A 
ATOM     78  F   UNL A   1      43.750  22.952  29.194  1.00  0.00    -0.206 F 
ATOM     79  C   UNL A   1      42.551  20.918  26.455  1.00  0.00     0.060 A 
BRANCH  79  80
ATOM     80  S   UNL A   1      42.038  19.218  26.122  1.00  0.00     0.124 S 
ATOM     81  O   UNL A   1      42.939  18.848  25.037  1.00  0.00    -0.237 OA
ATOM     82  O   UNL A   1      42.281  18.566  27.405  1.00  0.00    -0.237 OA
ATOM     83  O   UNL A   1      40.631  19.359  25.756  1.00  0.00    -0.744 OA
ENDBRANCH  79  80
ENDBRANCH  47  72
BRANCH  59  84
ATOM     84  C   UNL A   1      49.417  26.893  25.761  1.00  0.00     0.058 A 
ATOM     85  C   UNL A   1      49.767  27.026  24.409  1.00  0.00     0.135 A 
ATOM     86  C   UNL A   1      50.390  26.409  26.650  1.00  0.00     0.135 A 
ATOM     87  F   UNL A   1      48.870  27.477  23.519  1.00  0.00    -0.206 F 
ATOM     88  C   UNL A   1      51.039  26.688  23.955  1.00  0.00     0.059 A 
ATOM     89  C   UNL A   1      51.673  26.086  26.222  1.00  0.00     0.059 A 
ATOM     90  F   UNL A   1      50.104  26.271  27.955  1.00  0.00    -0.206 F 
ATOM     91  C   UNL A   1      51.987  26.226  24.871  1.00  0.00     0.060 A 
BRANCH  91  92
ATOM     92  S   UNL A   1      53.653  25.857  24.281  1.00  0.00     0.124 S 
ATOM     93  O   UNL A   1      54.456  26.793  25.062  1.00  0.00    -0.237 OA
ATOM     94  O   UNL A   1      53.804  24.448  24.627  1.00  0.00    -0.237 OA
ATOM     95  O   UNL A   1      53.576  26.139  22.851  1.00  0.00    -0.744 OA
ENDBRANCH  91  92
ENDBRANCH  59  84
ENDBRANCH  33  34
ENDBRANCH  25  28
ENDBRANCH  23  24
ENDBRANCH   1  23
TORSDOF 16
ENDMDL
MODEL 3
REMARK VINA RESULT:     -11.3      5.279     10.878
REMARK SMILES O=C(C[NH+]1CC(c2nc(-c3cccs3)no2)C1)NCCCNC(=O)c1ccc(-c2c3nc(c(-c4c(F)cc(S(=O)(=O)[O-])cc4F)c4ccc([nH]4)c(-c4c(F)cc(S(=O)(=O)[O-])cc4F)c4nc(c(-c5c(F)cc(S(=O)(=O)[O-])cc5F)c5ccc2[nH]5)C=C4)C=C3)cc1
REMARK SMILES IDX 20 1 19 2 18 3 1 4 2 5 3 7 4 8 5 9 17 10 6 12 7 13 8 14
REMARK SMILES IDX 16 15 9 16 15 17 10 18 11 19 14 20 12 21 13 22 21 23 22 24
REMARK SMILES IDX 23 25 24 27 25 28 26 29 90 30 27 31 89 32 28 33 29 34 30 35
REMARK SMILES IDX 83 36 31 37 88 38 82 39 84 40 32 41 87 42 81 43 80 44 33 46
REMARK SMILES IDX 67 47 46 48 66 49 47 50 50 51 65 52 85 53 48 54 49 55 64 57
REMARK SMILES IDX 86 58 51 59 34 60 35 61 44 62 36 63 37 64 43 65 45 66 38 67
REMARK SMILES IDX 39 68 40 69 41 70 42 71 68 72 69 73 78 74 70 75 71 76 77 77
REMARK SMILES IDX 79 78 72 79 73 80 74 81 75 82 76 83 52 84 53 85 62 86 54 87
REMARK SMILES IDX 55 88 61 89 63 90 56 91 57 92 58 93 59 94 60 95
REMARK H PARENT 18 6 4 11 22 26 84 45 50 56
REMARK Flexibility Score: inf
ROOT
ATOM      1  C   UNL A   1      40.270  22.517  27.529  1.00  0.00     0.042 C 
ENDROOT
BRANCH   1   2
ATOM      2  C   UNL A   1      39.773  21.637  26.393  1.00  0.00     0.118 C 
BRANCH   2   3
ATOM      3  N   UNL A   1      38.394  21.897  26.034  1.00  0.00    -0.351 N 
ATOM      4  O   UNL A   1      38.095  19.973  24.819  1.00  0.00    -0.269 OA
ATOM      5  C   UNL A   1      37.632  20.987  25.334  1.00  0.00     0.275 C 
ATOM      6  H   UNL A   1      37.987  22.754  26.298  1.00  0.00     0.163 HD
BRANCH   5   7
ATOM      7  C   UNL A   1      36.136  21.315  25.250  1.00  0.00     0.363 C 
BRANCH   7   8
ATOM      8  N   UNL A   1      35.563  21.764  26.545  1.00  0.00    -0.325 N 
ATOM      9  C   UNL A   1      35.197  23.218  26.462  1.00  0.00     0.282 C 
ATOM     10  C   UNL A   1      34.107  21.487  26.646  1.00  0.00     0.282 C 
ATOM     11  H   UNL A   1      36.226  21.388  27.223  1.00  0.00     0.348 HD
ATOM     12  C   UNL A   1      33.930  22.889  27.289  1.00  0.00     0.188 C 
BRANCH  12  13
ATOM     13  C   UNL A   1      32.612  23.484  26.843  1.00  0.00     0.241 A 
ATOM     14  N   UNL A   1      32.510  24.296  25.812  1.00  0.00    -0.190 NA
ATOM     15  O   UNL A   1      31.453  23.392  27.561  1.00  0.00    -0.338 OA
ATOM     16  C   UNL A   1      31.247  24.820  25.972  1.00  0.00     0.212 A 
ATOM     17  N   UNL A   1      30.550  24.276  26.978  1.00  0.00    -0.056 NA
BRANCH  16  18
ATOM     18  C   UNL A   1      30.758  25.968  25.149  1.00  0.00     0.075 A 
ATOM     19  C   UNL A   1      29.556  25.965  24.469  1.00  0.00     0.024 A 
ATOM     20  S   UNL A   1      31.635  27.410  24.881  1.00  0.00    -0.140 S 
ATOM     21  C   UNL A   1      29.375  27.147  23.692  1.00  0.00     0.012 A 
ATOM     22  C   UNL A   1      30.444  28.008  23.808  1.00  0.00     0.065 A 
ENDBRANCH  16  18
ENDBRANCH  12  13
ENDBRANCH   7   8
ENDBRANCH   5   7
ENDBRANCH   2   3
ENDBRANCH   1   2
BRANCH   1  23
ATOM     23  C   UNL A   1      41.643  23.133  27.290  1.00  0.00     0.118 C 
BRANCH  23  24
ATOM     24  N   UNL A   1      41.691  24.004  26.120  1.00  0.00    -0.352 N 
ATOM     25  C   UNL A   1      41.594  25.373  26.043  1.00  0.00     0.251 C 
ATOM     26  H   UNL A   1      41.809  23.542  25.259  1.00  0.00     0.163 HD
ATOM     27  O   UNL A   1      41.533  25.918  24.944  1.00  0.00    -0.269 OA
BRANCH  25  28
ATOM     28  C   UNL A   1      41.532  26.184  27.278  1.00  0.00     0.039 A 
ATOM     29  C   UNL A   1      42.608  27.018  27.596  1.00  0.00     0.014 A 
ATOM     30  C   UNL A   1      40.411  26.138  28.110  1.00  0.00     0.014 A 
ATOM     31  C   UNL A   1      42.522  27.874  28.698  1.00  0.00     0.010 A 
ATOM     32  C   UNL A   1      40.298  27.039  29.166  1.00  0.00     0.010 A 
ATOM     33  C   UNL A   1      41.346  27.926  29.462  1.00  0.00    -0.014 A 
BRANCH  33  34
ATOM     34  C   UNL A   1      41.164  28.908  30.563  1.00  0.00     0.031 A 
ATOM     35  C   UNL A   1      41.991  28.796  31.813  1.00  0.00     0.074 A 
ATOM     36  C   UNL A   1      40.183  29.829  30.482  1.00  0.00     0.049 A 
ATOM     37  N   UNL A   1      41.865  29.434  32.947  1.00  0.00    -0.248 NA
ATOM     38  C   UNL A   1      43.087  27.814  31.793  1.00  0.00     0.031 C 
ATOM     39  C   UNL A   1      39.289  30.019  29.336  1.00  0.00     0.029 A 
ATOM     40  N   UNL A   1      39.753  30.762  31.393  1.00  0.00    -0.354 N 
ATOM     41  C   UNL A   1      42.844  28.913  33.785  1.00  0.00     0.074 A 
ATOM     42  C   UNL A   1      43.533  27.881  33.039  1.00  0.00     0.031 C 
ATOM     43  C   UNL A   1      38.423  31.008  29.611  1.00  0.00     0.029 A 
ATOM     44  C   UNL A   1      38.667  31.491  30.966  1.00  0.00     0.049 A 
ATOM     45  H   UNL A   1      40.181  30.896  32.269  1.00  0.00     0.167 HD
ATOM     46  C   UNL A   1      43.148  29.271  35.056  1.00  0.00     0.037 A 
ATOM     47  C   UNL A   1      37.934  32.427  31.603  1.00  0.00     0.037 A 
ATOM     48  C   UNL A   1      42.479  30.319  35.781  1.00  0.00     0.049 A 
ATOM     49  C   UNL A   1      38.293  32.811  33.012  1.00  0.00     0.074 A 
ATOM     50  C   UNL A   1      42.747  30.788  37.055  1.00  0.00     0.029 A 
ATOM     51  N   UNL A   1      41.416  31.065  35.295  1.00  0.00    -0.354 N 
ATOM     52  N   UNL A   1      39.244  32.333  33.777  1.00  0.00    -0.248 NA
ATOM     53  C   UNL A   1      37.483  33.862  33.645  1.00  0.00     0.031 C 
ATOM     54  C   UNL A   1      41.825  31.797  37.353  1.00  0.00     0.029 A 
ATOM     55  C   UNL A   1      41.010  31.985  36.247  1.00  0.00     0.049 A 
ATOM     56  H   UNL A   1      41.009  30.957  34.405  1.00  0.00     0.167 HD
ATOM     57  C   UNL A   1      39.169  33.047  34.968  1.00  0.00     0.074 A 
ATOM     58  C   UNL A   1      38.079  33.988  34.823  1.00  0.00     0.031 C 
ATOM     59  C   UNL A   1      39.939  32.935  36.077  1.00  0.00     0.037 A 
BRANCH  46  60
ATOM     60  C   UNL A   1      44.252  28.519  35.745  1.00  0.00     0.058 A 
ATOM     61  C   UNL A   1      45.595  28.909  35.621  1.00  0.00     0.135 A 
ATOM     62  C   UNL A   1      43.963  27.418  36.566  1.00  0.00     0.135 A 
ATOM     63  F   UNL A   1      45.929  29.946  34.837  1.00  0.00    -0.206 F 
ATOM     64  C   UNL A   1      46.615  28.213  36.260  1.00  0.00     0.059 A 
ATOM     65  C   UNL A   1      44.964  26.723  37.237  1.00  0.00     0.059 A 
ATOM     66  F   UNL A   1      42.695  27.004  36.720  1.00  0.00    -0.206 F 
ATOM     67  C   UNL A   1      46.290  27.118  37.063  1.00  0.00     0.060 A 
BRANCH  67  68
ATOM     68  S   UNL A   1      47.625  26.223  37.885  1.00  0.00     0.124 S 
ATOM     69  O   UNL A   1      48.588  26.079  36.797  1.00  0.00    -0.237 OA
ATOM     70  O   UNL A   1      48.009  27.141  38.953  1.00  0.00    -0.237 OA
ATOM     71  O   UNL A   1      46.985  24.987  38.324  1.00  0.00    -0.744 OA
ENDBRANCH  67  68
ENDBRANCH  46  60
BRANCH  47  72
ATOM     72  C   UNL A   1      36.795  33.076  30.903  1.00  0.00     0.058 A 
ATOM     73  C   UNL A   1      37.017  34.067  29.936  1.00  0.00     0.135 A 
ATOM     74  C   UNL A   1      35.466  32.709  31.172  1.00  0.00     0.135 A 
ATOM     75  F   UNL A   1      38.268  34.455  29.651  1.00  0.00    -0.206 F 
ATOM     76  C   UNL A   1      35.964  34.683  29.269  1.00  0.00     0.059 A 
ATOM     77  C   UNL A   1      34.397  33.296  30.501  1.00  0.00     0.059 A 
ATOM     78  F   UNL A   1      35.202  31.755  32.077  1.00  0.00    -0.206 F 
ATOM     79  C   UNL A   1      34.656  34.289  29.557  1.00  0.00     0.060 A 
BRANCH  79  80
ATOM     80  S   UNL A   1      33.299  35.058  28.647  1.00  0.00     0.124 S 
ATOM     81  O   UNL A   1      34.007  36.055  27.852  1.00  0.00    -0.237 OA
ATOM     82  O   UNL A   1      32.743  33.929  27.909  1.00  0.00    -0.237 OA
ATOM     83  O   UNL A   1      32.443  35.587  29.707  1.00  0.00    -0.744 OA
ENDBRANCH  79  80
ENDBRANCH  47  72
BRANCH  59  84
ATOM     84  C   UNL A   1      39.676  33.888  37.210  1.00  0.00     0.058 A 
ATOM     85  C   UNL A   1      38.837  33.548  38.281  1.00  0.00     0.135 A 
ATOM     86  C   UNL A   1      40.346  35.121  37.262  1.00  0.00     0.135 A 
ATOM     87  F   UNL A   1      38.169  32.384  38.274  1.00  0.00    -0.206 F 
ATOM     88  C   UNL A   1      38.668  34.403  39.366  1.00  0.00     0.059 A 
ATOM     89  C   UNL A   1      40.208  35.981  38.346  1.00  0.00     0.059 A 
ATOM     90  F   UNL A   1      41.166  35.488  36.264  1.00  0.00    -0.206 F 
ATOM     91  C   UNL A   1      39.363  35.614  39.393  1.00  0.00     0.060 A 
BRANCH  91  92
ATOM     92  S   UNL A   1      39.188  36.681  40.838  1.00  0.00     0.124 S 
ATOM     93  O   UNL A   1      38.374  37.769  40.304  1.00  0.00    -0.237 OA
ATOM     94  O   UNL A   1      38.525  35.805  41.798  1.00  0.00    -0.237 OA
ATOM     95  O   UNL A   1      40.566  37.033  41.169  1.00  0.00    -0.744 OA
ENDBRANCH  91  92
ENDBRANCH  59  84
ENDBRANCH  33  34
ENDBRANCH  25  28
ENDBRANCH  23  24
ENDBRANCH   1  23
TORSDOF 16
ENDMDL
