MODEL 1
REMARK VINA RESULT:     -12.2      0.000      0.000
REMARK SMILES COc1cc2c(c(OC)c1)[C@H](C)C[C@H](CC(=O)NCCCNC(=O)c1ccc(-c3c4nc(c(-c5c(F)cc(S(=O)(=O)[O-])cc5F)c5ccc([nH]5)c(-c5c(F)cc(S(=O)(=O)[O-])cc5F)c5nc(c(-c6c(F)cc(S(=O)(=O)[O-])cc6F)c6ccc3[nH]6)C=C5)C=C4)cc1)C2
REMARK SMILES IDX 20 1 19 2 18 3 16 4 17 5 15 7 14 8 3 9 4 10 10 11 5 12 7 13
REMARK SMILES IDX 6 14 91 15 11 16 12 17 13 18 2 19 1 20 8 21 9 22 21 23 22 24
REMARK SMILES IDX 23 25 24 27 25 28 26 29 90 30 27 31 89 32 28 33 29 34 30 35
REMARK SMILES IDX 83 36 31 37 88 38 82 39 84 40 32 41 87 42 81 43 80 44 33 46
REMARK SMILES IDX 67 47 46 48 66 49 47 50 50 51 65 52 85 53 48 54 49 55 64 57
REMARK SMILES IDX 86 58 51 59 34 60 35 61 44 62 36 63 37 64 43 65 45 66 38 67
REMARK SMILES IDX 39 68 40 69 41 70 42 71 68 72 69 73 78 74 70 75 71 76 77 77
REMARK SMILES IDX 79 78 72 79 73 80 74 81 75 82 76 83 52 84 53 85 62 86 54 87
REMARK SMILES IDX 55 88 61 89 63 90 56 91 57 92 58 93 59 94 60 95
REMARK H PARENT 18 6 22 26 84 45 50 56
REMARK Flexibility Score: inf
ROOT
ATOM      1  C   UNL A   1      34.933  30.033  27.624  1.00  0.00     0.042 C 
ENDROOT
BRANCH   1   2
ATOM      2  C   UNL A   1      33.569  30.239  26.938  1.00  0.00     0.117 C 
BRANCH   2   3
ATOM      3  N   UNL A   1      32.446  29.555  27.580  1.00  0.00    -0.356 N 
ATOM      4  C   UNL A   1      31.803  28.378  27.312  1.00  0.00     0.220 C 
ATOM      5  O   UNL A   1      30.973  27.988  28.139  1.00  0.00    -0.275 OA
ATOM      6  H   UNL A   1      32.080  30.038  28.356  1.00  0.00     0.163 HD
BRANCH   4   7
ATOM      7  C   UNL A   1      32.049  27.567  26.039  1.00  0.00     0.104 C 
BRANCH   7   8
ATOM      8  C   UNL A   1      32.740  26.211  26.326  1.00  0.00     0.003 C 
ATOM      9  C   UNL A   1      36.213  22.859  25.319  1.00  0.00     0.122 A 
ATOM     10  C   UNL A   1      35.721  24.162  25.218  1.00  0.00     0.050 A 
ATOM     11  C   UNL A   1      35.404  21.853  25.838  1.00  0.00     0.093 A 
ATOM     12  C   UNL A   1      34.392  24.460  25.564  1.00  0.00    -0.037 A 
ATOM     13  C   UNL A   1      34.087  22.128  26.200  1.00  0.00     0.126 A 
ATOM     14  C   UNL A   1      33.549  23.419  26.019  1.00  0.00     0.000 A 
ATOM     15  C   UNL A   1      33.874  25.872  25.356  1.00  0.00     0.040 C 
ATOM     16  C   UNL A   1      32.089  23.675  26.272  1.00  0.00     0.020 C 
ATOM     17  C   UNL A   1      31.181  22.902  25.297  1.00  0.00     0.013 C 
ATOM     18  C   UNL A   1      31.677  25.138  26.243  1.00  0.00     0.012 C 
BRANCH   9  19
ATOM     19  O   UNL A   1      37.500  22.665  24.894  1.00  0.00    -0.497 OA
ATOM     20  C   UNL A   1      38.081  21.442  25.347  1.00  0.00     0.278 C 
ENDBRANCH   9  19
BRANCH  13  21
ATOM     21  O   UNL A   1      33.365  21.024  26.576  1.00  0.00    -0.496 OA
ATOM     22  C   UNL A   1      33.270  19.982  25.607  1.00  0.00     0.278 C 
ENDBRANCH  13  21
ENDBRANCH   7   8
ENDBRANCH   4   7
ENDBRANCH   2   3
ENDBRANCH   1   2
BRANCH   1  23
ATOM     23  C   UNL A   1      35.513  31.262  28.317  1.00  0.00     0.118 C 
BRANCH  23  24
ATOM     24  N   UNL A   1      35.489  31.102  29.760  1.00  0.00    -0.352 N 
ATOM     25  C   UNL A   1      36.381  30.495  30.613  1.00  0.00     0.251 C 
ATOM     26  H   UNL A   1      34.702  31.494  30.202  1.00  0.00     0.163 HD
ATOM     27  O   UNL A   1      35.981  30.187  31.736  1.00  0.00    -0.269 OA
BRANCH  25  28
ATOM     28  C   UNL A   1      37.793  30.206  30.239  1.00  0.00     0.039 A 
ATOM     29  C   UNL A   1      38.126  30.184  28.878  1.00  0.00     0.014 A 
ATOM     30  C   UNL A   1      38.761  29.830  31.174  1.00  0.00     0.014 A 
ATOM     31  C   UNL A   1      39.410  29.804  28.462  1.00  0.00     0.010 A 
ATOM     32  C   UNL A   1      40.065  29.526  30.764  1.00  0.00     0.010 A 
ATOM     33  C   UNL A   1      40.399  29.480  29.402  1.00  0.00    -0.014 A 
BRANCH  33  34
ATOM     34  C   UNL A   1      41.762  29.048  28.975  1.00  0.00     0.031 A 
ATOM     35  C   UNL A   1      42.895  30.043  28.910  1.00  0.00     0.074 A 
ATOM     36  C   UNL A   1      41.980  27.775  28.593  1.00  0.00     0.049 A 
ATOM     37  N   UNL A   1      44.130  29.869  28.507  1.00  0.00    -0.248 NA
ATOM     38  C   UNL A   1      42.592  31.420  29.326  1.00  0.00     0.031 C 
ATOM     39  C   UNL A   1      40.966  26.719  28.557  1.00  0.00     0.029 A 
ATOM     40  N   UNL A   1      43.121  27.155  28.144  1.00  0.00    -0.354 N 
ATOM     41  C   UNL A   1      44.740  31.117  28.592  1.00  0.00     0.074 A 
ATOM     42  C   UNL A   1      43.725  32.046  29.043  1.00  0.00     0.031 C 
ATOM     43  C   UNL A   1      41.531  25.584  28.117  1.00  0.00     0.029 A 
ATOM     44  C   UNL A   1      42.937  25.833  27.811  1.00  0.00     0.049 A 
ATOM     45  H   UNL A   1      43.989  27.614  28.070  1.00  0.00     0.167 HD
ATOM     46  C   UNL A   1      46.027  31.459  28.339  1.00  0.00     0.037 A 
ATOM     47  C   UNL A   1      43.795  24.925  27.305  1.00  0.00     0.037 A 
ATOM     48  C   UNL A   1      47.046  30.528  27.923  1.00  0.00     0.049 A 
ATOM     49  C   UNL A   1      45.228  25.310  27.064  1.00  0.00     0.074 A 
ATOM     50  C   UNL A   1      48.395  30.762  27.722  1.00  0.00     0.029 A 
ATOM     51  N   UNL A   1      46.827  29.188  27.637  1.00  0.00    -0.354 N 
ATOM     52  N   UNL A   1      45.805  26.476  27.225  1.00  0.00    -0.248 NA
ATOM     53  C   UNL A   1      46.130  24.254  26.584  1.00  0.00     0.031 C 
ATOM     54  C   UNL A   1      48.985  29.573  27.276  1.00  0.00     0.029 A 
ATOM     55  C   UNL A   1      48.011  28.587  27.240  1.00  0.00     0.049 A 
ATOM     56  H   UNL A   1      45.958  28.731  27.708  1.00  0.00     0.167 HD
ATOM     57  C   UNL A   1      47.140  26.293  26.879  1.00  0.00     0.074 A 
ATOM     58  C   UNL A   1      47.289  24.899  26.516  1.00  0.00     0.031 C 
ATOM     59  C   UNL A   1      48.149  27.200  26.869  1.00  0.00     0.037 A 
BRANCH  46  60
ATOM     60  C   UNL A   1      46.399  32.910  28.495  1.00  0.00     0.058 A 
ATOM     61  C   UNL A   1      46.368  33.804  27.411  1.00  0.00     0.135 A 
ATOM     62  C   UNL A   1      46.805  33.412  29.743  1.00  0.00     0.135 A 
ATOM     63  F   UNL A   1      45.996  33.378  26.194  1.00  0.00    -0.206 F 
ATOM     64  C   UNL A   1      46.782  35.126  27.545  1.00  0.00     0.059 A 
ATOM     65  C   UNL A   1      47.194  34.739  29.906  1.00  0.00     0.059 A 
ATOM     66  F   UNL A   1      46.844  32.605  30.815  1.00  0.00    -0.206 F 
ATOM     67  C   UNL A   1      47.206  35.581  28.795  1.00  0.00     0.060 A 
BRANCH  67  68
ATOM     68  S   UNL A   1      47.791  37.282  28.944  1.00  0.00     0.124 S 
ATOM     69  O   UNL A   1      47.501  37.565  30.345  1.00  0.00    -0.237 OA
ATOM     70  O   UNL A   1      49.204  37.161  28.601  1.00  0.00    -0.237 OA
ATOM     71  O   UNL A   1      46.974  38.007  27.975  1.00  0.00    -0.744 OA
ENDBRANCH  67  68
ENDBRANCH  46  60
BRANCH  47  72
ATOM     72  C   UNL A   1      43.304  23.551  27.018  1.00  0.00     0.058 A 
ATOM     73  C   UNL A   1      43.061  23.130  25.704  1.00  0.00     0.135 A 
ATOM     74  C   UNL A   1      43.143  22.612  28.049  1.00  0.00     0.135 A 
ATOM     75  F   UNL A   1      43.193  23.995  24.687  1.00  0.00    -0.206 F 
ATOM     76  C   UNL A   1      42.687  21.821  25.417  1.00  0.00     0.059 A 
ATOM     77  C   UNL A   1      42.791  21.292  27.785  1.00  0.00     0.059 A 
ATOM     78  F   UNL A   1      43.380  22.965  29.323  1.00  0.00    -0.206 F 
ATOM     79  C   UNL A   1      42.568  20.906  26.465  1.00  0.00     0.060 A 
BRANCH  79  80
ATOM     80  S   UNL A   1      42.189  19.183  26.071  1.00  0.00     0.124 S 
ATOM     81  O   UNL A   1      40.751  19.244  25.837  1.00  0.00    -0.237 OA
ATOM     82  O   UNL A   1      43.019  18.950  24.893  1.00  0.00    -0.237 OA
ATOM     83  O   UNL A   1      42.605  18.466  27.273  1.00  0.00    -0.744 OA
ENDBRANCH  79  80
ENDBRANCH  47  72
BRANCH  59  84
ATOM     84  C   UNL A   1      49.513  26.715  26.461  1.00  0.00     0.058 A 
ATOM     85  C   UNL A   1      50.358  26.049  27.362  1.00  0.00     0.135 A 
ATOM     86  C   UNL A   1      49.957  26.869  25.138  1.00  0.00     0.135 A 
ATOM     87  F   UNL A   1      49.984  25.880  28.640  1.00  0.00    -0.206 F 
ATOM     88  C   UNL A   1      51.605  25.569  26.971  1.00  0.00     0.059 A 
ATOM     89  C   UNL A   1      51.190  26.377  24.719  1.00  0.00     0.059 A 
ATOM     90  F   UNL A   1      49.185  27.490  24.232  1.00  0.00    -0.206 F 
ATOM     91  C   UNL A   1      52.012  25.738  25.646  1.00  0.00     0.060 A 
BRANCH  91  92
ATOM     92  S   UNL A   1      53.617  25.081  25.141  1.00  0.00     0.124 S 
ATOM     93  O   UNL A   1      53.678  25.496  23.744  1.00  0.00    -0.237 OA
ATOM     94  O   UNL A   1      54.534  25.766  26.047  1.00  0.00    -0.237 OA
ATOM     95  O   UNL A   1      53.482  23.645  25.365  1.00  0.00    -0.744 OA
ENDBRANCH  91  92
ENDBRANCH  59  84
ENDBRANCH  33  34
ENDBRANCH  25  28
ENDBRANCH  23  24
ENDBRANCH   1  23
TORSDOF 16
ENDMDL
MODEL 2
REMARK VINA RESULT:     -12.1      4.831      6.265
REMARK SMILES COc1cc2c(c(OC)c1)[C@H](C)C[C@H](CC(=O)NCCCNC(=O)c1ccc(-c3c4nc(c(-c5c(F)cc(S(=O)(=O)[O-])cc5F)c5ccc([nH]5)c(-c5c(F)cc(S(=O)(=O)[O-])cc5F)c5nc(c(-c6c(F)cc(S(=O)(=O)[O-])cc6F)c6ccc3[nH]6)C=C5)C=C4)cc1)C2
REMARK SMILES IDX 20 1 19 2 18 3 16 4 17 5 15 7 14 8 3 9 4 10 10 11 5 12 7 13
REMARK SMILES IDX 6 14 91 15 11 16 12 17 13 18 2 19 1 20 8 21 9 22 21 23 22 24
REMARK SMILES IDX 23 25 24 27 25 28 26 29 90 30 27 31 89 32 28 33 29 34 30 35
REMARK SMILES IDX 83 36 31 37 88 38 82 39 84 40 32 41 87 42 81 43 80 44 33 46
REMARK SMILES IDX 67 47 46 48 66 49 47 50 50 51 65 52 85 53 48 54 49 55 64 57
REMARK SMILES IDX 86 58 51 59 34 60 35 61 44 62 36 63 37 64 43 65 45 66 38 67
REMARK SMILES IDX 39 68 40 69 41 70 42 71 68 72 69 73 78 74 70 75 71 76 77 77
REMARK SMILES IDX 79 78 72 79 73 80 74 81 75 82 76 83 52 84 53 85 62 86 54 87
REMARK SMILES IDX 55 88 61 89 63 90 56 91 57 92 58 93 59 94 60 95
REMARK H PARENT 18 6 22 26 84 45 50 56
REMARK Flexibility Score: inf
ROOT
ATOM      1  C   UNL A   1      34.053  28.395  24.339  1.00  0.00     0.042 C 
ENDROOT
BRANCH   1   2
ATOM      2  C   UNL A   1      32.870  28.125  23.391  1.00  0.00     0.117 C 
BRANCH   2   3
ATOM      3  N   UNL A   1      33.219  27.433  22.150  1.00  0.00    -0.356 N 
ATOM      4  C   UNL A   1      32.836  26.232  21.620  1.00  0.00     0.220 C 
ATOM      5  O   UNL A   1      33.191  25.987  20.463  1.00  0.00    -0.275 OA
ATOM      6  H   UNL A   1      33.855  27.929  21.586  1.00  0.00     0.163 HD
BRANCH   4   7
ATOM      7  C   UNL A   1      32.029  25.196  22.405  1.00  0.00     0.104 C 
BRANCH   7   8
ATOM      8  C   UNL A   1      32.869  23.951  22.779  1.00  0.00     0.003 C 
ATOM      9  C   UNL A   1      33.172  19.247  24.226  1.00  0.00     0.122 A 
ATOM     10  C   UNL A   1      32.438  20.302  23.680  1.00  0.00     0.050 A 
ATOM     11  C   UNL A   1      34.420  19.492  24.791  1.00  0.00     0.093 A 
ATOM     12  C   UNL A   1      32.907  21.625  23.759  1.00  0.00    -0.037 A 
ATOM     13  C   UNL A   1      34.911  20.794  24.869  1.00  0.00     0.126 A 
ATOM     14  C   UNL A   1      34.141  21.879  24.403  1.00  0.00     0.000 A 
ATOM     15  C   UNL A   1      32.036  22.749  23.230  1.00  0.00     0.040 C 
ATOM     16  C   UNL A   1      34.609  23.291  24.622  1.00  0.00     0.020 C 
ATOM     17  C   UNL A   1      34.667  23.665  26.115  1.00  0.00     0.013 C 
ATOM     18  C   UNL A   1      33.803  24.357  23.898  1.00  0.00     0.012 C 
BRANCH   9  19
ATOM     19  O   UNL A   1      32.593  18.008  24.154  1.00  0.00    -0.497 OA
ATOM     20  C   UNL A   1      33.374  17.045  23.443  1.00  0.00     0.278 C 
ENDBRANCH   9  19
BRANCH  13  21
ATOM     21  O   UNL A   1      36.090  20.909  25.560  1.00  0.00    -0.496 OA
ATOM     22  C   UNL A   1      37.273  20.981  24.767  1.00  0.00     0.278 C 
ENDBRANCH  13  21
ENDBRANCH   7   8
ENDBRANCH   4   7
ENDBRANCH   2   3
ENDBRANCH   1   2
BRANCH   1  23
ATOM     23  C   UNL A   1      33.704  28.469  25.822  1.00  0.00     0.118 C 
BRANCH  23  24
ATOM     24  N   UNL A   1      33.600  29.849  26.261  1.00  0.00    -0.352 N 
ATOM     25  C   UNL A   1      34.266  30.530  27.254  1.00  0.00     0.251 C 
ATOM     26  H   UNL A   1      32.943  30.388  25.766  1.00  0.00     0.163 HD
ATOM     27  O   UNL A   1      33.768  31.579  27.663  1.00  0.00    -0.269 OA
BRANCH  25  28
ATOM     28  C   UNL A   1      35.550  30.057  27.841  1.00  0.00     0.039 A 
ATOM     29  C   UNL A   1      35.553  29.636  29.178  1.00  0.00     0.014 A 
ATOM     30  C   UNL A   1      36.767  30.137  27.160  1.00  0.00     0.014 A 
ATOM     31  C   UNL A   1      36.752  29.292  29.817  1.00  0.00     0.010 A 
ATOM     32  C   UNL A   1      37.955  29.719  27.773  1.00  0.00     0.010 A 
ATOM     33  C   UNL A   1      37.968  29.319  29.118  1.00  0.00    -0.014 A 
BRANCH  33  34
ATOM     34  C   UNL A   1      39.256  28.981  29.791  1.00  0.00     0.031 A 
ATOM     35  C   UNL A   1      39.733  29.779  30.979  1.00  0.00     0.074 A 
ATOM     36  C   UNL A   1      40.032  27.990  29.309  1.00  0.00     0.049 A 
ATOM     37  N   UNL A   1      40.850  29.674  31.656  1.00  0.00    -0.248 NA
ATOM     38  C   UNL A   1      38.849  30.856  31.450  1.00  0.00     0.031 C 
ATOM     39  C   UNL A   1      39.721  27.169  28.137  1.00  0.00     0.029 A 
ATOM     40  N   UNL A   1      41.250  27.517  29.732  1.00  0.00    -0.354 N 
ATOM     41  C   UNL A   1      40.817  30.687  32.610  1.00  0.00     0.074 A 
ATOM     42  C   UNL A   1      39.588  31.422  32.393  1.00  0.00     0.031 C 
ATOM     43  C   UNL A   1      40.717  26.292  27.939  1.00  0.00     0.029 A 
ATOM     44  C   UNL A   1      41.752  26.504  28.949  1.00  0.00     0.049 A 
ATOM     45  H   UNL A   1      41.719  27.869  30.523  1.00  0.00     0.167 HD
ATOM     46  C   UNL A   1      41.712  30.970  33.588  1.00  0.00     0.037 A 
ATOM     47  C   UNL A   1      42.915  25.828  29.023  1.00  0.00     0.037 A 
ATOM     48  C   UNL A   1      42.917  30.218  33.826  1.00  0.00     0.049 A 
ATOM     49  C   UNL A   1      43.881  26.129  30.135  1.00  0.00     0.074 A 
ATOM     50  C   UNL A   1      43.844  30.375  34.842  1.00  0.00     0.029 A 
ATOM     51  N   UNL A   1      43.368  29.170  33.035  1.00  0.00    -0.354 N 
ATOM     52  N   UNL A   1      43.795  27.038  31.074  1.00  0.00    -0.248 NA
ATOM     53  C   UNL A   1      45.095  25.304  30.204  1.00  0.00     0.031 C 
ATOM     54  C   UNL A   1      44.876  29.450  34.641  1.00  0.00     0.029 A 
ATOM     55  C   UNL A   1      44.570  28.687  33.525  1.00  0.00     0.049 A 
ATOM     56  H   UNL A   1      42.900  28.822  32.241  1.00  0.00     0.167 HD
ATOM     57  C   UNL A   1      44.936  26.889  31.856  1.00  0.00     0.074 A 
ATOM     58  C   UNL A   1      45.689  25.790  31.288  1.00  0.00     0.031 C 
ATOM     59  C   UNL A   1      45.320  27.598  32.948  1.00  0.00     0.037 A 
BRANCH  46  60
ATOM     60  C   UNL A   1      41.420  32.158  34.468  1.00  0.00     0.058 A 
ATOM     61  C   UNL A   1      40.622  32.049  35.619  1.00  0.00     0.135 A 
ATOM     62  C   UNL A   1      41.934  33.425  34.148  1.00  0.00     0.135 A 
ATOM     63  F   UNL A   1      40.098  30.865  35.969  1.00  0.00    -0.206 F 
ATOM     64  C   UNL A   1      40.296  33.163  36.387  1.00  0.00     0.059 A 
ATOM     65  C   UNL A   1      41.646  34.548  34.919  1.00  0.00     0.059 A 
ATOM     66  F   UNL A   1      42.711  33.586  33.064  1.00  0.00    -0.206 F 
ATOM     67  C   UNL A   1      40.803  34.412  36.021  1.00  0.00     0.060 A 
BRANCH  67  68
ATOM     68  S   UNL A   1      40.329  35.856  36.994  1.00  0.00     0.124 S 
ATOM     69  O   UNL A   1      41.614  36.258  37.557  1.00  0.00    -0.237 OA
ATOM     70  O   UNL A   1      39.773  36.749  35.983  1.00  0.00    -0.237 OA
ATOM     71  O   UNL A   1      39.365  35.319  37.950  1.00  0.00    -0.744 OA
ENDBRANCH  67  68
ENDBRANCH  46  60
BRANCH  47  72
ATOM     72  C   UNL A   1      43.205  24.779  28.009  1.00  0.00     0.058 A 
ATOM     73  C   UNL A   1      43.872  25.091  26.816  1.00  0.00     0.135 A 
ATOM     74  C   UNL A   1      42.888  23.433  28.251  1.00  0.00     0.135 A 
ATOM     75  F   UNL A   1      44.188  26.365  26.538  1.00  0.00    -0.206 F 
ATOM     76  C   UNL A   1      44.227  24.104  25.902  1.00  0.00     0.059 A 
ATOM     77  C   UNL A   1      43.250  22.426  27.363  1.00  0.00     0.059 A 
ATOM     78  F   UNL A   1      42.263  23.084  29.387  1.00  0.00    -0.206 F 
ATOM     79  C   UNL A   1      43.923  22.772  26.191  1.00  0.00     0.060 A 
BRANCH  79  80
ATOM     80  S   UNL A   1      44.485  21.488  25.050  1.00  0.00     0.124 S 
ATOM     81  O   UNL A   1      44.364  22.164  23.764  1.00  0.00    -0.237 OA
ATOM     82  O   UNL A   1      45.846  21.240  25.516  1.00  0.00    -0.237 OA
ATOM     83  O   UNL A   1      43.543  20.398  25.283  1.00  0.00    -0.744 OA
ENDBRANCH  79  80
ENDBRANCH  47  72
BRANCH  59  84
ATOM     84  C   UNL A   1      46.611  27.204  33.612  1.00  0.00     0.058 A 
ATOM     85  C   UNL A   1      46.654  26.216  34.607  1.00  0.00     0.135 A 
ATOM     86  C   UNL A   1      47.825  27.783  33.209  1.00  0.00     0.135 A 
ATOM     87  F   UNL A   1      45.521  25.634  35.033  1.00  0.00    -0.206 F 
ATOM     88  C   UNL A   1      47.855  25.828  35.194  1.00  0.00     0.059 A 
ATOM     89  C   UNL A   1      49.040  27.394  33.766  1.00  0.00     0.059 A 
ATOM     90  F   UNL A   1      47.841  28.727  32.254  1.00  0.00    -0.206 F 
ATOM     91  C   UNL A   1      49.044  26.423  34.766  1.00  0.00     0.060 A 
BRANCH  91  92
ATOM     92  S   UNL A   1      50.600  25.888  35.510  1.00  0.00     0.124 S 
ATOM     93  O   UNL A   1      50.365  26.174  36.921  1.00  0.00    -0.237 OA
ATOM     94  O   UNL A   1      50.650  24.474  35.148  1.00  0.00    -0.237 OA
ATOM     95  O   UNL A   1      51.596  26.731  34.855  1.00  0.00    -0.744 OA
ENDBRANCH  91  92
ENDBRANCH  59  84
ENDBRANCH  33  34
ENDBRANCH  25  28
ENDBRANCH  23  24
ENDBRANCH   1  23
TORSDOF 16
ENDMDL
MODEL 3
REMARK VINA RESULT:     -12.0      3.017      3.891
REMARK SMILES COc1cc2c(c(OC)c1)[C@H](C)C[C@H](CC(=O)NCCCNC(=O)c1ccc(-c3c4nc(c(-c5c(F)cc(S(=O)(=O)[O-])cc5F)c5ccc([nH]5)c(-c5c(F)cc(S(=O)(=O)[O-])cc5F)c5nc(c(-c6c(F)cc(S(=O)(=O)[O-])cc6F)c6ccc3[nH]6)C=C5)C=C4)cc1)C2
REMARK SMILES IDX 20 1 19 2 18 3 16 4 17 5 15 7 14 8 3 9 4 10 10 11 5 12 7 13
REMARK SMILES IDX 6 14 91 15 11 16 12 17 13 18 2 19 1 20 8 21 9 22 21 23 22 24
REMARK SMILES IDX 23 25 24 27 25 28 26 29 90 30 27 31 89 32 28 33 29 34 30 35
REMARK SMILES IDX 83 36 31 37 88 38 82 39 84 40 32 41 87 42 81 43 80 44 33 46
REMARK SMILES IDX 67 47 46 48 66 49 47 50 50 51 65 52 85 53 48 54 49 55 64 57
REMARK SMILES IDX 86 58 51 59 34 60 35 61 44 62 36 63 37 64 43 65 45 66 38 67
REMARK SMILES IDX 39 68 40 69 41 70 42 71 68 72 69 73 78 74 70 75 71 76 77 77
REMARK SMILES IDX 79 78 72 79 73 80 74 81 75 82 76 83 52 84 53 85 62 86 54 87
REMARK SMILES IDX 55 88 61 89 63 90 56 91 57 92 58 93 59 94 60 95
REMARK H PARENT 18 6 22 26 84 45 50 56
REMARK Flexibility Score: inf
ROOT
ATOM      1  C   UNL A   1      33.969  27.935  25.982  1.00  0.00     0.042 C 
ENDROOT
BRANCH   1   2
ATOM      2  C   UNL A   1      33.399  28.510  24.673  1.00  0.00     0.117 C 
BRANCH   2   3
ATOM      3  N   UNL A   1      33.860  27.846  23.454  1.00  0.00    -0.356 N 
ATOM      4  C   UNL A   1      33.385  26.775  22.747  1.00  0.00     0.220 C 
ATOM      5  O   UNL A   1      33.913  26.541  21.655  1.00  0.00    -0.275 OA
ATOM      6  H   UNL A   1      34.671  28.247  23.067  1.00  0.00     0.163 HD
BRANCH   4   7
ATOM      7  C   UNL A   1      32.272  25.862  23.265  1.00  0.00     0.104 C 
BRANCH   7   8
ATOM      8  C   UNL A   1      32.821  24.567  23.910  1.00  0.00     0.003 C 
ATOM      9  C   UNL A   1      36.528  21.430  24.764  1.00  0.00     0.122 A 
ATOM     10  C   UNL A   1      36.074  22.692  24.378  1.00  0.00     0.050 A 
ATOM     11  C   UNL A   1      35.620  20.388  24.925  1.00  0.00     0.093 A 
ATOM     12  C   UNL A   1      34.719  22.910  24.074  1.00  0.00    -0.037 A 
ATOM     13  C   UNL A   1      34.270  20.583  24.641  1.00  0.00     0.126 A 
ATOM     14  C   UNL A   1      33.812  21.828  24.163  1.00  0.00     0.000 A 
ATOM     15  C   UNL A   1      34.285  24.276  23.573  1.00  0.00     0.040 C 
ATOM     16  C   UNL A   1      32.384  21.992  23.719  1.00  0.00     0.020 C 
ATOM     17  C   UNL A   1      32.050  21.128  22.489  1.00  0.00     0.013 C 
ATOM     18  C   UNL A   1      31.962  23.422  23.423  1.00  0.00     0.012 C 
BRANCH   9  19
ATOM     19  O   UNL A   1      37.877  21.311  24.973  1.00  0.00    -0.497 OA
ATOM     20  C   UNL A   1      38.415  22.296  25.856  1.00  0.00     0.278 C 
ENDBRANCH   9  19
BRANCH  13  21
ATOM     21  O   UNL A   1      33.509  19.445  24.718  1.00  0.00    -0.496 OA
ATOM     22  C   UNL A   1      34.195  18.219  24.474  1.00  0.00     0.278 C 
ENDBRANCH  13  21
ENDBRANCH   7   8
ENDBRANCH   4   7
ENDBRANCH   2   3
ENDBRANCH   1   2
BRANCH   1  23
ATOM     23  C   UNL A   1      33.265  28.379  27.260  1.00  0.00     0.118 C 
BRANCH  23  24
ATOM     24  N   UNL A   1      33.371  29.816  27.437  1.00  0.00    -0.352 N 
ATOM     25  C   UNL A   1      34.354  30.580  28.022  1.00  0.00     0.251 C 
ATOM     26  H   UNL A   1      32.613  30.330  27.079  1.00  0.00     0.163 HD
ATOM     27  O   UNL A   1      34.064  31.728  28.358  1.00  0.00    -0.269 OA
BRANCH  25  28
ATOM     28  C   UNL A   1      35.737  30.081  28.256  1.00  0.00     0.039 A 
ATOM     29  C   UNL A   1      36.083  29.666  29.550  1.00  0.00     0.014 A 
ATOM     30  C   UNL A   1      36.735  30.130  27.279  1.00  0.00     0.014 A 
ATOM     31  C   UNL A   1      37.400  29.297  29.855  1.00  0.00     0.010 A 
ATOM     32  C   UNL A   1      38.032  29.688  27.563  1.00  0.00     0.010 A 
ATOM     33  C   UNL A   1      38.390  29.293  28.862  1.00  0.00    -0.014 A 
BRANCH  33  34
ATOM     34  C   UNL A   1      39.802  28.929  29.176  1.00  0.00     0.031 A 
ATOM     35  C   UNL A   1      40.728  29.933  29.818  1.00  0.00     0.074 A 
ATOM     36  C   UNL A   1      40.278  27.714  28.840  1.00  0.00     0.049 A 
ATOM     37  N   UNL A   1      42.000  29.820  30.111  1.00  0.00    -0.248 NA
ATOM     38  C   UNL A   1      40.153  31.246  30.149  1.00  0.00     0.031 C 
ATOM     39  C   UNL A   1      39.512  26.663  28.168  1.00  0.00     0.029 A 
ATOM     40  N   UNL A   1      41.528  27.164  28.999  1.00  0.00    -0.354 N 
ATOM     41  C   UNL A   1      42.384  31.053  30.630  1.00  0.00     0.074 A 
ATOM     42  C   UNL A   1      41.219  31.910  30.570  1.00  0.00     0.031 C 
ATOM     43  C   UNL A   1      40.303  25.596  27.979  1.00  0.00     0.029 A 
ATOM     44  C   UNL A   1      41.641  25.893  28.487  1.00  0.00     0.049 A 
ATOM     45  H   UNL A   1      42.271  27.635  29.440  1.00  0.00     0.167 HD
ATOM     46  C   UNL A   1      43.586  31.434  31.130  1.00  0.00     0.037 A 
ATOM     47  C   UNL A   1      42.699  25.061  28.420  1.00  0.00     0.037 A 
ATOM     48  C   UNL A   1      44.735  30.570  31.221  1.00  0.00     0.049 A 
ATOM     49  C   UNL A   1      44.015  25.484  29.011  1.00  0.00     0.074 A 
ATOM     50  C   UNL A   1      45.970  30.838  31.787  1.00  0.00     0.029 A 
ATOM     51  N   UNL A   1      44.795  29.274  30.730  1.00  0.00    -0.354 N 
ATOM     52  N   UNL A   1      44.337  26.626  29.568  1.00  0.00    -0.248 NA
ATOM     53  C   UNL A   1      45.109  24.503  28.974  1.00  0.00     0.031 C 
ATOM     54  C   UNL A   1      46.790  29.719  31.600  1.00  0.00     0.029 A 
ATOM     55  C   UNL A   1      46.052  28.737  30.957  1.00  0.00     0.049 A 
ATOM     56  H   UNL A   1      44.052  28.805  30.285  1.00  0.00     0.167 HD
ATOM     57  C   UNL A   1      45.665  26.498  29.962  1.00  0.00     0.074 A 
ATOM     58  C   UNL A   1      46.082  25.161  29.592  1.00  0.00     0.031 C 
ATOM     59  C   UNL A   1      46.463  27.407  30.577  1.00  0.00     0.037 A 
BRANCH  46  60
ATOM     60  C   UNL A   1      43.715  32.858  31.604  1.00  0.00     0.058 A 
ATOM     61  C   UNL A   1      43.311  33.250  32.890  1.00  0.00     0.135 A 
ATOM     62  C   UNL A   1      44.240  33.847  30.755  1.00  0.00     0.135 A 
ATOM     63  F   UNL A   1      42.795  32.349  33.741  1.00  0.00    -0.206 F 
ATOM     64  C   UNL A   1      43.366  34.580  33.298  1.00  0.00     0.059 A 
ATOM     65  C   UNL A   1      44.332  35.178  31.153  1.00  0.00     0.059 A 
ATOM     66  F   UNL A   1      44.652  33.527  29.518  1.00  0.00    -0.206 F 
ATOM     67  C   UNL A   1      43.867  35.540  32.416  1.00  0.00     0.060 A 
BRANCH  67  68
ATOM     68  S   UNL A   1      43.883  37.268  32.936  1.00  0.00     0.124 S 
ATOM     69  O   UNL A   1      43.693  37.954  31.662  1.00  0.00    -0.237 OA
ATOM     70  O   UNL A   1      42.759  37.329  33.863  1.00  0.00    -0.237 OA
ATOM     71  O   UNL A   1      45.201  37.426  33.544  1.00  0.00    -0.744 OA
ENDBRANCH  67  68
ENDBRANCH  46  60
BRANCH  47  72
ATOM     72  C   UNL A   1      42.531  23.730  27.781  1.00  0.00     0.058 A 
ATOM     73  C   UNL A   1      42.630  23.577  26.391  1.00  0.00     0.135 A 
ATOM     74  C   UNL A   1      42.344  22.574  28.556  1.00  0.00     0.135 A 
ATOM     75  F   UNL A   1      42.800  24.654  25.608  1.00  0.00    -0.206 F 
ATOM     76  C   UNL A   1      42.563  22.324  25.790  1.00  0.00     0.059 A 
ATOM     77  C   UNL A   1      42.294  21.309  27.980  1.00  0.00     0.059 A 
ATOM     78  F   UNL A   1      42.258  22.669  29.893  1.00  0.00    -0.206 F 
ATOM     79  C   UNL A   1      42.408  21.194  26.596  1.00  0.00     0.060 A 
BRANCH  79  80
ATOM     80  S   UNL A   1      42.432  19.565  25.815  1.00  0.00     0.124 S 
ATOM     81  O   UNL A   1      43.407  19.763  24.749  1.00  0.00    -0.237 OA
ATOM     82  O   UNL A   1      42.856  18.704  26.915  1.00  0.00    -0.237 OA
ATOM     83  O   UNL A   1      41.050  19.381  25.382  1.00  0.00    -0.744 OA
ENDBRANCH  79  80
ENDBRANCH  47  72
BRANCH  59  84
ATOM     84  C   UNL A   1      47.871  26.988  30.902  1.00  0.00     0.058 A 
ATOM     85  C   UNL A   1      48.182  26.315  32.093  1.00  0.00     0.135 A 
ATOM     86  C   UNL A   1      48.910  27.212  29.985  1.00  0.00     0.135 A 
ATOM     87  F   UNL A   1      47.225  26.081  33.006  1.00  0.00    -0.206 F 
ATOM     88  C   UNL A   1      49.479  25.896  32.375  1.00  0.00     0.059 A 
ATOM     89  C   UNL A   1      50.210  26.781  30.235  1.00  0.00     0.059 A 
ATOM     90  F   UNL A   1      48.666  27.842  28.825  1.00  0.00    -0.206 F 
ATOM     91  C   UNL A   1      50.487  26.133  31.438  1.00  0.00     0.060 A 
BRANCH  91  92
ATOM     92  S   UNL A   1      52.160  25.555  31.797  1.00  0.00     0.124 S 
ATOM     93  O   UNL A   1      51.933  24.135  32.047  1.00  0.00    -0.237 OA
ATOM     94  O   UNL A   1      52.874  25.877  30.566  1.00  0.00    -0.237 OA
ATOM     95  O   UNL A   1      52.547  26.344  32.963  1.00  0.00    -0.744 OA
ENDBRANCH  91  92
ENDBRANCH  59  84
ENDBRANCH  33  34
ENDBRANCH  25  28
ENDBRANCH  23  24
ENDBRANCH   1  23
TORSDOF 16
ENDMDL
