MODEL 1
REMARK VINA RESULT:     -11.7      0.000      0.000
REMARK SMILES CC1([C@](C)(Nc2cccc(Cl)c2)C(=O)NCCCNC(=O)c2ccc(-c3c4nc(c(-c5c(F)cc(S(=O)(=O)[O-])cc5F)c5ccc([nH]5)c(-c5c(F)cc(S(=O)(=O)[O-])cc5F)c5nc(c(-c6c(F)cc(S(=O)(=O)[O-])cc6F)c6ccc3[nH]6)C=C5)C=C4)cc2)CC1
REMARK SMILES IDX 17 1 16 2 15 3 13 4 14 5 3 7 4 8 2 9 1 10 88 11 89 12 5 13
REMARK SMILES IDX 6 15 7 16 12 17 8 18 10 19 9 20 11 21 18 22 19 23 20 24
REMARK SMILES IDX 21 26 22 27 23 28 87 29 24 30 86 31 25 32 26 33 27 34 80 35
REMARK SMILES IDX 28 36 85 37 79 38 81 39 29 40 84 41 78 42 77 43 30 45 64 46
REMARK SMILES IDX 43 47 63 48 44 49 47 50 62 51 82 52 45 53 46 54 61 56 83 57
REMARK SMILES IDX 48 58 31 59 32 60 41 61 33 62 34 63 40 64 42 65 35 66 36 67
REMARK SMILES IDX 37 68 38 69 39 70 65 71 66 72 75 73 67 74 68 75 74 76 76 77
REMARK SMILES IDX 69 78 70 79 71 80 72 81 73 82 49 83 50 84 59 85 51 86 52 87
REMARK SMILES IDX 58 88 60 89 53 90 54 91 55 92 56 93 57 94
REMARK H PARENT 15 6 5 14 19 25 81 44 47 55
REMARK Flexibility Score: inf
ROOT
ATOM      1  C   UNL A   1      37.545  23.236  25.806  1.00  0.00     0.042 C 
ENDROOT
BRANCH   1   2
ATOM      2  C   UNL A   1      36.063  23.520  26.013  1.00  0.00     0.117 C 
BRANCH   2   3
ATOM      3  N   UNL A   1      35.369  22.641  26.937  1.00  0.00    -0.354 N 
ATOM      4  C   UNL A   1      34.214  21.914  26.791  1.00  0.00     0.245 C 
ATOM      5  O   UNL A   1      33.871  21.236  27.769  1.00  0.00    -0.272 OA
ATOM      6  H   UNL A   1      35.800  22.552  27.817  1.00  0.00     0.163 HD
BRANCH   4   7
ATOM      7  C   UNL A   1      33.387  21.914  25.451  1.00  0.00     0.119 C 
ATOM      8  C   UNL A   1      34.337  21.770  24.230  1.00  0.00     0.046 C 
BRANCH   7   9
ATOM      9  C   UNL A   1      32.684  23.327  25.300  1.00  0.00    -0.001 C 
ATOM     10  C   UNL A   1      33.143  24.113  24.072  1.00  0.00     0.014 C 
ATOM     11  C   UNL A   1      32.266  24.164  26.511  1.00  0.00     0.010 C 
ATOM     12  C   UNL A   1      31.213  23.527  25.672  1.00  0.00     0.010 C 
ENDBRANCH   7   9
BRANCH   7  13
ATOM     13  N   UNL A   1      32.437  20.770  25.361  1.00  0.00    -0.371 N 
ATOM     14  H   UNL A   1      31.588  20.861  25.851  1.00  0.00     0.161 HD
BRANCH  13  15
ATOM     15  C   UNL A   1      32.628  19.580  24.652  1.00  0.00     0.036 A 
ATOM     16  C   UNL A   1      32.163  19.336  23.350  1.00  0.00     0.026 A 
ATOM     17  C   UNL A   1      33.406  18.562  25.224  1.00  0.00     0.046 A 
ATOM     18  C   UNL A   1      32.546  18.209  22.608  1.00  0.00     0.004 A 
ATOM     19  C   UNL A   1      33.741  17.402  24.509  1.00  0.00     0.043 A 
ATOM     20  C   UNL A   1      33.347  17.239  23.187  1.00  0.00     0.020 A 
ATOM     21  Cl  UNL A   1      34.657  16.160  25.270  1.00  0.00    -0.084 Cl
ENDBRANCH  13  15
ENDBRANCH   7  13
ENDBRANCH   4   7
ENDBRANCH   2   3
ENDBRANCH   1   2
BRANCH   1  22
ATOM     22  C   UNL A   1      38.477  24.178  26.545  1.00  0.00     0.118 C 
BRANCH  22  23
ATOM     23  N   UNL A   1      39.858  24.001  26.127  1.00  0.00    -0.352 N 
ATOM     24  C   UNL A   1      40.959  24.755  26.454  1.00  0.00     0.251 C 
ATOM     25  H   UNL A   1      40.027  23.237  25.528  1.00  0.00     0.163 HD
ATOM     26  O   UNL A   1      41.995  24.631  25.810  1.00  0.00    -0.269 OA
BRANCH  24  27
ATOM     27  C   UNL A   1      40.886  25.725  27.573  1.00  0.00     0.039 A 
ATOM     28  C   UNL A   1      41.845  26.736  27.660  1.00  0.00     0.014 A 
ATOM     29  C   UNL A   1      39.882  25.627  28.542  1.00  0.00     0.014 A 
ATOM     30  C   UNL A   1      41.766  27.680  28.688  1.00  0.00     0.010 A 
ATOM     31  C   UNL A   1      39.759  26.613  29.517  1.00  0.00     0.010 A 
ATOM     32  C   UNL A   1      40.707  27.643  29.611  1.00  0.00    -0.014 A 
BRANCH  32  33
ATOM     33  C   UNL A   1      40.584  28.656  30.692  1.00  0.00     0.031 A 
ATOM     34  C   UNL A   1      41.445  28.548  31.924  1.00  0.00     0.074 A 
ATOM     35  C   UNL A   1      39.662  29.634  30.598  1.00  0.00     0.049 A 
ATOM     36  N   UNL A   1      41.430  29.277  33.009  1.00  0.00    -0.248 NA
ATOM     37  C   UNL A   1      42.437  27.460  31.948  1.00  0.00     0.031 C 
ATOM     38  C   UNL A   1      38.741  29.824  29.475  1.00  0.00     0.029 A 
ATOM     39  N   UNL A   1      39.334  30.646  31.468  1.00  0.00    -0.354 N 
ATOM     40  C   UNL A   1      42.391  28.729  33.850  1.00  0.00     0.074 A 
ATOM     41  C   UNL A   1      42.939  27.576  33.170  1.00  0.00     0.031 C 
ATOM     42  C   UNL A   1      37.963  30.891  29.719  1.00  0.00     0.029 A 
ATOM     43  C   UNL A   1      38.297  31.437  31.031  1.00  0.00     0.049 A 
ATOM     44  H   UNL A   1      39.798  30.790  32.324  1.00  0.00     0.167 HD
ATOM     45  C   UNL A   1      42.795  29.158  35.069  1.00  0.00     0.037 A 
ATOM     46  C   UNL A   1      37.673  32.473  31.627  1.00  0.00     0.037 A 
ATOM     47  C   UNL A   1      42.267  30.324  35.729  1.00  0.00     0.049 A 
ATOM     48  C   UNL A   1      38.134  32.926  32.987  1.00  0.00     0.074 A 
ATOM     49  C   UNL A   1      42.658  30.877  36.936  1.00  0.00     0.029 A 
ATOM     50  N   UNL A   1      41.233  31.111  35.244  1.00  0.00    -0.354 N 
ATOM     51  N   UNL A   1      39.093  32.437  33.737  1.00  0.00    -0.248 NA
ATOM     52  C   UNL A   1      37.435  34.075  33.581  1.00  0.00     0.031 C 
ATOM     53  C   UNL A   1      41.825  31.968  37.206  1.00  0.00     0.029 A 
ATOM     54  C   UNL A   1      40.955  32.130  36.140  1.00  0.00     0.049 A 
ATOM     55  H   UNL A   1      40.767  30.967  34.389  1.00  0.00     0.167 HD
ATOM     56  C   UNL A   1      39.131  33.234  34.876  1.00  0.00     0.074 A 
ATOM     57  C   UNL A   1      38.107  34.245  34.712  1.00  0.00     0.031 C 
ATOM     58  C   UNL A   1      39.942  33.139  35.958  1.00  0.00     0.037 A 
BRANCH  45  59
ATOM     59  C   UNL A   1      43.862  28.367  35.776  1.00  0.00     0.058 A 
ATOM     60  C   UNL A   1      43.545  27.328  36.667  1.00  0.00     0.135 A 
ATOM     61  C   UNL A   1      45.221  28.613  35.517  1.00  0.00     0.135 A 
ATOM     62  F   UNL A   1      42.265  27.058  36.964  1.00  0.00    -0.206 F 
ATOM     63  C   UNL A   1      44.537  26.577  37.291  1.00  0.00     0.059 A 
ATOM     64  C   UNL A   1      46.228  27.855  36.108  1.00  0.00     0.059 A 
ATOM     65  F   UNL A   1      45.580  29.594  34.675  1.00  0.00    -0.206 F 
ATOM     66  C   UNL A   1      45.875  26.847  37.002  1.00  0.00     0.060 A 
BRANCH  66  67
ATOM     67  S   UNL A   1      47.147  25.850  37.807  1.00  0.00     0.124 S 
ATOM     68  O   UNL A   1      46.500  24.542  37.861  1.00  0.00    -0.237 OA
ATOM     69  O   UNL A   1      48.267  25.965  36.879  1.00  0.00    -0.237 OA
ATOM     70  O   UNL A   1      47.333  26.510  39.096  1.00  0.00    -0.744 OA
ENDBRANCH  66  67
ENDBRANCH  45  59
BRANCH  46  71
ATOM     71  C   UNL A   1      36.543  33.157  30.940  1.00  0.00     0.058 A 
ATOM     72  C   UNL A   1      35.219  32.986  31.374  1.00  0.00     0.135 A 
ATOM     73  C   UNL A   1      36.763  33.995  29.836  1.00  0.00     0.135 A 
ATOM     74  F   UNL A   1      34.955  32.189  32.420  1.00  0.00    -0.206 F 
ATOM     75  C   UNL A   1      34.154  33.605  30.728  1.00  0.00     0.059 A 
ATOM     76  C   UNL A   1      35.718  34.648  29.191  1.00  0.00     0.059 A 
ATOM     77  F   UNL A   1      38.012  34.205  29.389  1.00  0.00    -0.206 F 
ATOM     78  C   UNL A   1      34.414  34.436  29.637  1.00  0.00     0.060 A 
BRANCH  78  79
ATOM     79  S   UNL A   1      33.026  35.264  28.830  1.00  0.00     0.124 S 
ATOM     80  O   UNL A   1      32.583  34.243  27.887  1.00  0.00    -0.237 OA
ATOM     81  O   UNL A   1      32.131  35.527  29.953  1.00  0.00    -0.237 OA
ATOM     82  O   UNL A   1      33.640  36.448  28.238  1.00  0.00    -0.744 OA
ENDBRANCH  78  79
ENDBRANCH  46  71
BRANCH  58  83
ATOM     83  C   UNL A   1      39.793  34.176  37.038  1.00  0.00     0.058 A 
ATOM     84  C   UNL A   1      38.978  33.963  38.161  1.00  0.00     0.135 A 
ATOM     85  C   UNL A   1      40.537  35.367  36.985  1.00  0.00     0.135 A 
ATOM     86  F   UNL A   1      38.241  32.846  38.259  1.00  0.00    -0.206 F 
ATOM     87  C   UNL A   1      38.893  34.902  39.185  1.00  0.00     0.059 A 
ATOM     88  C   UNL A   1      40.490  36.305  38.011  1.00  0.00     0.059 A 
ATOM     89  F   UNL A   1      41.340  35.615  35.939  1.00  0.00    -0.206 F 
ATOM     90  C   UNL A   1      39.660  36.068  39.104  1.00  0.00     0.060 A 
BRANCH  90  91
ATOM     91  S   UNL A   1      39.579  37.252  40.464  1.00  0.00     0.124 S 
ATOM     92  O   UNL A   1      38.827  38.345  39.860  1.00  0.00    -0.237 OA
ATOM     93  O   UNL A   1      38.880  36.493  41.496  1.00  0.00    -0.237 OA
ATOM     94  O   UNL A   1      40.983  37.538  40.749  1.00  0.00    -0.744 OA
ENDBRANCH  90  91
ENDBRANCH  58  83
ENDBRANCH  32  33
ENDBRANCH  24  27
ENDBRANCH  22  23
ENDBRANCH   1  22
TORSDOF 16
ENDMDL
MODEL 2
REMARK VINA RESULT:     -11.6      5.062     10.350
REMARK SMILES CC1([C@](C)(Nc2cccc(Cl)c2)C(=O)NCCCNC(=O)c2ccc(-c3c4nc(c(-c5c(F)cc(S(=O)(=O)[O-])cc5F)c5ccc([nH]5)c(-c5c(F)cc(S(=O)(=O)[O-])cc5F)c5nc(c(-c6c(F)cc(S(=O)(=O)[O-])cc6F)c6ccc3[nH]6)C=C5)C=C4)cc2)CC1
REMARK SMILES IDX 17 1 16 2 15 3 13 4 14 5 3 7 4 8 2 9 1 10 88 11 89 12 5 13
REMARK SMILES IDX 6 15 7 16 12 17 8 18 10 19 9 20 11 21 18 22 19 23 20 24
REMARK SMILES IDX 21 26 22 27 23 28 87 29 24 30 86 31 25 32 26 33 27 34 80 35
REMARK SMILES IDX 28 36 85 37 79 38 81 39 29 40 84 41 78 42 77 43 30 45 64 46
REMARK SMILES IDX 43 47 63 48 44 49 47 50 62 51 82 52 45 53 46 54 61 56 83 57
REMARK SMILES IDX 48 58 31 59 32 60 41 61 33 62 34 63 40 64 42 65 35 66 36 67
REMARK SMILES IDX 37 68 38 69 39 70 65 71 66 72 75 73 67 74 68 75 74 76 76 77
REMARK SMILES IDX 69 78 70 79 71 80 72 81 73 82 49 83 50 84 59 85 51 86 52 87
REMARK SMILES IDX 58 88 60 89 53 90 54 91 55 92 56 93 57 94
REMARK H PARENT 15 6 5 14 19 25 81 44 47 55
REMARK Flexibility Score: inf
ROOT
ATOM      1  C   UNL A   1      33.385  27.908  25.740  1.00  0.00     0.042 C 
ENDROOT
BRANCH   1   2
ATOM      2  C   UNL A   1      33.402  26.416  25.432  1.00  0.00     0.117 C 
BRANCH   2   3
ATOM      3  N   UNL A   1      33.544  26.058  24.031  1.00  0.00    -0.354 N 
ATOM      4  C   UNL A   1      33.407  24.850  23.395  1.00  0.00     0.245 C 
ATOM      5  O   UNL A   1      33.581  24.859  22.169  1.00  0.00    -0.272 OA
ATOM      6  H   UNL A   1      33.777  26.809  23.440  1.00  0.00     0.163 HD
BRANCH   4   7
ATOM      7  C   UNL A   1      33.022  23.534  24.167  1.00  0.00     0.119 C 
ATOM      8  C   UNL A   1      33.192  22.296  23.243  1.00  0.00     0.046 C 
BRANCH   7   9
ATOM      9  C   UNL A   1      31.481  23.603  24.533  1.00  0.00    -0.001 C 
ATOM     10  C   UNL A   1      30.582  23.946  23.344  1.00  0.00     0.014 C 
ATOM     11  C   UNL A   1      30.988  24.076  25.902  1.00  0.00     0.010 C 
ATOM     12  C   UNL A   1      30.859  22.636  25.543  1.00  0.00     0.010 C 
ENDBRANCH   7   9
BRANCH   7  13
ATOM     13  N   UNL A   1      33.897  23.281  25.346  1.00  0.00    -0.371 N 
ATOM     14  H   UNL A   1      33.473  23.342  26.232  1.00  0.00     0.161 HD
BRANCH  13  15
ATOM     15  C   UNL A   1      35.259  22.965  25.322  1.00  0.00     0.036 A 
ATOM     16  C   UNL A   1      36.300  23.870  25.580  1.00  0.00     0.026 A 
ATOM     17  C   UNL A   1      35.647  21.634  25.103  1.00  0.00     0.046 A 
ATOM     18  C   UNL A   1      37.634  23.467  25.739  1.00  0.00     0.004 A 
ATOM     19  C   UNL A   1      36.989  21.234  25.198  1.00  0.00     0.043 A 
ATOM     20  C   UNL A   1      37.981  22.138  25.555  1.00  0.00     0.020 A 
ATOM     21  Cl  UNL A   1      37.421  19.600  24.874  1.00  0.00    -0.084 Cl
ENDBRANCH  13  15
ENDBRANCH   7  13
ENDBRANCH   4   7
ENDBRANCH   2   3
ENDBRANCH   1   2
BRANCH   1  22
ATOM     22  C   UNL A   1      34.038  28.287  27.057  1.00  0.00     0.118 C 
BRANCH  22  23
ATOM     23  N   UNL A   1      33.752  29.666  27.417  1.00  0.00    -0.352 N 
ATOM     24  C   UNL A   1      34.518  30.538  28.155  1.00  0.00     0.251 C 
ATOM     25  H   UNL A   1      32.895  30.024  27.089  1.00  0.00     0.163 HD
ATOM     26  O   UNL A   1      34.016  31.570  28.589  1.00  0.00    -0.269 OA
BRANCH  24  27
ATOM     27  C   UNL A   1      35.938  30.222  28.434  1.00  0.00     0.039 A 
ATOM     28  C   UNL A   1      36.297  29.774  29.708  1.00  0.00     0.014 A 
ATOM     29  C   UNL A   1      36.916  30.380  27.447  1.00  0.00     0.014 A 
ATOM     30  C   UNL A   1      37.627  29.436  29.975  1.00  0.00     0.010 A 
ATOM     31  C   UNL A   1      38.223  29.968  27.691  1.00  0.00     0.010 A 
ATOM     32  C   UNL A   1      38.597  29.504  28.961  1.00  0.00    -0.014 A 
BRANCH  32  33
ATOM     33  C   UNL A   1      40.010  29.117  29.213  1.00  0.00     0.031 A 
ATOM     34  C   UNL A   1      40.980  30.131  29.764  1.00  0.00     0.074 A 
ATOM     35  C   UNL A   1      40.438  27.880  28.892  1.00  0.00     0.049 A 
ATOM     36  N   UNL A   1      42.266  30.016  29.973  1.00  0.00    -0.248 NA
ATOM     37  C   UNL A   1      40.435  31.457  30.101  1.00  0.00     0.031 C 
ATOM     38  C   UNL A   1      39.608  26.820  28.316  1.00  0.00     0.029 A 
ATOM     39  N   UNL A   1      41.684  27.307  28.991  1.00  0.00    -0.354 N 
ATOM     40  C   UNL A   1      42.687  31.254  30.445  1.00  0.00     0.074 A 
ATOM     41  C   UNL A   1      41.529  32.121  30.449  1.00  0.00     0.031 C 
ATOM     42  C   UNL A   1      40.362  25.726  28.123  1.00  0.00     0.029 A 
ATOM     43  C   UNL A   1      41.737  26.016  28.520  1.00  0.00     0.049 A 
ATOM     44  H   UNL A   1      42.464  27.778  29.362  1.00  0.00     0.167 HD
ATOM     45  C   UNL A   1      43.921  31.628  30.859  1.00  0.00     0.037 A 
ATOM     46  C   UNL A   1      42.777  25.166  28.405  1.00  0.00     0.037 A 
ATOM     47  C   UNL A   1      45.063  30.752  30.882  1.00  0.00     0.049 A 
ATOM     48  C   UNL A   1      44.142  25.609  28.863  1.00  0.00     0.074 A 
ATOM     49  C   UNL A   1      46.340  31.019  31.344  1.00  0.00     0.029 A 
ATOM     50  N   UNL A   1      45.071  29.444  30.419  1.00  0.00    -0.354 N 
ATOM     51  N   UNL A   1      44.507  26.762  29.373  1.00  0.00    -0.248 NA
ATOM     52  C   UNL A   1      45.237  24.636  28.737  1.00  0.00     0.031 C 
ATOM     53  C   UNL A   1      47.133  29.891  31.112  1.00  0.00     0.029 A 
ATOM     54  C   UNL A   1      46.337  28.901  30.560  1.00  0.00     0.049 A 
ATOM     55  H   UNL A   1      44.292  28.973  30.045  1.00  0.00     0.167 HD
ATOM     56  C   UNL A   1      45.864  26.642  29.654  1.00  0.00     0.074 A 
ATOM     57  C   UNL A   1      46.254  25.302  29.269  1.00  0.00     0.031 C 
ATOM     58  C   UNL A   1      46.709  27.559  30.186  1.00  0.00     0.037 A 
BRANCH  45  59
ATOM     59  C   UNL A   1      44.108  33.047  31.322  1.00  0.00     0.058 A 
ATOM     60  C   UNL A   1      43.956  33.411  32.670  1.00  0.00     0.135 A 
ATOM     61  C   UNL A   1      44.499  34.047  30.416  1.00  0.00     0.135 A 
ATOM     62  F   UNL A   1      43.569  32.501  33.577  1.00  0.00    -0.206 F 
ATOM     63  C   UNL A   1      44.164  34.719  33.099  1.00  0.00     0.059 A 
ATOM     64  C   UNL A   1      44.742  35.354  30.828  1.00  0.00     0.059 A 
ATOM     65  F   UNL A   1      44.658  33.755  29.116  1.00  0.00    -0.206 F 
ATOM     66  C   UNL A   1      44.560  35.682  32.170  1.00  0.00     0.060 A 
BRANCH  66  67
ATOM     67  S   UNL A   1      44.844  37.369  32.748  1.00  0.00     0.124 S 
ATOM     68  O   UNL A   1      44.076  38.143  31.777  1.00  0.00    -0.237 OA
ATOM     69  O   UNL A   1      44.299  37.330  34.101  1.00  0.00    -0.237 OA
ATOM     70  O   UNL A   1      46.293  37.518  32.663  1.00  0.00    -0.744 OA
ENDBRANCH  66  67
ENDBRANCH  45  59
BRANCH  46  71
ATOM     71  C   UNL A   1      42.571  23.808  27.833  1.00  0.00     0.058 A 
ATOM     72  C   UNL A   1      42.463  22.680  28.661  1.00  0.00     0.135 A 
ATOM     73  C   UNL A   1      42.477  23.609  26.446  1.00  0.00     0.135 A 
ATOM     74  F   UNL A   1      42.553  22.816  29.992  1.00  0.00    -0.206 F 
ATOM     75  C   UNL A   1      42.290  21.404  28.136  1.00  0.00     0.059 A 
ATOM     76  C   UNL A   1      42.275  22.346  25.899  1.00  0.00     0.059 A 
ATOM     77  F   UNL A   1      42.559  24.656  25.610  1.00  0.00    -0.206 F 
ATOM     78  C   UNL A   1      42.195  21.247  26.753  1.00  0.00     0.060 A 
BRANCH  78  79
ATOM     79  S   UNL A   1      41.932  19.589  26.085  1.00  0.00     0.124 S 
ATOM     80  O   UNL A   1      42.379  18.752  27.192  1.00  0.00    -0.237 OA
ATOM     81  O   UNL A   1      40.495  19.589  25.824  1.00  0.00    -0.237 OA
ATOM     82  O   UNL A   1      42.777  19.569  24.894  1.00  0.00    -0.744 OA
ENDBRANCH  78  79
ENDBRANCH  46  71
BRANCH  58  83
ATOM     83  C   UNL A   1      48.134  27.142  30.427  1.00  0.00     0.058 A 
ATOM     84  C   UNL A   1      49.140  27.358  29.472  1.00  0.00     0.135 A 
ATOM     85  C   UNL A   1      48.511  26.586  31.661  1.00  0.00     0.135 A 
ATOM     86  F   UNL A   1      48.834  27.879  28.274  1.00  0.00    -0.206 F 
ATOM     87  C   UNL A   1      50.467  27.023  29.727  1.00  0.00     0.059 A 
ATOM     88  C   UNL A   1      49.835  26.271  31.948  1.00  0.00     0.059 A 
ATOM     89  F   UNL A   1      47.590  26.368  32.612  1.00  0.00    -0.206 F 
ATOM     90  C   UNL A   1      50.806  26.487  30.972  1.00  0.00     0.060 A 
BRANCH  90  91
ATOM     91  S   UNL A   1      52.538  26.106  31.307  1.00  0.00     0.124 S 
ATOM     92  O   UNL A   1      53.100  26.076  29.962  1.00  0.00    -0.237 OA
ATOM     93  O   UNL A   1      52.948  27.232  32.141  1.00  0.00    -0.237 OA
ATOM     94  O   UNL A   1      52.478  24.818  31.991  1.00  0.00    -0.744 OA
ENDBRANCH  90  91
ENDBRANCH  58  83
ENDBRANCH  32  33
ENDBRANCH  24  27
ENDBRANCH  22  23
ENDBRANCH   1  22
TORSDOF 16
ENDMDL
MODEL 3
REMARK VINA RESULT:     -11.6      1.871      3.369
REMARK SMILES CC1([C@](C)(Nc2cccc(Cl)c2)C(=O)NCCCNC(=O)c2ccc(-c3c4nc(c(-c5c(F)cc(S(=O)(=O)[O-])cc5F)c5ccc([nH]5)c(-c5c(F)cc(S(=O)(=O)[O-])cc5F)c5nc(c(-c6c(F)cc(S(=O)(=O)[O-])cc6F)c6ccc3[nH]6)C=C5)C=C4)cc2)CC1
REMARK SMILES IDX 17 1 16 2 15 3 13 4 14 5 3 7 4 8 2 9 1 10 88 11 89 12 5 13
REMARK SMILES IDX 6 15 7 16 12 17 8 18 10 19 9 20 11 21 18 22 19 23 20 24
REMARK SMILES IDX 21 26 22 27 23 28 87 29 24 30 86 31 25 32 26 33 27 34 80 35
REMARK SMILES IDX 28 36 85 37 79 38 81 39 29 40 84 41 78 42 77 43 30 45 64 46
REMARK SMILES IDX 43 47 63 48 44 49 47 50 62 51 82 52 45 53 46 54 61 56 83 57
REMARK SMILES IDX 48 58 31 59 32 60 41 61 33 62 34 63 40 64 42 65 35 66 36 67
REMARK SMILES IDX 37 68 38 69 39 70 65 71 66 72 75 73 67 74 68 75 74 76 76 77
REMARK SMILES IDX 69 78 70 79 71 80 72 81 73 82 49 83 50 84 59 85 51 86 52 87
REMARK SMILES IDX 58 88 60 89 53 90 54 91 55 92 56 93 57 94
REMARK H PARENT 15 6 5 14 19 25 81 44 47 55
REMARK Flexibility Score: inf
ROOT
ATOM      1  C   UNL A   1      37.775  23.213  25.799  1.00  0.00     0.042 C 
ENDROOT
BRANCH   1   2
ATOM      2  C   UNL A   1      36.291  23.557  25.800  1.00  0.00     0.117 C 
BRANCH   2   3
ATOM      3  N   UNL A   1      35.460  22.786  26.709  1.00  0.00    -0.354 N 
ATOM      4  C   UNL A   1      34.103  22.790  26.908  1.00  0.00     0.245 C 
ATOM      5  O   UNL A   1      33.676  21.999  27.760  1.00  0.00    -0.272 OA
ATOM      6  H   UNL A   1      35.956  22.154  27.278  1.00  0.00     0.163 HD
BRANCH   4   7
ATOM      7  C   UNL A   1      33.137  23.721  26.084  1.00  0.00     0.119 C 
ATOM      8  C   UNL A   1      31.820  23.966  26.872  1.00  0.00     0.046 C 
BRANCH   7   9
ATOM      9  C   UNL A   1      32.723  22.959  24.757  1.00  0.00    -0.001 C 
ATOM     10  C   UNL A   1      31.213  22.917  24.519  1.00  0.00     0.014 C 
ATOM     11  C   UNL A   1      33.517  21.766  24.220  1.00  0.00     0.010 C 
ATOM     12  C   UNL A   1      33.566  23.061  23.484  1.00  0.00     0.010 C 
ENDBRANCH   7   9
BRANCH   7  13
ATOM     13  N   UNL A   1      33.714  25.071  25.832  1.00  0.00    -0.371 N 
ATOM     14  H   UNL A   1      34.695  25.147  25.875  1.00  0.00     0.161 HD
BRANCH  13  15
ATOM     15  C   UNL A   1      33.005  26.241  25.540  1.00  0.00     0.036 A 
ATOM     16  C   UNL A   1      32.086  26.384  24.490  1.00  0.00     0.026 A 
ATOM     17  C   UNL A   1      33.142  27.350  26.389  1.00  0.00     0.046 A 
ATOM     18  C   UNL A   1      31.256  27.507  24.357  1.00  0.00     0.004 A 
ATOM     19  C   UNL A   1      32.358  28.504  26.224  1.00  0.00     0.043 A 
ATOM     20  C   UNL A   1      31.387  28.571  25.234  1.00  0.00     0.020 A 
ATOM     21  Cl  UNL A   1      32.596  29.856  27.261  1.00  0.00    -0.084 Cl
ENDBRANCH  13  15
ENDBRANCH   7  13
ENDBRANCH   4   7
ENDBRANCH   2   3
ENDBRANCH   1   2
BRANCH   1  22
ATOM     22  C   UNL A   1      38.651  24.204  26.545  1.00  0.00     0.118 C 
BRANCH  22  23
ATOM     23  N   UNL A   1      40.056  24.025  26.217  1.00  0.00    -0.352 N 
ATOM     24  C   UNL A   1      41.124  24.827  26.542  1.00  0.00     0.251 C 
ATOM     25  H   UNL A   1      40.272  23.220  25.690  1.00  0.00     0.163 HD
ATOM     26  O   UNL A   1      42.196  24.677  25.965  1.00  0.00    -0.269 OA
BRANCH  24  27
ATOM     27  C   UNL A   1      40.971  25.879  27.573  1.00  0.00     0.039 A 
ATOM     28  C   UNL A   1      39.973  25.742  28.541  1.00  0.00     0.014 A 
ATOM     29  C   UNL A   1      41.800  27.006  27.578  1.00  0.00     0.014 A 
ATOM     30  C   UNL A   1      39.841  26.709  29.543  1.00  0.00     0.010 A 
ATOM     31  C   UNL A   1      41.718  27.925  28.621  1.00  0.00     0.010 A 
ATOM     32  C   UNL A   1      40.730  27.795  29.608  1.00  0.00    -0.014 A 
BRANCH  32  33
ATOM     33  C   UNL A   1      40.630  28.816  30.684  1.00  0.00     0.031 A 
ATOM     34  C   UNL A   1      41.510  28.712  31.903  1.00  0.00     0.074 A 
ATOM     35  C   UNL A   1      39.710  29.797  30.599  1.00  0.00     0.049 A 
ATOM     36  N   UNL A   1      41.516  29.448  32.983  1.00  0.00    -0.248 NA
ATOM     37  C   UNL A   1      42.497  27.620  31.918  1.00  0.00     0.031 C 
ATOM     38  C   UNL A   1      38.772  29.983  29.490  1.00  0.00     0.029 A 
ATOM     39  N   UNL A   1      39.401  30.816  31.467  1.00  0.00    -0.354 N 
ATOM     40  C   UNL A   1      42.488  28.901  33.812  1.00  0.00     0.074 A 
ATOM     41  C   UNL A   1      43.020  27.742  33.131  1.00  0.00     0.031 C 
ATOM     42  C   UNL A   1      38.002  31.056  29.739  1.00  0.00     0.029 A 
ATOM     43  C   UNL A   1      38.360  31.608  31.042  1.00  0.00     0.049 A 
ATOM     44  H   UNL A   1      39.879  30.964  32.314  1.00  0.00     0.167 HD
ATOM     45  C   UNL A   1      42.914  29.337  35.022  1.00  0.00     0.037 A 
ATOM     46  C   UNL A   1      37.750  32.651  31.640  1.00  0.00     0.037 A 
ATOM     47  C   UNL A   1      42.402  30.510  35.682  1.00  0.00     0.049 A 
ATOM     48  C   UNL A   1      38.236  33.112  32.990  1.00  0.00     0.074 A 
ATOM     49  C   UNL A   1      42.814  31.069  36.878  1.00  0.00     0.029 A 
ATOM     50  N   UNL A   1      41.364  31.298  35.208  1.00  0.00    -0.354 N 
ATOM     51  N   UNL A   1      39.204  32.623  33.728  1.00  0.00    -0.248 NA
ATOM     52  C   UNL A   1      37.551  34.267  33.587  1.00  0.00     0.031 C 
ATOM     53  C   UNL A   1      41.991  32.165  37.155  1.00  0.00     0.029 A 
ATOM     54  C   UNL A   1      41.104  32.324  36.102  1.00  0.00     0.049 A 
ATOM     55  H   UNL A   1      40.883  31.151  34.362  1.00  0.00     0.167 HD
ATOM     56  C   UNL A   1      39.264  33.428  34.860  1.00  0.00     0.074 A 
ATOM     57  C   UNL A   1      38.243  34.442  34.706  1.00  0.00     0.031 C 
ATOM     58  C   UNL A   1      40.093  33.337  35.930  1.00  0.00     0.037 A 
BRANCH  45  59
ATOM     59  C   UNL A   1      43.989  28.546  35.716  1.00  0.00     0.058 A 
ATOM     60  C   UNL A   1      43.682  27.503  36.606  1.00  0.00     0.135 A 
ATOM     61  C   UNL A   1      45.344  28.797  35.446  1.00  0.00     0.135 A 
ATOM     62  F   UNL A   1      42.405  27.229  36.913  1.00  0.00    -0.206 F 
ATOM     63  C   UNL A   1      44.681  26.753  37.219  1.00  0.00     0.059 A 
ATOM     64  C   UNL A   1      46.359  28.039  36.026  1.00  0.00     0.059 A 
ATOM     65  F   UNL A   1      45.694  29.782  34.605  1.00  0.00    -0.206 F 
ATOM     66  C   UNL A   1      46.016  27.027  36.920  1.00  0.00     0.060 A 
BRANCH  66  67
ATOM     67  S   UNL A   1      47.297  26.030  37.710  1.00  0.00     0.124 S 
ATOM     68  O   UNL A   1      46.710  25.791  39.025  1.00  0.00    -0.237 OA
ATOM     69  O   UNL A   1      47.373  24.868  36.831  1.00  0.00    -0.237 OA
ATOM     70  O   UNL A   1      48.466  26.902  37.694  1.00  0.00    -0.744 OA
ENDBRANCH  66  67
ENDBRANCH  45  59
BRANCH  46  71
ATOM     71  C   UNL A   1      36.612  33.336  30.967  1.00  0.00     0.058 A 
ATOM     72  C   UNL A   1      36.823  34.186  29.871  1.00  0.00     0.135 A 
ATOM     73  C   UNL A   1      35.291  33.154  31.407  1.00  0.00     0.135 A 
ATOM     74  F   UNL A   1      38.067  34.399  29.417  1.00  0.00    -0.206 F 
ATOM     75  C   UNL A   1      35.769  34.846  29.247  1.00  0.00     0.059 A 
ATOM     76  C   UNL A   1      34.218  33.780  30.781  1.00  0.00     0.059 A 
ATOM     77  F   UNL A   1      35.034  32.339  32.442  1.00  0.00    -0.206 F 
ATOM     78  C   UNL A   1      34.469  34.635  29.709  1.00  0.00     0.060 A 
BRANCH  78  79
ATOM     79  S   UNL A   1      33.105  35.468  28.867  1.00  0.00     0.124 S 
ATOM     80  O   UNL A   1      33.814  36.465  28.073  1.00  0.00    -0.237 OA
ATOM     81  O   UNL A   1      32.493  34.374  28.119  1.00  0.00    -0.237 OA
ATOM     82  O   UNL A   1      32.301  35.991  29.967  1.00  0.00    -0.744 OA
ENDBRANCH  78  79
ENDBRANCH  46  71
BRANCH  58  83
ATOM     83  C   UNL A   1      39.966  34.381  37.005  1.00  0.00     0.058 A 
ATOM     84  C   UNL A   1      40.683  35.587  36.954  1.00  0.00     0.135 A 
ATOM     85  C   UNL A   1      39.057  34.204  38.062  1.00  0.00     0.135 A 
ATOM     86  F   UNL A   1      41.570  35.805  35.970  1.00  0.00    -0.206 F 
ATOM     87  C   UNL A   1      40.515  36.573  37.921  1.00  0.00     0.059 A 
ATOM     88  C   UNL A   1      38.852  35.188  39.023  1.00  0.00     0.059 A 
ATOM     89  F   UNL A   1      38.339  33.074  38.152  1.00  0.00    -0.206 F 
ATOM     90  C   UNL A   1      39.591  36.367  38.949  1.00  0.00     0.060 A 
BRANCH  90  91
ATOM     91  S   UNL A   1      39.345  37.677  40.167  1.00  0.00     0.124 S 
ATOM     92  O   UNL A   1      39.073  36.909  41.376  1.00  0.00    -0.237 OA
ATOM     93  O   UNL A   1      40.626  38.377  40.134  1.00  0.00    -0.237 OA
ATOM     94  O   UNL A   1      38.213  38.429  39.633  1.00  0.00    -0.744 OA
ENDBRANCH  90  91
ENDBRANCH  58  83
ENDBRANCH  32  33
ENDBRANCH  24  27
ENDBRANCH  22  23
ENDBRANCH   1  22
TORSDOF 16
ENDMDL
