MODEL 1
REMARK VINA RESULT:     -12.2      0.000      0.000
REMARK SMILES Cn1ncc(C(=O)NCc2ccc(F)cc2)c1C(=O)NCCCNC(=O)c1ccc(-c2c3nc(c(-c4c(F)cc(S(=O)(=O)[O-])cc4F)c4ccc([nH]4)c(-c4c(F)cc(S(=O)(=O)[O-])cc4F)c4nc(c(-c5c(F)cc(S(=O)(=O)[O-])cc5F)c5ccc2[nH]5)C=C4)C=C3)cc1
REMARK SMILES IDX 22 1 21 2 20 3 18 4 19 5 17 7 1 8 2 9 3 10 4 11 5 12 6 13
REMARK SMILES IDX 7 14 8 15 9 17 10 18 11 19 16 20 12 21 15 22 13 23 14 24
REMARK SMILES IDX 23 25 24 26 25 27 26 29 27 30 28 31 92 32 29 33 91 34 30 35
REMARK SMILES IDX 31 36 32 37 85 38 33 39 90 40 84 41 86 42 34 43 89 44 83 45
REMARK SMILES IDX 82 46 35 48 69 49 48 50 68 51 49 52 52 53 67 54 87 55 50 56
REMARK SMILES IDX 51 57 66 59 88 60 53 61 36 62 37 63 46 64 38 65 39 66 45 67
REMARK SMILES IDX 47 68 40 69 41 70 42 71 43 72 44 73 70 74 71 75 80 76 72 77
REMARK SMILES IDX 73 78 79 79 81 80 74 81 75 82 76 83 77 84 78 85 54 86 55 87
REMARK SMILES IDX 64 88 56 89 57 90 63 91 65 92 58 93 59 94 60 95 61 96 62 97
REMARK H PARENT 20 6 8 16 24 28 86 47 52 58
REMARK Flexibility Score: inf
ROOT
ATOM      1  C   UNL A   1      37.384  23.644  25.242  1.00  0.00     0.042 C 
ENDROOT
BRANCH   1   2
ATOM      2  C   UNL A   1      35.889  23.899  25.426  1.00  0.00     0.118 C 
BRANCH   2   3
ATOM      3  N   UNL A   1      35.098  22.999  24.600  1.00  0.00    -0.351 N 
ATOM      4  C   UNL A   1      34.688  23.334  23.327  1.00  0.00     0.270 C 
ATOM      5  O   UNL A   1      35.432  23.071  22.385  1.00  0.00    -0.268 OA
ATOM      6  H   UNL A   1      34.845  22.120  24.964  1.00  0.00     0.163 HD
BRANCH   4   7
ATOM      7  C   UNL A   1      33.293  23.681  23.164  1.00  0.00     0.138 A 
ATOM      8  C   UNL A   1      32.182  21.390  23.335  1.00  0.00     0.174 C 
ATOM      9  N   UNL A   1      32.211  22.829  23.244  1.00  0.00    -0.262 N 
ATOM     10  N   UNL A   1      31.025  23.460  23.297  1.00  0.00    -0.180 NA
ATOM     11  C   UNL A   1      31.341  24.737  23.139  1.00  0.00     0.149 A 
ATOM     12  C   UNL A   1      32.731  24.949  22.963  1.00  0.00     0.090 A 
BRANCH  12  13
ATOM     13  C   UNL A   1      33.275  26.277  22.713  1.00  0.00     0.255 C 
ATOM     14  O   UNL A   1      33.822  26.528  21.637  1.00  0.00    -0.269 OA
ATOM     15  N   UNL A   1      33.350  27.251  23.675  1.00  0.00    -0.348 N 
ATOM     16  H   UNL A   1      33.902  28.026  23.423  1.00  0.00     0.164 HD
BRANCH  15  17
ATOM     17  C   UNL A   1      32.767  27.342  24.984  1.00  0.00     0.152 C 
BRANCH  17  18
ATOM     18  C   UNL A   1      33.187  28.551  25.775  1.00  0.00    -0.029 A 
ATOM     19  C   UNL A   1      32.298  29.617  25.986  1.00  0.00     0.008 A 
ATOM     20  C   UNL A   1      34.427  28.549  26.435  1.00  0.00     0.008 A 
ATOM     21  C   UNL A   1      32.630  30.641  26.875  1.00  0.00     0.039 A 
ATOM     22  C   UNL A   1      34.754  29.572  27.325  1.00  0.00     0.039 A 
ATOM     23  C   UNL A   1      33.848  30.602  27.544  1.00  0.00     0.123 A 
ATOM     24  F   UNL A   1      34.146  31.565  28.426  1.00  0.00    -0.207 F 
ENDBRANCH  17  18
ENDBRANCH  15  17
ENDBRANCH  12  13
ENDBRANCH   4   7
ENDBRANCH   2   3
ENDBRANCH   1   2
BRANCH   1  25
ATOM     25  C   UNL A   1      38.233  24.081  26.434  1.00  0.00     0.118 C 
BRANCH  25  26
ATOM     26  N   UNL A   1      39.651  23.874  26.187  1.00  0.00    -0.352 N 
ATOM     27  C   UNL A   1      40.733  24.628  26.573  1.00  0.00     0.251 C 
ATOM     28  H   UNL A   1      39.869  23.071  25.662  1.00  0.00     0.163 HD
ATOM     29  O   UNL A   1      41.816  24.436  26.025  1.00  0.00    -0.269 OA
BRANCH  27  30
ATOM     30  C   UNL A   1      40.615  25.661  27.629  1.00  0.00     0.039 A 
ATOM     31  C   UNL A   1      41.537  26.713  27.650  1.00  0.00     0.014 A 
ATOM     32  C   UNL A   1      39.657  25.559  28.643  1.00  0.00     0.014 A 
ATOM     33  C   UNL A   1      41.471  27.682  28.655  1.00  0.00     0.010 A 
ATOM     34  C   UNL A   1      39.556  26.559  29.612  1.00  0.00     0.010 A 
ATOM     35  C   UNL A   1      40.467  27.625  29.634  1.00  0.00    -0.014 A 
BRANCH  35  36
ATOM     36  C   UNL A   1      40.364  28.658  30.699  1.00  0.00     0.031 A 
ATOM     37  C   UNL A   1      41.258  28.588  31.908  1.00  0.00     0.074 A 
ATOM     38  C   UNL A   1      39.433  29.626  30.606  1.00  0.00     0.049 A 
ATOM     39  N   UNL A   1      41.251  29.333  32.983  1.00  0.00    -0.248 NA
ATOM     40  C   UNL A   1      42.279  27.528  31.919  1.00  0.00     0.031 C 
ATOM     41  C   UNL A   1      38.489  29.787  29.499  1.00  0.00     0.029 A 
ATOM     42  N   UNL A   1      39.118  30.652  31.463  1.00  0.00    -0.354 N 
ATOM     43  C   UNL A   1      42.244  28.820  33.808  1.00  0.00     0.074 A 
ATOM     44  C   UNL A   1      42.814  27.680  33.123  1.00  0.00     0.031 C 
ATOM     45  C   UNL A   1      37.716  30.860  29.733  1.00  0.00     0.029 A 
ATOM     46  C   UNL A   1      38.084  31.442  31.022  1.00  0.00     0.049 A 
ATOM     47  H   UNL A   1      39.591  30.807  32.313  1.00  0.00     0.167 HD
ATOM     48  C   UNL A   1      42.655  29.267  35.019  1.00  0.00     0.037 A 
ATOM     49  C   UNL A   1      37.494  32.511  31.591  1.00  0.00     0.037 A 
ATOM     50  C   UNL A   1      42.116  30.426  35.682  1.00  0.00     0.049 A 
ATOM     51  C   UNL A   1      37.977  33.001  32.926  1.00  0.00     0.074 A 
ATOM     52  C   UNL A   1      42.504  30.986  36.886  1.00  0.00     0.029 A 
ATOM     53  N   UNL A   1      41.081  31.209  35.191  1.00  0.00    -0.354 N 
ATOM     54  N   UNL A   1      38.933  32.516  33.681  1.00  0.00    -0.248 NA
ATOM     55  C   UNL A   1      37.306  34.182  33.487  1.00  0.00     0.031 C 
ATOM     56  C   UNL A   1      41.689  32.095  37.136  1.00  0.00     0.029 A 
ATOM     57  C   UNL A   1      40.813  32.242  36.073  1.00  0.00     0.049 A 
ATOM     58  H   UNL A   1      40.608  31.052  34.343  1.00  0.00     0.167 HD
ATOM     59  C   UNL A   1      38.987  33.337  34.800  1.00  0.00     0.074 A 
ATOM     60  C   UNL A   1      37.975  34.358  34.620  1.00  0.00     0.031 C 
ATOM     61  C   UNL A   1      39.802  33.251  35.879  1.00  0.00     0.037 A 
BRANCH  48  62
ATOM     62  C   UNL A   1      43.750  28.504  35.708  1.00  0.00     0.058 A 
ATOM     63  C   UNL A   1      45.097  28.817  35.470  1.00  0.00     0.135 A 
ATOM     64  C   UNL A   1      43.467  27.437  36.575  1.00  0.00     0.135 A 
ATOM     65  F   UNL A   1      45.423  29.832  34.654  1.00  0.00    -0.206 F 
ATOM     66  C   UNL A   1      46.127  28.096  36.066  1.00  0.00     0.059 A 
ATOM     67  C   UNL A   1      44.481  26.716  37.198  1.00  0.00     0.059 A 
ATOM     68  F   UNL A   1      42.194  27.113  36.852  1.00  0.00    -0.206 F 
ATOM     69  C   UNL A   1      45.808  27.046  36.928  1.00  0.00     0.060 A 
BRANCH  69  70
ATOM     70  S   UNL A   1      47.151  26.154  37.745  1.00  0.00     0.124 S 
ATOM     71  O   UNL A   1      46.628  24.793  37.779  1.00  0.00    -0.237 OA
ATOM     72  O   UNL A   1      48.272  26.384  36.838  1.00  0.00    -0.237 OA
ATOM     73  O   UNL A   1      47.259  26.822  39.037  1.00  0.00    -0.744 OA
ENDBRANCH  69  70
ENDBRANCH  48  62
BRANCH  49  74
ATOM     74  C   UNL A   1      36.395  33.204  30.872  1.00  0.00     0.058 A 
ATOM     75  C   UNL A   1      36.649  34.009  29.752  1.00  0.00     0.135 A 
ATOM     76  C   UNL A   1      35.073  33.119  31.334  1.00  0.00     0.135 A 
ATOM     77  F   UNL A   1      37.899  34.128  29.279  1.00  0.00    -0.206 F 
ATOM     78  C   UNL A   1      35.635  34.731  29.132  1.00  0.00     0.059 A 
ATOM     79  C   UNL A   1      34.040  33.818  30.720  1.00  0.00     0.059 A 
ATOM     80  F   UNL A   1      34.784  32.351  32.395  1.00  0.00    -0.206 F 
ATOM     81  C   UNL A   1      34.335  34.639  29.633  1.00  0.00     0.060 A 
BRANCH  81  82
ATOM     82  S   UNL A   1      33.039  35.617  28.844  1.00  0.00     0.124 S 
ATOM     83  O   UNL A   1      32.292  36.095  30.004  1.00  0.00    -0.237 OA
ATOM     84  O   UNL A   1      33.808  36.626  28.124  1.00  0.00    -0.237 OA
ATOM     85  O   UNL A   1      32.346  34.644  28.006  1.00  0.00    -0.744 OA
ENDBRANCH  81  82
ENDBRANCH  49  74
BRANCH  61  86
ATOM     86  C   UNL A   1      39.650  34.291  36.951  1.00  0.00     0.058 A 
ATOM     87  C   UNL A   1      40.312  35.524  36.846  1.00  0.00     0.135 A 
ATOM     88  C   UNL A   1      38.915  34.033  38.118  1.00  0.00     0.135 A 
ATOM     89  F   UNL A   1      41.027  35.818  35.749  1.00  0.00    -0.206 F 
ATOM     90  C   UNL A   1      40.266  36.461  37.872  1.00  0.00     0.059 A 
ATOM     91  C   UNL A   1      38.843  34.962  39.151  1.00  0.00     0.059 A 
ATOM     92  F   UNL A   1      38.257  32.872  38.257  1.00  0.00    -0.206 F 
ATOM     93  C   UNL A   1      39.536  36.167  39.026  1.00  0.00     0.060 A 
BRANCH  93  94
ATOM     94  S   UNL A   1      39.485  37.391  40.352  1.00  0.00     0.124 S 
ATOM     95  O   UNL A   1      40.893  37.745  40.485  1.00  0.00    -0.237 OA
ATOM     96  O   UNL A   1      38.620  38.424  39.790  1.00  0.00    -0.237 OA
ATOM     97  O   UNL A   1      38.914  36.648  41.473  1.00  0.00    -0.744 OA
ENDBRANCH  93  94
ENDBRANCH  61  86
ENDBRANCH  35  36
ENDBRANCH  27  30
ENDBRANCH  25  26
ENDBRANCH   1  25
TORSDOF 16
ENDMDL
MODEL 2
REMARK VINA RESULT:     -12.1      2.324      4.043
REMARK SMILES Cn1ncc(C(=O)NCc2ccc(F)cc2)c1C(=O)NCCCNC(=O)c1ccc(-c2c3nc(c(-c4c(F)cc(S(=O)(=O)[O-])cc4F)c4ccc([nH]4)c(-c4c(F)cc(S(=O)(=O)[O-])cc4F)c4nc(c(-c5c(F)cc(S(=O)(=O)[O-])cc5F)c5ccc2[nH]5)C=C4)C=C3)cc1
REMARK SMILES IDX 22 1 21 2 20 3 18 4 19 5 17 7 1 8 2 9 3 10 4 11 5 12 6 13
REMARK SMILES IDX 7 14 8 15 9 17 10 18 11 19 16 20 12 21 15 22 13 23 14 24
REMARK SMILES IDX 23 25 24 26 25 27 26 29 27 30 28 31 92 32 29 33 91 34 30 35
REMARK SMILES IDX 31 36 32 37 85 38 33 39 90 40 84 41 86 42 34 43 89 44 83 45
REMARK SMILES IDX 82 46 35 48 69 49 48 50 68 51 49 52 52 53 67 54 87 55 50 56
REMARK SMILES IDX 51 57 66 59 88 60 53 61 36 62 37 63 46 64 38 65 39 66 45 67
REMARK SMILES IDX 47 68 40 69 41 70 42 71 43 72 44 73 70 74 71 75 80 76 72 77
REMARK SMILES IDX 73 78 79 79 81 80 74 81 75 82 76 83 77 84 78 85 54 86 55 87
REMARK SMILES IDX 64 88 56 89 57 90 63 91 65 92 58 93 59 94 60 95 61 96 62 97
REMARK H PARENT 20 6 8 16 24 28 86 47 52 58
REMARK Flexibility Score: inf
ROOT
ATOM      1  C   UNL A   1      37.017  23.453  25.373  1.00  0.00     0.042 C 
ENDROOT
BRANCH   1   2
ATOM      2  C   UNL A   1      35.599  23.216  25.887  1.00  0.00     0.118 C 
BRANCH   2   3
ATOM      3  N   UNL A   1      34.633  24.020  25.153  1.00  0.00    -0.351 N 
ATOM      4  C   UNL A   1      33.937  25.056  25.739  1.00  0.00     0.270 C 
ATOM      5  O   UNL A   1      34.439  26.177  25.728  1.00  0.00    -0.268 OA
ATOM      6  H   UNL A   1      34.469  23.815  24.204  1.00  0.00     0.163 HD
BRANCH   4   7
ATOM      7  C   UNL A   1      32.544  24.812  26.045  1.00  0.00     0.138 A 
ATOM      8  C   UNL A   1      31.494  27.053  25.417  1.00  0.00     0.174 C 
ATOM      9  N   UNL A   1      31.485  25.670  25.828  1.00  0.00    -0.262 N 
ATOM     10  N   UNL A   1      30.280  25.094  25.977  1.00  0.00    -0.180 NA
ATOM     11  C   UNL A   1      30.567  23.872  26.403  1.00  0.00     0.149 A 
ATOM     12  C   UNL A   1      31.957  23.646  26.553  1.00  0.00     0.090 A 
BRANCH  12  13
ATOM     13  C   UNL A   1      32.474  22.385  27.068  1.00  0.00     0.255 C 
ATOM     14  O   UNL A   1      32.898  22.318  28.224  1.00  0.00    -0.269 OA
ATOM     15  N   UNL A   1      32.660  21.275  26.286  1.00  0.00    -0.348 N 
ATOM     16  H   UNL A   1      33.184  20.561  26.717  1.00  0.00     0.164 HD
BRANCH  15  17
ATOM     17  C   UNL A   1      32.228  20.968  24.952  1.00  0.00     0.152 C 
BRANCH  17  18
ATOM     18  C   UNL A   1      32.691  19.633  24.434  1.00  0.00    -0.029 A 
ATOM     19  C   UNL A   1      32.067  19.035  23.328  1.00  0.00     0.008 A 
ATOM     20  C   UNL A   1      33.851  19.048  24.969  1.00  0.00     0.008 A 
ATOM     21  C   UNL A   1      32.621  17.896  22.742  1.00  0.00     0.039 A 
ATOM     22  C   UNL A   1      34.404  17.912  24.378  1.00  0.00     0.039 A 
ATOM     23  C   UNL A   1      33.790  17.353  23.265  1.00  0.00     0.123 A 
ATOM     24  F   UNL A   1      34.340  16.284  22.675  1.00  0.00    -0.207 F 
ENDBRANCH  17  18
ENDBRANCH  15  17
ENDBRANCH  12  13
ENDBRANCH   4   7
ENDBRANCH   2   3
ENDBRANCH   1   2
BRANCH   1  25
ATOM     25  C   UNL A   1      37.917  24.183  26.369  1.00  0.00     0.118 C 
BRANCH  25  26
ATOM     26  N   UNL A   1      39.322  23.888  26.136  1.00  0.00    -0.352 N 
ATOM     27  C   UNL A   1      40.445  24.572  26.535  1.00  0.00     0.251 C 
ATOM     28  H   UNL A   1      39.496  23.073  25.612  1.00  0.00     0.163 HD
ATOM     29  O   UNL A   1      41.520  24.313  25.999  1.00  0.00    -0.269 OA
BRANCH  27  30
ATOM     30  C   UNL A   1      40.380  25.609  27.592  1.00  0.00     0.039 A 
ATOM     31  C   UNL A   1      41.304  26.659  27.564  1.00  0.00     0.014 A 
ATOM     32  C   UNL A   1      39.472  25.513  28.652  1.00  0.00     0.014 A 
ATOM     33  C   UNL A   1      41.289  27.632  28.569  1.00  0.00     0.010 A 
ATOM     34  C   UNL A   1      39.420  26.516  29.621  1.00  0.00     0.010 A 
ATOM     35  C   UNL A   1      40.333  27.581  29.595  1.00  0.00    -0.014 A 
BRANCH  35  36
ATOM     36  C   UNL A   1      40.284  28.618  30.659  1.00  0.00     0.031 A 
ATOM     37  C   UNL A   1      41.216  28.535  31.839  1.00  0.00     0.074 A 
ATOM     38  C   UNL A   1      39.367  29.601  30.595  1.00  0.00     0.049 A 
ATOM     39  N   UNL A   1      41.258  29.283  32.911  1.00  0.00    -0.248 NA
ATOM     40  C   UNL A   1      42.218  27.458  31.818  1.00  0.00     0.031 C 
ATOM     41  C   UNL A   1      38.389  29.776  29.520  1.00  0.00     0.029 A 
ATOM     42  N   UNL A   1      39.099  30.635  31.459  1.00  0.00    -0.354 N 
ATOM     43  C   UNL A   1      42.270  28.754  33.704  1.00  0.00     0.074 A 
ATOM     44  C   UNL A   1      42.797  27.603  33.003  1.00  0.00     0.031 C 
ATOM     45  C   UNL A   1      37.643  30.863  29.777  1.00  0.00     0.029 A 
ATOM     46  C   UNL A   1      38.065  31.441  31.051  1.00  0.00     0.049 A 
ATOM     47  H   UNL A   1      39.603  30.784  32.292  1.00  0.00     0.167 HD
ATOM     48  C   UNL A   1      42.728  29.197  34.899  1.00  0.00     0.037 A 
ATOM     49  C   UNL A   1      37.512  32.522  31.637  1.00  0.00     0.037 A 
ATOM     50  C   UNL A   1      42.233  30.366  35.576  1.00  0.00     0.049 A 
ATOM     51  C   UNL A   1      38.049  33.007  32.953  1.00  0.00     0.074 A 
ATOM     52  C   UNL A   1      42.670  30.922  36.765  1.00  0.00     0.029 A 
ATOM     53  N   UNL A   1      41.195  31.165  35.118  1.00  0.00    -0.354 N 
ATOM     54  N   UNL A   1      39.021  32.507  33.677  1.00  0.00    -0.248 NA
ATOM     55  C   UNL A   1      37.417  34.200  33.533  1.00  0.00     0.031 C 
ATOM     56  C   UNL A   1      41.883  32.046  37.039  1.00  0.00     0.029 A 
ATOM     57  C   UNL A   1      40.974  32.205  36.005  1.00  0.00     0.049 A 
ATOM     58  H   UNL A   1      40.692  31.015  34.286  1.00  0.00     0.167 HD
ATOM     59  C   UNL A   1      39.126  33.329  34.791  1.00  0.00     0.074 A 
ATOM     60  C   UNL A   1      38.126  34.367  34.642  1.00  0.00     0.031 C 
ATOM     61  C   UNL A   1      39.976  33.232  35.843  1.00  0.00     0.037 A 
BRANCH  48  62
ATOM     62  C   UNL A   1      43.833  28.416  35.553  1.00  0.00     0.058 A 
ATOM     63  C   UNL A   1      45.175  28.668  35.228  1.00  0.00     0.135 A 
ATOM     64  C   UNL A   1      43.561  27.392  36.473  1.00  0.00     0.135 A 
ATOM     65  F   UNL A   1      45.490  29.641  34.359  1.00  0.00    -0.206 F 
ATOM     66  C   UNL A   1      46.210  27.929  35.792  1.00  0.00     0.059 A 
ATOM     67  C   UNL A   1      44.582  26.654  37.065  1.00  0.00     0.059 A 
ATOM     68  F   UNL A   1      42.295  27.127  36.833  1.00  0.00    -0.206 F 
ATOM     69  C   UNL A   1      45.903  26.923  36.709  1.00  0.00     0.060 A 
BRANCH  69  70
ATOM     70  S   UNL A   1      47.257  26.008  37.481  1.00  0.00     0.124 S 
ATOM     71  O   UNL A   1      47.477  24.934  36.520  1.00  0.00    -0.237 OA
ATOM     72  O   UNL A   1      48.307  27.019  37.559  1.00  0.00    -0.237 OA
ATOM     73  O   UNL A   1      46.696  25.602  38.766  1.00  0.00    -0.744 OA
ENDBRANCH  69  70
ENDBRANCH  48  62
BRANCH  49  74
ATOM     74  C   UNL A   1      36.402  33.233  30.953  1.00  0.00     0.058 A 
ATOM     75  C   UNL A   1      36.634  34.041  29.830  1.00  0.00     0.135 A 
ATOM     76  C   UNL A   1      35.093  33.161  31.452  1.00  0.00     0.135 A 
ATOM     77  F   UNL A   1      37.872  34.147  29.322  1.00  0.00    -0.206 F 
ATOM     78  C   UNL A   1      35.612  34.779  29.243  1.00  0.00     0.059 A 
ATOM     79  C   UNL A   1      34.051  33.876  30.871  1.00  0.00     0.059 A 
ATOM     80  F   UNL A   1      34.825  32.391  32.517  1.00  0.00    -0.206 F 
ATOM     81  C   UNL A   1      34.326  34.699  29.780  1.00  0.00     0.060 A 
BRANCH  81  82
ATOM     82  S   UNL A   1      33.020  35.698  29.034  1.00  0.00     0.124 S 
ATOM     83  O   UNL A   1      32.365  34.719  28.173  1.00  0.00    -0.237 OA
ATOM     84  O   UNL A   1      32.258  36.130  30.200  1.00  0.00    -0.237 OA
ATOM     85  O   UNL A   1      33.756  36.752  28.344  1.00  0.00    -0.744 OA
ENDBRANCH  81  82
ENDBRANCH  49  74
BRANCH  61  86
ATOM     86  C   UNL A   1      39.878  34.276  36.916  1.00  0.00     0.058 A 
ATOM     87  C   UNL A   1      39.101  34.049  38.062  1.00  0.00     0.135 A 
ATOM     88  C   UNL A   1      40.487  35.531  36.770  1.00  0.00     0.135 A 
ATOM     89  F   UNL A   1      38.498  32.864  38.248  1.00  0.00    -0.206 F 
ATOM     90  C   UNL A   1      38.915  35.039  39.021  1.00  0.00     0.059 A 
ATOM     91  C   UNL A   1      40.328  36.532  37.723  1.00  0.00     0.059 A 
ATOM     92  F   UNL A   1      41.249  35.789  35.695  1.00  0.00    -0.206 F 
ATOM     93  C   UNL A   1      39.526  36.282  38.837  1.00  0.00     0.060 A 
BRANCH  93  94
ATOM     94  S   UNL A   1      39.276  37.560  40.088  1.00  0.00     0.124 S 
ATOM     95  O   UNL A   1      38.909  36.767  41.256  1.00  0.00    -0.237 OA
ATOM     96  O   UNL A   1      40.586  38.203  40.143  1.00  0.00    -0.237 OA
ATOM     97  O   UNL A   1      38.209  38.380  39.522  1.00  0.00    -0.744 OA
ENDBRANCH  93  94
ENDBRANCH  61  86
ENDBRANCH  35  36
ENDBRANCH  27  30
ENDBRANCH  25  26
ENDBRANCH   1  25
TORSDOF 16
ENDMDL
MODEL 3
REMARK VINA RESULT:     -12.0      6.711     11.962
REMARK SMILES Cn1ncc(C(=O)NCc2ccc(F)cc2)c1C(=O)NCCCNC(=O)c1ccc(-c2c3nc(c(-c4c(F)cc(S(=O)(=O)[O-])cc4F)c4ccc([nH]4)c(-c4c(F)cc(S(=O)(=O)[O-])cc4F)c4nc(c(-c5c(F)cc(S(=O)(=O)[O-])cc5F)c5ccc2[nH]5)C=C4)C=C3)cc1
REMARK SMILES IDX 22 1 21 2 20 3 18 4 19 5 17 7 1 8 2 9 3 10 4 11 5 12 6 13
REMARK SMILES IDX 7 14 8 15 9 17 10 18 11 19 16 20 12 21 15 22 13 23 14 24
REMARK SMILES IDX 23 25 24 26 25 27 26 29 27 30 28 31 92 32 29 33 91 34 30 35
REMARK SMILES IDX 31 36 32 37 85 38 33 39 90 40 84 41 86 42 34 43 89 44 83 45
REMARK SMILES IDX 82 46 35 48 69 49 48 50 68 51 49 52 52 53 67 54 87 55 50 56
REMARK SMILES IDX 51 57 66 59 88 60 53 61 36 62 37 63 46 64 38 65 39 66 45 67
REMARK SMILES IDX 47 68 40 69 41 70 42 71 43 72 44 73 70 74 71 75 80 76 72 77
REMARK SMILES IDX 73 78 79 79 81 80 74 81 75 82 76 83 77 84 78 85 54 86 55 87
REMARK SMILES IDX 64 88 56 89 57 90 63 91 65 92 58 93 59 94 60 95 61 96 62 97
REMARK H PARENT 20 6 8 16 24 28 86 47 52 58
REMARK Flexibility Score: inf
ROOT
ATOM      1  C   UNL A   1      33.771  29.677  26.868  1.00  0.00     0.042 C 
ENDROOT
BRANCH   1   2
ATOM      2  C   UNL A   1      32.755  28.550  27.044  1.00  0.00     0.118 C 
BRANCH   2   3
ATOM      3  N   UNL A   1      32.225  28.116  25.760  1.00  0.00    -0.351 N 
ATOM      4  C   UNL A   1      31.842  26.813  25.521  1.00  0.00     0.270 C 
ATOM      5  O   UNL A   1      30.687  26.487  25.778  1.00  0.00    -0.268 OA
ATOM      6  H   UNL A   1      32.137  28.777  25.036  1.00  0.00     0.163 HD
BRANCH   4   7
ATOM      7  C   UNL A   1      32.730  26.016  24.702  1.00  0.00     0.138 A 
ATOM      8  C   UNL A   1      33.257  24.077  26.276  1.00  0.00     0.174 C 
ATOM      9  N   UNL A   1      33.278  24.791  25.023  1.00  0.00    -0.262 N 
ATOM     10  N   UNL A   1      33.863  24.168  23.985  1.00  0.00    -0.180 NA
ATOM     11  C   UNL A   1      33.787  25.056  23.004  1.00  0.00     0.149 A 
ATOM     12  C   UNL A   1      33.170  26.269  23.396  1.00  0.00     0.090 A 
BRANCH  12  13
ATOM     13  C   UNL A   1      33.046  27.394  22.479  1.00  0.00     0.255 C 
ATOM     14  O   UNL A   1      34.055  27.967  22.063  1.00  0.00    -0.269 OA
ATOM     15  N   UNL A   1      31.844  27.966  22.152  1.00  0.00    -0.348 N 
ATOM     16  H   UNL A   1      31.921  28.825  21.675  1.00  0.00     0.164 HD
BRANCH  15  17
ATOM     17  C   UNL A   1      30.492  27.538  22.381  1.00  0.00     0.152 C 
BRANCH  17  18
ATOM     18  C   UNL A   1      29.574  28.610  22.902  1.00  0.00    -0.029 A 
ATOM     19  C   UNL A   1      30.075  29.866  23.278  1.00  0.00     0.008 A 
ATOM     20  C   UNL A   1      28.184  28.405  22.873  1.00  0.00     0.008 A 
ATOM     21  C   UNL A   1      29.198  30.910  23.577  1.00  0.00     0.039 A 
ATOM     22  C   UNL A   1      27.311  29.452  23.169  1.00  0.00     0.039 A 
ATOM     23  C   UNL A   1      27.826  30.696  23.508  1.00  0.00     0.123 A 
ATOM     24  F   UNL A   1      26.988  31.710  23.758  1.00  0.00    -0.207 F 
ENDBRANCH  17  18
ENDBRANCH  15  17
ENDBRANCH  12  13
ENDBRANCH   4   7
ENDBRANCH   2   3
ENDBRANCH   1   2
BRANCH   1  25
ATOM     25  C   UNL A   1      35.080  29.447  27.622  1.00  0.00     0.118 C 
BRANCH  25  26
ATOM     26  N   UNL A   1      35.153  30.256  28.828  1.00  0.00    -0.352 N 
ATOM     27  C   UNL A   1      36.178  30.404  29.731  1.00  0.00     0.251 C 
ATOM     28  H   UNL A   1      34.343  30.778  29.029  1.00  0.00     0.163 HD
ATOM     29  O   UNL A   1      35.937  30.910  30.824  1.00  0.00    -0.269 OA
BRANCH  27  30
ATOM     30  C   UNL A   1      37.556  29.965  29.409  1.00  0.00     0.039 A 
ATOM     31  C   UNL A   1      38.401  29.574  30.454  1.00  0.00     0.014 A 
ATOM     32  C   UNL A   1      38.050  30.012  28.101  1.00  0.00     0.014 A 
ATOM     33  C   UNL A   1      39.718  29.190  30.184  1.00  0.00     0.010 A 
ATOM     34  C   UNL A   1      39.345  29.573  27.826  1.00  0.00     0.010 A 
ATOM     35  C   UNL A   1      40.196  29.166  28.865  1.00  0.00    -0.014 A 
BRANCH  35  36
ATOM     36  C   UNL A   1      41.585  28.738  28.552  1.00  0.00     0.031 A 
ATOM     37  C   UNL A   1      42.707  29.742  28.572  1.00  0.00     0.074 A 
ATOM     38  C   UNL A   1      41.830  27.463  28.197  1.00  0.00     0.049 A 
ATOM     39  N   UNL A   1      43.961  29.584  28.234  1.00  0.00    -0.248 NA
ATOM     40  C   UNL A   1      42.370  31.106  29.010  1.00  0.00     0.031 C 
ATOM     41  C   UNL A   1      40.826  26.401  28.113  1.00  0.00     0.029 A 
ATOM     42  N   UNL A   1      42.999  26.843  27.830  1.00  0.00    -0.354 N 
ATOM     43  C   UNL A   1      44.557  30.829  28.392  1.00  0.00     0.074 A 
ATOM     44  C   UNL A   1      43.521  31.741  28.828  1.00  0.00     0.031 C 
ATOM     45  C   UNL A   1      41.424  25.258  27.740  1.00  0.00     0.029 A 
ATOM     46  C   UNL A   1      42.846  25.513  27.525  1.00  0.00     0.049 A 
ATOM     47  H   UNL A   1      43.866  27.310  27.791  1.00  0.00     0.167 HD
ATOM     48  C   UNL A   1      45.852  31.178  28.207  1.00  0.00     0.037 A 
ATOM     49  C   UNL A   1      43.748  24.600  27.112  1.00  0.00     0.037 A 
ATOM     50  C   UNL A   1      46.891  30.263  27.814  1.00  0.00     0.049 A 
ATOM     51  C   UNL A   1      45.183  25.003  26.931  1.00  0.00     0.074 A 
ATOM     52  C   UNL A   1      48.243  30.513  27.651  1.00  0.00     0.029 A 
ATOM     53  N   UNL A   1      46.697  28.918  27.532  1.00  0.00    -0.354 N 
ATOM     54  N   UNL A   1      45.732  26.181  27.107  1.00  0.00    -0.248 NA
ATOM     55  C   UNL A   1      46.121  23.959  26.496  1.00  0.00     0.031 C 
ATOM     56  C   UNL A   1      48.862  29.325  27.249  1.00  0.00     0.029 A 
ATOM     57  C   UNL A   1      47.902  28.329  27.190  1.00  0.00     0.049 A 
ATOM     58  H   UNL A   1      45.830  28.453  27.570  1.00  0.00     0.167 HD
ATOM     59  C   UNL A   1      47.081  26.018  26.817  1.00  0.00     0.074 A 
ATOM     60  C   UNL A   1      47.268  24.626  26.464  1.00  0.00     0.031 C 
ATOM     61  C   UNL A   1      48.073  26.941  26.841  1.00  0.00     0.037 A 
BRANCH  48  62
ATOM     62  C   UNL A   1      46.225  32.615  28.436  1.00  0.00     0.058 A 
ATOM     63  C   UNL A   1      46.172  33.543  27.385  1.00  0.00     0.135 A 
ATOM     64  C   UNL A   1      46.672  33.066  29.688  1.00  0.00     0.135 A 
ATOM     65  F   UNL A   1      45.745  33.166  26.169  1.00  0.00    -0.206 F 
ATOM     66  C   UNL A   1      46.552  34.870  27.566  1.00  0.00     0.059 A 
ATOM     67  C   UNL A   1      47.037  34.392  29.897  1.00  0.00     0.059 A 
ATOM     68  F   UNL A   1      46.720  32.221  30.731  1.00  0.00    -0.206 F 
ATOM     69  C   UNL A   1      46.984  35.284  28.827  1.00  0.00     0.060 A 
BRANCH  69  70
ATOM     70  S   UNL A   1      47.418  37.022  29.068  1.00  0.00     0.124 S 
ATOM     71  O   UNL A   1      47.043  37.604  27.785  1.00  0.00    -0.237 OA
ATOM     72  O   UNL A   1      46.583  37.394  30.206  1.00  0.00    -0.237 OA
ATOM     73  O   UNL A   1      48.850  36.973  29.346  1.00  0.00    -0.744 OA
ENDBRANCH  69  70
ENDBRANCH  48  62
BRANCH  49  74
ATOM     74  C   UNL A   1      43.309  23.201  26.875  1.00  0.00     0.058 A 
ATOM     75  C   UNL A   1      43.024  22.333  27.939  1.00  0.00     0.135 A 
ATOM     76  C   UNL A   1      43.226  22.690  25.570  1.00  0.00     0.135 A 
ATOM     77  F   UNL A   1      43.100  22.774  29.205  1.00  0.00    -0.206 F 
ATOM     78  C   UNL A   1      42.702  20.999  27.722  1.00  0.00     0.059 A 
ATOM     79  C   UNL A   1      42.888  21.363  25.327  1.00  0.00     0.059 A 
ATOM     80  F   UNL A   1      43.478  23.489  24.522  1.00  0.00    -0.206 F 
ATOM     81  C   UNL A   1      42.649  20.520  26.411  1.00  0.00     0.060 A 
BRANCH  81  82
ATOM     82  S   UNL A   1      42.273  18.773  26.148  1.00  0.00     0.124 S 
ATOM     83  O   UNL A   1      42.571  18.214  27.463  1.00  0.00    -0.237 OA
ATOM     84  O   UNL A   1      40.862  18.814  25.779  1.00  0.00    -0.237 OA
ATOM     85  O   UNL A   1      43.188  18.390  25.078  1.00  0.00    -0.744 OA
ENDBRANCH  81  82
ENDBRANCH  49  74
BRANCH  61  86
ATOM     86  C   UNL A   1      49.458  26.483  26.489  1.00  0.00     0.058 A 
ATOM     87  C   UNL A   1      50.316  25.981  27.480  1.00  0.00     0.135 A 
ATOM     88  C   UNL A   1      49.961  26.617  25.187  1.00  0.00     0.135 A 
ATOM     89  F   UNL A   1      49.880  25.833  28.741  1.00  0.00    -0.206 F 
ATOM     90  C   UNL A   1      51.635  25.645  27.195  1.00  0.00     0.059 A 
ATOM     91  C   UNL A   1      51.273  26.273  24.875  1.00  0.00     0.059 A 
ATOM     92  F   UNL A   1      49.173  27.082  24.204  1.00  0.00    -0.206 F 
ATOM     93  C   UNL A   1      52.107  25.804  25.890  1.00  0.00     0.060 A 
BRANCH  93  94
ATOM     94  S   UNL A   1      53.822  25.365  25.533  1.00  0.00     0.124 S 
ATOM     95  O   UNL A   1      54.308  26.574  24.877  1.00  0.00    -0.237 OA
ATOM     96  O   UNL A   1      54.361  25.104  26.864  1.00  0.00    -0.237 OA
ATOM     97  O   UNL A   1      53.696  24.190  24.675  1.00  0.00    -0.744 OA
ENDBRANCH  93  94
ENDBRANCH  61  86
ENDBRANCH  35  36
ENDBRANCH  27  30
ENDBRANCH  25  26
ENDBRANCH   1  25
TORSDOF 16
ENDMDL
