MODEL 1
REMARK VINA RESULT:     -11.9      0.000      0.000
REMARK SMILES O=C(NCCCNC(=O)C1CN(S(=O)(=O)c2ccc(F)cc2)C1)c1ccc(-c2c3nc(c(-c4c(F)cc(S(=O)(=O)[O-])cc4F)c4ccc([nH]4)c(-c4c(F)cc(S(=O)(=O)[O-])cc4F)c4nc(c(-c5c(F)cc(S(=O)(=O)[O-])cc5F)c5ccc2[nH]5)C=C4)C=C3)cc1
REMARK SMILES IDX 4 1 3 2 1 3 2 4 24 6 25 7 89 8 26 9 88 10 27 11 28 12 29 13
REMARK SMILES IDX 82 14 30 15 87 16 81 17 83 18 31 19 86 20 80 21 79 22 32 24
REMARK SMILES IDX 66 25 45 26 65 27 46 28 49 29 64 30 84 31 47 32 48 33 63 35
REMARK SMILES IDX 85 36 50 37 33 38 34 39 43 40 35 41 36 42 42 43 44 44 37 45
REMARK SMILES IDX 38 46 39 47 40 48 41 49 67 50 68 51 77 52 69 53 70 54 76 55
REMARK SMILES IDX 78 56 71 57 72 58 73 59 74 60 75 61 51 62 52 63 61 64 53 65
REMARK SMILES IDX 54 66 60 67 62 68 55 69 56 70 57 71 58 72 59 73 5 74 6 75
REMARK SMILES IDX 7 76 8 77 9 79 10 80 11 81 23 82 12 83 13 84 14 85 15 86
REMARK SMILES IDX 16 87 17 88 22 89 18 90 21 91 19 92 20 93
REMARK H PARENT 3 5 83 23 49 34 7 78
REMARK Flexibility Score: inf
ROOT
ATOM      1  C   UNL A   1      33.554  28.520  27.089  1.00  0.00     0.118 C 
ENDROOT
BRANCH   1   2
ATOM      2  N   UNL A   1      33.536  29.911  27.516  1.00  0.00    -0.352 N 
ATOM      3  O   UNL A   1      34.181  31.750  28.620  1.00  0.00    -0.269 OA
ATOM      4  C   UNL A   1      34.488  30.648  28.171  1.00  0.00     0.251 C 
ATOM      5  H   UNL A   1      32.709  30.400  27.300  1.00  0.00     0.163 HD
BRANCH   4   6
ATOM      6  C   UNL A   1      35.867  30.139  28.339  1.00  0.00     0.039 A 
ATOM      7  C   UNL A   1      36.797  30.204  27.297  1.00  0.00     0.014 A 
ATOM      8  C   UNL A   1      36.262  29.670  29.597  1.00  0.00     0.014 A 
ATOM      9  C   UNL A   1      38.092  29.729  27.488  1.00  0.00     0.010 A 
ATOM     10  C   UNL A   1      37.579  29.251  29.806  1.00  0.00     0.010 A 
ATOM     11  C   UNL A   1      38.503  29.275  28.751  1.00  0.00    -0.014 A 
BRANCH  11  12
ATOM     12  C   UNL A   1      39.931  28.950  28.985  1.00  0.00     0.031 A 
ATOM     13  C   UNL A   1      40.496  27.609  28.614  1.00  0.00     0.074 A 
ATOM     14  C   UNL A   1      40.715  29.886  29.556  1.00  0.00     0.049 A 
ATOM     15  N   UNL A   1      41.713  27.162  28.780  1.00  0.00    -0.248 NA
ATOM     16  C   UNL A   1      39.583  26.645  27.978  1.00  0.00     0.031 C 
ATOM     17  C   UNL A   1      40.261  31.216  29.980  1.00  0.00     0.029 A 
ATOM     18  N   UNL A   1      42.046  29.873  29.883  1.00  0.00    -0.354 N 
ATOM     19  C   UNL A   1      41.715  25.864  28.283  1.00  0.00     0.074 A 
ATOM     20  C   UNL A   1      40.371  25.588  27.821  1.00  0.00     0.031 C 
ATOM     21  C   UNL A   1      41.299  31.892  30.492  1.00  0.00     0.029 A 
ATOM     22  C   UNL A   1      42.476  31.033  30.484  1.00  0.00     0.049 A 
ATOM     23  H   UNL A   1      42.638  29.106  29.704  1.00  0.00     0.167 HD
ATOM     24  C   UNL A   1      42.749  24.994  28.214  1.00  0.00     0.037 A 
ATOM     25  C   UNL A   1      43.676  31.359  31.002  1.00  0.00     0.037 A 
ATOM     26  C   UNL A   1      44.088  25.294  28.652  1.00  0.00     0.049 A 
ATOM     27  C   UNL A   1      44.794  30.360  30.943  1.00  0.00     0.074 A 
ATOM     28  C   UNL A   1      45.220  24.504  28.547  1.00  0.00     0.029 A 
ATOM     29  N   UNL A   1      44.476  26.464  29.287  1.00  0.00    -0.354 N 
ATOM     30  N   UNL A   1      44.790  29.161  30.414  1.00  0.00    -0.248 NA
ATOM     31  C   UNL A   1      46.070  30.747  31.560  1.00  0.00     0.031 C 
ATOM     32  C   UNL A   1      46.283  25.177  29.157  1.00  0.00     0.029 A 
ATOM     33  C   UNL A   1      45.820  26.401  29.612  1.00  0.00     0.049 A 
ATOM     34  H   UNL A   1      43.883  27.226  29.478  1.00  0.00     0.167 HD
ATOM     35  C   UNL A   1      46.060  28.645  30.641  1.00  0.00     0.074 A 
ATOM     36  C   UNL A   1      46.814  29.672  31.331  1.00  0.00     0.031 C 
ATOM     37  C   UNL A   1      46.551  27.426  30.312  1.00  0.00     0.037 A 
BRANCH  24  38
ATOM     38  C   UNL A   1      42.505  23.630  27.638  1.00  0.00     0.058 A 
ATOM     39  C   UNL A   1      42.382  22.515  28.482  1.00  0.00     0.135 A 
ATOM     40  C   UNL A   1      42.535  23.407  26.254  1.00  0.00     0.135 A 
ATOM     41  F   UNL A   1      42.341  22.678  29.814  1.00  0.00    -0.206 F 
ATOM     42  C   UNL A   1      42.331  21.221  27.974  1.00  0.00     0.059 A 
ATOM     43  C   UNL A   1      42.470  22.121  25.723  1.00  0.00     0.059 A 
ATOM     44  F   UNL A   1      42.635  24.441  25.405  1.00  0.00    -0.206 F 
ATOM     45  C   UNL A   1      42.390  21.033  26.592  1.00  0.00     0.060 A 
BRANCH  45  46
ATOM     46  S   UNL A   1      42.353  19.346  25.949  1.00  0.00     0.124 S 
ATOM     47  O   UNL A   1      42.816  18.576  27.098  1.00  0.00    -0.237 OA
ATOM     48  O   UNL A   1      40.945  19.183  25.597  1.00  0.00    -0.237 OA
ATOM     49  O   UNL A   1      43.271  19.398  24.815  1.00  0.00    -0.744 OA
ENDBRANCH  45  46
ENDBRANCH  24  38
BRANCH  25  50
ATOM     50  C   UNL A   1      43.857  32.682  31.652  1.00  0.00     0.058 A 
ATOM     51  C   UNL A   1      43.547  32.866  33.009  1.00  0.00     0.135 A 
ATOM     52  C   UNL A   1      44.300  33.795  30.925  1.00  0.00     0.135 A 
ATOM     53  F   UNL A   1      43.109  31.832  33.745  1.00  0.00    -0.206 F 
ATOM     54  C   UNL A   1      43.645  34.111  33.616  1.00  0.00     0.059 A 
ATOM     55  C   UNL A   1      44.429  35.048  31.516  1.00  0.00     0.059 A 
ATOM     56  F   UNL A   1      44.619  33.664  29.628  1.00  0.00    -0.206 F 
ATOM     57  C   UNL A   1      44.081  35.199  32.859  1.00  0.00     0.060 A 
BRANCH  57  58
ATOM     58  S   UNL A   1      44.202  36.813  33.661  1.00  0.00     0.124 S 
ATOM     59  O   UNL A   1      42.821  37.032  34.079  1.00  0.00    -0.237 OA
ATOM     60  O   UNL A   1      45.157  36.554  34.734  1.00  0.00    -0.237 OA
ATOM     61  O   UNL A   1      44.684  37.681  32.593  1.00  0.00    -0.744 OA
ENDBRANCH  57  58
ENDBRANCH  25  50
BRANCH  37  62
ATOM     62  C   UNL A   1      47.964  27.116  30.710  1.00  0.00     0.058 A 
ATOM     63  C   UNL A   1      49.025  27.336  29.818  1.00  0.00     0.135 A 
ATOM     64  C   UNL A   1      48.249  26.507  31.940  1.00  0.00     0.135 A 
ATOM     65  F   UNL A   1      48.801  27.916  28.629  1.00  0.00    -0.206 F 
ATOM     66  C   UNL A   1      50.320  26.934  30.122  1.00  0.00     0.059 A 
ATOM     67  C   UNL A   1      49.541  26.115  32.274  1.00  0.00     0.059 A 
ATOM     68  F   UNL A   1      47.268  26.292  32.830  1.00  0.00    -0.206 F 
ATOM     69  C   UNL A   1      50.566  26.313  31.348  1.00  0.00     0.060 A 
BRANCH  69  70
ATOM     70  S   UNL A   1      52.249  25.776  31.718  1.00  0.00     0.124 S 
ATOM     71  O   UNL A   1      52.598  26.639  32.842  1.00  0.00    -0.237 OA
ATOM     72  O   UNL A   1      52.060  24.364  32.037  1.00  0.00    -0.237 OA
ATOM     73  O   UNL A   1      52.969  26.038  30.476  1.00  0.00    -0.744 OA
ENDBRANCH  69  70
ENDBRANCH  37  62
ENDBRANCH  11  12
ENDBRANCH   4   6
ENDBRANCH   1   2
BRANCH   1  74
ATOM     74  C   UNL A   1      33.658  28.379  25.573  1.00  0.00     0.042 C 
BRANCH  74  75
ATOM     75  C   UNL A   1      33.344  26.979  25.058  1.00  0.00     0.117 C 
BRANCH  75  76
ATOM     76  N   UNL A   1      33.533  26.858  23.622  1.00  0.00    -0.356 N 
ATOM     77  C   UNL A   1      33.562  25.705  22.872  1.00  0.00     0.225 C 
ATOM     78  H   UNL A   1      33.656  27.701  23.128  1.00  0.00     0.163 HD
ATOM     79  O   UNL A   1      33.739  25.810  21.655  1.00  0.00    -0.275 OA
BRANCH  77  80
ATOM     80  C   UNL A   1      33.377  24.375  23.605  1.00  0.00     0.109 C 
ATOM     81  C   UNL A   1      31.995  23.694  23.504  1.00  0.00     0.117 C 
ATOM     82  C   UNL A   1      33.885  23.078  22.938  1.00  0.00     0.117 C 
ATOM     83  N   UNL A   1      32.677  22.346  23.483  1.00  0.00    -0.196 NA
BRANCH  83  84
ATOM     84  S   UNL A   1      32.728  21.407  24.920  1.00  0.00     0.243 S 
ATOM     85  O   UNL A   1      33.839  21.875  25.719  1.00  0.00    -0.207 OA
ATOM     86  O   UNL A   1      31.380  21.374  25.452  1.00  0.00    -0.207 OA
BRANCH  84  87
ATOM     87  C   UNL A   1      33.130  19.779  24.336  1.00  0.00     0.082 A 
ATOM     88  C   UNL A   1      32.340  19.184  23.345  1.00  0.00     0.025 A 
ATOM     89  C   UNL A   1      34.286  19.143  24.803  1.00  0.00     0.025 A 
ATOM     90  C   UNL A   1      32.695  17.932  22.842  1.00  0.00     0.040 A 
ATOM     91  C   UNL A   1      34.643  17.897  24.284  1.00  0.00     0.040 A 
ATOM     92  C   UNL A   1      33.843  17.303  23.313  1.00  0.00     0.123 A 
ATOM     93  F   UNL A   1      34.191  16.110  22.814  1.00  0.00    -0.207 F 
ENDBRANCH  84  87
ENDBRANCH  83  84
ENDBRANCH  77  80
ENDBRANCH  75  76
ENDBRANCH  74  75
ENDBRANCH   1  74
TORSDOF 15
ENDMDL
MODEL 2
REMARK VINA RESULT:     -11.8      0.512      8.379
REMARK SMILES O=C(NCCCNC(=O)C1CN(S(=O)(=O)c2ccc(F)cc2)C1)c1ccc(-c2c3nc(c(-c4c(F)cc(S(=O)(=O)[O-])cc4F)c4ccc([nH]4)c(-c4c(F)cc(S(=O)(=O)[O-])cc4F)c4nc(c(-c5c(F)cc(S(=O)(=O)[O-])cc5F)c5ccc2[nH]5)C=C4)C=C3)cc1
REMARK SMILES IDX 4 1 3 2 1 3 2 4 24 6 25 7 89 8 26 9 88 10 27 11 28 12 29 13
REMARK SMILES IDX 82 14 30 15 87 16 81 17 83 18 31 19 86 20 80 21 79 22 32 24
REMARK SMILES IDX 66 25 45 26 65 27 46 28 49 29 64 30 84 31 47 32 48 33 63 35
REMARK SMILES IDX 85 36 50 37 33 38 34 39 43 40 35 41 36 42 42 43 44 44 37 45
REMARK SMILES IDX 38 46 39 47 40 48 41 49 67 50 68 51 77 52 69 53 70 54 76 55
REMARK SMILES IDX 78 56 71 57 72 58 73 59 74 60 75 61 51 62 52 63 61 64 53 65
REMARK SMILES IDX 54 66 60 67 62 68 55 69 56 70 57 71 58 72 59 73 5 74 6 75
REMARK SMILES IDX 7 76 8 77 9 79 10 80 11 81 23 82 12 83 13 84 14 85 15 86
REMARK SMILES IDX 16 87 17 88 22 89 18 90 21 91 19 92 20 93
REMARK H PARENT 3 5 83 23 49 34 7 78
REMARK Flexibility Score: inf
ROOT
ATOM      1  C   UNL A   1      33.537  28.419  27.266  1.00  0.00     0.118 C 
ENDROOT
BRANCH   1   2
ATOM      2  N   UNL A   1      33.526  29.835  27.603  1.00  0.00    -0.352 N 
ATOM      3  O   UNL A   1      34.181  31.739  28.583  1.00  0.00    -0.269 OA
ATOM      4  C   UNL A   1      34.483  30.610  28.205  1.00  0.00     0.251 C 
ATOM      5  H   UNL A   1      32.699  30.311  27.359  1.00  0.00     0.163 HD
BRANCH   4   6
ATOM      6  C   UNL A   1      35.861  30.107  28.399  1.00  0.00     0.039 A 
ATOM      7  C   UNL A   1      36.811  30.179  27.375  1.00  0.00     0.014 A 
ATOM      8  C   UNL A   1      36.234  29.639  29.664  1.00  0.00     0.014 A 
ATOM      9  C   UNL A   1      38.105  29.712  27.590  1.00  0.00     0.010 A 
ATOM     10  C   UNL A   1      37.550  29.227  29.897  1.00  0.00     0.010 A 
ATOM     11  C   UNL A   1      38.494  29.258  28.860  1.00  0.00    -0.014 A 
BRANCH  11  12
ATOM     12  C   UNL A   1      39.919  28.940  29.122  1.00  0.00     0.031 A 
ATOM     13  C   UNL A   1      40.852  29.963  29.701  1.00  0.00     0.074 A 
ATOM     14  C   UNL A   1      40.365  27.706  28.813  1.00  0.00     0.049 A 
ATOM     15  N   UNL A   1      42.129  29.849  29.961  1.00  0.00    -0.248 NA
ATOM     16  C   UNL A   1      40.288  31.282  30.029  1.00  0.00     0.031 C 
ATOM     17  C   UNL A   1      39.547  26.641  28.221  1.00  0.00     0.029 A 
ATOM     18  N   UNL A   1      41.604  27.134  28.945  1.00  0.00    -0.354 N 
ATOM     19  C   UNL A   1      42.527  31.079  30.471  1.00  0.00     0.074 A 
ATOM     20  C   UNL A   1      41.358  31.933  30.471  1.00  0.00     0.031 C 
ATOM     21  C   UNL A   1      40.301  25.545  28.059  1.00  0.00     0.029 A 
ATOM     22  C   UNL A   1      41.665  25.840  28.483  1.00  0.00     0.049 A 
ATOM     23  H   UNL A   1      42.377  27.605  29.333  1.00  0.00     0.167 HD
ATOM     24  C   UNL A   1      43.754  31.449  30.905  1.00  0.00     0.037 A 
ATOM     25  C   UNL A   1      42.707  24.993  28.381  1.00  0.00     0.037 A 
ATOM     26  C   UNL A   1      44.901  30.579  30.924  1.00  0.00     0.049 A 
ATOM     27  C   UNL A   1      44.063  25.445  28.837  1.00  0.00     0.074 A 
ATOM     28  C   UNL A   1      46.166  30.841  31.422  1.00  0.00     0.029 A 
ATOM     29  N   UNL A   1      44.931  29.289  30.417  1.00  0.00    -0.354 N 
ATOM     30  N   UNL A   1      44.404  26.592  29.373  1.00  0.00    -0.248 NA
ATOM     31  C   UNL A   1      45.176  24.501  28.665  1.00  0.00     0.031 C 
ATOM     32  C   UNL A   1      46.973  29.726  31.177  1.00  0.00     0.029 A 
ATOM     33  C   UNL A   1      46.202  28.756  30.557  1.00  0.00     0.049 A 
ATOM     34  H   UNL A   1      44.163  28.821  30.017  1.00  0.00     0.167 HD
ATOM     35  C   UNL A   1      45.773  26.512  29.595  1.00  0.00     0.074 A 
ATOM     36  C   UNL A   1      46.193  25.195  29.161  1.00  0.00     0.031 C 
ATOM     37  C   UNL A   1      46.606  27.450  30.105  1.00  0.00     0.037 A 
BRANCH  24  38
ATOM     38  C   UNL A   1      43.946  32.850  31.410  1.00  0.00     0.058 A 
ATOM     39  C   UNL A   1      43.677  33.163  32.752  1.00  0.00     0.135 A 
ATOM     40  C   UNL A   1      44.258  33.903  30.538  1.00  0.00     0.135 A 
ATOM     41  F   UNL A   1      43.381  32.188  33.627  1.00  0.00    -0.206 F 
ATOM     42  C   UNL A   1      43.677  34.478  33.205  1.00  0.00     0.059 A 
ATOM     43  C   UNL A   1      44.279  35.225  30.974  1.00  0.00     0.059 A 
ATOM     44  F   UNL A   1      44.539  33.653  29.250  1.00  0.00    -0.206 F 
ATOM     45  C   UNL A   1      43.966  35.505  32.304  1.00  0.00     0.060 A 
BRANCH  45  46
ATOM     46  S   UNL A   1      43.932  37.209  32.900  1.00  0.00     0.124 S 
ATOM     47  O   UNL A   1      43.775  37.959  31.659  1.00  0.00    -0.237 OA
ATOM     48  O   UNL A   1      42.774  37.199  33.790  1.00  0.00    -0.237 OA
ATOM     49  O   UNL A   1      45.223  37.358  33.567  1.00  0.00    -0.744 OA
ENDBRANCH  45  46
ENDBRANCH  24  38
BRANCH  25  50
ATOM     50  C   UNL A   1      42.501  23.648  27.785  1.00  0.00     0.058 A 
ATOM     51  C   UNL A   1      42.427  22.505  28.596  1.00  0.00     0.135 A 
ATOM     52  C   UNL A   1      42.417  23.474  26.397  1.00  0.00     0.135 A 
ATOM     53  F   UNL A   1      42.513  22.620  29.931  1.00  0.00    -0.206 F 
ATOM     54  C   UNL A   1      42.304  21.233  28.051  1.00  0.00     0.059 A 
ATOM     55  C   UNL A   1      42.269  22.213  25.828  1.00  0.00     0.059 A 
ATOM     56  F   UNL A   1      42.471  24.540  25.584  1.00  0.00    -0.206 F 
ATOM     57  C   UNL A   1      42.232  21.096  26.665  1.00  0.00     0.060 A 
BRANCH  57  58
ATOM     58  S   UNL A   1      42.073  19.437  25.971  1.00  0.00     0.124 S 
ATOM     59  O   UNL A   1      40.640  19.372  25.700  1.00  0.00    -0.237 OA
ATOM     60  O   UNL A   1      42.938  19.508  24.798  1.00  0.00    -0.237 OA
ATOM     61  O   UNL A   1      42.552  18.577  27.047  1.00  0.00    -0.744 OA
ENDBRANCH  57  58
ENDBRANCH  25  50
BRANCH  37  62
ATOM     62  C   UNL A   1      48.062  27.105  30.207  1.00  0.00     0.058 A 
ATOM     63  C   UNL A   1      48.584  26.533  31.378  1.00  0.00     0.135 A 
ATOM     64  C   UNL A   1      48.955  27.436  29.178  1.00  0.00     0.135 A 
ATOM     65  F   UNL A   1      47.769  26.198  32.390  1.00  0.00    -0.206 F 
ATOM     66  C   UNL A   1      49.950  26.328  31.536  1.00  0.00     0.059 A 
ATOM     67  C   UNL A   1      50.323  27.222  29.306  1.00  0.00     0.059 A 
ATOM     68  F   UNL A   1      48.498  27.971  28.035  1.00  0.00    -0.206 F 
ATOM     69  C   UNL A   1      50.813  26.687  30.498  1.00  0.00     0.060 A 
BRANCH  69  70
ATOM     70  S   UNL A   1      52.585  26.437  30.728  1.00  0.00     0.124 S 
ATOM     71  O   UNL A   1      53.046  26.282  29.353  1.00  0.00    -0.237 OA
ATOM     72  O   UNL A   1      52.987  27.670  31.397  1.00  0.00    -0.237 OA
ATOM     73  O   UNL A   1      52.653  25.235  31.553  1.00  0.00    -0.744 OA
ENDBRANCH  69  70
ENDBRANCH  37  62
ENDBRANCH  11  12
ENDBRANCH   4   6
ENDBRANCH   1   2
BRANCH   1  74
ATOM     74  C   UNL A   1      33.945  28.170  25.818  1.00  0.00     0.042 C 
BRANCH  74  75
ATOM     75  C   UNL A   1      32.917  27.385  25.010  1.00  0.00     0.117 C 
BRANCH  75  76
ATOM     76  N   UNL A   1      33.264  27.295  23.602  1.00  0.00    -0.356 N 
ATOM     77  C   UNL A   1      33.488  26.157  22.862  1.00  0.00     0.225 C 
ATOM     78  H   UNL A   1      33.350  28.151  23.121  1.00  0.00     0.163 HD
ATOM     79  O   UNL A   1      33.778  26.289  21.669  1.00  0.00    -0.275 OA
BRANCH  77  80
ATOM     80  C   UNL A   1      33.365  24.809  23.576  1.00  0.00     0.109 C 
ATOM     81  C   UNL A   1      32.330  23.805  23.025  1.00  0.00     0.117 C 
ATOM     82  C   UNL A   1      34.381  23.695  23.246  1.00  0.00     0.117 C 
ATOM     83  N   UNL A   1      33.271  22.672  23.361  1.00  0.00    -0.196 NA
BRANCH  83  84
ATOM     84  S   UNL A   1      32.999  21.749  24.784  1.00  0.00     0.243 S 
ATOM     85  O   UNL A   1      34.012  22.111  25.751  1.00  0.00    -0.207 OA
ATOM     86  O   UNL A   1      31.588  21.858  25.096  1.00  0.00    -0.207 OA
BRANCH  84  87
ATOM     87  C   UNL A   1      33.321  20.083  24.262  1.00  0.00     0.082 A 
ATOM     88  C   UNL A   1      34.430  19.398  24.776  1.00  0.00     0.025 A 
ATOM     89  C   UNL A   1      32.414  19.435  23.415  1.00  0.00     0.025 A 
ATOM     90  C   UNL A   1      34.645  18.067  24.415  1.00  0.00     0.040 A 
ATOM     91  C   UNL A   1      32.628  18.099  23.071  1.00  0.00     0.040 A 
ATOM     92  C   UNL A   1      33.742  17.431  23.569  1.00  0.00     0.123 A 
ATOM     93  F   UNL A   1      33.941  16.148  23.240  1.00  0.00    -0.207 F 
ENDBRANCH  84  87
ENDBRANCH  83  84
ENDBRANCH  77  80
ENDBRANCH  75  76
ENDBRANCH  74  75
ENDBRANCH   1  74
TORSDOF 15
ENDMDL
MODEL 3
REMARK VINA RESULT:     -11.7      1.819      2.560
REMARK SMILES O=C(NCCCNC(=O)C1CN(S(=O)(=O)c2ccc(F)cc2)C1)c1ccc(-c2c3nc(c(-c4c(F)cc(S(=O)(=O)[O-])cc4F)c4ccc([nH]4)c(-c4c(F)cc(S(=O)(=O)[O-])cc4F)c4nc(c(-c5c(F)cc(S(=O)(=O)[O-])cc5F)c5ccc2[nH]5)C=C4)C=C3)cc1
REMARK SMILES IDX 4 1 3 2 1 3 2 4 24 6 25 7 89 8 26 9 88 10 27 11 28 12 29 13
REMARK SMILES IDX 82 14 30 15 87 16 81 17 83 18 31 19 86 20 80 21 79 22 32 24
REMARK SMILES IDX 66 25 45 26 65 27 46 28 49 29 64 30 84 31 47 32 48 33 63 35
REMARK SMILES IDX 85 36 50 37 33 38 34 39 43 40 35 41 36 42 42 43 44 44 37 45
REMARK SMILES IDX 38 46 39 47 40 48 41 49 67 50 68 51 77 52 69 53 70 54 76 55
REMARK SMILES IDX 78 56 71 57 72 58 73 59 74 60 75 61 51 62 52 63 61 64 53 65
REMARK SMILES IDX 54 66 60 67 62 68 55 69 56 70 57 71 58 72 59 73 5 74 6 75
REMARK SMILES IDX 7 76 8 77 9 79 10 80 11 81 23 82 12 83 13 84 14 85 15 86
REMARK SMILES IDX 16 87 17 88 22 89 18 90 21 91 19 92 20 93
REMARK H PARENT 3 5 83 23 49 34 7 78
REMARK Flexibility Score: inf
ROOT
ATOM      1  C   UNL A   1      33.404  28.473  27.271  1.00  0.00     0.118 C 
ENDROOT
BRANCH   1   2
ATOM      2  N   UNL A   1      33.410  29.901  27.546  1.00  0.00    -0.352 N 
ATOM      3  O   UNL A   1      34.095  31.841  28.432  1.00  0.00    -0.269 OA
ATOM      4  C   UNL A   1      34.382  30.693  28.099  1.00  0.00     0.251 C 
ATOM      5  H   UNL A   1      32.584  30.375  27.293  1.00  0.00     0.163 HD
BRANCH   4   6
ATOM      6  C   UNL A   1      35.759  30.187  28.296  1.00  0.00     0.039 A 
ATOM      7  C   UNL A   1      36.711  30.260  27.275  1.00  0.00     0.014 A 
ATOM      8  C   UNL A   1      36.127  29.714  29.561  1.00  0.00     0.014 A 
ATOM      9  C   UNL A   1      38.003  29.789  27.493  1.00  0.00     0.010 A 
ATOM     10  C   UNL A   1      37.441  29.298  29.797  1.00  0.00     0.010 A 
ATOM     11  C   UNL A   1      38.388  29.331  28.763  1.00  0.00    -0.014 A 
BRANCH  11  12
ATOM     12  C   UNL A   1      39.811  29.008  29.027  1.00  0.00     0.031 A 
ATOM     13  C   UNL A   1      40.395  27.680  28.641  1.00  0.00     0.074 A 
ATOM     14  C   UNL A   1      40.574  29.937  29.640  1.00  0.00     0.049 A 
ATOM     15  N   UNL A   1      41.611  27.237  28.829  1.00  0.00    -0.248 NA
ATOM     16  C   UNL A   1      39.506  26.725  27.960  1.00  0.00     0.031 C 
ATOM     17  C   UNL A   1      40.100  31.253  30.081  1.00  0.00     0.029 A 
ATOM     18  N   UNL A   1      41.896  29.924  30.002  1.00  0.00    -0.354 N 
ATOM     19  C   UNL A   1      41.635  25.951  28.303  1.00  0.00     0.074 A 
ATOM     20  C   UNL A   1      40.305  25.677  27.799  1.00  0.00     0.031 C 
ATOM     21  C   UNL A   1      41.119  31.924  30.637  1.00  0.00     0.029 A 
ATOM     22  C   UNL A   1      42.302  31.072  30.640  1.00  0.00     0.049 A 
ATOM     23  H   UNL A   1      42.497  29.165  29.821  1.00  0.00     0.167 HD
ATOM     24  C   UNL A   1      42.676  25.089  28.241  1.00  0.00     0.037 A 
ATOM     25  C   UNL A   1      43.485  31.394  31.196  1.00  0.00     0.037 A 
ATOM     26  C   UNL A   1      44.001  25.387  28.722  1.00  0.00     0.049 A 
ATOM     27  C   UNL A   1      44.611  30.404  31.145  1.00  0.00     0.074 A 
ATOM     28  C   UNL A   1      45.140  24.606  28.629  1.00  0.00     0.029 A 
ATOM     29  N   UNL A   1      44.363  26.544  29.393  1.00  0.00    -0.354 N 
ATOM     30  N   UNL A   1      44.630  29.217  30.589  1.00  0.00    -0.248 NA
ATOM     31  C   UNL A   1      45.868  30.784  31.804  1.00  0.00     0.031 C 
ATOM     32  C   UNL A   1      46.182  25.272  29.282  1.00  0.00     0.029 A 
ATOM     33  C   UNL A   1      45.699  26.483  29.752  1.00  0.00     0.049 A 
ATOM     34  H   UNL A   1      43.760  27.299  29.585  1.00  0.00     0.167 HD
ATOM     35  C   UNL A   1      45.896  28.704  30.837  1.00  0.00     0.074 A 
ATOM     36  C   UNL A   1      46.625  29.719  31.570  1.00  0.00     0.031 C 
ATOM     37  C   UNL A   1      46.404  27.496  30.495  1.00  0.00     0.037 A 
BRANCH  24  38
ATOM     38  C   UNL A   1      42.456  23.737  27.628  1.00  0.00     0.058 A 
ATOM     39  C   UNL A   1      42.338  22.599  28.443  1.00  0.00     0.135 A 
ATOM     40  C   UNL A   1      42.506  23.549  26.239  1.00  0.00     0.135 A 
ATOM     41  F   UNL A   1      42.278  22.728  29.778  1.00  0.00    -0.206 F 
ATOM     42  C   UNL A   1      42.309  21.319  27.902  1.00  0.00     0.059 A 
ATOM     43  C   UNL A   1      42.464  22.277  25.676  1.00  0.00     0.059 A 
ATOM     44  F   UNL A   1      42.602  24.606  25.418  1.00  0.00    -0.206 F 
ATOM     45  C   UNL A   1      42.387  21.166  26.516  1.00  0.00     0.060 A 
BRANCH  45  46
ATOM     46  S   UNL A   1      42.380  19.495  25.831  1.00  0.00     0.124 S 
ATOM     47  O   UNL A   1      41.002  19.365  25.371  1.00  0.00    -0.237 OA
ATOM     48  O   UNL A   1      43.395  19.590  24.784  1.00  0.00    -0.237 OA
ATOM     49  O   UNL A   1      42.745  18.662  26.972  1.00  0.00    -0.744 OA
ENDBRANCH  45  46
ENDBRANCH  24  38
BRANCH  25  50
ATOM     50  C   UNL A   1      43.640  32.703  31.882  1.00  0.00     0.058 A 
ATOM     51  C   UNL A   1      44.158  33.816  31.201  1.00  0.00     0.135 A 
ATOM     52  C   UNL A   1      43.313  32.857  33.236  1.00  0.00     0.135 A 
ATOM     53  F   UNL A   1      44.496  33.715  29.906  1.00  0.00    -0.206 F 
ATOM     54  C   UNL A   1      44.374  35.028  31.845  1.00  0.00     0.059 A 
ATOM     55  C   UNL A   1      43.496  34.067  33.897  1.00  0.00     0.059 A 
ATOM     56  F   UNL A   1      42.803  31.824  33.923  1.00  0.00    -0.206 F 
ATOM     57  C   UNL A   1      44.045  35.142  33.196  1.00  0.00     0.060 A 
BRANCH  57  58
ATOM     58  S   UNL A   1      44.330  36.723  34.020  1.00  0.00     0.124 S 
ATOM     59  O   UNL A   1      44.354  36.319  35.423  1.00  0.00    -0.237 OA
ATOM     60  O   UNL A   1      45.611  37.139  33.458  1.00  0.00    -0.237 OA
ATOM     61  O   UNL A   1      43.182  37.525  33.614  1.00  0.00    -0.744 OA
ENDBRANCH  57  58
ENDBRANCH  25  50
BRANCH  37  62
ATOM     62  C   UNL A   1      47.808  27.186  30.922  1.00  0.00     0.058 A 
ATOM     63  C   UNL A   1      48.900  27.562  30.125  1.00  0.00     0.135 A 
ATOM     64  C   UNL A   1      48.060  26.427  32.074  1.00  0.00     0.135 A 
ATOM     65  F   UNL A   1      48.710  28.289  29.014  1.00  0.00    -0.206 F 
ATOM     66  C   UNL A   1      50.196  27.169  30.442  1.00  0.00     0.059 A 
ATOM     67  C   UNL A   1      49.350  26.039  32.421  1.00  0.00     0.059 A 
ATOM     68  F   UNL A   1      47.046  26.058  32.874  1.00  0.00    -0.206 F 
ATOM     69  C   UNL A   1      50.409  26.397  31.587  1.00  0.00     0.060 A 
BRANCH  69  70
ATOM     70  S   UNL A   1      52.093  25.875  31.971  1.00  0.00     0.124 S 
ATOM     71  O   UNL A   1      52.703  25.835  30.647  1.00  0.00    -0.237 OA
ATOM     72  O   UNL A   1      52.555  26.945  32.850  1.00  0.00    -0.237 OA
ATOM     73  O   UNL A   1      51.907  24.580  32.618  1.00  0.00    -0.744 OA
ENDBRANCH  69  70
ENDBRANCH  37  62
ENDBRANCH  11  12
ENDBRANCH   4   6
ENDBRANCH   1   2
BRANCH   1  74
ATOM     74  C   UNL A   1      32.075  27.817  27.635  1.00  0.00     0.042 C 
BRANCH  74  75
ATOM     75  C   UNL A   1      31.269  27.341  26.431  1.00  0.00     0.117 C 
BRANCH  75  76
ATOM     76  N   UNL A   1      30.486  26.151  26.720  1.00  0.00    -0.356 N 
ATOM     77  C   UNL A   1      30.728  24.864  26.301  1.00  0.00     0.225 C 
ATOM     78  H   UNL A   1      29.688  26.282  27.282  1.00  0.00     0.163 HD
ATOM     79  O   UNL A   1      29.938  23.982  26.652  1.00  0.00    -0.275 OA
BRANCH  77  80
ATOM     80  C   UNL A   1      31.958  24.620  25.424  1.00  0.00     0.109 C 
ATOM     81  C   UNL A   1      33.135  23.842  26.051  1.00  0.00     0.117 C 
ATOM     82  C   UNL A   1      31.935  23.452  24.415  1.00  0.00     0.117 C 
ATOM     83  N   UNL A   1      33.395  23.187  24.714  1.00  0.00    -0.196 NA
BRANCH  83  84
ATOM     84  S   UNL A   1      34.671  23.774  23.726  1.00  0.00     0.243 S 
ATOM     85  O   UNL A   1      34.568  23.129  22.436  1.00  0.00    -0.207 OA
ATOM     86  O   UNL A   1      34.670  25.219  23.847  1.00  0.00    -0.207 OA
BRANCH  84  87
ATOM     87  C   UNL A   1      36.131  23.155  24.525  1.00  0.00     0.082 A 
ATOM     88  C   UNL A   1      36.793  23.949  25.469  1.00  0.00     0.025 A 
ATOM     89  C   UNL A   1      36.554  21.844  24.274  1.00  0.00     0.025 A 
ATOM     90  C   UNL A   1      37.903  23.436  26.143  1.00  0.00     0.040 A 
ATOM     91  C   UNL A   1      37.654  21.333  24.963  1.00  0.00     0.040 A 
ATOM     92  C   UNL A   1      38.320  22.134  25.886  1.00  0.00     0.123 A 
ATOM     93  F   UNL A   1      39.374  21.639  26.548  1.00  0.00    -0.207 F 
ENDBRANCH  84  87
ENDBRANCH  83  84
ENDBRANCH  77  80
ENDBRANCH  75  76
ENDBRANCH  74  75
ENDBRANCH   1  74
TORSDOF 15
ENDMDL
