MODEL 1
REMARK VINA RESULT:     -11.6      0.000      0.000
REMARK SMILES CC[C@@H](O)C[NH+]1CC(n2cc(C(=O)NCCCNC(=O)c3ccc(-c4c5nc(c(-c6c(F)cc(S(=O)(=O)[O-])cc6F)c6ccc([nH]6)c(-c6c(F)cc(S(=O)(=O)[O-])cc6F)c6nc(c(-c7c(F)cc(S(=O)(=O)[O-])cc7F)c7ccc4[nH]7)C=C6)C=C5)cc3)nn2)C1
REMARK SMILES IDX 15 1 14 2 12 3 13 4 11 6 9 7 10 8 88 9 87 10 8 11 6 12 7 13
REMARK SMILES IDX 89 14 5 16 3 17 2 18 1 19 4 20 16 22 17 23 18 24 19 25 20 27
REMARK SMILES IDX 21 28 22 29 86 30 23 31 85 32 24 33 25 34 26 35 79 36 27 37
REMARK SMILES IDX 84 38 78 39 80 40 28 41 83 42 77 43 76 44 29 46 63 47 42 48
REMARK SMILES IDX 62 49 43 50 46 51 61 52 81 53 44 54 45 55 60 57 82 58 47 59
REMARK SMILES IDX 30 60 31 61 40 62 32 63 33 64 39 65 41 66 34 67 35 68 36 69
REMARK SMILES IDX 37 70 38 71 64 72 65 73 74 74 66 75 67 76 73 77 75 78 68 79
REMARK SMILES IDX 69 80 70 81 71 82 72 83 48 84 49 85 58 86 50 87 51 88 57 89
REMARK SMILES IDX 59 90 52 91 53 92 54 93 55 94 56 95
REMARK H PARENT 14 5 6 15 4 21 18 26 80 45 46 56
REMARK Flexibility Score: inf
ROOT
ATOM      1  C   UNL A   1      31.958  28.621  26.692  1.00  0.00     0.118 C 
ENDROOT
BRANCH   1   2
ATOM      2  N   UNL A   1      31.453  28.494  25.334  1.00  0.00    -0.351 N 
ATOM      3  C   UNL A   1      30.834  27.428  24.711  1.00  0.00     0.273 C 
ATOM      4  O   UNL A   1      30.270  27.639  23.645  1.00  0.00    -0.267 OA
ATOM      5  H   UNL A   1      31.572  29.292  24.771  1.00  0.00     0.163 HD
BRANCH   3   6
ATOM      6  C   UNL A   1      30.838  26.110  25.338  1.00  0.00     0.170 A 
ATOM      7  N   UNL A   1      31.305  24.133  26.093  1.00  0.00    -0.237 N 
ATOM      8  C   UNL A   1      31.757  25.088  25.230  1.00  0.00     0.145 A 
ATOM      9  N   UNL A   1      30.151  24.494  26.664  1.00  0.00    -0.066 NA
ATOM     10  N   UNL A   1      29.828  25.688  26.177  1.00  0.00    -0.125 NA
BRANCH   7  11
ATOM     11  C   UNL A   1      32.067  22.975  26.415  1.00  0.00     0.218 C 
ATOM     12  N   UNL A   1      32.564  21.048  25.791  1.00  0.00    -0.329 N 
ATOM     13  C   UNL A   1      33.030  22.412  25.351  1.00  0.00     0.296 C 
ATOM     14  C   UNL A   1      31.254  21.695  26.100  1.00  0.00     0.296 C 
ATOM     15  H   UNL A   1      33.068  20.481  26.474  1.00  0.00     0.348 HD
BRANCH  12  16
ATOM     16  C   UNL A   1      32.458  20.139  24.642  1.00  0.00     0.294 C 
BRANCH  16  17
ATOM     17  C   UNL A   1      32.801  18.668  24.989  1.00  0.00     0.169 C 
BRANCH  17  18
ATOM     18  C   UNL A   1      34.145  18.197  24.413  1.00  0.00     0.034 C 
ATOM     19  C   UNL A   1      34.022  17.006  23.471  1.00  0.00     0.007 C 
ENDBRANCH  17  18
BRANCH  17  20
ATOM     20  O   UNL A   1      32.833  18.552  26.417  1.00  0.00    -0.387 OA
ATOM     21  H   UNL A   1      32.753  19.434  26.814  1.00  0.00     0.211 HD
ENDBRANCH  17  20
ENDBRANCH  16  17
ENDBRANCH  12  16
ENDBRANCH   7  11
ENDBRANCH   3   6
ENDBRANCH   1   2
BRANCH   1  22
ATOM     22  C   UNL A   1      33.388  28.094  26.848  1.00  0.00     0.042 C 
BRANCH  22  23
ATOM     23  C   UNL A   1      34.432  29.110  26.410  1.00  0.00     0.118 C 
BRANCH  23  24
ATOM     24  N   UNL A   1      34.112  30.467  26.864  1.00  0.00    -0.352 N 
ATOM     25  C   UNL A   1      34.674  31.191  27.903  1.00  0.00     0.251 C 
ATOM     26  H   UNL A   1      33.402  30.927  26.361  1.00  0.00     0.163 HD
ATOM     27  O   UNL A   1      34.094  32.156  28.369  1.00  0.00    -0.269 OA
BRANCH  25  28
ATOM     28  C   UNL A   1      35.980  30.764  28.437  1.00  0.00     0.039 A 
ATOM     29  C   UNL A   1      36.324  29.410  28.525  1.00  0.00     0.014 A 
ATOM     30  C   UNL A   1      36.879  31.753  28.815  1.00  0.00     0.014 A 
ATOM     31  C   UNL A   1      37.619  29.068  28.914  1.00  0.00     0.010 A 
ATOM     32  C   UNL A   1      38.191  31.425  29.021  1.00  0.00     0.010 A 
ATOM     33  C   UNL A   1      38.553  30.086  29.142  1.00  0.00    -0.014 A 
BRANCH  33  34
ATOM     34  C   UNL A   1      39.960  29.787  29.403  1.00  0.00     0.031 A 
ATOM     35  C   UNL A   1      40.299  29.580  30.843  1.00  0.00     0.074 A 
ATOM     36  C   UNL A   1      40.785  29.411  28.399  1.00  0.00     0.049 A 
ATOM     37  N   UNL A   1      41.135  30.241  31.575  1.00  0.00    -0.248 NA
ATOM     38  C   UNL A   1      39.502  28.601  31.604  1.00  0.00     0.031 C 
ATOM     39  C   UNL A   1      40.447  29.223  26.981  1.00  0.00     0.029 A 
ATOM     40  N   UNL A   1      42.059  28.940  28.452  1.00  0.00    -0.354 N 
ATOM     41  C   UNL A   1      41.150  29.596  32.813  1.00  0.00     0.074 A 
ATOM     42  C   UNL A   1      39.978  28.765  32.839  1.00  0.00     0.031 C 
ATOM     43  C   UNL A   1      41.366  28.426  26.398  1.00  0.00     0.029 A 
ATOM     44  C   UNL A   1      42.440  28.192  27.343  1.00  0.00     0.049 A 
ATOM     45  H   UNL A   1      42.660  29.114  29.212  1.00  0.00     0.167 HD
ATOM     46  C   UNL A   1      42.264  29.589  33.600  1.00  0.00     0.037 A 
ATOM     47  C   UNL A   1      43.523  27.380  27.245  1.00  0.00     0.037 A 
ATOM     48  C   UNL A   1      43.189  30.618  33.188  1.00  0.00     0.049 A 
ATOM     49  C   UNL A   1      44.459  27.781  28.333  1.00  0.00     0.074 A 
ATOM     50  C   UNL A   1      43.096  31.986  33.003  1.00  0.00     0.029 A 
ATOM     51  N   UNL A   1      44.324  30.235  32.510  1.00  0.00    -0.354 N 
ATOM     52  N   UNL A   1      45.045  28.948  28.397  1.00  0.00    -0.248 NA
ATOM     53  C   UNL A   1      44.363  27.066  29.597  1.00  0.00     0.031 C 
ATOM     54  C   UNL A   1      43.846  32.245  31.818  1.00  0.00     0.029 A 
ATOM     55  C   UNL A   1      44.424  31.043  31.407  1.00  0.00     0.049 A 
ATOM     56  H   UNL A   1      44.945  29.515  32.769  1.00  0.00     0.167 HD
ATOM     57  C   UNL A   1      44.998  29.299  29.739  1.00  0.00     0.074 A 
ATOM     58  C   UNL A   1      44.637  28.066  30.439  1.00  0.00     0.031 C 
ATOM     59  C   UNL A   1      44.961  30.606  30.136  1.00  0.00     0.037 A 
BRANCH  46  60
ATOM     60  C   UNL A   1      42.696  28.424  34.474  1.00  0.00     0.058 A 
ATOM     61  C   UNL A   1      42.969  28.657  35.841  1.00  0.00     0.135 A 
ATOM     62  C   UNL A   1      43.132  27.172  33.983  1.00  0.00     0.135 A 
ATOM     63  F   UNL A   1      42.593  29.805  36.427  1.00  0.00    -0.206 F 
ATOM     64  C   UNL A   1      43.708  27.768  36.624  1.00  0.00     0.059 A 
ATOM     65  C   UNL A   1      43.820  26.247  34.762  1.00  0.00     0.059 A 
ATOM     66  F   UNL A   1      43.004  26.810  32.703  1.00  0.00    -0.206 F 
ATOM     67  C   UNL A   1      44.148  26.574  36.065  1.00  0.00     0.060 A 
BRANCH  67  68
ATOM     68  S   UNL A   1      45.207  25.479  37.026  1.00  0.00     0.124 S 
ATOM     69  O   UNL A   1      44.223  24.745  37.812  1.00  0.00    -0.237 OA
ATOM     70  O   UNL A   1      45.888  24.723  35.980  1.00  0.00    -0.237 OA
ATOM     71  O   UNL A   1      46.053  26.404  37.774  1.00  0.00    -0.744 OA
ENDBRANCH  67  68
ENDBRANCH  46  60
BRANCH  47  72
ATOM     72  C   UNL A   1      43.607  26.070  26.536  1.00  0.00     0.058 A 
ATOM     73  C   UNL A   1      44.523  25.865  25.489  1.00  0.00     0.135 A 
ATOM     74  C   UNL A   1      42.979  24.909  27.039  1.00  0.00     0.135 A 
ATOM     75  F   UNL A   1      45.185  26.906  24.961  1.00  0.00    -0.206 F 
ATOM     76  C   UNL A   1      44.831  24.587  25.002  1.00  0.00     0.059 A 
ATOM     77  C   UNL A   1      43.257  23.630  26.559  1.00  0.00     0.059 A 
ATOM     78  F   UNL A   1      42.137  24.970  28.081  1.00  0.00    -0.206 F 
ATOM     79  C   UNL A   1      44.205  23.472  25.558  1.00  0.00     0.060 A 
BRANCH  79  80
ATOM     80  S   UNL A   1      44.724  21.812  25.059  1.00  0.00     0.124 S 
ATOM     81  O   UNL A   1      44.598  21.879  23.607  1.00  0.00    -0.237 OA
ATOM     82  O   UNL A   1      46.085  21.745  25.578  1.00  0.00    -0.237 OA
ATOM     83  O   UNL A   1      43.761  20.941  25.729  1.00  0.00    -0.744 OA
ENDBRANCH  79  80
ENDBRANCH  47  72
BRANCH  59  84
ATOM     84  C   UNL A   1      45.273  31.690  29.135  1.00  0.00     0.058 A 
ATOM     85  C   UNL A   1      46.567  32.127  28.797  1.00  0.00     0.135 A 
ATOM     86  C   UNL A   1      44.214  32.182  28.356  1.00  0.00     0.135 A 
ATOM     87  F   UNL A   1      47.648  31.627  29.412  1.00  0.00    -0.206 F 
ATOM     88  C   UNL A   1      46.791  33.040  27.765  1.00  0.00     0.059 A 
ATOM     89  C   UNL A   1      44.418  33.067  27.300  1.00  0.00     0.059 A 
ATOM     90  F   UNL A   1      42.960  31.758  28.581  1.00  0.00    -0.206 F 
ATOM     91  C   UNL A   1      45.709  33.503  27.019  1.00  0.00     0.060 A 
BRANCH  91  92
ATOM     92  S   UNL A   1      46.004  34.631  25.640  1.00  0.00     0.124 S 
ATOM     93  O   UNL A   1      47.391  34.339  25.296  1.00  0.00    -0.237 OA
ATOM     94  O   UNL A   1      45.006  34.207  24.663  1.00  0.00    -0.237 OA
ATOM     95  O   UNL A   1      45.771  35.951  26.222  1.00  0.00    -0.744 OA
ENDBRANCH  91  92
ENDBRANCH  59  84
ENDBRANCH  33  34
ENDBRANCH  25  28
ENDBRANCH  23  24
ENDBRANCH  22  23
ENDBRANCH   1  22
TORSDOF 18
ENDMDL
MODEL 2
REMARK VINA RESULT:     -11.3      3.040      9.504
REMARK SMILES CC[C@@H](O)C[NH+]1CC(n2cc(C(=O)NCCCNC(=O)c3ccc(-c4c5nc(c(-c6c(F)cc(S(=O)(=O)[O-])cc6F)c6ccc([nH]6)c(-c6c(F)cc(S(=O)(=O)[O-])cc6F)c6nc(c(-c7c(F)cc(S(=O)(=O)[O-])cc7F)c7ccc4[nH]7)C=C6)C=C5)cc3)nn2)C1
REMARK SMILES IDX 15 1 14 2 12 3 13 4 11 6 9 7 10 8 88 9 87 10 8 11 6 12 7 13
REMARK SMILES IDX 89 14 5 16 3 17 2 18 1 19 4 20 16 22 17 23 18 24 19 25 20 27
REMARK SMILES IDX 21 28 22 29 86 30 23 31 85 32 24 33 25 34 26 35 79 36 27 37
REMARK SMILES IDX 84 38 78 39 80 40 28 41 83 42 77 43 76 44 29 46 63 47 42 48
REMARK SMILES IDX 62 49 43 50 46 51 61 52 81 53 44 54 45 55 60 57 82 58 47 59
REMARK SMILES IDX 30 60 31 61 40 62 32 63 33 64 39 65 41 66 34 67 35 68 36 69
REMARK SMILES IDX 37 70 38 71 64 72 65 73 74 74 66 75 67 76 73 77 75 78 68 79
REMARK SMILES IDX 69 80 70 81 71 82 72 83 48 84 49 85 58 86 50 87 51 88 57 89
REMARK SMILES IDX 59 90 52 91 53 92 54 93 55 94 56 95
REMARK H PARENT 14 5 6 15 4 21 18 26 80 45 46 56
REMARK Flexibility Score: inf
ROOT
ATOM      1  C   UNL A   1      34.958  22.804  24.726  1.00  0.00     0.118 C 
ENDROOT
BRANCH   1   2
ATOM      2  N   UNL A   1      34.776  22.579  26.151  1.00  0.00    -0.351 N 
ATOM      3  C   UNL A   1      33.690  22.844  26.963  1.00  0.00     0.273 C 
ATOM      4  O   UNL A   1      33.673  22.336  28.077  1.00  0.00    -0.267 OA
ATOM      5  H   UNL A   1      35.547  22.174  26.608  1.00  0.00     0.163 HD
BRANCH   3   6
ATOM      6  C   UNL A   1      32.597  23.678  26.474  1.00  0.00     0.170 A 
ATOM      7  N   UNL A   1      31.217  24.886  25.319  1.00  0.00    -0.237 N 
ATOM      8  C   UNL A   1      32.466  24.337  25.270  1.00  0.00     0.145 A 
ATOM      9  N   UNL A   1      30.621  24.646  26.492  1.00  0.00    -0.066 NA
ATOM     10  N   UNL A   1      31.474  23.943  27.230  1.00  0.00    -0.125 NA
BRANCH   7  11
ATOM     11  C   UNL A   1      30.614  25.511  24.191  1.00  0.00     0.218 C 
ATOM     12  N   UNL A   1      30.208  27.347  23.289  1.00  0.00    -0.329 N 
ATOM     13  C   UNL A   1      31.456  26.507  23.369  1.00  0.00     0.296 C 
ATOM     14  C   UNL A   1      29.856  26.788  24.629  1.00  0.00     0.296 C 
ATOM     15  H   UNL A   1      29.565  27.315  22.498  1.00  0.00     0.348 HD
BRANCH  12  16
ATOM     16  C   UNL A   1      30.537  28.776  23.372  1.00  0.00     0.294 C 
BRANCH  16  17
ATOM     17  C   UNL A   1      29.687  29.658  22.422  1.00  0.00     0.169 C 
BRANCH  17  18
ATOM     18  C   UNL A   1      29.094  30.901  23.101  1.00  0.00     0.034 C 
ATOM     19  C   UNL A   1      27.599  30.794  23.373  1.00  0.00     0.007 C 
ENDBRANCH  17  18
BRANCH  17  20
ATOM     20  O   UNL A   1      30.530  30.069  21.338  1.00  0.00    -0.387 OA
ATOM     21  H   UNL A   1      29.987  30.231  20.550  1.00  0.00     0.211 HD
ENDBRANCH  17  20
ENDBRANCH  16  17
ENDBRANCH  12  16
ENDBRANCH   7  11
ENDBRANCH   3   6
ENDBRANCH   1   2
BRANCH   1  22
ATOM     22  C   UNL A   1      36.427  22.996  24.336  1.00  0.00     0.042 C 
BRANCH  22  23
ATOM     23  C   UNL A   1      37.276  23.487  25.499  1.00  0.00     0.118 C 
BRANCH  23  24
ATOM     24  N   UNL A   1      38.138  22.434  26.042  1.00  0.00    -0.352 N 
ATOM     25  C   UNL A   1      39.379  22.551  26.647  1.00  0.00     0.251 C 
ATOM     26  H   UNL A   1      37.788  21.516  25.968  1.00  0.00     0.163 HD
ATOM     27  O   UNL A   1      40.114  21.585  26.746  1.00  0.00    -0.269 OA
BRANCH  25  28
ATOM     28  C   UNL A   1      39.793  23.871  27.158  1.00  0.00     0.039 A 
ATOM     29  C   UNL A   1      38.879  24.921  27.293  1.00  0.00     0.014 A 
ATOM     30  C   UNL A   1      41.119  24.029  27.542  1.00  0.00     0.014 A 
ATOM     31  C   UNL A   1      39.295  26.104  27.902  1.00  0.00     0.010 A 
ATOM     32  C   UNL A   1      41.476  25.113  28.295  1.00  0.00     0.010 A 
ATOM     33  C   UNL A   1      40.594  26.183  28.419  1.00  0.00    -0.014 A 
BRANCH  33  34
ATOM     34  C   UNL A   1      41.036  27.337  29.201  1.00  0.00     0.031 A 
ATOM     35  C   UNL A   1      42.090  28.168  28.547  1.00  0.00     0.074 A 
ATOM     36  C   UNL A   1      40.313  27.775  30.257  1.00  0.00     0.049 A 
ATOM     37  N   UNL A   1      43.281  28.438  28.972  1.00  0.00    -0.248 NA
ATOM     38  C   UNL A   1      41.836  28.648  27.176  1.00  0.00     0.031 C 
ATOM     39  C   UNL A   1      39.042  27.236  30.761  1.00  0.00     0.029 A 
ATOM     40  N   UNL A   1      40.459  28.903  31.000  1.00  0.00    -0.354 N 
ATOM     41  C   UNL A   1      43.827  29.324  28.041  1.00  0.00     0.074 A 
ATOM     42  C   UNL A   1      42.998  29.227  26.871  1.00  0.00     0.031 C 
ATOM     43  C   UNL A   1      38.412  28.177  31.496  1.00  0.00     0.029 A 
ATOM     44  C   UNL A   1      39.302  29.308  31.660  1.00  0.00     0.049 A 
ATOM     45  H   UNL A   1      41.311  29.393  31.066  1.00  0.00     0.167 HD
ATOM     46  C   UNL A   1      44.746  30.264  28.405  1.00  0.00     0.037 A 
ATOM     47  C   UNL A   1      39.075  30.519  32.230  1.00  0.00     0.037 A 
ATOM     48  C   UNL A   1      45.329  29.941  29.687  1.00  0.00     0.049 A 
ATOM     49  C   UNL A   1      40.407  31.155  32.432  1.00  0.00     0.074 A 
ATOM     50  C   UNL A   1      45.974  28.833  30.204  1.00  0.00     0.029 A 
ATOM     51  N   UNL A   1      44.938  30.680  30.780  1.00  0.00    -0.354 N 
ATOM     52  N   UNL A   1      41.324  30.685  33.236  1.00  0.00    -0.248 NA
ATOM     53  C   UNL A   1      40.897  32.033  31.380  1.00  0.00     0.031 C 
ATOM     54  C   UNL A   1      45.471  28.706  31.532  1.00  0.00     0.029 A 
ATOM     55  C   UNL A   1      44.626  29.790  31.774  1.00  0.00     0.049 A 
ATOM     56  H   UNL A   1      44.892  31.662  30.836  1.00  0.00     0.167 HD
ATOM     57  C   UNL A   1      42.520  30.847  32.549  1.00  0.00     0.074 A 
ATOM     58  C   UNL A   1      42.201  31.753  31.447  1.00  0.00     0.031 C 
ATOM     59  C   UNL A   1      43.581  30.010  32.751  1.00  0.00     0.037 A 
BRANCH  46  60
ATOM     60  C   UNL A   1      44.837  31.659  27.810  1.00  0.00     0.058 A 
ATOM     61  C   UNL A   1      46.026  32.047  27.152  1.00  0.00     0.135 A 
ATOM     62  C   UNL A   1      43.945  32.715  28.103  1.00  0.00     0.135 A 
ATOM     63  F   UNL A   1      46.948  31.132  26.810  1.00  0.00    -0.206 F 
ATOM     64  C   UNL A   1      46.349  33.383  26.906  1.00  0.00     0.059 A 
ATOM     65  C   UNL A   1      44.222  34.048  27.815  1.00  0.00     0.059 A 
ATOM     66  F   UNL A   1      42.800  32.535  28.770  1.00  0.00    -0.206 F 
ATOM     67  C   UNL A   1      45.446  34.377  27.263  1.00  0.00     0.060 A 
BRANCH  67  68
ATOM     68  S   UNL A   1      45.905  36.107  27.065  1.00  0.00     0.124 S 
ATOM     69  O   UNL A   1      46.617  36.072  25.793  1.00  0.00    -0.237 OA
ATOM     70  O   UNL A   1      44.603  36.766  27.054  1.00  0.00    -0.237 OA
ATOM     71  O   UNL A   1      46.725  36.372  28.243  1.00  0.00    -0.744 OA
ENDBRANCH  67  68
ENDBRANCH  46  60
BRANCH  47  72
ATOM     72  C   UNL A   1      37.794  31.283  32.242  1.00  0.00     0.058 A 
ATOM     73  C   UNL A   1      37.202  31.697  33.448  1.00  0.00     0.135 A 
ATOM     74  C   UNL A   1      37.256  31.855  31.067  1.00  0.00     0.135 A 
ATOM     75  F   UNL A   1      37.661  31.225  34.618  1.00  0.00    -0.206 F 
ATOM     76  C   UNL A   1      36.175  32.650  33.493  1.00  0.00     0.059 A 
ATOM     77  C   UNL A   1      36.223  32.791  31.085  1.00  0.00     0.059 A 
ATOM     78  F   UNL A   1      37.780  31.588  29.862  1.00  0.00    -0.206 F 
ATOM     79  C   UNL A   1      35.704  33.206  32.303  1.00  0.00     0.060 A 
BRANCH  79  80
ATOM     80  S   UNL A   1      34.505  34.559  32.361  1.00  0.00     0.124 S 
ATOM     81  O   UNL A   1      35.197  35.542  33.187  1.00  0.00    -0.237 OA
ATOM     82  O   UNL A   1      34.359  34.902  30.951  1.00  0.00    -0.237 OA
ATOM     83  O   UNL A   1      33.330  33.945  32.974  1.00  0.00    -0.744 OA
ENDBRANCH  79  80
ENDBRANCH  47  72
BRANCH  59  84
ATOM     84  C   UNL A   1      43.572  29.081  33.940  1.00  0.00     0.058 A 
ATOM     85  C   UNL A   1      43.901  29.453  35.256  1.00  0.00     0.135 A 
ATOM     86  C   UNL A   1      43.032  27.797  33.760  1.00  0.00     0.135 A 
ATOM     87  F   UNL A   1      44.317  30.695  35.539  1.00  0.00    -0.206 F 
ATOM     88  C   UNL A   1      43.742  28.577  36.332  1.00  0.00     0.059 A 
ATOM     89  C   UNL A   1      42.833  26.920  34.822  1.00  0.00     0.059 A 
ATOM     90  F   UNL A   1      42.635  27.399  32.540  1.00  0.00    -0.206 F 
ATOM     91  C   UNL A   1      43.204  27.312  36.105  1.00  0.00     0.060 A 
BRANCH  91  92
ATOM     92  S   UNL A   1      42.934  26.204  37.505  1.00  0.00     0.124 S 
ATOM     93  O   UNL A   1      41.499  26.340  37.733  1.00  0.00    -0.237 OA
ATOM     94  O   UNL A   1      43.373  24.915  36.980  1.00  0.00    -0.237 OA
ATOM     95  O   UNL A   1      43.787  26.762  38.552  1.00  0.00    -0.744 OA
ENDBRANCH  91  92
ENDBRANCH  59  84
ENDBRANCH  33  34
ENDBRANCH  25  28
ENDBRANCH  23  24
ENDBRANCH  22  23
ENDBRANCH   1  22
TORSDOF 18
ENDMDL
MODEL 3
REMARK VINA RESULT:     -11.3      3.307      8.198
REMARK SMILES CC[C@@H](O)C[NH+]1CC(n2cc(C(=O)NCCCNC(=O)c3ccc(-c4c5nc(c(-c6c(F)cc(S(=O)(=O)[O-])cc6F)c6ccc([nH]6)c(-c6c(F)cc(S(=O)(=O)[O-])cc6F)c6nc(c(-c7c(F)cc(S(=O)(=O)[O-])cc7F)c7ccc4[nH]7)C=C6)C=C5)cc3)nn2)C1
REMARK SMILES IDX 15 1 14 2 12 3 13 4 11 6 9 7 10 8 88 9 87 10 8 11 6 12 7 13
REMARK SMILES IDX 89 14 5 16 3 17 2 18 1 19 4 20 16 22 17 23 18 24 19 25 20 27
REMARK SMILES IDX 21 28 22 29 86 30 23 31 85 32 24 33 25 34 26 35 79 36 27 37
REMARK SMILES IDX 84 38 78 39 80 40 28 41 83 42 77 43 76 44 29 46 63 47 42 48
REMARK SMILES IDX 62 49 43 50 46 51 61 52 81 53 44 54 45 55 60 57 82 58 47 59
REMARK SMILES IDX 30 60 31 61 40 62 32 63 33 64 39 65 41 66 34 67 35 68 36 69
REMARK SMILES IDX 37 70 38 71 64 72 65 73 74 74 66 75 67 76 73 77 75 78 68 79
REMARK SMILES IDX 69 80 70 81 71 82 72 83 48 84 49 85 58 86 50 87 51 88 57 89
REMARK SMILES IDX 59 90 52 91 53 92 54 93 55 94 56 95
REMARK H PARENT 14 5 6 15 4 21 18 26 80 45 46 56
REMARK Flexibility Score: inf
ROOT
ATOM      1  C   UNL A   1      36.594  20.628  25.005  1.00  0.00     0.118 C 
ENDROOT
BRANCH   1   2
ATOM      2  N   UNL A   1      37.024  22.003  25.202  1.00  0.00    -0.351 N 
ATOM      3  C   UNL A   1      36.344  23.081  25.736  1.00  0.00     0.273 C 
ATOM      4  O   UNL A   1      36.994  24.075  26.034  1.00  0.00    -0.267 OA
ATOM      5  H   UNL A   1      37.944  22.196  24.910  1.00  0.00     0.163 HD
BRANCH   3   6
ATOM      6  C   UNL A   1      34.904  23.001  25.956  1.00  0.00     0.170 A 
ATOM      7  N   UNL A   1      32.741  23.075  25.829  1.00  0.00    -0.237 N 
ATOM      8  C   UNL A   1      33.870  23.533  25.214  1.00  0.00     0.145 A 
ATOM      9  N   UNL A   1      33.033  22.355  26.918  1.00  0.00    -0.066 NA
ATOM     10  N   UNL A   1      34.357  22.337  27.034  1.00  0.00    -0.125 NA
BRANCH   7  11
ATOM     11  C   UNL A   1      31.444  23.253  25.272  1.00  0.00     0.218 C 
ATOM     12  N   UNL A   1      30.191  24.606  24.298  1.00  0.00    -0.329 N 
ATOM     13  C   UNL A   1      31.334  23.750  23.816  1.00  0.00     0.296 C 
ATOM     14  C   UNL A   1      30.907  24.666  25.607  1.00  0.00     0.296 C 
ATOM     15  H   UNL A   1      29.213  24.323  24.222  1.00  0.00     0.348 HD
BRANCH  12  16
ATOM     16  C   UNL A   1      30.197  25.910  23.621  1.00  0.00     0.294 C 
BRANCH  16  17
ATOM     17  C   UNL A   1      28.959  26.781  23.955  1.00  0.00     0.169 C 
BRANCH  17  18
ATOM     18  C   UNL A   1      28.853  28.054  23.104  1.00  0.00     0.034 C 
ATOM     19  C   UNL A   1      27.456  28.661  23.084  1.00  0.00     0.007 C 
ENDBRANCH  17  18
BRANCH  17  20
ATOM     20  O   UNL A   1      27.791  25.977  23.748  1.00  0.00    -0.387 OA
ATOM     21  H   UNL A   1      27.015  26.552  23.652  1.00  0.00     0.211 HD
ENDBRANCH  17  20
ENDBRANCH  16  17
ENDBRANCH  12  16
ENDBRANCH   7  11
ENDBRANCH   3   6
ENDBRANCH   1   2
BRANCH   1  22
ATOM     22  C   UNL A   1      37.764  19.640  24.951  1.00  0.00     0.042 C 
BRANCH  22  23
ATOM     23  C   UNL A   1      38.993  20.156  25.685  1.00  0.00     0.118 C 
BRANCH  23  24
ATOM     24  N   UNL A   1      40.038  19.136  25.807  1.00  0.00    -0.352 N 
ATOM     25  C   UNL A   1      41.391  19.302  26.051  1.00  0.00     0.251 C 
ATOM     26  H   UNL A   1      39.737  18.204  25.703  1.00  0.00     0.163 HD
ATOM     27  O   UNL A   1      42.180  18.409  25.800  1.00  0.00    -0.269 OA
BRANCH  25  28
ATOM     28  C   UNL A   1      41.856  20.585  26.610  1.00  0.00     0.039 A 
ATOM     29  C   UNL A   1      42.515  21.531  25.816  1.00  0.00     0.014 A 
ATOM     30  C   UNL A   1      41.583  20.845  27.947  1.00  0.00     0.014 A 
ATOM     31  C   UNL A   1      42.815  22.778  26.363  1.00  0.00     0.010 A 
ATOM     32  C   UNL A   1      41.715  22.119  28.425  1.00  0.00     0.010 A 
ATOM     33  C   UNL A   1      42.393  23.070  27.666  1.00  0.00    -0.014 A 
BRANCH  33  34
ATOM     34  C   UNL A   1      42.543  24.408  28.235  1.00  0.00     0.031 A 
ATOM     35  C   UNL A   1      41.346  25.289  28.087  1.00  0.00     0.074 A 
ATOM     36  C   UNL A   1      43.549  24.685  29.097  1.00  0.00     0.049 A 
ATOM     37  N   UNL A   1      41.257  26.429  27.485  1.00  0.00    -0.248 NA
ATOM     38  C   UNL A   1      40.047  24.767  28.547  1.00  0.00     0.031 C 
ATOM     39  C   UNL A   1      44.578  23.764  29.601  1.00  0.00     0.029 A 
ATOM     40  N   UNL A   1      43.766  25.794  29.850  1.00  0.00    -0.354 N 
ATOM     41  C   UNL A   1      39.955  26.880  27.712  1.00  0.00     0.074 A 
ATOM     42  C   UNL A   1      39.213  25.732  28.157  1.00  0.00     0.031 C 
ATOM     43  C   UNL A   1      45.096  24.249  30.749  1.00  0.00     0.029 A 
ATOM     44  C   UNL A   1      44.568  25.580  30.967  1.00  0.00     0.049 A 
ATOM     45  H   UNL A   1      43.388  26.675  29.624  1.00  0.00     0.167 HD
ATOM     46  C   UNL A   1      39.663  28.211  27.780  1.00  0.00     0.037 A 
ATOM     47  C   UNL A   1      44.720  26.413  32.029  1.00  0.00     0.037 A 
ATOM     48  C   UNL A   1      40.726  29.000  27.204  1.00  0.00     0.049 A 
ATOM     49  C   UNL A   1      44.262  27.760  31.586  1.00  0.00     0.074 A 
ATOM     50  C   UNL A   1      41.369  29.009  25.979  1.00  0.00     0.029 A 
ATOM     51  N   UNL A   1      41.556  29.689  28.057  1.00  0.00    -0.354 N 
ATOM     52  N   UNL A   1      44.851  28.459  30.651  1.00  0.00    -0.248 NA
ATOM     53  C   UNL A   1      42.872  28.112  31.839  1.00  0.00     0.031 C 
ATOM     54  C   UNL A   1      42.744  29.221  26.293  1.00  0.00     0.029 A 
ATOM     55  C   UNL A   1      42.843  29.420  27.670  1.00  0.00     0.049 A 
ATOM     56  H   UNL A   1      41.277  30.267  28.805  1.00  0.00     0.167 HD
ATOM     57  C   UNL A   1      43.815  29.022  29.918  1.00  0.00     0.074 A 
ATOM     58  C   UNL A   1      42.623  28.836  30.745  1.00  0.00     0.031 C 
ATOM     59  C   UNL A   1      43.955  29.318  28.591  1.00  0.00     0.037 A 
BRANCH  46  60
ATOM     60  C   UNL A   1      38.622  28.819  28.704  1.00  0.00     0.058 A 
ATOM     61  C   UNL A   1      37.737  29.796  28.191  1.00  0.00     0.135 A 
ATOM     62  C   UNL A   1      38.638  28.711  30.113  1.00  0.00     0.135 A 
ATOM     63  F   UNL A   1      37.622  29.985  26.867  1.00  0.00    -0.206 F 
ATOM     64  C   UNL A   1      37.014  30.663  29.012  1.00  0.00     0.059 A 
ATOM     65  C   UNL A   1      37.883  29.528  30.949  1.00  0.00     0.059 A 
ATOM     66  F   UNL A   1      39.455  27.879  30.767  1.00  0.00    -0.206 F 
ATOM     67  C   UNL A   1      37.113  30.533  30.393  1.00  0.00     0.060 A 
BRANCH  67  68
ATOM     68  S   UNL A   1      36.286  31.725  31.459  1.00  0.00     0.124 S 
ATOM     69  O   UNL A   1      36.242  30.997  32.722  1.00  0.00    -0.237 OA
ATOM     70  O   UNL A   1      37.197  32.863  31.405  1.00  0.00    -0.237 OA
ATOM     71  O   UNL A   1      35.000  31.927  30.799  1.00  0.00    -0.744 OA
ENDBRANCH  67  68
ENDBRANCH  46  60
BRANCH  47  72
ATOM     72  C   UNL A   1      44.863  26.029  33.463  1.00  0.00     0.058 A 
ATOM     73  C   UNL A   1      45.925  26.514  34.246  1.00  0.00     0.135 A 
ATOM     74  C   UNL A   1      43.820  25.392  34.171  1.00  0.00     0.135 A 
ATOM     75  F   UNL A   1      46.951  27.154  33.664  1.00  0.00    -0.206 F 
ATOM     76  C   UNL A   1      45.933  26.415  35.643  1.00  0.00     0.059 A 
ATOM     77  C   UNL A   1      43.814  25.266  35.559  1.00  0.00     0.059 A 
ATOM     78  F   UNL A   1      42.722  24.947  33.540  1.00  0.00    -0.206 F 
ATOM     79  C   UNL A   1      44.861  25.805  36.293  1.00  0.00     0.060 A 
BRANCH  79  80
ATOM     80  S   UNL A   1      44.778  25.828  38.101  1.00  0.00     0.124 S 
ATOM     81  O   UNL A   1      44.891  24.411  38.427  1.00  0.00    -0.237 OA
ATOM     82  O   UNL A   1      45.926  26.657  38.452  1.00  0.00    -0.237 OA
ATOM     83  O   UNL A   1      43.474  26.428  38.372  1.00  0.00    -0.744 OA
ENDBRANCH  79  80
ENDBRANCH  47  72
BRANCH  59  84
ATOM     84  C   UNL A   1      45.332  29.315  27.976  1.00  0.00     0.058 A 
ATOM     85  C   UNL A   1      46.253  30.375  28.058  1.00  0.00     0.135 A 
ATOM     86  C   UNL A   1      45.801  28.109  27.431  1.00  0.00     0.135 A 
ATOM     87  F   UNL A   1      45.930  31.526  28.664  1.00  0.00    -0.206 F 
ATOM     88  C   UNL A   1      47.561  30.255  27.582  1.00  0.00     0.059 A 
ATOM     89  C   UNL A   1      47.110  27.956  26.981  1.00  0.00     0.059 A 
ATOM     90  F   UNL A   1      44.995  27.036  27.381  1.00  0.00    -0.206 F 
ATOM     91  C   UNL A   1      47.981  29.039  27.047  1.00  0.00     0.060 A 
BRANCH  91  92
ATOM     92  S   UNL A   1      49.691  28.861  26.494  1.00  0.00     0.124 S 
ATOM     93  O   UNL A   1      49.532  28.169  25.221  1.00  0.00    -0.237 OA
ATOM     94  O   UNL A   1      50.144  30.246  26.411  1.00  0.00    -0.237 OA
ATOM     95  O   UNL A   1      50.314  28.075  27.558  1.00  0.00    -0.744 OA
ENDBRANCH  91  92
ENDBRANCH  59  84
ENDBRANCH  33  34
ENDBRANCH  25  28
ENDBRANCH  23  24
ENDBRANCH  22  23
ENDBRANCH   1  22
TORSDOF 18
ENDMDL
