MODEL 1
REMARK VINA RESULT:     -12.8      0.000      0.000
REMARK SMILES Cc1nnc(SCC(=O)Nc2cccc(C(=O)NCCCNC(=O)c3ccc(-c4c5nc(c(-c6c(F)cc(S(=O)(=O)[O-])cc6F)c6ccc([nH]6)c(-c6c(F)cc(S(=O)(=O)[O-])cc6F)c6nc(c(-c7c(F)cc(S(=O)(=O)[O-])cc7F)c7ccc4[nH]7)C=C6)C=C5)cc3)c2)n1-c1ccccc1
REMARK SMILES IDX 19 1 18 2 16 3 17 4 15 6 11 7 12 8 91 9 13 10 14 11 10 12
REMARK SMILES IDX 8 13 9 14 7 16 6 17 5 18 1 19 2 20 3 21 92 22 4 23 93 24
REMARK SMILES IDX 94 25 98 26 95 27 97 28 96 29 20 30 21 31 22 32 23 33 24 35
REMARK SMILES IDX 25 36 26 37 90 38 27 39 89 40 28 41 29 42 30 43 83 44 31 45
REMARK SMILES IDX 88 46 82 47 84 48 32 49 87 50 81 51 80 52 33 54 67 55 46 56
REMARK SMILES IDX 66 57 47 58 50 59 65 60 85 61 48 62 49 63 64 65 86 66 51 67
REMARK SMILES IDX 34 68 35 69 44 70 36 71 37 72 43 73 45 74 38 75 39 76 40 77
REMARK SMILES IDX 41 78 42 79 68 80 69 81 78 82 70 83 71 84 77 85 79 86 72 87
REMARK SMILES IDX 73 88 74 89 75 90 76 91 52 92 53 93 62 94 54 95 55 96 61 97
REMARK SMILES IDX 63 98 56 99 57 100 58 101 59 102 60 103
REMARK H PARENT 18 5 10 15 22 34 84 53 50 64
REMARK Flexibility Score: inf
ROOT
ATOM      1  C   UNL A   1      32.176  29.937  27.212  1.00  0.00     0.118 C 
ENDROOT
BRANCH   1   2
ATOM      2  N   UNL A   1      32.997  29.280  26.217  1.00  0.00    -0.352 N 
ATOM      3  C   UNL A   1      32.792  28.259  25.335  1.00  0.00     0.251 C 
ATOM      4  O   UNL A   1      33.730  27.993  24.582  1.00  0.00    -0.269 OA
ATOM      5  H   UNL A   1      33.905  29.654  26.164  1.00  0.00     0.163 HD
BRANCH   3   6
ATOM      6  C   UNL A   1      31.535  27.460  25.212  1.00  0.00     0.041 A 
ATOM      7  C   UNL A   1      29.957  25.708  25.781  1.00  0.00     0.041 A 
ATOM      8  C   UNL A   1      29.173  26.032  24.672  1.00  0.00     0.026 A 
ATOM      9  C   UNL A   1      31.145  26.395  26.030  1.00  0.00     0.040 A 
ATOM     10  C   UNL A   1      29.528  27.101  23.863  1.00  0.00     0.003 A 
ATOM     11  C   UNL A   1      30.695  27.810  24.137  1.00  0.00     0.014 A 
BRANCH   7  12
ATOM     12  N   UNL A   1      29.522  24.638  26.561  1.00  0.00    -0.325 N 
ATOM     13  C   UNL A   1      30.138  23.490  26.952  1.00  0.00     0.234 C 
ATOM     14  O   UNL A   1      29.473  22.802  27.734  1.00  0.00    -0.274 OA
ATOM     15  H   UNL A   1      28.598  24.729  26.888  1.00  0.00     0.169 HD
BRANCH  13  16
ATOM     16  C   UNL A   1      31.604  23.215  26.716  1.00  0.00     0.178 C 
BRANCH  16  17
ATOM     17  S   UNL A   1      32.194  22.305  25.294  1.00  0.00    -0.076 SA
BRANCH  17  18
ATOM     18  C   UNL A   1      32.206  23.242  23.842  1.00  0.00     0.196 A 
ATOM     19  C   UNL A   1      33.296  26.020  21.755  1.00  0.00     0.090 C 
ATOM     20  C   UNL A   1      32.623  24.947  22.511  1.00  0.00     0.135 A 
ATOM     21  N   UNL A   1      31.347  24.647  22.406  1.00  0.00    -0.134 NA
ATOM     22  N   UNL A   1      33.209  24.082  23.413  1.00  0.00    -0.274 N 
ATOM     23  N   UNL A   1      31.100  23.607  23.250  1.00  0.00    -0.123 NA
BRANCH  22  24
ATOM     24  C   UNL A   1      34.518  24.080  23.889  1.00  0.00     0.049 A 
ATOM     25  C   UNL A   1      35.398  23.178  23.302  1.00  0.00     0.027 A 
ATOM     26  C   UNL A   1      34.765  24.654  25.132  1.00  0.00     0.027 A 
ATOM     27  C   UNL A   1      36.497  22.743  24.030  1.00  0.00     0.002 A 
ATOM     28  C   UNL A   1      35.892  24.245  25.835  1.00  0.00     0.002 A 
ATOM     29  C   UNL A   1      36.735  23.265  25.300  1.00  0.00     0.000 A 
ENDBRANCH  22  24
ENDBRANCH  17  18
ENDBRANCH  16  17
ENDBRANCH  13  16
ENDBRANCH   7  12
ENDBRANCH   3   6
ENDBRANCH   1   2
BRANCH   1  30
ATOM     30  C   UNL A   1      31.948  31.403  26.864  1.00  0.00     0.042 C 
BRANCH  30  31
ATOM     31  C   UNL A   1      33.080  32.300  27.355  1.00  0.00     0.118 C 
BRANCH  31  32
ATOM     32  N   UNL A   1      32.784  33.741  27.575  1.00  0.00    -0.352 N 
ATOM     33  C   UNL A   1      33.162  34.558  28.642  1.00  0.00     0.251 C 
ATOM     34  H   UNL A   1      32.250  34.177  26.872  1.00  0.00     0.163 HD
ATOM     35  O   UNL A   1      32.561  35.617  28.898  1.00  0.00    -0.269 OA
BRANCH  33  36
ATOM     36  C   UNL A   1      34.324  34.161  29.451  1.00  0.00     0.039 A 
ATOM     37  C   UNL A   1      34.334  33.300  30.561  1.00  0.00     0.014 A 
ATOM     38  C   UNL A   1      35.507  34.503  28.865  1.00  0.00     0.014 A 
ATOM     39  C   UNL A   1      35.565  32.735  30.942  1.00  0.00     0.010 A 
ATOM     40  C   UNL A   1      36.338  33.443  28.846  1.00  0.00     0.010 A 
ATOM     41  C   UNL A   1      36.617  32.852  30.041  1.00  0.00    -0.014 A 
BRANCH  41  42
ATOM     42  C   UNL A   1      37.956  32.292  30.057  1.00  0.00     0.031 A 
ATOM     43  C   UNL A   1      38.041  30.918  29.519  1.00  0.00     0.074 A 
ATOM     44  C   UNL A   1      39.045  33.101  30.171  1.00  0.00     0.049 A 
ATOM     45  N   UNL A   1      38.085  29.817  30.189  1.00  0.00    -0.248 NA
ATOM     46  C   UNL A   1      37.840  30.721  28.072  1.00  0.00     0.031 C 
ATOM     47  C   UNL A   1      39.113  34.576  30.286  1.00  0.00     0.029 A 
ATOM     48  N   UNL A   1      40.364  32.771  30.132  1.00  0.00    -0.354 N 
ATOM     49  C   UNL A   1      38.227  28.816  29.235  1.00  0.00     0.074 A 
ATOM     50  C   UNL A   1      37.779  29.389  27.994  1.00  0.00     0.031 C 
ATOM     51  C   UNL A   1      40.381  35.010  30.106  1.00  0.00     0.029 A 
ATOM     52  C   UNL A   1      41.246  33.851  30.073  1.00  0.00     0.049 A 
ATOM     53  H   UNL A   1      40.674  31.837  30.144  1.00  0.00     0.167 HD
ATOM     54  C   UNL A   1      39.007  27.724  29.478  1.00  0.00     0.037 A 
ATOM     55  C   UNL A   1      42.601  33.789  30.050  1.00  0.00     0.037 A 
ATOM     56  C   UNL A   1      39.421  27.707  30.864  1.00  0.00     0.049 A 
ATOM     57  C   UNL A   1      42.955  32.447  30.577  1.00  0.00     0.074 A 
ATOM     58  C   UNL A   1      38.779  27.597  32.080  1.00  0.00     0.029 A 
ATOM     59  N   UNL A   1      40.645  28.279  31.117  1.00  0.00    -0.354 N 
ATOM     60  N   UNL A   1      42.691  32.054  31.795  1.00  0.00    -0.248 NA
ATOM     61  C   UNL A   1      43.176  31.379  29.616  1.00  0.00     0.031 C 
ATOM     62  C   UNL A   1      39.491  28.466  32.962  1.00  0.00     0.029 A 
ATOM     63  C   UNL A   1      40.581  29.010  32.278  1.00  0.00     0.049 A 
ATOM     64  H   UNL A   1      41.446  28.180  30.554  1.00  0.00     0.167 HD
ATOM     65  C   UNL A   1      42.307  30.726  31.673  1.00  0.00     0.074 A 
ATOM     66  C   UNL A   1      42.745  30.337  30.332  1.00  0.00     0.031 C 
ATOM     67  C   UNL A   1      41.415  30.171  32.549  1.00  0.00     0.037 A 
BRANCH  54  68
ATOM     68  C   UNL A   1      39.748  26.925  28.428  1.00  0.00     0.058 A 
ATOM     69  C   UNL A   1      39.610  25.520  28.417  1.00  0.00     0.135 A 
ATOM     70  C   UNL A   1      40.777  27.436  27.604  1.00  0.00     0.135 A 
ATOM     71  F   UNL A   1      38.672  24.922  29.167  1.00  0.00    -0.206 F 
ATOM     72  C   UNL A   1      40.465  24.688  27.692  1.00  0.00     0.059 A 
ATOM     73  C   UNL A   1      41.604  26.628  26.832  1.00  0.00     0.059 A 
ATOM     74  F   UNL A   1      41.100  28.734  27.580  1.00  0.00    -0.206 F 
ATOM     75  C   UNL A   1      41.467  25.253  26.910  1.00  0.00     0.060 A 
BRANCH  75  76
ATOM     76  S   UNL A   1      42.626  24.182  26.042  1.00  0.00     0.124 S 
ATOM     77  O   UNL A   1      43.010  25.020  24.913  1.00  0.00    -0.237 OA
ATOM     78  O   UNL A   1      43.653  23.964  27.056  1.00  0.00    -0.237 OA
ATOM     79  O   UNL A   1      41.820  23.009  25.714  1.00  0.00    -0.744 OA
ENDBRANCH  75  76
ENDBRANCH  54  68
BRANCH  55  80
ATOM     80  C   UNL A   1      43.561  34.643  29.302  1.00  0.00     0.058 A 
ATOM     81  C   UNL A   1      44.820  34.970  29.836  1.00  0.00     0.135 A 
ATOM     82  C   UNL A   1      43.385  34.893  27.926  1.00  0.00     0.135 A 
ATOM     83  F   UNL A   1      45.076  34.751  31.135  1.00  0.00    -0.206 F 
ATOM     84  C   UNL A   1      45.864  35.460  29.043  1.00  0.00     0.059 A 
ATOM     85  C   UNL A   1      44.411  35.381  27.114  1.00  0.00     0.059 A 
ATOM     86  F   UNL A   1      42.233  34.575  27.315  1.00  0.00    -0.206 F 
ATOM     87  C   UNL A   1      45.658  35.638  27.675  1.00  0.00     0.060 A 
BRANCH  87  88
ATOM     88  S   UNL A   1      47.059  36.093  26.621  1.00  0.00     0.124 S 
ATOM     89  O   UNL A   1      48.178  36.016  27.554  1.00  0.00    -0.237 OA
ATOM     90  O   UNL A   1      47.018  35.059  25.591  1.00  0.00    -0.237 OA
ATOM     91  O   UNL A   1      46.719  37.437  26.163  1.00  0.00    -0.744 OA
ENDBRANCH  87  88
ENDBRANCH  55  80
BRANCH  67  92
ATOM     92  C   UNL A   1      41.152  30.910  33.844  1.00  0.00     0.058 A 
ATOM     93  C   UNL A   1      42.032  30.966  34.940  1.00  0.00     0.135 A 
ATOM     94  C   UNL A   1      40.002  31.708  33.919  1.00  0.00     0.135 A 
ATOM     95  F   UNL A   1      43.193  30.304  34.925  1.00  0.00    -0.206 F 
ATOM     96  C   UNL A   1      41.769  31.753  36.066  1.00  0.00     0.059 A 
ATOM     97  C   UNL A   1      39.732  32.521  35.018  1.00  0.00     0.059 A 
ATOM     98  F   UNL A   1      39.145  31.745  32.885  1.00  0.00    -0.206 F 
ATOM     99  C   UNL A   1      40.614  32.531  36.095  1.00  0.00     0.060 A 
BRANCH  99 100
ATOM    100  S   UNL A   1      40.301  33.602  37.516  1.00  0.00     0.124 S 
ATOM    101  O   UNL A   1      41.574  34.303  37.660  1.00  0.00    -0.237 OA
ATOM    102  O   UNL A   1      39.178  34.418  37.060  1.00  0.00    -0.237 OA
ATOM    103  O   UNL A   1      39.982  32.663  38.588  1.00  0.00    -0.744 OA
ENDBRANCH  99 100
ENDBRANCH  67  92
ENDBRANCH  41  42
ENDBRANCH  33  36
ENDBRANCH  31  32
ENDBRANCH  30  31
ENDBRANCH   1  30
TORSDOF 18
ENDMDL
MODEL 2
REMARK VINA RESULT:     -12.6      4.692     10.090
REMARK SMILES Cc1nnc(SCC(=O)Nc2cccc(C(=O)NCCCNC(=O)c3ccc(-c4c5nc(c(-c6c(F)cc(S(=O)(=O)[O-])cc6F)c6ccc([nH]6)c(-c6c(F)cc(S(=O)(=O)[O-])cc6F)c6nc(c(-c7c(F)cc(S(=O)(=O)[O-])cc7F)c7ccc4[nH]7)C=C6)C=C5)cc3)c2)n1-c1ccccc1
REMARK SMILES IDX 19 1 18 2 16 3 17 4 15 6 11 7 12 8 91 9 13 10 14 11 10 12
REMARK SMILES IDX 8 13 9 14 7 16 6 17 5 18 1 19 2 20 3 21 92 22 4 23 93 24
REMARK SMILES IDX 94 25 98 26 95 27 97 28 96 29 20 30 21 31 22 32 23 33 24 35
REMARK SMILES IDX 25 36 26 37 90 38 27 39 89 40 28 41 29 42 30 43 83 44 31 45
REMARK SMILES IDX 88 46 82 47 84 48 32 49 87 50 81 51 80 52 33 54 67 55 46 56
REMARK SMILES IDX 66 57 47 58 50 59 65 60 85 61 48 62 49 63 64 65 86 66 51 67
REMARK SMILES IDX 34 68 35 69 44 70 36 71 37 72 43 73 45 74 38 75 39 76 40 77
REMARK SMILES IDX 41 78 42 79 68 80 69 81 78 82 70 83 71 84 77 85 79 86 72 87
REMARK SMILES IDX 73 88 74 89 75 90 76 91 52 92 53 93 62 94 54 95 55 96 61 97
REMARK SMILES IDX 63 98 56 99 57 100 58 101 59 102 60 103
REMARK H PARENT 18 5 10 15 22 34 84 53 50 64
REMARK Flexibility Score: inf
ROOT
ATOM      1  C   UNL A   1      36.736  22.108  25.213  1.00  0.00     0.118 C 
ENDROOT
BRANCH   1   2
ATOM      2  N   UNL A   1      35.888  22.020  26.382  1.00  0.00    -0.352 N 
ATOM      3  C   UNL A   1      34.558  22.222  26.613  1.00  0.00     0.251 C 
ATOM      4  O   UNL A   1      34.163  21.998  27.759  1.00  0.00    -0.269 OA
ATOM      5  H   UNL A   1      36.380  21.755  27.192  1.00  0.00     0.163 HD
BRANCH   3   6
ATOM      6  C   UNL A   1      33.562  22.677  25.595  1.00  0.00     0.041 A 
ATOM      7  C   UNL A   1      32.806  23.781  23.572  1.00  0.00     0.041 A 
ATOM      8  C   UNL A   1      31.476  23.536  23.917  1.00  0.00     0.026 A 
ATOM      9  C   UNL A   1      33.839  23.384  24.421  1.00  0.00     0.040 A 
ATOM     10  C   UNL A   1      31.179  22.816  25.064  1.00  0.00     0.003 A 
ATOM     11  C   UNL A   1      32.216  22.386  25.890  1.00  0.00     0.014 A 
BRANCH   7  12
ATOM     12  N   UNL A   1      33.025  24.489  22.392  1.00  0.00    -0.325 N 
ATOM     13  C   UNL A   1      33.067  25.823  22.128  1.00  0.00     0.234 C 
ATOM     14  O   UNL A   1      33.387  26.098  20.966  1.00  0.00    -0.274 OA
ATOM     15  H   UNL A   1      33.176  23.919  21.604  1.00  0.00     0.169 HD
BRANCH  13  16
ATOM     16  C   UNL A   1      33.035  26.882  23.204  1.00  0.00     0.178 C 
BRANCH  16  17
ATOM     17  S   UNL A   1      31.906  28.268  23.156  1.00  0.00    -0.076 SA
BRANCH  17  18
ATOM     18  C   UNL A   1      30.246  27.792  23.066  1.00  0.00     0.196 A 
ATOM     19  C   UNL A   1      26.667  28.326  23.477  1.00  0.00     0.090 C 
ATOM     20  C   UNL A   1      28.072  27.879  23.407  1.00  0.00     0.135 A 
ATOM     21  N   UNL A   1      28.488  26.672  23.720  1.00  0.00    -0.134 NA
ATOM     22  N   UNL A   1      29.154  28.627  22.988  1.00  0.00    -0.274 N 
ATOM     23  N   UNL A   1      29.835  26.640  23.526  1.00  0.00    -0.123 NA
BRANCH  22  24
ATOM     24  C   UNL A   1      29.195  29.973  22.636  1.00  0.00     0.049 A 
ATOM     25  C   UNL A   1      29.237  30.894  23.677  1.00  0.00     0.027 A 
ATOM     26  C   UNL A   1      28.798  30.327  21.349  1.00  0.00     0.027 A 
ATOM     27  C   UNL A   1      28.755  32.177  23.457  1.00  0.00     0.002 A 
ATOM     28  C   UNL A   1      28.359  31.627  21.129  1.00  0.00     0.002 A 
ATOM     29  C   UNL A   1      28.303  32.538  22.189  1.00  0.00     0.000 A 
ENDBRANCH  22  24
ENDBRANCH  17  18
ENDBRANCH  16  17
ENDBRANCH  13  16
ENDBRANCH   7  12
ENDBRANCH   3   6
ENDBRANCH   1   2
BRANCH   1  30
ATOM     30  C   UNL A   1      37.582  20.850  25.046  1.00  0.00     0.042 C 
BRANCH  30  31
ATOM     31  C   UNL A   1      38.944  20.972  25.722  1.00  0.00     0.118 C 
BRANCH  31  32
ATOM     32  N   UNL A   1      39.728  19.728  25.944  1.00  0.00    -0.352 N 
ATOM     33  C   UNL A   1      41.111  19.572  26.041  1.00  0.00     0.251 C 
ATOM     34  H   UNL A   1      39.198  18.902  26.034  1.00  0.00     0.163 HD
ATOM     35  O   UNL A   1      41.659  18.470  25.857  1.00  0.00    -0.269 OA
BRANCH  33  36
ATOM     36  C   UNL A   1      41.924  20.742  26.407  1.00  0.00     0.039 A 
ATOM     37  C   UNL A   1      42.487  21.692  25.539  1.00  0.00     0.014 A 
ATOM     38  C   UNL A   1      41.883  21.006  27.744  1.00  0.00     0.014 A 
ATOM     39  C   UNL A   1      42.876  22.930  26.084  1.00  0.00     0.010 A 
ATOM     40  C   UNL A   1      41.603  22.308  27.951  1.00  0.00     0.010 A 
ATOM     41  C   UNL A   1      42.430  23.220  27.368  1.00  0.00    -0.014 A 
BRANCH  41  42
ATOM     42  C   UNL A   1      42.537  24.427  28.168  1.00  0.00     0.031 A 
ATOM     43  C   UNL A   1      41.367  25.324  28.064  1.00  0.00     0.074 A 
ATOM     44  C   UNL A   1      43.427  24.501  29.196  1.00  0.00     0.049 A 
ATOM     45  N   UNL A   1      41.256  26.383  27.337  1.00  0.00    -0.248 NA
ATOM     46  C   UNL A   1      40.096  24.886  28.667  1.00  0.00     0.031 C 
ATOM     47  C   UNL A   1      44.381  23.483  29.689  1.00  0.00     0.029 A 
ATOM     48  N   UNL A   1      43.618  25.508  30.090  1.00  0.00    -0.354 N 
ATOM     49  C   UNL A   1      40.003  26.903  27.640  1.00  0.00     0.074 A 
ATOM     50  C   UNL A   1      39.253  25.815  28.207  1.00  0.00     0.031 C 
ATOM     51  C   UNL A   1      44.888  23.846  30.889  1.00  0.00     0.029 A 
ATOM     52  C   UNL A   1      44.467  25.204  31.155  1.00  0.00     0.049 A 
ATOM     53  H   UNL A   1      43.187  26.387  29.993  1.00  0.00     0.167 HD
ATOM     54  C   UNL A   1      39.803  28.250  27.709  1.00  0.00     0.037 A 
ATOM     55  C   UNL A   1      44.835  26.038  32.160  1.00  0.00     0.037 A 
ATOM     56  C   UNL A   1      40.972  28.952  27.225  1.00  0.00     0.049 A 
ATOM     57  C   UNL A   1      44.574  27.412  31.663  1.00  0.00     0.074 A 
ATOM     58  C   UNL A   1      41.630  29.049  26.018  1.00  0.00     0.029 A 
ATOM     59  N   UNL A   1      41.873  29.327  28.194  1.00  0.00    -0.354 N 
ATOM     60  N   UNL A   1      45.189  27.942  30.639  1.00  0.00    -0.248 NA
ATOM     61  C   UNL A   1      43.301  28.026  32.007  1.00  0.00     0.031 C 
ATOM     62  C   UNL A   1      43.019  29.105  26.348  1.00  0.00     0.029 A 
ATOM     63  C   UNL A   1      43.151  29.120  27.739  1.00  0.00     0.049 A 
ATOM     64  H   UNL A   1      41.638  29.690  29.078  1.00  0.00     0.167 HD
ATOM     65  C   UNL A   1      44.215  28.664  29.964  1.00  0.00     0.074 A 
ATOM     66  C   UNL A   1      43.112  28.778  30.919  1.00  0.00     0.031 C 
ATOM     67  C   UNL A   1      44.282  28.834  28.608  1.00  0.00     0.037 A 
BRANCH  54  68
ATOM     68  C   UNL A   1      38.779  28.940  28.584  1.00  0.00     0.058 A 
ATOM     69  C   UNL A   1      37.903  29.878  27.997  1.00  0.00     0.135 A 
ATOM     70  C   UNL A   1      38.784  28.921  29.998  1.00  0.00     0.135 A 
ATOM     71  F   UNL A   1      37.820  29.992  26.663  1.00  0.00    -0.206 F 
ATOM     72  C   UNL A   1      37.137  30.767  28.755  1.00  0.00     0.059 A 
ATOM     73  C   UNL A   1      37.989  29.760  30.771  1.00  0.00     0.059 A 
ATOM     74  F   UNL A   1      39.629  28.162  30.703  1.00  0.00    -0.206 F 
ATOM     75  C   UNL A   1      37.197  30.706  30.144  1.00  0.00     0.060 A 
BRANCH  75  76
ATOM     76  S   UNL A   1      36.279  31.906  31.125  1.00  0.00     0.124 S 
ATOM     77  O   UNL A   1      35.037  32.014  30.368  1.00  0.00    -0.237 OA
ATOM     78  O   UNL A   1      36.186  31.231  32.416  1.00  0.00    -0.237 OA
ATOM     79  O   UNL A   1      37.138  33.086  31.103  1.00  0.00    -0.744 OA
ENDBRANCH  75  76
ENDBRANCH  54  68
BRANCH  55  80
ATOM     80  C   UNL A   1      45.057  25.726  33.597  1.00  0.00     0.058 A 
ATOM     81  C   UNL A   1      44.005  25.297  34.424  1.00  0.00     0.135 A 
ATOM     82  C   UNL A   1      46.360  25.546  34.103  1.00  0.00     0.135 A 
ATOM     83  F   UNL A   1      42.734  25.419  34.012  1.00  0.00    -0.206 F 
ATOM     84  C   UNL A   1      44.230  24.670  35.655  1.00  0.00     0.059 A 
ATOM     85  C   UNL A   1      46.610  24.923  35.329  1.00  0.00     0.059 A 
ATOM     86  F   UNL A   1      47.432  25.884  33.370  1.00  0.00    -0.206 F 
ATOM     87  C   UNL A   1      45.539  24.464  36.088  1.00  0.00     0.060 A 
BRANCH  87  88
ATOM     88  S   UNL A   1      45.833  23.490  37.587  1.00  0.00     0.124 S 
ATOM     89  O   UNL A   1      45.553  22.134  37.127  1.00  0.00    -0.237 OA
ATOM     90  O   UNL A   1      47.232  23.787  37.878  1.00  0.00    -0.237 OA
ATOM     91  O   UNL A   1      44.873  24.036  38.542  1.00  0.00    -0.744 OA
ENDBRANCH  87  88
ENDBRANCH  55  80
BRANCH  67  92
ATOM     92  C   UNL A   1      45.606  28.548  27.931  1.00  0.00     0.058 A 
ATOM     93  C   UNL A   1      45.984  27.312  27.375  1.00  0.00     0.135 A 
ATOM     94  C   UNL A   1      46.480  29.625  27.724  1.00  0.00     0.135 A 
ATOM     95  F   UNL A   1      45.178  26.249  27.451  1.00  0.00    -0.206 F 
ATOM     96  C   UNL A   1      47.182  27.147  26.674  1.00  0.00     0.059 A 
ATOM     97  C   UNL A   1      47.666  29.492  27.005  1.00  0.00     0.059 A 
ATOM     98  F   UNL A   1      46.156  30.846  28.179  1.00  0.00    -0.206 F 
ATOM     99  C   UNL A   1      48.018  28.246  26.492  1.00  0.00     0.060 A 
BRANCH  99 100
ATOM    100  S   UNL A   1      49.536  28.057  25.528  1.00  0.00     0.124 S 
ATOM    101  O   UNL A   1      50.302  29.234  25.925  1.00  0.00    -0.237 OA
ATOM    102  O   UNL A   1      50.055  26.775  25.999  1.00  0.00    -0.237 OA
ATOM    103  O   UNL A   1      49.064  28.057  24.146  1.00  0.00    -0.744 OA
ENDBRANCH  99 100
ENDBRANCH  67  92
ENDBRANCH  41  42
ENDBRANCH  33  36
ENDBRANCH  31  32
ENDBRANCH  30  31
ENDBRANCH   1  30
TORSDOF 18
ENDMDL
MODEL 3
REMARK VINA RESULT:     -12.5      4.244      9.611
REMARK SMILES Cc1nnc(SCC(=O)Nc2cccc(C(=O)NCCCNC(=O)c3ccc(-c4c5nc(c(-c6c(F)cc(S(=O)(=O)[O-])cc6F)c6ccc([nH]6)c(-c6c(F)cc(S(=O)(=O)[O-])cc6F)c6nc(c(-c7c(F)cc(S(=O)(=O)[O-])cc7F)c7ccc4[nH]7)C=C6)C=C5)cc3)c2)n1-c1ccccc1
REMARK SMILES IDX 19 1 18 2 16 3 17 4 15 6 11 7 12 8 91 9 13 10 14 11 10 12
REMARK SMILES IDX 8 13 9 14 7 16 6 17 5 18 1 19 2 20 3 21 92 22 4 23 93 24
REMARK SMILES IDX 94 25 98 26 95 27 97 28 96 29 20 30 21 31 22 32 23 33 24 35
REMARK SMILES IDX 25 36 26 37 90 38 27 39 89 40 28 41 29 42 30 43 83 44 31 45
REMARK SMILES IDX 88 46 82 47 84 48 32 49 87 50 81 51 80 52 33 54 67 55 46 56
REMARK SMILES IDX 66 57 47 58 50 59 65 60 85 61 48 62 49 63 64 65 86 66 51 67
REMARK SMILES IDX 34 68 35 69 44 70 36 71 37 72 43 73 45 74 38 75 39 76 40 77
REMARK SMILES IDX 41 78 42 79 68 80 69 81 78 82 70 83 71 84 77 85 79 86 72 87
REMARK SMILES IDX 73 88 74 89 75 90 76 91 52 92 53 93 62 94 54 95 55 96 61 97
REMARK SMILES IDX 63 98 56 99 57 100 58 101 59 102 60 103
REMARK H PARENT 18 5 10 15 22 34 84 53 50 64
REMARK Flexibility Score: inf
ROOT
ATOM      1  C   UNL A   1      36.397  21.126  25.214  1.00  0.00     0.118 C 
ENDROOT
BRANCH   1   2
ATOM      2  N   UNL A   1      35.610  19.921  25.058  1.00  0.00    -0.352 N 
ATOM      3  C   UNL A   1      34.304  19.667  24.755  1.00  0.00     0.251 C 
ATOM      4  O   UNL A   1      33.988  18.480  24.654  1.00  0.00    -0.269 OA
ATOM      5  H   UNL A   1      36.135  19.101  25.202  1.00  0.00     0.163 HD
BRANCH   3   6
ATOM      6  C   UNL A   1      33.250  20.704  24.530  1.00  0.00     0.041 A 
ATOM      7  C   UNL A   1      31.399  22.150  25.134  1.00  0.00     0.041 A 
ATOM      8  C   UNL A   1      31.263  22.557  23.806  1.00  0.00     0.026 A 
ATOM      9  C   UNL A   1      32.364  21.206  25.487  1.00  0.00     0.040 A 
ATOM     10  C   UNL A   1      32.147  22.090  22.845  1.00  0.00     0.003 A 
ATOM     11  C   UNL A   1      33.134  21.177  23.209  1.00  0.00     0.014 A 
BRANCH   7  12
ATOM     12  N   UNL A   1      30.489  22.682  26.046  1.00  0.00    -0.325 N 
ATOM     13  C   UNL A   1      30.342  23.935  26.556  1.00  0.00     0.234 C 
ATOM     14  O   UNL A   1      29.349  24.072  27.279  1.00  0.00    -0.274 OA
ATOM     15  H   UNL A   1      29.832  22.032  26.383  1.00  0.00     0.169 HD
BRANCH  13  16
ATOM     16  C   UNL A   1      31.122  25.129  26.059  1.00  0.00     0.178 C 
BRANCH  16  17
ATOM     17  S   UNL A   1      32.908  25.195  26.099  1.00  0.00    -0.076 SA
BRANCH  17  18
ATOM     18  C   UNL A   1      33.599  25.832  24.648  1.00  0.00     0.196 A 
ATOM     19  C   UNL A   1      33.947  28.325  22.015  1.00  0.00     0.090 C 
ATOM     20  C   UNL A   1      33.822  27.146  22.894  1.00  0.00     0.135 A 
ATOM     21  N   UNL A   1      33.907  25.899  22.486  1.00  0.00    -0.134 NA
ATOM     22  N   UNL A   1      33.624  27.153  24.260  1.00  0.00    -0.274 N 
ATOM     23  N   UNL A   1      33.745  25.099  23.576  1.00  0.00    -0.123 NA
BRANCH  22  24
ATOM     24  C   UNL A   1      33.401  28.242  25.098  1.00  0.00     0.049 A 
ATOM     25  C   UNL A   1      34.361  28.490  26.073  1.00  0.00     0.027 A 
ATOM     26  C   UNL A   1      32.108  28.750  25.185  1.00  0.00     0.027 A 
ATOM     27  C   UNL A   1      33.985  29.164  27.228  1.00  0.00     0.002 A 
ATOM     28  C   UNL A   1      31.754  29.462  26.325  1.00  0.00     0.002 A 
ATOM     29  C   UNL A   1      32.680  29.636  27.360  1.00  0.00     0.000 A 
ENDBRANCH  22  24
ENDBRANCH  17  18
ENDBRANCH  16  17
ENDBRANCH  13  16
ENDBRANCH   7  12
ENDBRANCH   3   6
ENDBRANCH   1   2
BRANCH   1  30
ATOM     30  C   UNL A   1      37.816  20.933  24.692  1.00  0.00     0.042 C 
BRANCH  30  31
ATOM     31  C   UNL A   1      38.852  20.938  25.813  1.00  0.00     0.118 C 
BRANCH  31  32
ATOM     32  N   UNL A   1      39.675  19.714  26.008  1.00  0.00    -0.352 N 
ATOM     33  C   UNL A   1      41.064  19.595  26.071  1.00  0.00     0.251 C 
ATOM     34  H   UNL A   1      39.170  18.874  26.106  1.00  0.00     0.163 HD
ATOM     35  O   UNL A   1      41.636  18.509  25.867  1.00  0.00    -0.269 OA
BRANCH  33  36
ATOM     36  C   UNL A   1      41.853  20.785  26.424  1.00  0.00     0.039 A 
ATOM     37  C   UNL A   1      42.372  21.752  25.548  1.00  0.00     0.014 A 
ATOM     38  C   UNL A   1      41.834  21.044  27.762  1.00  0.00     0.014 A 
ATOM     39  C   UNL A   1      42.741  22.998  26.089  1.00  0.00     0.010 A 
ATOM     40  C   UNL A   1      41.525  22.337  27.980  1.00  0.00     0.010 A 
ATOM     41  C   UNL A   1      42.315  23.272  27.383  1.00  0.00    -0.014 A 
BRANCH  41  42
ATOM     42  C   UNL A   1      42.407  24.479  28.185  1.00  0.00     0.031 A 
ATOM     43  C   UNL A   1      41.232  25.368  28.074  1.00  0.00     0.074 A 
ATOM     44  C   UNL A   1      43.289  24.559  29.219  1.00  0.00     0.049 A 
ATOM     45  N   UNL A   1      41.118  26.427  27.347  1.00  0.00    -0.248 NA
ATOM     46  C   UNL A   1      39.959  24.920  28.667  1.00  0.00     0.031 C 
ATOM     47  C   UNL A   1      44.248  23.547  29.718  1.00  0.00     0.029 A 
ATOM     48  N   UNL A   1      43.467  25.565  30.116  1.00  0.00    -0.354 N 
ATOM     49  C   UNL A   1      39.859  26.938  27.642  1.00  0.00     0.074 A 
ATOM     50  C   UNL A   1      39.113  25.843  28.202  1.00  0.00     0.031 C 
ATOM     51  C   UNL A   1      44.743  23.912  30.922  1.00  0.00     0.029 A 
ATOM     52  C   UNL A   1      44.310  25.267  31.187  1.00  0.00     0.049 A 
ATOM     53  H   UNL A   1      43.030  26.442  30.017  1.00  0.00     0.167 HD
ATOM     54  C   UNL A   1      39.649  28.283  27.710  1.00  0.00     0.037 A 
ATOM     55  C   UNL A   1      44.665  26.102  32.196  1.00  0.00     0.037 A 
ATOM     56  C   UNL A   1      40.816  28.994  27.236  1.00  0.00     0.049 A 
ATOM     57  C   UNL A   1      44.398  27.475  31.698  1.00  0.00     0.074 A 
ATOM     58  C   UNL A   1      41.483  29.097  26.033  1.00  0.00     0.029 A 
ATOM     59  N   UNL A   1      41.708  29.375  28.212  1.00  0.00    -0.354 N 
ATOM     60  N   UNL A   1      45.016  28.010  30.679  1.00  0.00    -0.248 NA
ATOM     61  C   UNL A   1      43.119  28.079  32.033  1.00  0.00     0.031 C 
ATOM     62  C   UNL A   1      42.869  29.163  26.374  1.00  0.00     0.029 A 
ATOM     63  C   UNL A   1      42.991  29.177  27.766  1.00  0.00     0.049 A 
ATOM     64  H   UNL A   1      41.464  29.734  29.095  1.00  0.00     0.167 HD
ATOM     65  C   UNL A   1      44.042  28.726  29.998  1.00  0.00     0.074 A 
ATOM     66  C   UNL A   1      42.931  28.831  30.944  1.00  0.00     0.031 C 
ATOM     67  C   UNL A   1      44.118  28.899  28.642  1.00  0.00     0.037 A 
BRANCH  54  68
ATOM     68  C   UNL A   1      38.614  28.965  28.579  1.00  0.00     0.058 A 
ATOM     69  C   UNL A   1      37.730  29.891  27.986  1.00  0.00     0.135 A 
ATOM     70  C   UNL A   1      38.614  28.951  29.993  1.00  0.00     0.135 A 
ATOM     71  F   UNL A   1      37.652  29.999  26.651  1.00  0.00    -0.206 F 
ATOM     72  C   UNL A   1      36.952  30.774  28.738  1.00  0.00     0.059 A 
ATOM     73  C   UNL A   1      37.806  29.783  30.761  1.00  0.00     0.059 A 
ATOM     74  F   UNL A   1      39.464  28.203  30.705  1.00  0.00    -0.206 F 
ATOM     75  C   UNL A   1      37.006  30.718  30.127  1.00  0.00     0.060 A 
BRANCH  75  76
ATOM     76  S   UNL A   1      36.071  31.911  31.100  1.00  0.00     0.124 S 
ATOM     77  O   UNL A   1      36.945  33.078  31.051  1.00  0.00    -0.237 OA
ATOM     78  O   UNL A   1      34.828  32.009  30.343  1.00  0.00    -0.237 OA
ATOM     79  O   UNL A   1      35.955  31.264  32.404  1.00  0.00    -0.744 OA
ENDBRANCH  75  76
ENDBRANCH  54  68
BRANCH  55  80
ATOM     80  C   UNL A   1      44.879  25.790  33.633  1.00  0.00     0.058 A 
ATOM     81  C   UNL A   1      45.921  26.387  34.364  1.00  0.00     0.135 A 
ATOM     82  C   UNL A   1      43.881  25.143  34.388  1.00  0.00     0.135 A 
ATOM     83  F   UNL A   1      46.905  27.036  33.724  1.00  0.00    -0.206 F 
ATOM     84  C   UNL A   1      45.942  26.396  35.764  1.00  0.00     0.059 A 
ATOM     85  C   UNL A   1      43.879  25.138  35.785  1.00  0.00     0.059 A 
ATOM     86  F   UNL A   1      42.823  24.580  33.783  1.00  0.00    -0.206 F 
ATOM     87  C   UNL A   1      44.901  25.790  36.467  1.00  0.00     0.060 A 
BRANCH  87  88
ATOM     88  S   UNL A   1      44.832  25.963  38.269  1.00  0.00     0.124 S 
ATOM     89  O   UNL A   1      45.024  24.586  38.713  1.00  0.00    -0.237 OA
ATOM     90  O   UNL A   1      45.940  26.876  38.534  1.00  0.00    -0.237 OA
ATOM     91  O   UNL A   1      43.503  26.517  38.508  1.00  0.00    -0.744 OA
ENDBRANCH  87  88
ENDBRANCH  55  80
BRANCH  67  92
ATOM     92  C   UNL A   1      45.448  28.623  27.975  1.00  0.00     0.058 A 
ATOM     93  C   UNL A   1      46.574  29.465  28.027  1.00  0.00     0.135 A 
ATOM     94  C   UNL A   1      45.624  27.375  27.359  1.00  0.00     0.135 A 
ATOM     95  F   UNL A   1      46.526  30.639  28.665  1.00  0.00    -0.206 F 
ATOM     96  C   UNL A   1      47.804  29.099  27.472  1.00  0.00     0.059 A 
ATOM     97  C   UNL A   1      46.847  26.977  26.823  1.00  0.00     0.059 A 
ATOM     98  F   UNL A   1      44.607  26.499  27.321  1.00  0.00    -0.206 F 
ATOM     99  C   UNL A   1      47.932  27.849  26.872  1.00  0.00     0.060 A 
BRANCH  99 100
ATOM    100  S   UNL A   1      49.536  27.341  26.213  1.00  0.00     0.124 S 
ATOM    101  O   UNL A   1      50.335  27.196  27.425  1.00  0.00    -0.237 OA
ATOM    102  O   UNL A   1      49.215  26.099  25.514  1.00  0.00    -0.237 OA
ATOM    103  O   UNL A   1      49.916  28.452  25.344  1.00  0.00    -0.744 OA
ENDBRANCH  99 100
ENDBRANCH  67  92
ENDBRANCH  41  42
ENDBRANCH  33  36
ENDBRANCH  31  32
ENDBRANCH  30  31
ENDBRANCH   1  30
TORSDOF 18
ENDMDL
