MODEL 1
REMARK VINA RESULT:     -13.8      0.000      0.000
REMARK SMILES Cc1cccc(O[C@H](C)C(=O)N2CCC[C@@H](C(=O)NCCCNC(=O)c3ccc(-c4c5nc(c(-c6c(F)cc(S(=O)(=O)[O-])cc6F)c6ccc([nH]6)c(-c6c(F)cc(S(=O)(=O)[O-])cc6F)c6nc(c(-c7c(F)cc(S(=O)(=O)[O-])cc7F)c7ccc4[nH]7)C=C6)C=C5)cc3)C2)c1
REMARK SMILES IDX 20 1 19 2 17 3 18 4 16 6 12 7 13 8 92 9 14 10 15 11 10 12
REMARK SMILES IDX 11 13 8 14 9 15 7 16 6 17 1 18 2 19 3 20 93 21 4 22 5 23
REMARK SMILES IDX 21 24 22 25 23 26 24 27 25 29 26 30 27 31 91 32 28 33 90 34
REMARK SMILES IDX 29 35 30 36 31 37 84 38 32 39 89 40 83 41 85 42 33 43 88 44
REMARK SMILES IDX 82 45 81 46 34 48 68 49 47 50 67 51 48 52 51 53 66 54 86 55
REMARK SMILES IDX 49 56 50 57 65 59 87 60 52 61 35 62 36 63 45 64 37 65 38 66
REMARK SMILES IDX 44 67 46 68 39 69 40 70 41 71 42 72 43 73 69 74 70 75 79 76
REMARK SMILES IDX 71 77 72 78 78 79 80 80 73 81 74 82 75 83 76 84 77 85 53 86
REMARK SMILES IDX 54 87 63 88 55 89 56 90 62 91 64 92 57 93 58 94 59 95 60 96
REMARK SMILES IDX 61 97
REMARK H PARENT 19 5 23 28 85 47 51 58
REMARK Flexibility Score: inf
ROOT
ATOM      1  C   UNL A   1      32.497  30.854  26.638  1.00  0.00     0.117 C 
ENDROOT
BRANCH   1   2
ATOM      2  N   UNL A   1      32.044  29.617  27.258  1.00  0.00    -0.356 N 
ATOM      3  C   UNL A   1      31.769  28.392  26.743  1.00  0.00     0.224 C 
ATOM      4  O   UNL A   1      31.370  27.528  27.532  1.00  0.00    -0.275 OA
ATOM      5  H   UNL A   1      31.911  29.681  28.232  1.00  0.00     0.163 HD
BRANCH   3   6
ATOM      6  C   UNL A   1      31.982  28.015  25.280  1.00  0.00     0.098 C 
ATOM      7  N   UNL A   1      32.379  26.304  23.547  1.00  0.00    -0.339 N 
ATOM      8  C   UNL A   1      31.497  27.001  22.606  1.00  0.00     0.119 C 
ATOM      9  C   UNL A   1      32.042  26.514  24.963  1.00  0.00     0.133 C 
ATOM     10  C   UNL A   1      31.415  28.498  22.888  1.00  0.00     0.022 C 
ATOM     11  C   UNL A   1      31.028  28.761  24.341  1.00  0.00     0.017 C 
BRANCH   7  12
ATOM     12  C   UNL A   1      33.386  25.517  23.012  1.00  0.00     0.263 C 
ATOM     13  O   UNL A   1      34.018  25.920  22.022  1.00  0.00    -0.271 OA
BRANCH  12  14
ATOM     14  C   UNL A   1      33.716  24.093  23.533  1.00  0.00     0.259 C 
ATOM     15  C   UNL A   1      32.588  23.073  23.647  1.00  0.00     0.064 C 
BRANCH  14  16
ATOM     16  O   UNL A   1      35.033  23.629  23.224  1.00  0.00    -0.481 OA
BRANCH  16  17
ATOM     17  C   UNL A   1      35.926  23.225  24.162  1.00  0.00     0.120 A 
ATOM     18  C   UNL A   1      37.982  20.037  24.687  1.00  0.00     0.044 C 
ATOM     19  C   UNL A   1      37.454  21.434  24.826  1.00  0.00    -0.047 A 
ATOM     20  C   UNL A   1      37.967  22.265  25.819  1.00  0.00     0.003 A 
ATOM     21  C   UNL A   1      36.424  21.921  24.009  1.00  0.00     0.049 A 
ATOM     22  C   UNL A   1      37.482  23.561  25.960  1.00  0.00     0.004 A 
ATOM     23  C   UNL A   1      36.479  24.046  25.128  1.00  0.00     0.046 A 
ENDBRANCH  16  17
ENDBRANCH  14  16
ENDBRANCH  12  14
ENDBRANCH   7  12
ENDBRANCH   3   6
ENDBRANCH   1   2
BRANCH   1  24
ATOM     24  C   UNL A   1      33.486  31.604  27.526  1.00  0.00     0.042 C 
BRANCH  24  25
ATOM     25  C   UNL A   1      34.645  30.759  28.058  1.00  0.00     0.118 C 
BRANCH  25  26
ATOM     26  N   UNL A   1      35.328  31.437  29.172  1.00  0.00    -0.352 N 
ATOM     27  C   UNL A   1      36.443  31.058  29.887  1.00  0.00     0.251 C 
ATOM     28  H   UNL A   1      34.927  32.291  29.449  1.00  0.00     0.163 HD
ATOM     29  O   UNL A   1      36.819  31.600  30.892  1.00  0.00    -0.269 OA
BRANCH  27  30
ATOM     30  C   UNL A   1      37.164  29.877  29.360  1.00  0.00     0.039 A 
ATOM     31  C   UNL A   1      37.385  28.818  30.238  1.00  0.00     0.014 A 
ATOM     32  C   UNL A   1      37.900  30.038  28.189  1.00  0.00     0.014 A 
ATOM     33  C   UNL A   1      38.503  28.020  30.044  1.00  0.00     0.010 A 
ATOM     34  C   UNL A   1      39.060  29.300  28.048  1.00  0.00     0.010 A 
ATOM     35  C   UNL A   1      39.392  28.340  29.013  1.00  0.00    -0.014 A 
BRANCH  35  36
ATOM     36  C   UNL A   1      40.756  27.824  29.000  1.00  0.00     0.031 A 
ATOM     37  C   UNL A   1      41.033  26.459  28.508  1.00  0.00     0.074 A 
ATOM     38  C   UNL A   1      41.764  28.595  29.467  1.00  0.00     0.049 A 
ATOM     39  N   UNL A   1      41.976  25.708  28.967  1.00  0.00    -0.248 NA
ATOM     40  C   UNL A   1      40.230  25.816  27.476  1.00  0.00     0.031 C 
ATOM     41  C   UNL A   1      43.194  28.312  29.399  1.00  0.00     0.029 A 
ATOM     42  N   UNL A   1      41.667  29.720  30.302  1.00  0.00    -0.354 N 
ATOM     43  C   UNL A   1      42.069  24.605  28.147  1.00  0.00     0.074 A 
ATOM     44  C   UNL A   1      40.926  24.693  27.266  1.00  0.00     0.031 C 
ATOM     45  C   UNL A   1      43.817  29.019  30.357  1.00  0.00     0.029 A 
ATOM     46  C   UNL A   1      42.794  29.685  31.147  1.00  0.00     0.049 A 
ATOM     47  H   UNL A   1      40.954  30.399  30.299  1.00  0.00     0.167 HD
ATOM     48  C   UNL A   1      43.171  23.804  28.206  1.00  0.00     0.037 A 
ATOM     49  C   UNL A   1      42.672  29.595  32.502  1.00  0.00     0.037 A 
ATOM     50  C   UNL A   1      44.116  24.281  29.212  1.00  0.00     0.049 A 
ATOM     51  C   UNL A   1      43.307  28.354  33.087  1.00  0.00     0.074 A 
ATOM     52  C   UNL A   1      45.223  25.109  29.119  1.00  0.00     0.029 A 
ATOM     53  N   UNL A   1      43.802  24.193  30.563  1.00  0.00    -0.354 N 
ATOM     54  N   UNL A   1      43.630  27.301  32.386  1.00  0.00    -0.248 NA
ATOM     55  C   UNL A   1      43.612  28.191  34.506  1.00  0.00     0.031 C 
ATOM     56  C   UNL A   1      45.537  25.573  30.417  1.00  0.00     0.029 A 
ATOM     57  C   UNL A   1      44.637  25.010  31.304  1.00  0.00     0.049 A 
ATOM     58  H   UNL A   1      43.087  23.630  30.940  1.00  0.00     0.167 HD
ATOM     59  C   UNL A   1      44.136  26.332  33.216  1.00  0.00     0.074 A 
ATOM     60  C   UNL A   1      44.129  26.949  34.529  1.00  0.00     0.031 C 
ATOM     61  C   UNL A   1      44.512  25.103  32.751  1.00  0.00     0.037 A 
BRANCH  48  62
ATOM     62  C   UNL A   1      43.514  22.805  27.123  1.00  0.00     0.058 A 
ATOM     63  C   UNL A   1      42.774  21.612  26.975  1.00  0.00     0.135 A 
ATOM     64  C   UNL A   1      44.603  22.940  26.240  1.00  0.00     0.135 A 
ATOM     65  F   UNL A   1      41.655  21.387  27.676  1.00  0.00    -0.206 F 
ATOM     66  C   UNL A   1      43.160  20.582  26.117  1.00  0.00     0.059 A 
ATOM     67  C   UNL A   1      45.040  21.902  25.410  1.00  0.00     0.059 A 
ATOM     68  F   UNL A   1      45.270  24.100  26.142  1.00  0.00    -0.206 F 
ATOM     69  C   UNL A   1      44.319  20.716  25.368  1.00  0.00     0.060 A 
BRANCH  69  70
ATOM     70  S   UNL A   1      44.867  19.320  24.366  1.00  0.00     0.124 S 
ATOM     71  O   UNL A   1      46.315  19.356  24.552  1.00  0.00    -0.237 OA
ATOM     72  O   UNL A   1      44.173  18.203  24.998  1.00  0.00    -0.237 OA
ATOM     73  O   UNL A   1      44.409  19.666  23.024  1.00  0.00    -0.744 OA
ENDBRANCH  69  70
ENDBRANCH  48  62
BRANCH  49  74
ATOM     74  C   UNL A   1      41.497  30.314  33.062  1.00  0.00     0.058 A 
ATOM     75  C   UNL A   1      40.305  29.590  33.264  1.00  0.00     0.135 A 
ATOM     76  C   UNL A   1      41.609  31.554  33.700  1.00  0.00     0.135 A 
ATOM     77  F   UNL A   1      40.140  28.391  32.681  1.00  0.00    -0.206 F 
ATOM     78  C   UNL A   1      39.314  30.024  34.142  1.00  0.00     0.059 A 
ATOM     79  C   UNL A   1      40.629  32.008  34.590  1.00  0.00     0.059 A 
ATOM     80  F   UNL A   1      42.720  32.289  33.555  1.00  0.00    -0.206 F 
ATOM     81  C   UNL A   1      39.505  31.215  34.836  1.00  0.00     0.060 A 
BRANCH  81  82
ATOM     82  S   UNL A   1      38.364  31.616  36.187  1.00  0.00     0.124 S 
ATOM     83  O   UNL A   1      38.090  30.299  36.745  1.00  0.00    -0.237 OA
ATOM     84  O   UNL A   1      39.167  32.502  37.031  1.00  0.00    -0.237 OA
ATOM     85  O   UNL A   1      37.257  32.264  35.495  1.00  0.00    -0.744 OA
ENDBRANCH  81  82
ENDBRANCH  49  74
BRANCH  61  86
ATOM     86  C   UNL A   1      44.898  23.905  33.589  1.00  0.00     0.058 A 
ATOM     87  C   UNL A   1      44.023  22.858  33.920  1.00  0.00     0.135 A 
ATOM     88  C   UNL A   1      46.249  23.711  33.972  1.00  0.00     0.135 A 
ATOM     89  F   UNL A   1      42.742  22.868  33.524  1.00  0.00    -0.206 F 
ATOM     90  C   UNL A   1      44.439  21.729  34.631  1.00  0.00     0.059 A 
ATOM     91  C   UNL A   1      46.697  22.568  34.630  1.00  0.00     0.059 A 
ATOM     92  F   UNL A   1      47.193  24.626  33.704  1.00  0.00    -0.206 F 
ATOM     93  C   UNL A   1      45.779  21.591  34.979  1.00  0.00     0.060 A 
BRANCH  93  94
ATOM     94  S   UNL A   1      46.345  20.105  35.827  1.00  0.00     0.124 S 
ATOM     95  O   UNL A   1      45.740  19.056  35.011  1.00  0.00    -0.237 OA
ATOM     96  O   UNL A   1      47.798  20.211  35.740  1.00  0.00    -0.237 OA
ATOM     97  O   UNL A   1      45.793  20.260  37.170  1.00  0.00    -0.744 OA
ENDBRANCH  93  94
ENDBRANCH  61  86
ENDBRANCH  35  36
ENDBRANCH  27  30
ENDBRANCH  25  26
ENDBRANCH  24  25
ENDBRANCH   1  24
TORSDOF 17
ENDMDL
MODEL 2
REMARK VINA RESULT:     -13.8      4.929     11.591
REMARK SMILES Cc1cccc(O[C@H](C)C(=O)N2CCC[C@@H](C(=O)NCCCNC(=O)c3ccc(-c4c5nc(c(-c6c(F)cc(S(=O)(=O)[O-])cc6F)c6ccc([nH]6)c(-c6c(F)cc(S(=O)(=O)[O-])cc6F)c6nc(c(-c7c(F)cc(S(=O)(=O)[O-])cc7F)c7ccc4[nH]7)C=C6)C=C5)cc3)C2)c1
REMARK SMILES IDX 20 1 19 2 17 3 18 4 16 6 12 7 13 8 92 9 14 10 15 11 10 12
REMARK SMILES IDX 11 13 8 14 9 15 7 16 6 17 1 18 2 19 3 20 93 21 4 22 5 23
REMARK SMILES IDX 21 24 22 25 23 26 24 27 25 29 26 30 27 31 91 32 28 33 90 34
REMARK SMILES IDX 29 35 30 36 31 37 84 38 32 39 89 40 83 41 85 42 33 43 88 44
REMARK SMILES IDX 82 45 81 46 34 48 68 49 47 50 67 51 48 52 51 53 66 54 86 55
REMARK SMILES IDX 49 56 50 57 65 59 87 60 52 61 35 62 36 63 45 64 37 65 38 66
REMARK SMILES IDX 44 67 46 68 39 69 40 70 41 71 42 72 43 73 69 74 70 75 79 76
REMARK SMILES IDX 71 77 72 78 78 79 80 80 73 81 74 82 75 83 76 84 77 85 53 86
REMARK SMILES IDX 54 87 63 88 55 89 56 90 62 91 64 92 57 93 58 94 59 95 60 96
REMARK SMILES IDX 61 97
REMARK H PARENT 19 5 23 28 85 47 51 58
REMARK Flexibility Score: inf
ROOT
ATOM      1  C   UNL A   1      36.877  21.682  25.321  1.00  0.00     0.117 C 
ENDROOT
BRANCH   1   2
ATOM      2  N   UNL A   1      35.954  22.126  26.355  1.00  0.00    -0.356 N 
ATOM      3  C   UNL A   1      34.750  22.750  26.289  1.00  0.00     0.224 C 
ATOM      4  O   UNL A   1      34.203  23.028  27.362  1.00  0.00    -0.275 OA
ATOM      5  H   UNL A   1      36.259  21.941  27.272  1.00  0.00     0.163 HD
BRANCH   3   6
ATOM      6  C   UNL A   1      34.022  23.063  24.985  1.00  0.00     0.098 C 
ATOM      7  N   UNL A   1      33.813  24.391  22.916  1.00  0.00    -0.339 N 
ATOM      8  C   UNL A   1      33.394  23.210  22.157  1.00  0.00     0.119 C 
ATOM      9  C   UNL A   1      34.684  24.097  24.064  1.00  0.00     0.133 C 
ATOM     10  C   UNL A   1      32.727  22.160  23.039  1.00  0.00     0.022 C 
ATOM     11  C   UNL A   1      33.618  21.795  24.225  1.00  0.00     0.017 C 
BRANCH   7  12
ATOM     12  C   UNL A   1      33.381  25.627  22.462  1.00  0.00     0.263 C 
ATOM     13  O   UNL A   1      33.584  25.950  21.280  1.00  0.00    -0.271 OA
BRANCH  12  14
ATOM     14  C   UNL A   1      32.726  26.689  23.386  1.00  0.00     0.259 C 
ATOM     15  C   UNL A   1      31.607  26.253  24.326  1.00  0.00     0.064 C 
BRANCH  14  16
ATOM     16  O   UNL A   1      33.594  27.748  23.795  1.00  0.00    -0.481 OA
BRANCH  16  17
ATOM     17  C   UNL A   1      33.464  28.414  24.970  1.00  0.00     0.120 A 
ATOM     18  C   UNL A   1      31.335  31.377  26.134  1.00  0.00     0.044 C 
ATOM     19  C   UNL A   1      32.257  30.194  26.136  1.00  0.00    -0.047 A 
ATOM     20  C   UNL A   1      32.838  29.780  27.332  1.00  0.00     0.003 A 
ATOM     21  C   UNL A   1      32.585  29.509  24.957  1.00  0.00     0.049 A 
ATOM     22  C   UNL A   1      33.698  28.686  27.345  1.00  0.00     0.004 A 
ATOM     23  C   UNL A   1      33.999  27.996  26.176  1.00  0.00     0.046 A 
ENDBRANCH  16  17
ENDBRANCH  14  16
ENDBRANCH  12  14
ENDBRANCH   7  12
ENDBRANCH   3   6
ENDBRANCH   1   2
BRANCH   1  24
ATOM     24  C   UNL A   1      38.332  21.842  25.754  1.00  0.00     0.042 C 
BRANCH  24  25
ATOM     25  C   UNL A   1      38.785  23.287  25.974  1.00  0.00     0.118 C 
BRANCH  25  26
ATOM     26  N   UNL A   1      40.197  23.343  26.387  1.00  0.00    -0.352 N 
ATOM     27  C   UNL A   1      40.938  24.404  26.859  1.00  0.00     0.251 C 
ATOM     28  H   UNL A   1      40.686  22.492  26.315  1.00  0.00     0.163 HD
ATOM     29  O   UNL A   1      42.132  24.383  27.005  1.00  0.00    -0.269 OA
BRANCH  27  30
ATOM     30  C   UNL A   1      40.170  25.635  27.150  1.00  0.00     0.039 A 
ATOM     31  C   UNL A   1      40.593  26.813  26.537  1.00  0.00     0.014 A 
ATOM     32  C   UNL A   1      39.351  25.636  28.276  1.00  0.00     0.014 A 
ATOM     33  C   UNL A   1      40.359  28.016  27.185  1.00  0.00     0.010 A 
ATOM     34  C   UNL A   1      39.199  26.824  28.964  1.00  0.00     0.010 A 
ATOM     35  C   UNL A   1      39.763  27.999  28.449  1.00  0.00    -0.014 A 
BRANCH  35  36
ATOM     36  C   UNL A   1      39.855  29.145  29.348  1.00  0.00     0.031 A 
ATOM     37  C   UNL A   1      38.782  30.158  29.380  1.00  0.00     0.074 A 
ATOM     38  C   UNL A   1      40.947  29.286  30.134  1.00  0.00     0.049 A 
ATOM     39  N   UNL A   1      38.982  31.409  29.622  1.00  0.00    -0.248 NA
ATOM     40  C   UNL A   1      37.388  29.838  29.099  1.00  0.00     0.031 C 
ATOM     41  C   UNL A   1      41.151  30.273  31.189  1.00  0.00     0.029 A 
ATOM     42  N   UNL A   1      42.201  28.673  29.979  1.00  0.00    -0.354 N 
ATOM     43  C   UNL A   1      37.751  32.008  29.773  1.00  0.00     0.074 A 
ATOM     44  C   UNL A   1      36.791  31.000  29.385  1.00  0.00     0.031 C 
ATOM     45  C   UNL A   1      42.470  30.419  31.392  1.00  0.00     0.029 A 
ATOM     46  C   UNL A   1      43.159  29.621  30.391  1.00  0.00     0.049 A 
ATOM     47  H   UNL A   1      42.377  27.762  29.649  1.00  0.00     0.167 HD
ATOM     48  C   UNL A   1      37.662  33.248  30.336  1.00  0.00     0.037 A 
ATOM     49  C   UNL A   1      44.115  30.090  29.539  1.00  0.00     0.037 A 
ATOM     50  C   UNL A   1      38.982  33.763  30.686  1.00  0.00     0.049 A 
ATOM     51  C   UNL A   1      44.044  31.584  29.312  1.00  0.00     0.074 A 
ATOM     52  C   UNL A   1      39.704  33.724  31.869  1.00  0.00     0.029 A 
ATOM     53  N   UNL A   1      39.880  34.123  29.689  1.00  0.00    -0.354 N 
ATOM     54  N   UNL A   1      43.000  32.315  29.594  1.00  0.00    -0.248 NA
ATOM     55  C   UNL A   1      45.132  32.369  28.734  1.00  0.00     0.031 C 
ATOM     56  C   UNL A   1      41.058  33.998  31.568  1.00  0.00     0.029 A 
ATOM     57  C   UNL A   1      41.158  34.230  30.208  1.00  0.00     0.049 A 
ATOM     58  H   UNL A   1      39.641  34.280  28.746  1.00  0.00     0.167 HD
ATOM     59  C   UNL A   1      43.235  33.616  29.225  1.00  0.00     0.074 A 
ATOM     60  C   UNL A   1      44.594  33.602  28.717  1.00  0.00     0.031 C 
ATOM     61  C   UNL A   1      42.287  34.591  29.365  1.00  0.00     0.037 A 
BRANCH  48  62
ATOM     62  C   UNL A   1      36.361  33.817  30.856  1.00  0.00     0.058 A 
ATOM     63  C   UNL A   1      35.350  34.247  29.969  1.00  0.00     0.135 A 
ATOM     64  C   UNL A   1      36.078  34.022  32.221  1.00  0.00     0.135 A 
ATOM     65  F   UNL A   1      35.432  34.030  28.651  1.00  0.00    -0.206 F 
ATOM     66  C   UNL A   1      34.216  34.941  30.391  1.00  0.00     0.059 A 
ATOM     67  C   UNL A   1      34.976  34.761  32.665  1.00  0.00     0.059 A 
ATOM     68  F   UNL A   1      36.860  33.491  33.173  1.00  0.00    -0.206 F 
ATOM     69  C   UNL A   1      34.056  35.233  31.738  1.00  0.00     0.060 A 
BRANCH  69  70
ATOM     70  S   UNL A   1      32.650  36.243  32.242  1.00  0.00     0.124 S 
ATOM     71  O   UNL A   1      32.376  37.015  31.033  1.00  0.00    -0.237 OA
ATOM     72  O   UNL A   1      31.658  35.231  32.587  1.00  0.00    -0.237 OA
ATOM     73  O   UNL A   1      33.174  37.018  33.362  1.00  0.00    -0.744 OA
ENDBRANCH  69  70
ENDBRANCH  48  62
BRANCH  49  74
ATOM     74  C   UNL A   1      44.612  29.088  28.560  1.00  0.00     0.058 A 
ATOM     75  C   UNL A   1      44.051  29.080  27.268  1.00  0.00     0.135 A 
ATOM     76  C   UNL A   1      45.813  28.393  28.740  1.00  0.00     0.135 A 
ATOM     77  F   UNL A   1      42.901  29.733  27.031  1.00  0.00    -0.206 F 
ATOM     78  C   UNL A   1      44.702  28.503  26.180  1.00  0.00     0.059 A 
ATOM     79  C   UNL A   1      46.488  27.810  27.662  1.00  0.00     0.059 A 
ATOM     80  F   UNL A   1      46.404  28.367  29.944  1.00  0.00    -0.206 F 
ATOM     81  C   UNL A   1      45.944  27.907  26.379  1.00  0.00     0.060 A 
BRANCH  81  82
ATOM     82  S   UNL A   1      46.912  27.431  24.922  1.00  0.00     0.124 S 
ATOM     83  O   UNL A   1      46.734  28.587  24.055  1.00  0.00    -0.237 OA
ATOM     84  O   UNL A   1      48.257  27.260  25.474  1.00  0.00    -0.237 OA
ATOM     85  O   UNL A   1      46.265  26.198  24.491  1.00  0.00    -0.744 OA
ENDBRANCH  81  82
ENDBRANCH  49  74
BRANCH  61  86
ATOM     86  C   UNL A   1      42.363  36.001  28.823  1.00  0.00     0.058 A 
ATOM     87  C   UNL A   1      43.019  37.061  29.469  1.00  0.00     0.135 A 
ATOM     88  C   UNL A   1      41.878  36.290  27.522  1.00  0.00     0.135 A 
ATOM     89  F   UNL A   1      43.615  36.891  30.658  1.00  0.00    -0.206 F 
ATOM     90  C   UNL A   1      43.135  38.331  28.898  1.00  0.00     0.059 A 
ATOM     91  C   UNL A   1      42.034  37.532  26.910  1.00  0.00     0.059 A 
ATOM     92  F   UNL A   1      41.245  35.363  26.787  1.00  0.00    -0.206 F 
ATOM     93  C   UNL A   1      42.642  38.557  27.617  1.00  0.00     0.060 A 
BRANCH  93  94
ATOM     94  S   UNL A   1      42.853  40.168  26.837  1.00  0.00     0.124 S 
ATOM     95  O   UNL A   1      41.524  40.397  26.278  1.00  0.00    -0.237 OA
ATOM     96  O   UNL A   1      43.222  41.027  27.957  1.00  0.00    -0.237 OA
ATOM     97  O   UNL A   1      43.916  39.929  25.866  1.00  0.00    -0.744 OA
ENDBRANCH  93  94
ENDBRANCH  61  86
ENDBRANCH  35  36
ENDBRANCH  27  30
ENDBRANCH  25  26
ENDBRANCH  24  25
ENDBRANCH   1  24
TORSDOF 17
ENDMDL
MODEL 3
REMARK VINA RESULT:     -12.6      5.124     13.245
REMARK SMILES Cc1cccc(O[C@H](C)C(=O)N2CCC[C@@H](C(=O)NCCCNC(=O)c3ccc(-c4c5nc(c(-c6c(F)cc(S(=O)(=O)[O-])cc6F)c6ccc([nH]6)c(-c6c(F)cc(S(=O)(=O)[O-])cc6F)c6nc(c(-c7c(F)cc(S(=O)(=O)[O-])cc7F)c7ccc4[nH]7)C=C6)C=C5)cc3)C2)c1
REMARK SMILES IDX 20 1 19 2 17 3 18 4 16 6 12 7 13 8 92 9 14 10 15 11 10 12
REMARK SMILES IDX 11 13 8 14 9 15 7 16 6 17 1 18 2 19 3 20 93 21 4 22 5 23
REMARK SMILES IDX 21 24 22 25 23 26 24 27 25 29 26 30 27 31 91 32 28 33 90 34
REMARK SMILES IDX 29 35 30 36 31 37 84 38 32 39 89 40 83 41 85 42 33 43 88 44
REMARK SMILES IDX 82 45 81 46 34 48 68 49 47 50 67 51 48 52 51 53 66 54 86 55
REMARK SMILES IDX 49 56 50 57 65 59 87 60 52 61 35 62 36 63 45 64 37 65 38 66
REMARK SMILES IDX 44 67 46 68 39 69 40 70 41 71 42 72 43 73 69 74 70 75 79 76
REMARK SMILES IDX 71 77 72 78 78 79 80 80 73 81 74 82 75 83 76 84 77 85 53 86
REMARK SMILES IDX 54 87 63 88 55 89 56 90 62 91 64 92 57 93 58 94 59 95 60 96
REMARK SMILES IDX 61 97
REMARK H PARENT 19 5 23 28 85 47 51 58
REMARK Flexibility Score: inf
ROOT
ATOM      1  C   UNL A   1      44.263  24.745  30.466  1.00  0.00     0.117 C 
ENDROOT
BRANCH   1   2
ATOM      2  N   UNL A   1      45.389  25.418  31.096  1.00  0.00    -0.356 N 
ATOM      3  C   UNL A   1      45.631  25.772  32.383  1.00  0.00     0.224 C 
ATOM      4  O   UNL A   1      46.690  26.368  32.613  1.00  0.00    -0.275 OA
ATOM      5  H   UNL A   1      46.110  25.663  30.471  1.00  0.00     0.163 HD
BRANCH   3   6
ATOM      6  C   UNL A   1      44.711  25.423  33.550  1.00  0.00     0.098 C 
ATOM      7  N   UNL A   1      42.569  25.698  34.743  1.00  0.00    -0.339 N 
ATOM      8  C   UNL A   1      42.534  24.273  35.082  1.00  0.00     0.119 C 
ATOM      9  C   UNL A   1      43.293  26.008  33.501  1.00  0.00     0.133 C 
ATOM     10  C   UNL A   1      43.927  23.656  35.144  1.00  0.00     0.022 C 
ATOM     11  C   UNL A   1      44.701  23.921  33.855  1.00  0.00     0.017 C 
BRANCH   7  12
ATOM     12  C   UNL A   1      41.905  26.571  35.589  1.00  0.00     0.263 C 
ATOM     13  O   UNL A   1      41.148  26.119  36.464  1.00  0.00    -0.271 OA
BRANCH  12  14
ATOM     14  C   UNL A   1      41.983  28.115  35.446  1.00  0.00     0.259 C 
ATOM     15  C   UNL A   1      43.042  28.872  36.239  1.00  0.00     0.064 C 
BRANCH  14  16
ATOM     16  O   UNL A   1      41.588  28.622  34.170  1.00  0.00    -0.481 OA
BRANCH  16  17
ATOM     17  C   UNL A   1      40.303  28.648  33.737  1.00  0.00     0.120 A 
ATOM     18  C   UNL A   1      37.535  31.296  33.762  1.00  0.00     0.044 C 
ATOM     19  C   UNL A   1      38.309  30.042  33.479  1.00  0.00    -0.047 A 
ATOM     20  C   UNL A   1      37.725  29.034  32.715  1.00  0.00     0.003 A 
ATOM     21  C   UNL A   1      39.596  29.834  33.995  1.00  0.00     0.049 A 
ATOM     22  C   UNL A   1      38.432  27.865  32.450  1.00  0.00     0.004 A 
ATOM     23  C   UNL A   1      39.718  27.677  32.943  1.00  0.00     0.046 A 
ENDBRANCH  16  17
ENDBRANCH  14  16
ENDBRANCH  12  14
ENDBRANCH   7  12
ENDBRANCH   3   6
ENDBRANCH   1   2
BRANCH   1  24
ATOM     24  C   UNL A   1      44.309  24.864  28.945  1.00  0.00     0.042 C 
BRANCH  24  25
ATOM     25  C   UNL A   1      43.073  25.504  28.310  1.00  0.00     0.118 C 
BRANCH  25  26
ATOM     26  N   UNL A   1      42.390  24.559  27.410  1.00  0.00    -0.352 N 
ATOM     27  C   UNL A   1      41.091  24.556  26.952  1.00  0.00     0.251 C 
ATOM     28  H   UNL A   1      42.948  23.816  27.086  1.00  0.00     0.163 HD
ATOM     29  O   UNL A   1      40.586  23.642  26.357  1.00  0.00    -0.269 OA
BRANCH  27  30
ATOM     30  C   UNL A   1      40.302  25.766  27.278  1.00  0.00     0.039 A 
ATOM     31  C   UNL A   1      40.640  26.947  26.618  1.00  0.00     0.014 A 
ATOM     32  C   UNL A   1      39.565  25.760  28.459  1.00  0.00     0.014 A 
ATOM     33  C   UNL A   1      40.411  28.153  27.262  1.00  0.00     0.010 A 
ATOM     34  C   UNL A   1      39.420  26.955  29.137  1.00  0.00     0.010 A 
ATOM     35  C   UNL A   1      39.905  28.139  28.565  1.00  0.00    -0.014 A 
BRANCH  35  36
ATOM     36  C   UNL A   1      40.021  29.303  29.437  1.00  0.00     0.031 A 
ATOM     37  C   UNL A   1      38.943  30.311  29.485  1.00  0.00     0.074 A 
ATOM     38  C   UNL A   1      41.137  29.467  30.183  1.00  0.00     0.049 A 
ATOM     39  N   UNL A   1      39.143  31.568  29.694  1.00  0.00    -0.248 NA
ATOM     40  C   UNL A   1      37.542  29.977  29.257  1.00  0.00     0.031 C 
ATOM     41  C   UNL A   1      41.369  30.476  31.211  1.00  0.00     0.029 A 
ATOM     42  N   UNL A   1      42.389  28.858  29.999  1.00  0.00    -0.354 N 
ATOM     43  C   UNL A   1      37.914  32.163  29.874  1.00  0.00     0.074 A 
ATOM     44  C   UNL A   1      36.948  31.142  29.539  1.00  0.00     0.031 C 
ATOM     45  C   UNL A   1      42.694  30.633  31.366  1.00  0.00     0.029 A 
ATOM     46  C   UNL A   1      43.354  29.819  30.359  1.00  0.00     0.049 A 
ATOM     47  H   UNL A   1      42.559  27.941  29.681  1.00  0.00     0.167 HD
ATOM     48  C   UNL A   1      37.836  33.413  30.414  1.00  0.00     0.037 A 
ATOM     49  C   UNL A   1      44.278  30.276  29.467  1.00  0.00     0.037 A 
ATOM     50  C   UNL A   1      39.164  33.943  30.710  1.00  0.00     0.049 A 
ATOM     51  C   UNL A   1      44.191  31.764  29.211  1.00  0.00     0.074 A 
ATOM     52  C   UNL A   1      39.925  33.932  31.868  1.00  0.00     0.029 A 
ATOM     53  N   UNL A   1      40.026  34.287  29.675  1.00  0.00    -0.354 N 
ATOM     54  N   UNL A   1      43.152  32.495  29.514  1.00  0.00    -0.248 NA
ATOM     55  C   UNL A   1      45.254  32.543  28.582  1.00  0.00     0.031 C 
ATOM     56  C   UNL A   1      41.266  34.207  31.517  1.00  0.00     0.029 A 
ATOM     57  C   UNL A   1      41.320  34.411  30.150  1.00  0.00     0.049 A 
ATOM     58  H   UNL A   1      39.755  34.424  28.738  1.00  0.00     0.167 HD
ATOM     59  C   UNL A   1      43.367  33.789  29.111  1.00  0.00     0.074 A 
ATOM     60  C   UNL A   1      44.708  33.772  28.558  1.00  0.00     0.031 C 
ATOM     61  C   UNL A   1      42.418  34.762  29.262  1.00  0.00     0.037 A 
BRANCH  48  62
ATOM     62  C   UNL A   1      36.549  33.986  30.965  1.00  0.00     0.058 A 
ATOM     63  C   UNL A   1      35.408  34.129  30.147  1.00  0.00     0.135 A 
ATOM     64  C   UNL A   1      36.400  34.470  32.280  1.00  0.00     0.135 A 
ATOM     65  F   UNL A   1      35.366  33.628  28.906  1.00  0.00    -0.206 F 
ATOM     66  C   UNL A   1      34.263  34.813  30.554  1.00  0.00     0.059 A 
ATOM     67  C   UNL A   1      35.285  35.206  32.696  1.00  0.00     0.059 A 
ATOM     68  F   UNL A   1      37.332  34.227  33.213  1.00  0.00    -0.206 F 
ATOM     69  C   UNL A   1      34.224  35.388  31.817  1.00  0.00     0.060 A 
BRANCH  69  70
ATOM     70  S   UNL A   1      32.787  36.377  32.272  1.00  0.00     0.124 S 
ATOM     71  O   UNL A   1      32.594  37.204  31.084  1.00  0.00    -0.237 OA
ATOM     72  O   UNL A   1      31.775  35.353  32.504  1.00  0.00    -0.237 OA
ATOM     73  O   UNL A   1      33.235  37.099  33.459  1.00  0.00    -0.744 OA
ENDBRANCH  69  70
ENDBRANCH  48  62
BRANCH  49  74
ATOM     74  C   UNL A   1      44.749  29.256  28.492  1.00  0.00     0.058 A 
ATOM     75  C   UNL A   1      44.191  29.260  27.198  1.00  0.00     0.135 A 
ATOM     76  C   UNL A   1      45.928  28.527  28.678  1.00  0.00     0.135 A 
ATOM     77  F   UNL A   1      43.061  29.946  26.956  1.00  0.00    -0.206 F 
ATOM     78  C   UNL A   1      44.828  28.661  26.114  1.00  0.00     0.059 A 
ATOM     79  C   UNL A   1      46.589  27.921  27.604  1.00  0.00     0.059 A 
ATOM     80  F   UNL A   1      46.514  28.488  29.883  1.00  0.00    -0.206 F 
ATOM     81  C   UNL A   1      46.052  28.030  26.318  1.00  0.00     0.060 A 
BRANCH  81  82
ATOM     82  S   UNL A   1      47.010  27.521  24.866  1.00  0.00     0.124 S 
ATOM     83  O   UNL A   1      46.403  26.237  24.544  1.00  0.00    -0.237 OA
ATOM     84  O   UNL A   1      46.743  28.599  23.913  1.00  0.00    -0.237 OA
ATOM     85  O   UNL A   1      48.375  27.477  25.377  1.00  0.00    -0.744 OA
ENDBRANCH  81  82
ENDBRANCH  49  74
BRANCH  61  86
ATOM     86  C   UNL A   1      42.467  36.161  28.689  1.00  0.00     0.058 A 
ATOM     87  C   UNL A   1      43.008  37.270  29.360  1.00  0.00     0.135 A 
ATOM     88  C   UNL A   1      42.084  36.392  27.344  1.00  0.00     0.135 A 
ATOM     89  F   UNL A   1      43.506  37.161  30.600  1.00  0.00    -0.206 F 
ATOM     90  C   UNL A   1      43.107  38.530  28.765  1.00  0.00     0.059 A 
ATOM     91  C   UNL A   1      42.227  37.626  26.713  1.00  0.00     0.059 A 
ATOM     92  F   UNL A   1      41.567  35.415  26.584  1.00  0.00    -0.206 F 
ATOM     93  C   UNL A   1      42.716  38.699  27.440  1.00  0.00     0.060 A 
BRANCH  93  94
ATOM     94  S   UNL A   1      42.910  40.300  26.637  1.00  0.00     0.124 S 
ATOM     95  O   UNL A   1      41.617  40.453  25.976  1.00  0.00    -0.237 OA
ATOM     96  O   UNL A   1      43.155  41.202  27.759  1.00  0.00    -0.237 OA
ATOM     97  O   UNL A   1      44.053  40.091  25.753  1.00  0.00    -0.744 OA
ENDBRANCH  93  94
ENDBRANCH  61  86
ENDBRANCH  35  36
ENDBRANCH  27  30
ENDBRANCH  25  26
ENDBRANCH  24  25
ENDBRANCH   1  24
TORSDOF 17
ENDMDL
