MODEL 1
REMARK VINA RESULT:     -12.1      0.000      0.000
REMARK SMILES N#Cc1ccc(/C=C/C(=O)N[C@H]2C=C[C@H](C(=O)NCCCNC(=O)c3ccc(-c4c5nc(c(-c6c(F)cc(S(=O)(=O)[O-])cc6F)c6ccc([nH]6)c(-c6c(F)cc(S(=O)(=O)[O-])cc6F)c6nc(c(-c7c(F)cc(S(=O)(=O)[O-])cc7F)c7ccc4[nH]7)C=C6)C=C5)cc3)C2)cc1
REMARK SMILES IDX 19 1 18 2 16 3 17 4 15 6 12 7 13 8 91 9 14 10 11 11 9 12
REMARK SMILES IDX 10 13 8 15 7 16 6 17 3 18 4 19 93 20 5 21 92 22 2 23 1 24
REMARK SMILES IDX 20 25 21 26 22 27 23 28 24 30 25 31 26 32 90 33 27 34 89 35
REMARK SMILES IDX 28 36 29 37 30 38 83 39 31 40 88 41 82 42 84 43 32 44 87 45
REMARK SMILES IDX 81 46 80 47 33 49 67 50 46 51 66 52 47 53 50 54 65 55 85 56
REMARK SMILES IDX 48 57 49 58 64 60 86 61 51 62 34 63 35 64 44 65 36 66 37 67
REMARK SMILES IDX 43 68 45 69 38 70 39 71 40 72 41 73 42 74 68 75 69 76 78 77
REMARK SMILES IDX 70 78 71 79 77 80 79 81 72 82 73 83 74 84 75 85 76 86 52 87
REMARK SMILES IDX 53 88 62 89 54 90 55 91 61 92 63 93 56 94 57 95 58 96 59 97
REMARK SMILES IDX 60 98
REMARK H PARENT 18 5 11 14 22 29 84 48 50 59
REMARK Flexibility Score: inf
ROOT
ATOM      1  C   UNL A   1      34.128  29.708  27.194  1.00  0.00     0.117 C 
ENDROOT
BRANCH   1   2
ATOM      2  N   UNL A   1      32.803  29.369  27.653  1.00  0.00    -0.356 N 
ATOM      3  C   UNL A   1      32.094  28.229  27.462  1.00  0.00     0.227 C 
ATOM      4  O   UNL A   1      30.945  28.217  27.904  1.00  0.00    -0.274 OA
ATOM      5  H   UNL A   1      32.347  30.065  28.179  1.00  0.00     0.163 HD
BRANCH   3   6
ATOM      6  C   UNL A   1      32.695  27.046  26.691  1.00  0.00     0.103 C 
ATOM      7  C   UNL A   1      31.405  26.907  24.661  1.00  0.00     0.106 C 
ATOM      8  C   UNL A   1      31.220  25.657  25.446  1.00  0.00    -0.006 C 
ATOM      9  C   UNL A   1      32.751  27.395  25.198  1.00  0.00     0.047 C 
ATOM     10  C   UNL A   1      31.842  25.796  26.631  1.00  0.00    -0.016 C 
BRANCH   7  11
ATOM     11  N   UNL A   1      31.404  26.778  23.236  1.00  0.00    -0.346 N 
ATOM     12  C   UNL A   1      32.324  26.158  22.435  1.00  0.00     0.244 C 
ATOM     13  O   UNL A   1      32.050  26.020  21.240  1.00  0.00    -0.270 OA
ATOM     14  H   UNL A   1      30.640  27.188  22.769  1.00  0.00     0.164 HD
BRANCH  12  15
ATOM     15  C   UNL A   1      33.652  25.621  22.908  1.00  0.00     0.072 C 
ATOM     16  C   UNL A   1      33.939  24.437  23.467  1.00  0.00     0.014 C 
BRANCH  16  17
ATOM     17  C   UNL A   1      35.187  23.834  23.962  1.00  0.00    -0.025 A 
ATOM     18  C   UNL A   1      37.452  22.717  25.209  1.00  0.00     0.052 A 
ATOM     19  C   UNL A   1      37.028  22.263  23.952  1.00  0.00     0.020 A 
ATOM     20  C   UNL A   1      36.763  23.749  25.835  1.00  0.00     0.020 A 
ATOM     21  C   UNL A   1      35.895  22.815  23.332  1.00  0.00     0.009 A 
ATOM     22  C   UNL A   1      35.654  24.306  25.207  1.00  0.00     0.009 A 
BRANCH  18  23
ATOM     23  C   UNL A   1      38.585  22.131  25.863  1.00  0.00     0.099 C 
ATOM     24  N   UNL A   1      39.505  21.651  26.378  1.00  0.00    -0.192 NA
ENDBRANCH  18  23
ENDBRANCH  16  17
ENDBRANCH  12  15
ENDBRANCH   7  11
ENDBRANCH   3   6
ENDBRANCH   1   2
BRANCH   1  25
ATOM     25  C   UNL A   1      34.460  31.167  27.463  1.00  0.00     0.042 C 
BRANCH  25  26
ATOM     26  C   UNL A   1      35.743  31.383  28.260  1.00  0.00     0.118 C 
BRANCH  26  27
ATOM     27  N   UNL A   1      35.632  30.932  29.639  1.00  0.00    -0.352 N 
ATOM     28  C   UNL A   1      36.461  30.130  30.384  1.00  0.00     0.251 C 
ATOM     29  H   UNL A   1      34.832  31.254  30.115  1.00  0.00     0.163 HD
ATOM     30  O   UNL A   1      36.061  29.714  31.469  1.00  0.00    -0.269 OA
BRANCH  28  31
ATOM     31  C   UNL A   1      37.807  29.758  29.895  1.00  0.00     0.039 A 
ATOM     32  C   UNL A   1      38.800  29.458  30.831  1.00  0.00     0.014 A 
ATOM     33  C   UNL A   1      38.116  29.752  28.532  1.00  0.00     0.014 A 
ATOM     34  C   UNL A   1      40.083  29.120  30.398  1.00  0.00     0.010 A 
ATOM     35  C   UNL A   1      39.364  29.311  28.099  1.00  0.00     0.010 A 
ATOM     36  C   UNL A   1      40.374  29.020  29.026  1.00  0.00    -0.014 A 
BRANCH  36  37
ATOM     37  C   UNL A   1      41.740  28.658  28.562  1.00  0.00     0.031 A 
ATOM     38  C   UNL A   1      42.822  29.703  28.490  1.00  0.00     0.074 A 
ATOM     39  C   UNL A   1      42.005  27.389  28.192  1.00  0.00     0.049 A 
ATOM     40  N   UNL A   1      44.073  29.574  28.126  1.00  0.00    -0.248 NA
ATOM     41  C   UNL A   1      42.446  31.081  28.848  1.00  0.00     0.031 C 
ATOM     42  C   UNL A   1      41.030  26.298  28.164  1.00  0.00     0.029 A 
ATOM     43  N   UNL A   1      43.172  26.803  27.772  1.00  0.00    -0.354 N 
ATOM     44  C   UNL A   1      44.628  30.846  28.215  1.00  0.00     0.074 A 
ATOM     45  C   UNL A   1      43.560  31.746  28.583  1.00  0.00     0.031 C 
ATOM     46  C   UNL A   1      41.646  25.167  27.783  1.00  0.00     0.029 A 
ATOM     47  C   UNL A   1      43.048  25.462  27.498  1.00  0.00     0.049 A 
ATOM     48  H   UNL A   1      44.018  27.296  27.676  1.00  0.00     0.167 HD
ATOM     49  C   UNL A   1      45.917  31.228  28.041  1.00  0.00     0.037 A 
ATOM     50  C   UNL A   1      43.957  24.567  27.061  1.00  0.00     0.037 A 
ATOM     51  C   UNL A   1      46.977  30.325  27.668  1.00  0.00     0.049 A 
ATOM     52  C   UNL A   1      45.378  25.012  26.854  1.00  0.00     0.074 A 
ATOM     53  C   UNL A   1      48.322  30.602  27.490  1.00  0.00     0.029 A 
ATOM     54  N   UNL A   1      46.813  28.972  27.403  1.00  0.00    -0.354 N 
ATOM     55  N   UNL A   1      45.899  26.208  26.998  1.00  0.00    -0.248 NA
ATOM     56  C   UNL A   1      46.341  23.981  26.445  1.00  0.00     0.031 C 
ATOM     57  C   UNL A   1      48.956  29.433  27.056  1.00  0.00     0.029 A 
ATOM     58  C   UNL A   1      48.026  28.406  27.044  1.00  0.00     0.049 A 
ATOM     59  H   UNL A   1      45.959  28.485  27.463  1.00  0.00     0.167 HD
ATOM     60  C   UNL A   1      47.257  26.067  26.731  1.00  0.00     0.074 A 
ATOM     61  C   UNL A   1      47.475  24.666  26.431  1.00  0.00     0.031 C 
ATOM     62  C   UNL A   1      48.235  27.009  26.744  1.00  0.00     0.037 A 
BRANCH  49  63
ATOM     63  C   UNL A   1      46.243  32.685  28.247  1.00  0.00     0.058 A 
ATOM     64  C   UNL A   1      46.653  33.184  29.496  1.00  0.00     0.135 A 
ATOM     65  C   UNL A   1      46.151  33.598  27.183  1.00  0.00     0.135 A 
ATOM     66  F   UNL A   1      46.749  32.364  30.555  1.00  0.00    -0.206 F 
ATOM     67  C   UNL A   1      46.910  34.537  29.694  1.00  0.00     0.059 A 
ATOM     68  C   UNL A   1      46.442  34.950  27.349  1.00  0.00     0.059 A 
ATOM     69  F   UNL A   1      45.767  33.183  25.966  1.00  0.00    -0.206 F 
ATOM     70  C   UNL A   1      46.800  35.413  28.614  1.00  0.00     0.060 A 
BRANCH  70  71
ATOM     71  S   UNL A   1      47.120  37.167  28.894  1.00  0.00     0.124 S 
ATOM     72  O   UNL A   1      46.451  37.772  27.746  1.00  0.00    -0.237 OA
ATOM     73  O   UNL A   1      46.486  37.394  30.189  1.00  0.00    -0.237 OA
ATOM     74  O   UNL A   1      48.577  37.254  28.887  1.00  0.00    -0.744 OA
ENDBRANCH  70  71
ENDBRANCH  49  63
BRANCH  50  75
ATOM     75  C   UNL A   1      43.543  23.160  26.814  1.00  0.00     0.058 A 
ATOM     76  C   UNL A   1      43.459  22.636  25.515  1.00  0.00     0.135 A 
ATOM     77  C   UNL A   1      43.253  22.296  27.883  1.00  0.00     0.135 A 
ATOM     78  F   UNL A   1      43.717  23.422  24.458  1.00  0.00    -0.206 F 
ATOM     79  C   UNL A   1      43.095  21.314  25.282  1.00  0.00     0.059 A 
ATOM     80  C   UNL A   1      42.919  20.962  27.678  1.00  0.00     0.059 A 
ATOM     81  F   UNL A   1      43.334  22.740  29.147  1.00  0.00    -0.206 F 
ATOM     82  C   UNL A   1      42.837  20.481  26.373  1.00  0.00     0.060 A 
BRANCH  82  83
ATOM     83  S   UNL A   1      42.441  18.747  26.064  1.00  0.00     0.124 S 
ATOM     84  O   UNL A   1      42.687  18.150  27.373  1.00  0.00    -0.237 OA
ATOM     85  O   UNL A   1      41.046  18.823  25.648  1.00  0.00    -0.237 OA
ATOM     86  O   UNL A   1      43.382  18.369  25.013  1.00  0.00    -0.744 OA
ENDBRANCH  82  83
ENDBRANCH  50  75
BRANCH  62  87
ATOM     87  C   UNL A   1      49.647  26.547  26.482  1.00  0.00     0.058 A 
ATOM     88  C   UNL A   1      50.476  26.048  27.499  1.00  0.00     0.135 A 
ATOM     89  C   UNL A   1      50.171  26.594  25.179  1.00  0.00     0.135 A 
ATOM     90  F   UNL A   1      50.030  25.978  28.763  1.00  0.00    -0.206 F 
ATOM     91  C   UNL A   1      51.791  25.667  27.245  1.00  0.00     0.059 A 
ATOM     92  C   UNL A   1      51.467  26.178  24.894  1.00  0.00     0.059 A 
ATOM     93  F   UNL A   1      49.420  27.045  24.162  1.00  0.00    -0.206 F 
ATOM     94  C   UNL A   1      52.278  25.739  25.938  1.00  0.00     0.060 A 
BRANCH  94  95
ATOM     95  S   UNL A   1      53.988  25.253  25.624  1.00  0.00     0.124 S 
ATOM     96  O   UNL A   1      54.469  24.981  26.974  1.00  0.00    -0.237 OA
ATOM     97  O   UNL A   1      53.826  24.088  24.760  1.00  0.00    -0.237 OA
ATOM     98  O   UNL A   1      54.563  26.430  24.978  1.00  0.00    -0.744 OA
ENDBRANCH  94  95
ENDBRANCH  62  87
ENDBRANCH  36  37
ENDBRANCH  28  31
ENDBRANCH  26  27
ENDBRANCH  25  26
ENDBRANCH   1  25
TORSDOF 17
ENDMDL
MODEL 2
REMARK VINA RESULT:     -12.0      6.530     12.195
REMARK SMILES N#Cc1ccc(/C=C/C(=O)N[C@H]2C=C[C@H](C(=O)NCCCNC(=O)c3ccc(-c4c5nc(c(-c6c(F)cc(S(=O)(=O)[O-])cc6F)c6ccc([nH]6)c(-c6c(F)cc(S(=O)(=O)[O-])cc6F)c6nc(c(-c7c(F)cc(S(=O)(=O)[O-])cc7F)c7ccc4[nH]7)C=C6)C=C5)cc3)C2)cc1
REMARK SMILES IDX 19 1 18 2 16 3 17 4 15 6 12 7 13 8 91 9 14 10 11 11 9 12
REMARK SMILES IDX 10 13 8 15 7 16 6 17 3 18 4 19 93 20 5 21 92 22 2 23 1 24
REMARK SMILES IDX 20 25 21 26 22 27 23 28 24 30 25 31 26 32 90 33 27 34 89 35
REMARK SMILES IDX 28 36 29 37 30 38 83 39 31 40 88 41 82 42 84 43 32 44 87 45
REMARK SMILES IDX 81 46 80 47 33 49 67 50 46 51 66 52 47 53 50 54 65 55 85 56
REMARK SMILES IDX 48 57 49 58 64 60 86 61 51 62 34 63 35 64 44 65 36 66 37 67
REMARK SMILES IDX 43 68 45 69 38 70 39 71 40 72 41 73 42 74 68 75 69 76 78 77
REMARK SMILES IDX 70 78 71 79 77 80 79 81 72 82 73 83 74 84 75 85 76 86 52 87
REMARK SMILES IDX 53 88 62 89 54 90 55 91 61 92 63 93 56 94 57 95 58 96 59 97
REMARK SMILES IDX 60 98
REMARK H PARENT 18 5 11 14 22 29 84 48 50 59
REMARK Flexibility Score: inf
ROOT
ATOM      1  C   UNL A   1      39.682  22.352  26.259  1.00  0.00     0.117 C 
ENDROOT
BRANCH   1   2
ATOM      2  N   UNL A   1      38.526  23.199  26.427  1.00  0.00    -0.356 N 
ATOM      3  C   UNL A   1      37.349  23.187  25.755  1.00  0.00     0.227 C 
ATOM      4  O   UNL A   1      36.542  24.071  26.047  1.00  0.00    -0.274 OA
ATOM      5  H   UNL A   1      38.604  23.884  27.129  1.00  0.00     0.163 HD
BRANCH   3   6
ATOM      6  C   UNL A   1      37.076  22.149  24.658  1.00  0.00     0.103 C 
ATOM      7  C   UNL A   1      34.676  21.953  24.572  1.00  0.00     0.106 C 
ATOM      8  C   UNL A   1      35.261  20.644  24.970  1.00  0.00    -0.006 C 
ATOM      9  C   UNL A   1      35.856  22.592  23.839  1.00  0.00     0.047 C 
ATOM     10  C   UNL A   1      36.587  20.798  25.137  1.00  0.00    -0.016 C 
BRANCH   7  11
ATOM     11  N   UNL A   1      33.494  21.911  23.766  1.00  0.00    -0.346 N 
ATOM     12  C   UNL A   1      32.579  22.904  23.543  1.00  0.00     0.244 C 
ATOM     13  O   UNL A   1      31.716  22.711  22.683  1.00  0.00    -0.270 OA
ATOM     14  H   UNL A   1      33.316  21.057  23.311  1.00  0.00     0.164 HD
BRANCH  12  15
ATOM     15  C   UNL A   1      32.550  24.226  24.270  1.00  0.00     0.072 C 
ATOM     16  C   UNL A   1      33.231  25.352  24.011  1.00  0.00     0.014 C 
BRANCH  16  17
ATOM     17  C   UNL A   1      33.274  26.671  24.660  1.00  0.00    -0.025 A 
ATOM     18  C   UNL A   1      33.580  29.070  26.106  1.00  0.00     0.052 A 
ATOM     19  C   UNL A   1      33.311  29.090  24.729  1.00  0.00     0.020 A 
ATOM     20  C   UNL A   1      33.670  27.852  26.770  1.00  0.00     0.020 A 
ATOM     21  C   UNL A   1      33.164  27.895  24.007  1.00  0.00     0.009 A 
ATOM     22  C   UNL A   1      33.503  26.672  26.053  1.00  0.00     0.009 A 
BRANCH  18  23
ATOM     23  C   UNL A   1      33.766  30.287  26.840  1.00  0.00     0.099 C 
ATOM     24  N   UNL A   1      33.902  31.269  27.438  1.00  0.00    -0.192 NA
ENDBRANCH  18  23
ENDBRANCH  16  17
ENDBRANCH  12  15
ENDBRANCH   7  11
ENDBRANCH   3   6
ENDBRANCH   1   2
BRANCH   1  25
ATOM     25  C   UNL A   1      40.482  22.229  27.545  1.00  0.00     0.042 C 
BRANCH  25  26
ATOM     26  C   UNL A   1      41.768  23.048  27.566  1.00  0.00     0.118 C 
BRANCH  26  27
ATOM     27  N   UNL A   1      41.937  23.863  26.372  1.00  0.00    -0.352 N 
ATOM     28  C   UNL A   1      41.747  25.208  26.177  1.00  0.00     0.251 C 
ATOM     29  H   UNL A   1      42.235  23.369  25.574  1.00  0.00     0.163 HD
ATOM     30  O   UNL A   1      41.753  25.646  25.028  1.00  0.00    -0.269 OA
BRANCH  28  31
ATOM     31  C   UNL A   1      41.526  26.122  27.319  1.00  0.00     0.039 A 
ATOM     32  C   UNL A   1      40.411  25.916  28.135  1.00  0.00     0.014 A 
ATOM     33  C   UNL A   1      42.371  27.208  27.564  1.00  0.00     0.014 A 
ATOM     34  C   UNL A   1      40.167  26.773  29.209  1.00  0.00     0.010 A 
ATOM     35  C   UNL A   1      42.187  27.996  28.698  1.00  0.00     0.010 A 
ATOM     36  C   UNL A   1      41.066  27.809  29.517  1.00  0.00    -0.014 A 
BRANCH  36  37
ATOM     37  C   UNL A   1      40.811  28.722  30.663  1.00  0.00     0.031 A 
ATOM     38  C   UNL A   1      41.621  28.603  31.928  1.00  0.00     0.074 A 
ATOM     39  C   UNL A   1      39.840  29.654  30.571  1.00  0.00     0.049 A 
ATOM     40  N   UNL A   1      41.554  29.318  33.023  1.00  0.00    -0.248 NA
ATOM     41  C   UNL A   1      42.620  27.524  31.982  1.00  0.00     0.031 C 
ATOM     42  C   UNL A   1      38.950  29.834  29.424  1.00  0.00     0.029 A 
ATOM     43  N   UNL A   1      39.442  30.624  31.456  1.00  0.00    -0.354 N 
ATOM     44  C   UNL A   1      42.499  28.777  33.888  1.00  0.00     0.074 A 
ATOM     45  C   UNL A   1      43.065  27.625  33.225  1.00  0.00     0.031 C 
ATOM     46  C   UNL A   1      38.134  30.874  29.659  1.00  0.00     0.029 A 
ATOM     47  C   UNL A   1      38.412  31.406  30.990  1.00  0.00     0.049 A 
ATOM     48  H   UNL A   1      39.854  30.747  32.342  1.00  0.00     0.167 HD
ATOM     49  C   UNL A   1      42.888  29.220  35.109  1.00  0.00     0.037 A 
ATOM     50  C   UNL A   1      37.760  32.434  31.568  1.00  0.00     0.037 A 
ATOM     51  C   UNL A   1      42.315  30.367  35.766  1.00  0.00     0.049 A 
ATOM     52  C   UNL A   1      38.191  32.899  32.932  1.00  0.00     0.074 A 
ATOM     53  C   UNL A   1      42.653  30.916  36.991  1.00  0.00     0.029 A 
ATOM     54  N   UNL A   1      41.277  31.137  35.259  1.00  0.00    -0.354 N 
ATOM     55  N   UNL A   1      39.126  32.411  33.714  1.00  0.00    -0.248 NA
ATOM     56  C   UNL A   1      37.493  34.066  33.485  1.00  0.00     0.031 C 
ATOM     57  C   UNL A   1      41.778  31.974  37.254  1.00  0.00     0.029 A 
ATOM     58  C   UNL A   1      40.949  32.142  36.156  1.00  0.00     0.049 A 
ATOM     59  H   UNL A   1      40.839  30.991  34.390  1.00  0.00     0.167 HD
ATOM     60  C   UNL A   1      39.153  33.234  34.835  1.00  0.00     0.074 A 
ATOM     61  C   UNL A   1      38.148  34.256  34.621  1.00  0.00     0.031 C 
ATOM     62  C   UNL A   1      39.943  33.156  35.936  1.00  0.00     0.037 A 
BRANCH  49  63
ATOM     63  C   UNL A   1      43.980  28.451  35.809  1.00  0.00     0.058 A 
ATOM     64  C   UNL A   1      43.694  27.401  36.700  1.00  0.00     0.135 A 
ATOM     65  C   UNL A   1      45.332  28.762  35.586  1.00  0.00     0.135 A 
ATOM     66  F   UNL A   1      42.422  27.065  36.964  1.00  0.00    -0.206 F 
ATOM     67  C   UNL A   1      44.702  26.724  37.379  1.00  0.00     0.059 A 
ATOM     68  C   UNL A   1      46.358  28.070  36.224  1.00  0.00     0.059 A 
ATOM     69  F   UNL A   1      45.669  29.752  34.745  1.00  0.00    -0.206 F 
ATOM     70  C   UNL A   1      46.032  27.067  37.135  1.00  0.00     0.060 A 
BRANCH  70  71
ATOM     71  S   UNL A   1      47.325  26.189  38.038  1.00  0.00     0.124 S 
ATOM     72  O   UNL A   1      47.440  24.959  37.260  1.00  0.00    -0.237 OA
ATOM     73  O   UNL A   1      48.453  27.111  37.936  1.00  0.00    -0.237 OA
ATOM     74  O   UNL A   1      46.763  26.035  39.376  1.00  0.00    -0.744 OA
ENDBRANCH  70  71
ENDBRANCH  49  63
BRANCH  50  75
ATOM     75  C   UNL A   1      36.645  33.099  30.841  1.00  0.00     0.058 A 
ATOM     76  C   UNL A   1      35.305  32.887  31.200  1.00  0.00     0.135 A 
ATOM     77  C   UNL A   1      36.903  33.991  29.788  1.00  0.00     0.135 A 
ATOM     78  F   UNL A   1      35.003  32.039  32.195  1.00  0.00    -0.206 F 
ATOM     79  C   UNL A   1      34.262  33.527  30.537  1.00  0.00     0.059 A 
ATOM     80  C   UNL A   1      35.881  34.667  29.131  1.00  0.00     0.059 A 
ATOM     81  F   UNL A   1      38.168  34.242  29.414  1.00  0.00    -0.206 F 
ATOM     82  C   UNL A   1      34.562  34.423  29.510  1.00  0.00     0.060 A 
BRANCH  82  83
ATOM     83  S   UNL A   1      33.206  35.306  28.708  1.00  0.00     0.124 S 
ATOM     84  O   UNL A   1      32.493  35.857  29.855  1.00  0.00    -0.237 OA
ATOM     85  O   UNL A   1      33.921  36.268  27.876  1.00  0.00    -0.237 OA
ATOM     86  O   UNL A   1      32.506  34.255  27.975  1.00  0.00    -0.744 OA
ENDBRANCH  82  83
ENDBRANCH  50  75
BRANCH  62  87
ATOM     87  C   UNL A   1      39.797  34.241  36.973  1.00  0.00     0.058 A 
ATOM     88  C   UNL A   1      40.393  35.504  36.830  1.00  0.00     0.135 A 
ATOM     89  C   UNL A   1      39.031  34.011  38.129  1.00  0.00     0.135 A 
ATOM     90  F   UNL A   1      41.136  35.784  35.747  1.00  0.00    -0.206 F 
ATOM     91  C   UNL A   1      40.282  36.479  37.819  1.00  0.00     0.059 A 
ATOM     92  C   UNL A   1      38.871  34.984  39.110  1.00  0.00     0.059 A 
ATOM     93  F   UNL A   1      38.423  32.828  38.314  1.00  0.00    -0.206 F 
ATOM     94  C   UNL A   1      39.521  36.206  38.957  1.00  0.00     0.060 A 
BRANCH  94  95
ATOM     95  S   UNL A   1      39.395  37.473  40.237  1.00  0.00     0.124 S 
ATOM     96  O   UNL A   1      38.829  36.713  41.347  1.00  0.00    -0.237 OA
ATOM     97  O   UNL A   1      40.784  37.892  40.397  1.00  0.00    -0.237 OA
ATOM     98  O   UNL A   1      38.509  38.470  39.643  1.00  0.00    -0.744 OA
ENDBRANCH  94  95
ENDBRANCH  62  87
ENDBRANCH  36  37
ENDBRANCH  28  31
ENDBRANCH  26  27
ENDBRANCH  25  26
ENDBRANCH   1  25
TORSDOF 17
ENDMDL
MODEL 3
REMARK VINA RESULT:     -11.8      6.712     12.135
REMARK SMILES N#Cc1ccc(/C=C/C(=O)N[C@H]2C=C[C@H](C(=O)NCCCNC(=O)c3ccc(-c4c5nc(c(-c6c(F)cc(S(=O)(=O)[O-])cc6F)c6ccc([nH]6)c(-c6c(F)cc(S(=O)(=O)[O-])cc6F)c6nc(c(-c7c(F)cc(S(=O)(=O)[O-])cc7F)c7ccc4[nH]7)C=C6)C=C5)cc3)C2)cc1
REMARK SMILES IDX 19 1 18 2 16 3 17 4 15 6 12 7 13 8 91 9 14 10 11 11 9 12
REMARK SMILES IDX 10 13 8 15 7 16 6 17 3 18 4 19 93 20 5 21 92 22 2 23 1 24
REMARK SMILES IDX 20 25 21 26 22 27 23 28 24 30 25 31 26 32 90 33 27 34 89 35
REMARK SMILES IDX 28 36 29 37 30 38 83 39 31 40 88 41 82 42 84 43 32 44 87 45
REMARK SMILES IDX 81 46 80 47 33 49 67 50 46 51 66 52 47 53 50 54 65 55 85 56
REMARK SMILES IDX 48 57 49 58 64 60 86 61 51 62 34 63 35 64 44 65 36 66 37 67
REMARK SMILES IDX 43 68 45 69 38 70 39 71 40 72 41 73 42 74 68 75 69 76 78 77
REMARK SMILES IDX 70 78 71 79 77 80 79 81 72 82 73 83 74 84 75 85 76 86 52 87
REMARK SMILES IDX 53 88 62 89 54 90 55 91 61 92 63 93 56 94 57 95 58 96 59 97
REMARK SMILES IDX 60 98
REMARK H PARENT 18 5 11 14 22 29 84 48 50 59
REMARK Flexibility Score: inf
ROOT
ATOM      1  C   UNL A   1      38.275  21.988  26.053  1.00  0.00     0.117 C 
ENDROOT
BRANCH   1   2
ATOM      2  N   UNL A   1      37.951  22.333  24.690  1.00  0.00    -0.356 N 
ATOM      3  C   UNL A   1      36.799  22.835  24.182  1.00  0.00     0.227 C 
ATOM      4  O   UNL A   1      36.755  22.979  22.959  1.00  0.00    -0.274 OA
ATOM      5  H   UNL A   1      38.670  22.181  24.034  1.00  0.00     0.163 HD
BRANCH   3   6
ATOM      6  C   UNL A   1      35.608  23.156  25.095  1.00  0.00     0.103 C 
ATOM      7  C   UNL A   1      33.990  24.214  23.657  1.00  0.00     0.106 C 
ATOM      8  C   UNL A   1      34.415  25.176  24.709  1.00  0.00    -0.006 C 
ATOM      9  C   UNL A   1      34.303  22.880  24.335  1.00  0.00     0.047 C 
ATOM     10  C   UNL A   1      35.406  24.619  25.427  1.00  0.00    -0.016 C 
BRANCH   7  11
ATOM     11  N   UNL A   1      32.629  24.295  23.222  1.00  0.00    -0.346 N 
ATOM     12  C   UNL A   1      31.610  23.409  23.441  1.00  0.00     0.244 C 
ATOM     13  O   UNL A   1      30.470  23.748  23.115  1.00  0.00    -0.270 OA
ATOM     14  H   UNL A   1      32.394  25.094  22.696  1.00  0.00     0.164 HD
BRANCH  12  15
ATOM     15  C   UNL A   1      31.776  22.043  24.060  1.00  0.00     0.072 C 
ATOM     16  C   UNL A   1      32.228  20.909  23.505  1.00  0.00     0.014 C 
BRANCH  16  17
ATOM     17  C   UNL A   1      32.417  19.544  24.020  1.00  0.00    -0.025 A 
ATOM     18  C   UNL A   1      32.967  16.877  24.744  1.00  0.00     0.052 A 
ATOM     19  C   UNL A   1      32.797  17.867  25.723  1.00  0.00     0.020 A 
ATOM     20  C   UNL A   1      32.835  17.211  23.401  1.00  0.00     0.020 A 
ATOM     21  C   UNL A   1      32.529  19.198  25.364  1.00  0.00     0.009 A 
ATOM     22  C   UNL A   1      32.549  18.527  23.051  1.00  0.00     0.009 A 
BRANCH  18  23
ATOM     23  C   UNL A   1      33.276  15.526  25.105  1.00  0.00     0.099 C 
ATOM     24  N   UNL A   1      33.532  14.438  25.410  1.00  0.00    -0.192 NA
ENDBRANCH  18  23
ENDBRANCH  16  17
ENDBRANCH  12  15
ENDBRANCH   7  11
ENDBRANCH   3   6
ENDBRANCH   1   2
BRANCH   1  25
ATOM     25  C   UNL A   1      39.777  21.935  26.278  1.00  0.00     0.042 C 
BRANCH  25  26
ATOM     26  C   UNL A   1      40.364  23.198  26.901  1.00  0.00     0.118 C 
BRANCH  26  27
ATOM     27  N   UNL A   1      41.244  23.918  25.992  1.00  0.00    -0.352 N 
ATOM     28  C   UNL A   1      41.655  25.228  25.999  1.00  0.00     0.251 C 
ATOM     29  H   UNL A   1      41.603  23.377  25.251  1.00  0.00     0.163 HD
ATOM     30  O   UNL A   1      42.237  25.670  25.012  1.00  0.00    -0.269 OA
BRANCH  28  31
ATOM     31  C   UNL A   1      41.394  26.104  27.163  1.00  0.00     0.039 A 
ATOM     32  C   UNL A   1      42.212  27.219  27.358  1.00  0.00     0.014 A 
ATOM     33  C   UNL A   1      40.389  25.812  28.090  1.00  0.00     0.014 A 
ATOM     34  C   UNL A   1      42.000  28.053  28.457  1.00  0.00     0.010 A 
ATOM     35  C   UNL A   1      40.111  26.702  29.124  1.00  0.00     0.010 A 
ATOM     36  C   UNL A   1      40.932  27.818  29.339  1.00  0.00    -0.014 A 
BRANCH  36  37
ATOM     37  C   UNL A   1      40.701  28.706  30.510  1.00  0.00     0.031 A 
ATOM     38  C   UNL A   1      41.528  28.550  31.760  1.00  0.00     0.074 A 
ATOM     39  C   UNL A   1      39.739  29.648  30.454  1.00  0.00     0.049 A 
ATOM     40  N   UNL A   1      41.483  29.239  32.872  1.00  0.00    -0.248 NA
ATOM     41  C   UNL A   1      42.517  27.460  31.775  1.00  0.00     0.031 C 
ATOM     42  C   UNL A   1      38.835  29.865  29.323  1.00  0.00     0.029 A 
ATOM     43  N   UNL A   1      39.362  30.601  31.367  1.00  0.00    -0.354 N 
ATOM     44  C   UNL A   1      42.434  28.669  33.711  1.00  0.00     0.074 A 
ATOM     45  C   UNL A   1      42.980  27.527  33.014  1.00  0.00     0.031 C 
ATOM     46  C   UNL A   1      38.032  30.906  29.595  1.00  0.00     0.029 A 
ATOM     47  C   UNL A   1      38.334  31.404  30.934  1.00  0.00     0.049 A 
ATOM     48  H   UNL A   1      39.788  30.699  32.249  1.00  0.00     0.167 HD
ATOM     49  C   UNL A   1      42.844  29.078  34.937  1.00  0.00     0.037 A 
ATOM     50  C   UNL A   1      37.699  32.424  31.545  1.00  0.00     0.037 A 
ATOM     51  C   UNL A   1      42.291  30.215  35.629  1.00  0.00     0.049 A 
ATOM     52  C   UNL A   1      38.154  32.852  32.913  1.00  0.00     0.074 A 
ATOM     53  C   UNL A   1      42.651  30.731  36.862  1.00  0.00     0.029 A 
ATOM     54  N   UNL A   1      41.254  31.007  35.155  1.00  0.00    -0.354 N 
ATOM     55  N   UNL A   1      39.095  32.337  33.670  1.00  0.00    -0.248 NA
ATOM     56  C   UNL A   1      37.474  34.012  33.503  1.00  0.00     0.031 C 
ATOM     57  C   UNL A   1      41.790  31.792  37.161  1.00  0.00     0.029 A 
ATOM     58  C   UNL A   1      40.948  31.993  36.079  1.00  0.00     0.049 A 
ATOM     59  H   UNL A   1      40.802  30.886  34.289  1.00  0.00     0.167 HD
ATOM     60  C   UNL A   1      39.145  33.133  34.810  1.00  0.00     0.074 A 
ATOM     61  C   UNL A   1      38.147  34.169  34.634  1.00  0.00     0.031 C 
ATOM     62  C   UNL A   1      39.949  33.021  35.898  1.00  0.00     0.037 A 
BRANCH  49  63
ATOM     63  C   UNL A   1      43.938  28.283  35.603  1.00  0.00     0.058 A 
ATOM     64  C   UNL A   1      45.298  28.542  35.358  1.00  0.00     0.135 A 
ATOM     65  C   UNL A   1      43.627  27.250  36.504  1.00  0.00     0.135 A 
ATOM     66  F   UNL A   1      45.660  29.508  34.499  1.00  0.00    -0.206 F 
ATOM     67  C   UNL A   1      46.304  27.778  35.940  1.00  0.00     0.059 A 
ATOM     68  C   UNL A   1      44.620  26.499  37.129  1.00  0.00     0.059 A 
ATOM     69  F   UNL A   1      42.348  26.956  36.781  1.00  0.00    -0.206 F 
ATOM     70  C   UNL A   1      45.954  26.756  36.823  1.00  0.00     0.060 A 
BRANCH  70  71
ATOM     71  S   UNL A   1      47.272  25.764  37.555  1.00  0.00     0.124 S 
ATOM     72  O   UNL A   1      47.220  26.192  38.950  1.00  0.00    -0.237 OA
ATOM     73  O   UNL A   1      46.816  24.402  37.293  1.00  0.00    -0.237 OA
ATOM     74  O   UNL A   1      48.462  26.177  36.817  1.00  0.00    -0.744 OA
ENDBRANCH  70  71
ENDBRANCH  49  63
BRANCH  50  75
ATOM     75  C   UNL A   1      36.581  33.116  30.849  1.00  0.00     0.058 A 
ATOM     76  C   UNL A   1      35.246  32.934  31.243  1.00  0.00     0.135 A 
ATOM     77  C   UNL A   1      36.832  34.005  29.792  1.00  0.00     0.135 A 
ATOM     78  F   UNL A   1      34.952  32.089  32.243  1.00  0.00    -0.206 F 
ATOM     79  C   UNL A   1      34.201  33.599  30.609  1.00  0.00     0.059 A 
ATOM     80  C   UNL A   1      35.808  34.706  29.165  1.00  0.00     0.059 A 
ATOM     81  F   UNL A   1      38.091  34.229  29.386  1.00  0.00    -0.206 F 
ATOM     82  C   UNL A   1      34.494  34.491  29.577  1.00  0.00     0.060 A 
BRANCH  82  83
ATOM     83  S   UNL A   1      33.138  35.408  28.814  1.00  0.00     0.124 S 
ATOM     84  O   UNL A   1      33.860  36.392  28.015  1.00  0.00    -0.237 OA
ATOM     85  O   UNL A   1      32.447  34.362  28.068  1.00  0.00    -0.237 OA
ATOM     86  O   UNL A   1      32.404  35.940  29.959  1.00  0.00    -0.744 OA
ENDBRANCH  82  83
ENDBRANCH  50  75
BRANCH  62  87
ATOM     87  C   UNL A   1      39.828  34.083  36.962  1.00  0.00     0.058 A 
ATOM     88  C   UNL A   1      39.024  33.918  38.101  1.00  0.00     0.135 A 
ATOM     89  C   UNL A   1      40.546  35.285  36.841  1.00  0.00     0.135 A 
ATOM     90  F   UNL A   1      38.315  32.791  38.273  1.00  0.00    -0.206 F 
ATOM     91  C   UNL A   1      38.891  34.928  39.051  1.00  0.00     0.059 A 
ATOM     92  C   UNL A   1      40.462  36.290  37.798  1.00  0.00     0.059 A 
ATOM     93  F   UNL A   1      41.344  35.493  35.781  1.00  0.00    -0.206 F 
ATOM     94  C   UNL A   1      39.613  36.112  38.888  1.00  0.00     0.060 A 
BRANCH  94  95
ATOM     95  S   UNL A   1      39.423  37.418  40.120  1.00  0.00     0.124 S 
ATOM     96  O   UNL A   1      38.893  36.674  41.258  1.00  0.00    -0.237 OA
ATOM     97  O   UNL A   1      40.790  37.910  40.263  1.00  0.00    -0.237 OA
ATOM     98  O   UNL A   1      38.490  38.348  39.489  1.00  0.00    -0.744 OA
ENDBRANCH  94  95
ENDBRANCH  62  87
ENDBRANCH  36  37
ENDBRANCH  28  31
ENDBRANCH  26  27
ENDBRANCH  25  26
ENDBRANCH   1  25
TORSDOF 17
ENDMDL
