MODEL 1
REMARK VINA RESULT:     -12.2      0.000      0.000
REMARK SMILES C[C@@H](C(=O)NCCCNC(=O)c1ccc(-c2c3nc(c(-c4c(F)cc(S(=O)(=O)[O-])cc4F)c4ccc([nH]4)c(-c4c(F)cc(S(=O)(=O)[O-])cc4F)c4nc(c(-c5c(F)cc(S(=O)(=O)[O-])cc5F)c5ccc2[nH]5)C=C4)C=C3)cc1)c1ccc(C[C@H]2CCCC2=O)cc1Cl
REMARK SMILES IDX 7 1 6 2 5 3 3 4 4 5 2 7 1 8 78 9 79 10 90 11 80 12 89 13
REMARK SMILES IDX 91 14 81 15 82 16 83 17 84 18 87 19 85 20 86 21 88 22 8 23
REMARK SMILES IDX 9 24 10 25 11 27 12 28 13 29 77 30 14 31 76 32 15 33 16 34
REMARK SMILES IDX 17 35 70 36 18 37 75 38 69 39 71 40 19 41 74 42 68 43 67 44
REMARK SMILES IDX 20 46 54 47 33 48 53 49 34 50 37 51 52 52 72 53 35 54 36 55
REMARK SMILES IDX 51 57 73 58 38 59 21 60 22 61 31 62 23 63 24 64 30 65 32 66
REMARK SMILES IDX 25 67 26 68 27 69 28 70 29 71 55 72 56 73 65 74 57 75 58 76
REMARK SMILES IDX 64 77 66 78 59 79 60 80 61 81 62 82 63 83 39 84 40 85 49 86
REMARK SMILES IDX 41 87 42 88 48 89 50 90 43 91 44 92 45 93 46 94 47 95
REMARK H PARENT 5 6 9 26 71 45 37 56
REMARK Flexibility Score: inf
ROOT
ATOM      1  C   UNL A   1      39.356  22.252  26.500  1.00  0.00     0.042 C 
ENDROOT
BRANCH   1   2
ATOM      2  C   UNL A   1      38.095  23.019  26.113  1.00  0.00     0.117 C 
BRANCH   2   3
ATOM      3  N   UNL A   1      37.781  22.906  24.702  1.00  0.00    -0.356 N 
ATOM      4  C   UNL A   1      36.599  22.668  24.066  1.00  0.00     0.227 C 
ATOM      5  O   UNL A   1      36.605  22.826  22.842  1.00  0.00    -0.274 OA
ATOM      6  H   UNL A   1      38.553  23.019  24.102  1.00  0.00     0.163 HD
BRANCH   4   7
ATOM      7  C   UNL A   1      35.328  22.331  24.863  1.00  0.00     0.107 C 
ATOM      8  C   UNL A   1      34.443  21.240  24.252  1.00  0.00     0.023 C 
BRANCH   7   9
ATOM      9  C   UNL A   1      34.473  23.562  25.177  1.00  0.00    -0.017 A 
ATOM     10  C   UNL A   1      34.559  24.662  24.301  1.00  0.00     0.006 A 
ATOM     11  C   UNL A   1      33.643  23.686  26.307  1.00  0.00     0.045 A 
ATOM     12  C   UNL A   1      33.871  25.850  24.558  1.00  0.00     0.004 A 
ATOM     13  C   UNL A   1      32.953  24.879  26.558  1.00  0.00     0.024 A 
ATOM     14  Cl  UNL A   1      33.446  22.433  27.484  1.00  0.00    -0.084 Cl
ATOM     15  C   UNL A   1      33.081  25.979  25.703  1.00  0.00    -0.046 A 
BRANCH  15  16
ATOM     16  C   UNL A   1      32.420  27.292  26.045  1.00  0.00     0.047 C 
BRANCH  16  17
ATOM     17  C   UNL A   1      31.037  27.522  25.421  1.00  0.00     0.060 C 
ATOM     18  C   UNL A   1      31.009  27.972  23.957  1.00  0.00     0.012 C 
ATOM     19  C   UNL A   1      30.207  26.259  25.378  1.00  0.00     0.136 C 
ATOM     20  C   UNL A   1      30.772  26.714  23.128  1.00  0.00     0.009 C 
ATOM     21  C   UNL A   1      29.857  25.841  23.974  1.00  0.00     0.076 C 
ATOM     22  O   UNL A   1      29.837  25.652  26.377  1.00  0.00    -0.299 OA
ENDBRANCH  16  17
ENDBRANCH  15  16
ENDBRANCH   7   9
ENDBRANCH   4   7
ENDBRANCH   2   3
ENDBRANCH   1   2
BRANCH   1  23
ATOM     23  C   UNL A   1      40.487  23.114  27.059  1.00  0.00     0.118 C 
BRANCH  23  24
ATOM     24  N   UNL A   1      41.102  23.966  26.055  1.00  0.00    -0.352 N 
ATOM     25  C   UNL A   1      41.348  25.314  26.050  1.00  0.00     0.251 C 
ATOM     26  H   UNL A   1      41.392  23.495  25.240  1.00  0.00     0.163 HD
ATOM     27  O   UNL A   1      41.734  25.838  25.004  1.00  0.00    -0.269 OA
BRANCH  25  28
ATOM     28  C   UNL A   1      41.142  26.150  27.256  1.00  0.00     0.039 A 
ATOM     29  C   UNL A   1      42.081  27.147  27.538  1.00  0.00     0.014 A 
ATOM     30  C   UNL A   1      40.079  25.935  28.140  1.00  0.00     0.014 A 
ATOM     31  C   UNL A   1      41.929  27.954  28.668  1.00  0.00     0.010 A 
ATOM     32  C   UNL A   1      39.889  26.789  29.230  1.00  0.00     0.010 A 
ATOM     33  C   UNL A   1      40.814  27.803  29.509  1.00  0.00    -0.014 A 
BRANCH  33  34
ATOM     34  C   UNL A   1      40.617  28.715  30.667  1.00  0.00     0.031 A 
ATOM     35  C   UNL A   1      41.456  28.579  31.909  1.00  0.00     0.074 A 
ATOM     36  C   UNL A   1      39.655  29.658  30.605  1.00  0.00     0.049 A 
ATOM     37  N   UNL A   1      41.437  29.304  32.999  1.00  0.00    -0.248 NA
ATOM     38  C   UNL A   1      42.425  27.474  31.944  1.00  0.00     0.031 C 
ATOM     39  C   UNL A   1      38.732  29.849  29.483  1.00  0.00     0.029 A 
ATOM     40  N   UNL A   1      39.296  30.633  31.499  1.00  0.00    -0.354 N 
ATOM     41  C   UNL A   1      42.385  28.743  33.849  1.00  0.00     0.074 A 
ATOM     42  C   UNL A   1      42.922  27.584  33.168  1.00  0.00     0.031 C 
ATOM     43  C   UNL A   1      37.937  30.899  29.743  1.00  0.00     0.029 A 
ATOM     44  C   UNL A   1      38.274  31.439  31.055  1.00  0.00     0.049 A 
ATOM     45  H   UNL A   1      39.728  30.746  32.377  1.00  0.00     0.167 HD
ATOM     46  C   UNL A   1      42.788  29.168  35.071  1.00  0.00     0.037 A 
ATOM     47  C   UNL A   1      37.679  32.500  31.634  1.00  0.00     0.037 A 
ATOM     48  C   UNL A   1      42.266  30.335  35.736  1.00  0.00     0.049 A 
ATOM     49  C   UNL A   1      38.165  32.970  32.978  1.00  0.00     0.074 A 
ATOM     50  C   UNL A   1      42.651  30.881  36.948  1.00  0.00     0.029 A 
ATOM     51  N   UNL A   1      41.244  31.136  35.246  1.00  0.00    -0.354 N 
ATOM     52  N   UNL A   1      39.111  32.468  33.734  1.00  0.00    -0.248 NA
ATOM     53  C   UNL A   1      37.509  34.158  33.541  1.00  0.00     0.031 C 
ATOM     54  C   UNL A   1      41.839  31.991  37.208  1.00  0.00     0.029 A 
ATOM     55  C   UNL A   1      40.976  32.162  36.138  1.00  0.00     0.049 A 
ATOM     56  H   UNL A   1      40.780  30.996  34.389  1.00  0.00     0.167 HD
ATOM     57  C   UNL A   1      39.177  33.288  34.854  1.00  0.00     0.074 A 
ATOM     58  C   UNL A   1      38.188  34.331  34.666  1.00  0.00     0.031 C 
ATOM     59  C   UNL A   1      39.982  33.187  35.941  1.00  0.00     0.037 A 
BRANCH  46  60
ATOM     60  C   UNL A   1      43.857  28.368  35.766  1.00  0.00     0.058 A 
ATOM     61  C   UNL A   1      45.220  28.634  35.566  1.00  0.00     0.135 A 
ATOM     62  C   UNL A   1      43.516  27.349  36.671  1.00  0.00     0.135 A 
ATOM     63  F   UNL A   1      45.603  29.589  34.703  1.00  0.00    -0.206 F 
ATOM     64  C   UNL A   1      46.210  27.899  36.211  1.00  0.00     0.059 A 
ATOM     65  C   UNL A   1      44.488  26.618  37.347  1.00  0.00     0.059 A 
ATOM     66  F   UNL A   1      42.228  27.054  36.903  1.00  0.00    -0.206 F 
ATOM     67  C   UNL A   1      45.834  26.890  37.099  1.00  0.00     0.060 A 
BRANCH  67  68
ATOM     68  S   UNL A   1      47.127  25.945  37.932  1.00  0.00     0.124 S 
ATOM     69  O   UNL A   1      46.633  24.579  37.779  1.00  0.00    -0.237 OA
ATOM     70  O   UNL A   1      48.313  26.279  37.148  1.00  0.00    -0.237 OA
ATOM     71  O   UNL A   1      47.111  26.471  39.291  1.00  0.00    -0.744 OA
ENDBRANCH  67  68
ENDBRANCH  46  60
BRANCH  47  72
ATOM     72  C   UNL A   1      36.584  33.212  30.926  1.00  0.00     0.058 A 
ATOM     73  C   UNL A   1      36.853  34.026  29.815  1.00  0.00     0.135 A 
ATOM     74  C   UNL A   1      35.248  33.077  31.330  1.00  0.00     0.135 A 
ATOM     75  F   UNL A   1      38.117  34.189  29.395  1.00  0.00    -0.206 F 
ATOM     76  C   UNL A   1      35.838  34.692  29.137  1.00  0.00     0.059 A 
ATOM     77  C   UNL A   1      34.212  33.714  30.654  1.00  0.00     0.059 A 
ATOM     78  F   UNL A   1      34.936  32.295  32.376  1.00  0.00    -0.206 F 
ATOM     79  C   UNL A   1      34.519  34.527  29.563  1.00  0.00     0.060 A 
BRANCH  79  80
ATOM     80  S   UNL A   1      33.200  35.349  28.642  1.00  0.00     0.124 S 
ATOM     81  O   UNL A   1      32.531  34.217  28.015  1.00  0.00    -0.237 OA
ATOM     82  O   UNL A   1      32.458  36.023  29.704  1.00  0.00    -0.237 OA
ATOM     83  O   UNL A   1      33.927  36.237  27.739  1.00  0.00    -0.744 OA
ENDBRANCH  79  80
ENDBRANCH  47  72
BRANCH  59  84
ATOM     84  C   UNL A   1      39.829  34.241  37.002  1.00  0.00     0.058 A 
ATOM     85  C   UNL A   1      40.453  35.493  36.890  1.00  0.00     0.135 A 
ATOM     86  C   UNL A   1      39.042  34.000  38.139  1.00  0.00     0.135 A 
ATOM     87  F   UNL A   1      41.220  35.773  35.824  1.00  0.00    -0.206 F 
ATOM     88  C   UNL A   1      40.333  36.457  37.887  1.00  0.00     0.059 A 
ATOM     89  C   UNL A   1      38.887  34.958  39.137  1.00  0.00     0.059 A 
ATOM     90  F   UNL A   1      38.414  32.822  38.291  1.00  0.00    -0.206 F 
ATOM     91  C   UNL A   1      39.553  36.176  39.010  1.00  0.00     0.060 A 
BRANCH  91  92
ATOM     92  S   UNL A   1      39.406  37.431  40.300  1.00  0.00     0.124 S 
ATOM     93  O   UNL A   1      38.478  38.375  39.685  1.00  0.00    -0.237 OA
ATOM     94  O   UNL A   1      38.879  36.667  41.425  1.00  0.00    -0.237 OA
ATOM     95  O   UNL A   1      40.775  37.911  40.463  1.00  0.00    -0.744 OA
ENDBRANCH  91  92
ENDBRANCH  59  84
ENDBRANCH  33  34
ENDBRANCH  25  28
ENDBRANCH  23  24
ENDBRANCH   1  23
TORSDOF 16
ENDMDL
MODEL 2
REMARK VINA RESULT:     -12.1      3.415      9.488
REMARK SMILES C[C@@H](C(=O)NCCCNC(=O)c1ccc(-c2c3nc(c(-c4c(F)cc(S(=O)(=O)[O-])cc4F)c4ccc([nH]4)c(-c4c(F)cc(S(=O)(=O)[O-])cc4F)c4nc(c(-c5c(F)cc(S(=O)(=O)[O-])cc5F)c5ccc2[nH]5)C=C4)C=C3)cc1)c1ccc(C[C@H]2CCCC2=O)cc1Cl
REMARK SMILES IDX 7 1 6 2 5 3 3 4 4 5 2 7 1 8 78 9 79 10 90 11 80 12 89 13
REMARK SMILES IDX 91 14 81 15 82 16 83 17 84 18 87 19 85 20 86 21 88 22 8 23
REMARK SMILES IDX 9 24 10 25 11 27 12 28 13 29 77 30 14 31 76 32 15 33 16 34
REMARK SMILES IDX 17 35 70 36 18 37 75 38 69 39 71 40 19 41 74 42 68 43 67 44
REMARK SMILES IDX 20 46 54 47 33 48 53 49 34 50 37 51 52 52 72 53 35 54 36 55
REMARK SMILES IDX 51 57 73 58 38 59 21 60 22 61 31 62 23 63 24 64 30 65 32 66
REMARK SMILES IDX 25 67 26 68 27 69 28 70 29 71 55 72 56 73 65 74 57 75 58 76
REMARK SMILES IDX 64 77 66 78 59 79 60 80 61 81 62 82 63 83 39 84 40 85 49 86
REMARK SMILES IDX 41 87 42 88 48 89 50 90 43 91 44 92 45 93 46 94 47 95
REMARK H PARENT 5 6 9 26 71 45 37 56
REMARK Flexibility Score: inf
ROOT
ATOM      1  C   UNL A   1      33.569  27.627  26.618  1.00  0.00     0.042 C 
ENDROOT
BRANCH   1   2
ATOM      2  C   UNL A   1      32.132  27.339  26.194  1.00  0.00     0.117 C 
BRANCH   2   3
ATOM      3  N   UNL A   1      31.596  26.142  26.812  1.00  0.00    -0.356 N 
ATOM      4  C   UNL A   1      31.478  24.868  26.341  1.00  0.00     0.227 C 
ATOM      5  O   UNL A   1      31.162  24.013  27.173  1.00  0.00    -0.274 OA
ATOM      6  H   UNL A   1      31.259  26.272  27.728  1.00  0.00     0.163 HD
BRANCH   4   7
ATOM      7  C   UNL A   1      31.829  24.532  24.881  1.00  0.00     0.107 C 
ATOM      8  C   UNL A   1      30.648  24.547  23.906  1.00  0.00     0.023 C 
BRANCH   7   9
ATOM      9  C   UNL A   1      32.591  23.211  24.737  1.00  0.00    -0.017 A 
ATOM     10  C   UNL A   1      31.864  22.075  24.334  1.00  0.00     0.006 A 
ATOM     11  C   UNL A   1      33.959  23.048  25.026  1.00  0.00     0.045 A 
ATOM     12  C   UNL A   1      32.468  20.818  24.253  1.00  0.00     0.004 A 
ATOM     13  C   UNL A   1      34.560  21.786  24.939  1.00  0.00     0.024 A 
ATOM     14  Cl  UNL A   1      34.981  24.342  25.550  1.00  0.00    -0.084 Cl
ATOM     15  C   UNL A   1      33.817  20.657  24.579  1.00  0.00    -0.046 A 
BRANCH  15  16
ATOM     16  C   UNL A   1      34.452  19.288  24.598  1.00  0.00     0.047 C 
BRANCH  16  17
ATOM     17  C   UNL A   1      33.552  18.131  24.143  1.00  0.00     0.060 C 
ATOM     18  C   UNL A   1      34.222  17.012  23.340  1.00  0.00     0.012 C 
ATOM     19  C   UNL A   1      32.960  17.370  25.308  1.00  0.00     0.136 C 
ATOM     20  C   UNL A   1      34.534  15.899  24.334  1.00  0.00     0.009 C 
ATOM     21  C   UNL A   1      33.393  15.928  25.341  1.00  0.00     0.076 C 
ATOM     22  O   UNL A   1      32.190  17.865  26.125  1.00  0.00    -0.299 OA
ENDBRANCH  16  17
ENDBRANCH  15  16
ENDBRANCH   7   9
ENDBRANCH   4   7
ENDBRANCH   2   3
ENDBRANCH   1   2
BRANCH   1  23
ATOM     23  C   UNL A   1      34.223  28.813  25.910  1.00  0.00     0.118 C 
BRANCH  23  24
ATOM     24  N   UNL A   1      33.757  30.097  26.405  1.00  0.00    -0.352 N 
ATOM     25  C   UNL A   1      34.234  30.898  27.410  1.00  0.00     0.251 C 
ATOM     26  H   UNL A   1      32.965  30.452  25.940  1.00  0.00     0.163 HD
ATOM     27  O   UNL A   1      33.563  31.871  27.755  1.00  0.00    -0.269 OA
BRANCH  25  28
ATOM     28  C   UNL A   1      35.516  30.612  28.096  1.00  0.00     0.039 A 
ATOM     29  C   UNL A   1      35.521  29.653  29.113  1.00  0.00     0.014 A 
ATOM     30  C   UNL A   1      36.693  31.306  27.797  1.00  0.00     0.014 A 
ATOM     31  C   UNL A   1      36.706  29.357  29.791  1.00  0.00     0.010 A 
ATOM     32  C   UNL A   1      37.892  30.958  28.424  1.00  0.00     0.010 A 
ATOM     33  C   UNL A   1      37.911  29.985  29.432  1.00  0.00    -0.014 A 
BRANCH  33  34
ATOM     34  C   UNL A   1      39.184  29.610  30.103  1.00  0.00     0.031 A 
ATOM     35  C   UNL A   1      39.623  30.299  31.367  1.00  0.00     0.074 A 
ATOM     36  C   UNL A   1      39.961  28.656  29.553  1.00  0.00     0.049 A 
ATOM     37  N   UNL A   1      40.687  30.079  32.098  1.00  0.00    -0.248 NA
ATOM     38  C   UNL A   1      38.771  31.390  31.864  1.00  0.00     0.031 C 
ATOM     39  C   UNL A   1      39.679  27.959  28.295  1.00  0.00     0.029 A 
ATOM     40  N   UNL A   1      41.142  28.104  29.979  1.00  0.00    -0.354 N 
ATOM     41  C   UNL A   1      40.635  31.004  33.136  1.00  0.00     0.074 A 
ATOM     42  C   UNL A   1      39.463  31.823  32.909  1.00  0.00     0.031 C 
ATOM     43  C   UNL A   1      40.641  27.050  28.071  1.00  0.00     0.029 A 
ATOM     44  C   UNL A   1      41.620  27.115  29.151  1.00  0.00     0.049 A 
ATOM     45  H   UNL A   1      41.606  28.389  30.800  1.00  0.00     0.167 HD
ATOM     46  C   UNL A   1      41.473  31.143  34.192  1.00  0.00     0.037 A 
ATOM     47  C   UNL A   1      42.717  26.341  29.253  1.00  0.00     0.037 A 
ATOM     48  C   UNL A   1      42.626  30.312  34.427  1.00  0.00     0.049 A 
ATOM     49  C   UNL A   1      43.614  26.494  30.450  1.00  0.00     0.074 A 
ATOM     50  C   UNL A   1      43.502  30.334  35.499  1.00  0.00     0.029 A 
ATOM     51  N   UNL A   1      43.067  29.309  33.575  1.00  0.00    -0.354 N 
ATOM     52  N   UNL A   1      43.509  27.327  31.457  1.00  0.00    -0.248 NA
ATOM     53  C   UNL A   1      44.771  25.592  30.529  1.00  0.00     0.031 C 
ATOM     54  C   UNL A   1      44.492  29.370  35.278  1.00  0.00     0.029 A 
ATOM     55  C   UNL A   1      44.209  28.717  34.089  1.00  0.00     0.049 A 
ATOM     56  H   UNL A   1      42.630  29.055  32.730  1.00  0.00     0.167 HD
ATOM     57  C   UNL A   1      44.577  27.039  32.300  1.00  0.00     0.074 A 
ATOM     58  C   UNL A   1      45.302  25.940  31.693  1.00  0.00     0.031 C 
ATOM     59  C   UNL A   1      44.926  27.631  33.469  1.00  0.00     0.037 A 
BRANCH  46  60
ATOM     60  C   UNL A   1      41.164  32.232  35.185  1.00  0.00     0.058 A 
ATOM     61  C   UNL A   1      40.251  32.032  36.233  1.00  0.00     0.135 A 
ATOM     62  C   UNL A   1      41.813  33.475  35.112  1.00  0.00     0.135 A 
ATOM     63  F   UNL A   1      39.592  30.868  36.343  1.00  0.00    -0.206 F 
ATOM     64  C   UNL A   1      39.967  33.036  37.154  1.00  0.00     0.059 A 
ATOM     65  C   UNL A   1      41.564  34.485  36.037  1.00  0.00     0.059 A 
ATOM     66  F   UNL A   1      42.697  33.719  34.132  1.00  0.00    -0.206 F 
ATOM     67  C   UNL A   1      40.628  34.261  37.046  1.00  0.00     0.060 A 
BRANCH  67  68
ATOM     68  S   UNL A   1      40.253  35.554  38.249  1.00  0.00     0.124 S 
ATOM     69  O   UNL A   1      39.005  35.060  38.826  1.00  0.00    -0.237 OA
ATOM     70  O   UNL A   1      41.417  35.510  39.130  1.00  0.00    -0.237 OA
ATOM     71  O   UNL A   1      40.134  36.755  37.432  1.00  0.00    -0.744 OA
ENDBRANCH  67  68
ENDBRANCH  46  60
BRANCH  47  72
ATOM     72  C   UNL A   1      43.005  25.325  28.207  1.00  0.00     0.058 A 
ATOM     73  C   UNL A   1      43.710  25.667  27.044  1.00  0.00     0.135 A 
ATOM     74  C   UNL A   1      42.603  23.990  28.360  1.00  0.00     0.135 A 
ATOM     75  F   UNL A   1      44.111  26.933  26.852  1.00  0.00    -0.206 F 
ATOM     76  C   UNL A   1      43.995  24.726  26.061  1.00  0.00     0.059 A 
ATOM     77  C   UNL A   1      42.896  23.024  27.401  1.00  0.00     0.059 A 
ATOM     78  F   UNL A   1      41.942  23.607  29.464  1.00  0.00    -0.206 F 
ATOM     79  C   UNL A   1      43.585  23.405  26.250  1.00  0.00     0.060 A 
BRANCH  79  80
ATOM     80  S   UNL A   1      44.009  22.176  24.996  1.00  0.00     0.124 S 
ATOM     81  O   UNL A   1      45.439  22.010  25.220  1.00  0.00    -0.237 OA
ATOM     82  O   UNL A   1      43.166  21.046  25.376  1.00  0.00    -0.237 OA
ATOM     83  O   UNL A   1      43.634  22.832  23.746  1.00  0.00    -0.744 OA
ENDBRANCH  79  80
ENDBRANCH  47  72
BRANCH  59  84
ATOM     84  C   UNL A   1      46.141  27.091  34.170  1.00  0.00     0.058 A 
ATOM     85  C   UNL A   1      47.422  27.612  33.928  1.00  0.00     0.135 A 
ATOM     86  C   UNL A   1      46.023  26.048  35.102  1.00  0.00     0.135 A 
ATOM     87  F   UNL A   1      47.591  28.607  33.043  1.00  0.00    -0.206 F 
ATOM     88  C   UNL A   1      48.549  27.091  34.557  1.00  0.00     0.059 A 
ATOM     89  C   UNL A   1      47.132  25.528  35.762  1.00  0.00     0.059 A 
ATOM     90  F   UNL A   1      44.819  25.521  35.379  1.00  0.00    -0.206 F 
ATOM     91  C   UNL A   1      48.393  26.045  35.467  1.00  0.00     0.060 A 
BRANCH  91  92
ATOM     92  S   UNL A   1      49.862  25.373  36.276  1.00  0.00     0.124 S 
ATOM     93  O   UNL A   1      49.274  24.658  37.404  1.00  0.00    -0.237 OA
ATOM     94  O   UNL A   1      50.445  24.539  35.231  1.00  0.00    -0.237 OA
ATOM     95  O   UNL A   1      50.633  26.565  36.620  1.00  0.00    -0.744 OA
ENDBRANCH  91  92
ENDBRANCH  59  84
ENDBRANCH  33  34
ENDBRANCH  25  28
ENDBRANCH  23  24
ENDBRANCH   1  23
TORSDOF 16
ENDMDL
MODEL 3
REMARK VINA RESULT:     -11.9      3.390      9.200
REMARK SMILES C[C@@H](C(=O)NCCCNC(=O)c1ccc(-c2c3nc(c(-c4c(F)cc(S(=O)(=O)[O-])cc4F)c4ccc([nH]4)c(-c4c(F)cc(S(=O)(=O)[O-])cc4F)c4nc(c(-c5c(F)cc(S(=O)(=O)[O-])cc5F)c5ccc2[nH]5)C=C4)C=C3)cc1)c1ccc(C[C@H]2CCCC2=O)cc1Cl
REMARK SMILES IDX 7 1 6 2 5 3 3 4 4 5 2 7 1 8 78 9 79 10 90 11 80 12 89 13
REMARK SMILES IDX 91 14 81 15 82 16 83 17 84 18 87 19 85 20 86 21 88 22 8 23
REMARK SMILES IDX 9 24 10 25 11 27 12 28 13 29 77 30 14 31 76 32 15 33 16 34
REMARK SMILES IDX 17 35 70 36 18 37 75 38 69 39 71 40 19 41 74 42 68 43 67 44
REMARK SMILES IDX 20 46 54 47 33 48 53 49 34 50 37 51 52 52 72 53 35 54 36 55
REMARK SMILES IDX 51 57 73 58 38 59 21 60 22 61 31 62 23 63 24 64 30 65 32 66
REMARK SMILES IDX 25 67 26 68 27 69 28 70 29 71 55 72 56 73 65 74 57 75 58 76
REMARK SMILES IDX 64 77 66 78 59 79 60 80 61 81 62 82 63 83 39 84 40 85 49 86
REMARK SMILES IDX 41 87 42 88 48 89 50 90 43 91 44 92 45 93 46 94 47 95
REMARK H PARENT 5 6 9 26 71 45 37 56
REMARK Flexibility Score: inf
ROOT
ATOM      1  C   UNL A   1      33.864  27.278  25.669  1.00  0.00     0.042 C 
ENDROOT
BRANCH   1   2
ATOM      2  C   UNL A   1      34.044  25.769  25.800  1.00  0.00     0.117 C 
BRANCH   2   3
ATOM      3  N   UNL A   1      34.663  25.175  24.631  1.00  0.00    -0.356 N 
ATOM      4  C   UNL A   1      34.172  24.304  23.704  1.00  0.00     0.227 C 
ATOM      5  O   UNL A   1      34.872  24.129  22.703  1.00  0.00    -0.274 OA
ATOM      6  H   UNL A   1      35.596  25.448  24.480  1.00  0.00     0.163 HD
BRANCH   4   7
ATOM      7  C   UNL A   1      32.778  23.675  23.874  1.00  0.00     0.107 C 
ATOM      8  C   UNL A   1      32.482  22.485  22.956  1.00  0.00     0.023 C 
BRANCH   7   9
ATOM      9  C   UNL A   1      31.642  24.696  23.766  1.00  0.00    -0.017 A 
ATOM     10  C   UNL A   1      31.624  25.540  22.638  1.00  0.00     0.006 A 
ATOM     11  C   UNL A   1      30.643  24.879  24.740  1.00  0.00     0.045 A 
ATOM     12  C   UNL A   1      30.667  26.549  22.503  1.00  0.00     0.004 A 
ATOM     13  C   UNL A   1      29.684  25.890  24.596  1.00  0.00     0.024 A 
ATOM     14  Cl  UNL A   1      30.541  23.936  26.187  1.00  0.00    -0.084 Cl
ATOM     15  C   UNL A   1      29.703  26.750  23.493  1.00  0.00    -0.046 A 
BRANCH  15  16
ATOM     16  C   UNL A   1      28.732  27.902  23.407  1.00  0.00     0.047 C 
BRANCH  16  17
ATOM     17  C   UNL A   1      29.284  29.192  22.785  1.00  0.00     0.060 C 
ATOM     18  C   UNL A   1      28.281  30.083  22.044  1.00  0.00     0.012 C 
ATOM     19  C   UNL A   1      29.839  30.140  23.824  1.00  0.00     0.136 C 
ATOM     20  C   UNL A   1      27.863  31.168  23.031  1.00  0.00     0.009 C 
ATOM     21  C   UNL A   1      29.104  31.454  23.864  1.00  0.00     0.076 C 
ATOM     22  O   UNL A   1      30.800  29.880  24.540  1.00  0.00    -0.299 OA
ENDBRANCH  16  17
ENDBRANCH  15  16
ENDBRANCH   7   9
ENDBRANCH   4   7
ENDBRANCH   2   3
ENDBRANCH   1   2
BRANCH   1  23
ATOM     23  C   UNL A   1      33.351  27.976  26.927  1.00  0.00     0.118 C 
BRANCH  23  24
ATOM     24  N   UNL A   1      33.330  29.424  26.804  1.00  0.00    -0.352 N 
ATOM     25  C   UNL A   1      34.173  30.380  27.310  1.00  0.00     0.251 C 
ATOM     26  H   UNL A   1      32.585  29.779  26.267  1.00  0.00     0.163 HD
ATOM     27  O   UNL A   1      33.849  31.564  27.205  1.00  0.00    -0.269 OA
BRANCH  25  28
ATOM     28  C   UNL A   1      35.440  30.024  27.989  1.00  0.00     0.039 A 
ATOM     29  C   UNL A   1      36.626  30.087  27.251  1.00  0.00     0.014 A 
ATOM     30  C   UNL A   1      35.476  29.577  29.314  1.00  0.00     0.014 A 
ATOM     31  C   UNL A   1      37.843  29.754  27.850  1.00  0.00     0.010 A 
ATOM     32  C   UNL A   1      36.701  29.313  29.933  1.00  0.00     0.010 A 
ATOM     33  C   UNL A   1      37.896  29.393  29.207  1.00  0.00    -0.014 A 
BRANCH  33  34
ATOM     34  C   UNL A   1      39.203  29.113  29.860  1.00  0.00     0.031 A 
ATOM     35  C   UNL A   1      39.642  29.887  31.074  1.00  0.00     0.074 A 
ATOM     36  C   UNL A   1      40.010  28.168  29.337  1.00  0.00     0.049 A 
ATOM     37  N   UNL A   1      40.734  29.756  31.784  1.00  0.00    -0.248 NA
ATOM     38  C   UNL A   1      38.753  30.963  31.537  1.00  0.00     0.031 C 
ATOM     39  C   UNL A   1      39.728  27.394  28.125  1.00  0.00     0.029 A 
ATOM     40  N   UNL A   1      41.227  27.695  29.756  1.00  0.00    -0.354 N 
ATOM     41  C   UNL A   1      40.666  30.731  32.773  1.00  0.00     0.074 A 
ATOM     42  C   UNL A   1      39.451  31.482  32.538  1.00  0.00     0.031 C 
ATOM     43  C   UNL A   1      40.727  26.520  27.921  1.00  0.00     0.029 A 
ATOM     44  C   UNL A   1      41.729  26.687  28.967  1.00  0.00     0.049 A 
ATOM     45  H   UNL A   1      41.698  28.044  30.548  1.00  0.00     0.167 HD
ATOM     46  C   UNL A   1      41.523  30.964  33.797  1.00  0.00     0.037 A 
ATOM     47  C   UNL A   1      42.864  25.971  29.077  1.00  0.00     0.037 A 
ATOM     48  C   UNL A   1      42.721  30.201  34.040  1.00  0.00     0.049 A 
ATOM     49  C   UNL A   1      43.784  26.228  30.238  1.00  0.00     0.074 A 
ATOM     50  C   UNL A   1      43.622  30.321  35.084  1.00  0.00     0.029 A 
ATOM     51  N   UNL A   1      43.186  29.176  33.229  1.00  0.00    -0.354 N 
ATOM     52  N   UNL A   1      43.667  27.107  31.204  1.00  0.00    -0.248 NA
ATOM     53  C   UNL A   1      44.985  25.386  30.331  1.00  0.00     0.031 C 
ATOM     54  C   UNL A   1      44.651  29.392  34.885  1.00  0.00     0.029 A 
ATOM     55  C   UNL A   1      44.369  28.665  33.740  1.00  0.00     0.049 A 
ATOM     56  H   UNL A   1      42.740  28.857  32.411  1.00  0.00     0.167 HD
ATOM     57  C   UNL A   1      44.769  26.915  32.029  1.00  0.00     0.074 A 
ATOM     58  C   UNL A   1      45.529  25.820  31.459  1.00  0.00     0.031 C 
ATOM     59  C   UNL A   1      45.120  27.583  33.156  1.00  0.00     0.037 A 
BRANCH  46  60
ATOM     60  C   UNL A   1      41.189  32.088  34.740  1.00  0.00     0.058 A 
ATOM     61  C   UNL A   1      40.324  31.899  35.830  1.00  0.00     0.135 A 
ATOM     62  C   UNL A   1      41.766  33.358  34.577  1.00  0.00     0.135 A 
ATOM     63  F   UNL A   1      39.735  30.709  36.027  1.00  0.00    -0.206 F 
ATOM     64  C   UNL A   1      40.017  32.936  36.706  1.00  0.00     0.059 A 
ATOM     65  C   UNL A   1      41.494  34.403  35.455  1.00  0.00     0.059 A 
ATOM     66  F   UNL A   1      42.602  33.594  33.554  1.00  0.00    -0.206 F 
ATOM     67  C   UNL A   1      40.606  34.187  36.509  1.00  0.00     0.060 A 
BRANCH  67  68
ATOM     68  S   UNL A   1      40.202  35.522  37.654  1.00  0.00     0.124 S 
ATOM     69  O   UNL A   1      39.832  36.593  36.732  1.00  0.00    -0.237 OA
ATOM     70  O   UNL A   1      39.105  34.949  38.430  1.00  0.00    -0.237 OA
ATOM     71  O   UNL A   1      41.444  35.728  38.389  1.00  0.00    -0.744 OA
ENDBRANCH  67  68
ENDBRANCH  46  60
BRANCH  47  72
ATOM     72  C   UNL A   1      43.173  24.915  28.078  1.00  0.00     0.058 A 
ATOM     73  C   UNL A   1      43.899  25.213  26.915  1.00  0.00     0.135 A 
ATOM     74  C   UNL A   1      42.770  23.586  28.274  1.00  0.00     0.135 A 
ATOM     75  F   UNL A   1      44.302  26.472  26.681  1.00  0.00    -0.206 F 
ATOM     76  C   UNL A   1      44.202  24.236  25.974  1.00  0.00     0.059 A 
ATOM     77  C   UNL A   1      43.082  22.585  27.360  1.00  0.00     0.059 A 
ATOM     78  F   UNL A   1      42.090  23.246  29.381  1.00  0.00    -0.206 F 
ATOM     79  C   UNL A   1      43.792  22.922  26.208  1.00  0.00     0.060 A 
BRANCH  79  80
ATOM     80  S   UNL A   1      44.240  21.646  25.010  1.00  0.00     0.124 S 
ATOM     81  O   UNL A   1      44.047  22.347  23.748  1.00  0.00    -0.237 OA
ATOM     82  O   UNL A   1      45.623  21.354  25.376  1.00  0.00    -0.237 OA
ATOM     83  O   UNL A   1      43.288  20.575  25.293  1.00  0.00    -0.744 OA
ENDBRANCH  79  80
ENDBRANCH  47  72
BRANCH  59  84
ATOM     84  C   UNL A   1      46.378  27.137  33.848  1.00  0.00     0.058 A 
ATOM     85  C   UNL A   1      47.626  27.702  33.542  1.00  0.00     0.135 A 
ATOM     86  C   UNL A   1      46.334  26.140  34.836  1.00  0.00     0.135 A 
ATOM     87  F   UNL A   1      47.724  28.656  32.602  1.00  0.00    -0.206 F 
ATOM     88  C   UNL A   1      48.792  27.268  34.165  1.00  0.00     0.059 A 
ATOM     89  C   UNL A   1      47.484  25.709  35.490  1.00  0.00     0.059 A 
ATOM     90  F   UNL A   1      45.164  25.575  35.176  1.00  0.00    -0.206 F 
ATOM     91  C   UNL A   1      48.711  26.266  35.132  1.00  0.00     0.060 A 
BRANCH  91  92
ATOM     92  S   UNL A   1      50.231  25.707  35.932  1.00  0.00     0.124 S 
ATOM     93  O   UNL A   1      49.709  25.055  37.128  1.00  0.00    -0.237 OA
ATOM     94  O   UNL A   1      50.809  24.821  34.927  1.00  0.00    -0.237 OA
ATOM     95  O   UNL A   1      50.967  26.947  36.163  1.00  0.00    -0.744 OA
ENDBRANCH  91  92
ENDBRANCH  59  84
ENDBRANCH  33  34
ENDBRANCH  25  28
ENDBRANCH  23  24
ENDBRANCH   1  23
TORSDOF 16
ENDMDL
