MODEL 1
REMARK VINA RESULT:     -10.6      0.000      0.000
REMARK SMILES [NH3+][C@H](Cc1cc(F)c(F)c(F)c1)C(=O)NCCCNC(=O)c1ccc(-c2c3nc(c(-c4c(F)cc(S(=O)(=O)[O-])cc4F)c4ccc([nH]4)c(-c4c(F)cc(S(=O)(=O)[O-])cc4F)c4nc(c(-c5c(F)cc(S(=O)(=O)[O-])cc5F)c5ccc2[nH]5)C=C4)C=C3)cc1
REMARK SMILES IDX 17 1 16 2 15 3 13 4 14 5 2 7 1 8 3 12 4 13 5 14 12 15 6 16
REMARK SMILES IDX 10 17 7 18 8 19 11 20 9 21 18 22 19 23 20 24 21 26 22 27
REMARK SMILES IDX 23 28 87 29 24 30 86 31 25 32 26 33 27 34 80 35 28 36 85 37
REMARK SMILES IDX 79 38 81 39 29 40 84 41 78 42 77 43 30 45 64 46 43 47 63 48
REMARK SMILES IDX 44 49 47 50 62 51 82 52 45 53 46 54 61 56 83 57 48 58 31 59
REMARK SMILES IDX 32 60 41 61 33 62 34 63 40 64 42 65 35 66 36 67 37 68 38 69
REMARK SMILES IDX 39 70 65 71 66 72 75 73 67 74 68 75 74 76 76 77 69 78 70 79
REMARK SMILES IDX 71 80 72 81 73 82 49 83 50 84 59 85 51 86 52 87 58 88 60 89
REMARK SMILES IDX 53 90 54 91 55 92 56 93 57 94
REMARK H PARENT 15 6 1 9 1 10 1 11 19 25 81 44 47 55
REMARK Flexibility Score: inf
ROOT
ATOM      1  C   UNL A   1      34.147  34.161  28.068  1.00  0.00     0.042 C 
ENDROOT
BRANCH   1   2
ATOM      2  C   UNL A   1      32.906  34.495  28.885  1.00  0.00     0.118 C 
BRANCH   2   3
ATOM      3  N   UNL A   1      32.913  35.864  29.352  1.00  0.00    -0.351 N 
ATOM      4  C   UNL A   1      32.951  36.360  30.625  1.00  0.00     0.278 C 
ATOM      5  O   UNL A   1      32.905  37.586  30.755  1.00  0.00    -0.268 OA
ATOM      6  H   UNL A   1      32.887  36.544  28.642  1.00  0.00     0.163 HD
BRANCH   4   7
ATOM      7  C   UNL A   1      33.082  35.429  31.860  1.00  0.00     0.275 C 
BRANCH   7   8
ATOM      8  N   UNL A   1      31.771  35.335  32.541  1.00  0.00    -0.347 N 
ATOM      9  H   UNL A   1      31.601  34.370  32.820  1.00  0.00     0.345 HD
ATOM     10  H   UNL A   1      31.035  35.639  31.904  1.00  0.00     0.345 HD
ATOM     11  H   UNL A   1      31.774  35.933  33.366  1.00  0.00     0.345 HD
ENDBRANCH   7   8
BRANCH   7  12
ATOM     12  C   UNL A   1      34.325  35.746  32.736  1.00  0.00     0.111 C 
BRANCH  12  13
ATOM     13  C   UNL A   1      35.174  34.559  33.154  1.00  0.00    -0.036 A 
ATOM     14  C   UNL A   1      35.185  33.383  32.391  1.00  0.00     0.046 A 
ATOM     15  C   UNL A   1      35.955  34.598  34.322  1.00  0.00     0.046 A 
ATOM     16  C   UNL A   1      35.928  32.277  32.813  1.00  0.00     0.162 A 
ATOM     17  C   UNL A   1      36.668  33.477  34.743  1.00  0.00     0.162 A 
ATOM     18  F   UNL A   1      35.916  31.163  32.069  1.00  0.00    -0.204 F 
ATOM     19  C   UNL A   1      36.654  32.314  33.995  1.00  0.00     0.194 A 
ATOM     20  F   UNL A   1      37.350  33.538  35.894  1.00  0.00    -0.204 F 
ATOM     21  F   UNL A   1      37.328  31.235  34.414  1.00  0.00    -0.200 F 
ENDBRANCH  12  13
ENDBRANCH   7  12
ENDBRANCH   4   7
ENDBRANCH   2   3
ENDBRANCH   1   2
BRANCH   1  22
ATOM     22  C   UNL A   1      34.728  32.799  28.415  1.00  0.00     0.118 C 
BRANCH  22  23
ATOM     23  N   UNL A   1      34.086  31.724  27.668  1.00  0.00    -0.352 N 
ATOM     24  C   UNL A   1      34.559  30.478  27.338  1.00  0.00     0.251 C 
ATOM     25  H   UNL A   1      33.175  31.921  27.351  1.00  0.00     0.163 HD
ATOM     26  O   UNL A   1      33.937  29.789  26.533  1.00  0.00    -0.269 OA
BRANCH  24  27
ATOM     27  C   UNL A   1      35.818  29.982  27.930  1.00  0.00     0.039 A 
ATOM     28  C   UNL A   1      37.007  30.113  27.208  1.00  0.00     0.014 A 
ATOM     29  C   UNL A   1      35.829  29.395  29.198  1.00  0.00     0.014 A 
ATOM     30  C   UNL A   1      38.214  29.720  27.790  1.00  0.00     0.010 A 
ATOM     31  C   UNL A   1      37.040  29.099  29.812  1.00  0.00     0.010 A 
ATOM     32  C   UNL A   1      38.246  29.252  29.113  1.00  0.00    -0.014 A 
BRANCH  32  33
ATOM     33  C   UNL A   1      39.524  28.912  29.788  1.00  0.00     0.031 A 
ATOM     34  C   UNL A   1      39.991  29.724  30.967  1.00  0.00     0.074 A 
ATOM     35  C   UNL A   1      40.297  27.925  29.292  1.00  0.00     0.049 A 
ATOM     36  N   UNL A   1      41.115  29.643  31.631  1.00  0.00    -0.248 NA
ATOM     37  C   UNL A   1      39.093  30.791  31.439  1.00  0.00     0.031 C 
ATOM     38  C   UNL A   1      39.977  27.105  28.122  1.00  0.00     0.029 A 
ATOM     39  N   UNL A   1      41.517  27.451  29.703  1.00  0.00    -0.354 N 
ATOM     40  C   UNL A   1      41.066  30.654  32.584  1.00  0.00     0.074 A 
ATOM     41  C   UNL A   1      39.830  31.375  32.371  1.00  0.00     0.031 C 
ATOM     42  C   UNL A   1      40.960  26.214  27.925  1.00  0.00     0.029 A 
ATOM     43  C   UNL A   1      42.002  26.425  28.925  1.00  0.00     0.049 A 
ATOM     44  H   UNL A   1      42.001  27.811  30.481  1.00  0.00     0.167 HD
ATOM     45  C   UNL A   1      41.956  30.939  33.563  1.00  0.00     0.037 A 
ATOM     46  C   UNL A   1      43.159  25.739  29.003  1.00  0.00     0.037 A 
ATOM     47  C   UNL A   1      43.169  30.196  33.785  1.00  0.00     0.049 A 
ATOM     48  C   UNL A   1      44.132  26.071  30.101  1.00  0.00     0.074 A 
ATOM     49  C   UNL A   1      44.109  30.363  34.786  1.00  0.00     0.029 A 
ATOM     50  N   UNL A   1      43.610  29.145  32.993  1.00  0.00    -0.354 N 
ATOM     51  N   UNL A   1      44.038  26.989  31.035  1.00  0.00    -0.248 NA
ATOM     52  C   UNL A   1      45.362  25.271  30.165  1.00  0.00     0.031 C 
ATOM     53  C   UNL A   1      45.142  29.446  34.572  1.00  0.00     0.029 A 
ATOM     54  C   UNL A   1      44.818  28.667  33.472  1.00  0.00     0.049 A 
ATOM     55  H   UNL A   1      43.134  28.791  32.208  1.00  0.00     0.167 HD
ATOM     56  C   UNL A   1      45.181  26.855  31.815  1.00  0.00     0.074 A 
ATOM     57  C   UNL A   1      45.945  25.762  31.250  1.00  0.00     0.031 C 
ATOM     58  C   UNL A   1      45.561  27.569  32.904  1.00  0.00     0.037 A 
BRANCH  45  59
ATOM     59  C   UNL A   1      41.648  32.097  34.473  1.00  0.00     0.058 A 
ATOM     60  C   UNL A   1      42.105  33.397  34.196  1.00  0.00     0.135 A 
ATOM     61  C   UNL A   1      40.855  31.915  35.618  1.00  0.00     0.135 A 
ATOM     62  F   UNL A   1      42.880  33.627  33.125  1.00  0.00    -0.206 F 
ATOM     63  C   UNL A   1      41.815  34.466  35.036  1.00  0.00     0.059 A 
ATOM     64  C   UNL A   1      40.525  32.977  36.456  1.00  0.00     0.059 A 
ATOM     65  F   UNL A   1      40.392  30.695  35.933  1.00  0.00    -0.206 F 
ATOM     66  C   UNL A   1      41.022  34.246  36.164  1.00  0.00     0.060 A 
BRANCH  66  67
ATOM     67  S   UNL A   1      40.649  35.647  37.239  1.00  0.00     0.124 S 
ATOM     68  O   UNL A   1      41.981  36.200  37.469  1.00  0.00    -0.237 OA
ATOM     69  O   UNL A   1      39.764  36.453  36.404  1.00  0.00    -0.237 OA
ATOM     70  O   UNL A   1      40.019  35.027  38.400  1.00  0.00    -0.744 OA
ENDBRANCH  66  67
ENDBRANCH  45  59
BRANCH  46  71
ATOM     71  C   UNL A   1      43.448  24.655  28.024  1.00  0.00     0.058 A 
ATOM     72  C   UNL A   1      44.206  24.908  26.871  1.00  0.00     0.135 A 
ATOM     73  C   UNL A   1      42.986  23.346  28.228  1.00  0.00     0.135 A 
ATOM     74  F   UNL A   1      44.667  26.145  26.629  1.00  0.00    -0.206 F 
ATOM     75  C   UNL A   1      44.481  23.907  25.945  1.00  0.00     0.059 A 
ATOM     76  C   UNL A   1      43.271  22.322  27.331  1.00  0.00     0.059 A 
ATOM     77  F   UNL A   1      42.274  23.047  29.325  1.00  0.00    -0.206 F 
ATOM     78  C   UNL A   1      44.011  22.615  26.186  1.00  0.00     0.060 A 
BRANCH  78  79
ATOM     79  S   UNL A   1      44.414  21.312  25.002  1.00  0.00     0.124 S 
ATOM     80  O   UNL A   1      44.271  22.016  23.732  1.00  0.00    -0.237 OA
ATOM     81  O   UNL A   1      45.777  20.959  25.388  1.00  0.00    -0.237 OA
ATOM     82  O   UNL A   1      43.409  20.289  25.274  1.00  0.00    -0.744 OA
ENDBRANCH  78  79
ENDBRANCH  46  71
BRANCH  58  83
ATOM     83  C   UNL A   1      46.839  27.167  33.588  1.00  0.00     0.058 A 
ATOM     84  C   UNL A   1      48.071  27.751  33.261  1.00  0.00     0.135 A 
ATOM     85  C   UNL A   1      46.814  26.225  34.631  1.00  0.00     0.135 A 
ATOM     86  F   UNL A   1      48.150  28.651  32.267  1.00  0.00    -0.206 F 
ATOM     87  C   UNL A   1      49.240  27.401  33.928  1.00  0.00     0.059 A 
ATOM     88  C   UNL A   1      47.965  25.884  35.333  1.00  0.00     0.059 A 
ATOM     89  F   UNL A   1      45.658  25.644  34.991  1.00  0.00    -0.206 F 
ATOM     90  C   UNL A   1      49.175  26.470  34.967  1.00  0.00     0.060 A 
BRANCH  90  91
ATOM     91  S   UNL A   1      50.693  26.056  35.853  1.00  0.00     0.124 S 
ATOM     92  O   UNL A   1      51.568  27.160  35.469  1.00  0.00    -0.237 OA
ATOM     93  O   UNL A   1      50.250  26.051  37.243  1.00  0.00    -0.237 OA
ATOM     94  O   UNL A   1      51.057  24.750  35.313  1.00  0.00    -0.744 OA
ENDBRANCH  90  91
ENDBRANCH  58  83
ENDBRANCH  32  33
ENDBRANCH  24  27
ENDBRANCH  22  23
ENDBRANCH   1  22
TORSDOF 16
ENDMDL
MODEL 2
REMARK VINA RESULT:     -10.6      2.587      3.201
REMARK SMILES [NH3+][C@H](Cc1cc(F)c(F)c(F)c1)C(=O)NCCCNC(=O)c1ccc(-c2c3nc(c(-c4c(F)cc(S(=O)(=O)[O-])cc4F)c4ccc([nH]4)c(-c4c(F)cc(S(=O)(=O)[O-])cc4F)c4nc(c(-c5c(F)cc(S(=O)(=O)[O-])cc5F)c5ccc2[nH]5)C=C4)C=C3)cc1
REMARK SMILES IDX 17 1 16 2 15 3 13 4 14 5 2 7 1 8 3 12 4 13 5 14 12 15 6 16
REMARK SMILES IDX 10 17 7 18 8 19 11 20 9 21 18 22 19 23 20 24 21 26 22 27
REMARK SMILES IDX 23 28 87 29 24 30 86 31 25 32 26 33 27 34 80 35 28 36 85 37
REMARK SMILES IDX 79 38 81 39 29 40 84 41 78 42 77 43 30 45 64 46 43 47 63 48
REMARK SMILES IDX 44 49 47 50 62 51 82 52 45 53 46 54 61 56 83 57 48 58 31 59
REMARK SMILES IDX 32 60 41 61 33 62 34 63 40 64 42 65 35 66 36 67 37 68 38 69
REMARK SMILES IDX 39 70 65 71 66 72 75 73 67 74 68 75 74 76 76 77 69 78 70 79
REMARK SMILES IDX 71 80 72 81 73 82 49 83 50 84 59 85 51 86 52 87 58 88 60 89
REMARK SMILES IDX 53 90 54 91 55 92 56 93 57 94
REMARK H PARENT 15 6 1 9 1 10 1 11 19 25 81 44 47 55
REMARK Flexibility Score: inf
ROOT
ATOM      1  C   UNL A   1      33.720  33.590  28.501  1.00  0.00     0.042 C 
ENDROOT
BRANCH   1   2
ATOM      2  C   UNL A   1      34.484  34.497  29.456  1.00  0.00     0.118 C 
BRANCH   2   3
ATOM      3  N   UNL A   1      33.741  35.694  29.782  1.00  0.00    -0.351 N 
ATOM      4  C   UNL A   1      33.174  36.085  30.961  1.00  0.00     0.278 C 
ATOM      5  O   UNL A   1      32.549  37.150  30.963  1.00  0.00    -0.268 OA
ATOM      6  H   UNL A   1      33.626  36.326  29.036  1.00  0.00     0.163 HD
BRANCH   4   7
ATOM      7  C   UNL A   1      33.333  35.251  32.260  1.00  0.00     0.275 C 
BRANCH   7   8
ATOM      8  N   UNL A   1      31.994  34.991  32.839  1.00  0.00    -0.347 N 
ATOM      9  H   UNL A   1      31.285  35.466  32.282  1.00  0.00     0.345 HD
ATOM     10  H   UNL A   1      31.966  35.340  33.796  1.00  0.00     0.345 HD
ATOM     11  H   UNL A   1      31.813  33.987  32.837  1.00  0.00     0.345 HD
ENDBRANCH   7   8
BRANCH   7  12
ATOM     12  C   UNL A   1      34.432  35.799  33.210  1.00  0.00     0.111 C 
BRANCH  12  13
ATOM     13  C   UNL A   1      35.618  34.887  33.466  1.00  0.00    -0.036 A 
ATOM     14  C   UNL A   1      36.538  34.608  32.445  1.00  0.00     0.046 A 
ATOM     15  C   UNL A   1      35.817  34.284  34.719  1.00  0.00     0.046 A 
ATOM     16  C   UNL A   1      37.597  33.724  32.674  1.00  0.00     0.162 A 
ATOM     17  C   UNL A   1      36.861  33.385  34.923  1.00  0.00     0.162 A 
ATOM     18  F   UNL A   1      38.459  33.470  31.681  1.00  0.00    -0.204 F 
ATOM     19  C   UNL A   1      37.750  33.099  33.903  1.00  0.00     0.194 A 
ATOM     20  F   UNL A   1      36.978  32.786  36.116  1.00  0.00    -0.204 F 
ATOM     21  F   UNL A   1      38.743  32.220  34.101  1.00  0.00    -0.200 F 
ENDBRANCH  12  13
ENDBRANCH   7  12
ENDBRANCH   4   7
ENDBRANCH   2   3
ENDBRANCH   1   2
BRANCH   1  22
ATOM     22  C   UNL A   1      34.599  32.507  27.893  1.00  0.00     0.118 C 
BRANCH  22  23
ATOM     23  N   UNL A   1      33.944  31.204  27.896  1.00  0.00    -0.352 N 
ATOM     24  C   UNL A   1      34.487  29.946  27.975  1.00  0.00     0.251 C 
ATOM     25  H   UNL A   1      32.962  31.230  27.831  1.00  0.00     0.163 HD
ATOM     26  O   UNL A   1      33.776  28.967  27.764  1.00  0.00    -0.269 OA
BRANCH  24  27
ATOM     27  C   UNL A   1      35.921  29.776  28.288  1.00  0.00     0.039 A 
ATOM     28  C   UNL A   1      36.293  29.369  29.572  1.00  0.00     0.014 A 
ATOM     29  C   UNL A   1      36.897  30.010  27.316  1.00  0.00     0.014 A 
ATOM     30  C   UNL A   1      37.639  29.128  29.856  1.00  0.00     0.010 A 
ATOM     31  C   UNL A   1      38.221  29.674  27.571  1.00  0.00     0.010 A 
ATOM     32  C   UNL A   1      38.608  29.235  28.845  1.00  0.00    -0.014 A 
BRANCH  32  33
ATOM     33  C   UNL A   1      40.033  28.898  29.095  1.00  0.00     0.031 A 
ATOM     34  C   UNL A   1      40.964  29.940  29.656  1.00  0.00     0.074 A 
ATOM     35  C   UNL A   1      40.501  27.684  28.745  1.00  0.00     0.049 A 
ATOM     36  N   UNL A   1      42.254  29.869  29.860  1.00  0.00    -0.248 NA
ATOM     37  C   UNL A   1      40.375  31.245  30.002  1.00  0.00     0.031 C 
ATOM     38  C   UNL A   1      39.707  26.612  28.142  1.00  0.00     0.029 A 
ATOM     39  N   UNL A   1      41.762  27.150  28.836  1.00  0.00    -0.354 N 
ATOM     40  C   UNL A   1      42.632  31.119  30.338  1.00  0.00     0.074 A 
ATOM     41  C   UNL A   1      41.447  31.947  30.336  1.00  0.00     0.031 C 
ATOM     42  C   UNL A   1      40.492  25.541  27.941  1.00  0.00     0.029 A 
ATOM     43  C   UNL A   1      41.853  25.863  28.358  1.00  0.00     0.049 A 
ATOM     44  H   UNL A   1      42.530  27.642  29.207  1.00  0.00     0.167 HD
ATOM     45  C   UNL A   1      43.849  31.529  30.765  1.00  0.00     0.037 A 
ATOM     46  C   UNL A   1      42.914  25.039  28.259  1.00  0.00     0.037 A 
ATOM     47  C   UNL A   1      45.016  30.687  30.791  1.00  0.00     0.049 A 
ATOM     48  C   UNL A   1      44.256  25.516  28.743  1.00  0.00     0.074 A 
ATOM     49  C   UNL A   1      46.282  30.986  31.262  1.00  0.00     0.029 A 
ATOM     50  N   UNL A   1      45.060  29.380  30.326  1.00  0.00    -0.354 N 
ATOM     51  N   UNL A   1      44.581  26.681  29.254  1.00  0.00    -0.248 NA
ATOM     52  C   UNL A   1      45.374  24.569  28.647  1.00  0.00     0.031 C 
ATOM     53  C   UNL A   1      47.104  29.878  31.037  1.00  0.00     0.029 A 
ATOM     54  C   UNL A   1      46.336  28.866  30.481  1.00  0.00     0.049 A 
ATOM     55  H   UNL A   1      44.297  28.891  29.944  1.00  0.00     0.167 HD
ATOM     56  C   UNL A   1      45.932  26.593  29.570  1.00  0.00     0.074 A 
ATOM     57  C   UNL A   1      46.360  25.260  29.201  1.00  0.00     0.031 C 
ATOM     58  C   UNL A   1      46.744  27.531  30.119  1.00  0.00     0.037 A 
BRANCH  45  59
ATOM     59  C   UNL A   1      43.979  32.950  31.246  1.00  0.00     0.058 A 
ATOM     60  C   UNL A   1      44.285  34.002  30.367  1.00  0.00     0.135 A 
ATOM     61  C   UNL A   1      43.757  33.270  32.596  1.00  0.00     0.135 A 
ATOM     62  F   UNL A   1      44.523  33.753  29.070  1.00  0.00    -0.206 F 
ATOM     63  C   UNL A   1      44.400  35.314  30.814  1.00  0.00     0.059 A 
ATOM     64  C   UNL A   1      43.836  34.581  33.059  1.00  0.00     0.059 A 
ATOM     65  F   UNL A   1      43.463  32.305  33.480  1.00  0.00    -0.206 F 
ATOM     66  C   UNL A   1      44.172  35.594  32.162  1.00  0.00     0.060 A 
BRANCH  66  67
ATOM     67  S   UNL A   1      44.316  37.303  32.722  1.00  0.00     0.124 S 
ATOM     68  O   UNL A   1      45.644  37.298  33.331  1.00  0.00    -0.237 OA
ATOM     69  O   UNL A   1      44.194  38.051  31.476  1.00  0.00    -0.237 OA
ATOM     70  O   UNL A   1      43.202  37.452  33.653  1.00  0.00    -0.744 OA
ENDBRANCH  66  67
ENDBRANCH  45  59
BRANCH  46  71
ATOM     71  C   UNL A   1      42.743  23.670  27.700  1.00  0.00     0.058 A 
ATOM     72  C   UNL A   1      42.536  22.567  28.542  1.00  0.00     0.135 A 
ATOM     73  C   UNL A   1      42.767  23.439  26.316  1.00  0.00     0.135 A 
ATOM     74  F   UNL A   1      42.509  22.736  29.873  1.00  0.00    -0.206 F 
ATOM     75  C   UNL A   1      42.378  21.282  28.035  1.00  0.00     0.059 A 
ATOM     76  C   UNL A   1      42.584  22.167  25.783  1.00  0.00     0.059 A 
ATOM     77  F   UNL A   1      42.942  24.462  25.465  1.00  0.00    -0.206 F 
ATOM     78  C   UNL A   1      42.401  21.093  26.652  1.00  0.00     0.060 A 
BRANCH  78  79
ATOM     79  S   UNL A   1      42.148  19.426  26.002  1.00  0.00     0.124 S 
ATOM     80  O   UNL A   1      42.989  19.446  24.811  1.00  0.00    -0.237 OA
ATOM     81  O   UNL A   1      42.619  18.594  27.105  1.00  0.00    -0.237 OA
ATOM     82  O   UNL A   1      40.709  19.376  25.759  1.00  0.00    -0.744 OA
ENDBRANCH  78  79
ENDBRANCH  46  71
BRANCH  58  83
ATOM     83  C   UNL A   1      48.168  27.139  30.399  1.00  0.00     0.058 A 
ATOM     84  C   UNL A   1      49.200  27.385  29.482  1.00  0.00     0.135 A 
ATOM     85  C   UNL A   1      48.512  26.564  31.635  1.00  0.00     0.135 A 
ATOM     86  F   UNL A   1      48.924  27.926  28.284  1.00  0.00    -0.206 F 
ATOM     87  C   UNL A   1      50.520  27.056  29.768  1.00  0.00     0.059 A 
ATOM     88  C   UNL A   1      49.830  26.256  31.955  1.00  0.00     0.059 A 
ATOM     89  F   UNL A   1      47.564  26.318  32.553  1.00  0.00    -0.206 F 
ATOM     90  C   UNL A   1      50.826  26.496  31.011  1.00  0.00     0.060 A 
BRANCH  90  91
ATOM     91  S   UNL A   1      52.550  26.113  31.386  1.00  0.00     0.124 S 
ATOM     92  O   UNL A   1      52.433  24.782  31.975  1.00  0.00    -0.237 OA
ATOM     93  O   UNL A   1      53.175  26.170  30.069  1.00  0.00    -0.237 OA
ATOM     94  O   UNL A   1      52.942  27.175  32.307  1.00  0.00    -0.744 OA
ENDBRANCH  90  91
ENDBRANCH  58  83
ENDBRANCH  32  33
ENDBRANCH  24  27
ENDBRANCH  22  23
ENDBRANCH   1  22
TORSDOF 16
ENDMDL
MODEL 3
REMARK VINA RESULT:     -10.5      4.424      6.544
REMARK SMILES [NH3+][C@H](Cc1cc(F)c(F)c(F)c1)C(=O)NCCCNC(=O)c1ccc(-c2c3nc(c(-c4c(F)cc(S(=O)(=O)[O-])cc4F)c4ccc([nH]4)c(-c4c(F)cc(S(=O)(=O)[O-])cc4F)c4nc(c(-c5c(F)cc(S(=O)(=O)[O-])cc5F)c5ccc2[nH]5)C=C4)C=C3)cc1
REMARK SMILES IDX 17 1 16 2 15 3 13 4 14 5 2 7 1 8 3 12 4 13 5 14 12 15 6 16
REMARK SMILES IDX 10 17 7 18 8 19 11 20 9 21 18 22 19 23 20 24 21 26 22 27
REMARK SMILES IDX 23 28 87 29 24 30 86 31 25 32 26 33 27 34 80 35 28 36 85 37
REMARK SMILES IDX 79 38 81 39 29 40 84 41 78 42 77 43 30 45 64 46 43 47 63 48
REMARK SMILES IDX 44 49 47 50 62 51 82 52 45 53 46 54 61 56 83 57 48 58 31 59
REMARK SMILES IDX 32 60 41 61 33 62 34 63 40 64 42 65 35 66 36 67 37 68 38 69
REMARK SMILES IDX 39 70 65 71 66 72 75 73 67 74 68 75 74 76 76 77 69 78 70 79
REMARK SMILES IDX 71 80 72 81 73 82 49 83 50 84 59 85 51 86 52 87 58 88 60 89
REMARK SMILES IDX 53 90 54 91 55 92 56 93 57 94
REMARK H PARENT 15 6 1 9 1 10 1 11 19 25 81 44 47 55
REMARK Flexibility Score: inf
ROOT
ATOM      1  C   UNL A   1      33.988  28.128  25.860  1.00  0.00     0.042 C 
ENDROOT
BRANCH   1   2
ATOM      2  C   UNL A   1      33.051  27.183  25.118  1.00  0.00     0.118 C 
BRANCH   2   3
ATOM      3  N   UNL A   1      32.893  25.921  25.807  1.00  0.00    -0.351 N 
ATOM      4  C   UNL A   1      31.759  25.242  26.151  1.00  0.00     0.278 C 
ATOM      5  O   UNL A   1      31.899  24.190  26.782  1.00  0.00    -0.268 OA
ATOM      6  H   UNL A   1      33.735  25.483  26.069  1.00  0.00     0.163 HD
BRANCH   4   7
ATOM      7  C   UNL A   1      30.350  25.745  25.740  1.00  0.00     0.275 C 
BRANCH   7   8
ATOM      8  N   UNL A   1      29.328  25.059  26.563  1.00  0.00    -0.347 N 
ATOM      9  H   UNL A   1      29.138  24.137  26.171  1.00  0.00     0.345 HD
ATOM     10  H   UNL A   1      28.469  25.609  26.567  1.00  0.00     0.345 HD
ATOM     11  H   UNL A   1      29.672  24.959  27.518  1.00  0.00     0.345 HD
ENDBRANCH   7   8
BRANCH   7  12
ATOM     12  C   UNL A   1      30.133  25.772  24.202  1.00  0.00     0.111 C 
BRANCH  12  13
ATOM     13  C   UNL A   1      29.467  27.013  23.638  1.00  0.00    -0.036 A 
ATOM     14  C   UNL A   1      28.085  27.210  23.776  1.00  0.00     0.046 A 
ATOM     15  C   UNL A   1      30.208  27.988  22.947  1.00  0.00     0.046 A 
ATOM     16  C   UNL A   1      27.473  28.329  23.206  1.00  0.00     0.162 A 
ATOM     17  C   UNL A   1      29.578  29.084  22.362  1.00  0.00     0.162 A 
ATOM     18  F   UNL A   1      26.151  28.491  23.348  1.00  0.00    -0.204 F 
ATOM     19  C   UNL A   1      28.212  29.256  22.485  1.00  0.00     0.194 A 
ATOM     20  F   UNL A   1      30.314  29.956  21.660  1.00  0.00    -0.204 F 
ATOM     21  F   UNL A   1      27.610  30.304  21.904  1.00  0.00    -0.200 F 
ENDBRANCH  12  13
ENDBRANCH   7  12
ENDBRANCH   4   7
ENDBRANCH   2   3
ENDBRANCH   1   2
BRANCH   1  22
ATOM     22  C   UNL A   1      33.553  28.374  27.297  1.00  0.00     0.118 C 
BRANCH  22  23
ATOM     23  N   UNL A   1      33.511  29.795  27.620  1.00  0.00    -0.352 N 
ATOM     24  C   UNL A   1      34.466  30.594  28.199  1.00  0.00     0.251 C 
ATOM     25  H   UNL A   1      32.670  30.252  27.389  1.00  0.00     0.163 HD
ATOM     26  O   UNL A   1      34.164  31.727  28.567  1.00  0.00    -0.269 OA
BRANCH  24  27
ATOM     27  C   UNL A   1      35.838  30.085  28.398  1.00  0.00     0.039 A 
ATOM     28  C   UNL A   1      36.746  30.145  27.338  1.00  0.00     0.014 A 
ATOM     29  C   UNL A   1      36.232  29.555  29.629  1.00  0.00     0.014 A 
ATOM     30  C   UNL A   1      38.068  29.740  27.538  1.00  0.00     0.010 A 
ATOM     31  C   UNL A   1      37.568  29.248  29.854  1.00  0.00     0.010 A 
ATOM     32  C   UNL A   1      38.500  29.331  28.810  1.00  0.00    -0.014 A 
BRANCH  32  33
ATOM     33  C   UNL A   1      39.919  28.981  29.074  1.00  0.00     0.031 A 
ATOM     34  C   UNL A   1      40.859  30.018  29.629  1.00  0.00     0.074 A 
ATOM     35  C   UNL A   1      40.376  27.757  28.741  1.00  0.00     0.049 A 
ATOM     36  N   UNL A   1      42.146  29.934  29.843  1.00  0.00    -0.248 NA
ATOM     37  C   UNL A   1      40.282  31.333  29.956  1.00  0.00     0.031 C 
ATOM     38  C   UNL A   1      39.574  26.687  28.144  1.00  0.00     0.029 A 
ATOM     39  N   UNL A   1      41.630  27.209  28.847  1.00  0.00    -0.354 N 
ATOM     40  C   UNL A   1      42.535  31.185  30.310  1.00  0.00     0.074 A 
ATOM     41  C   UNL A   1      41.359  32.027  30.290  1.00  0.00     0.031 C 
ATOM     42  C   UNL A   1      40.347  25.605  27.961  1.00  0.00     0.029 A 
ATOM     43  C   UNL A   1      41.709  25.916  28.384  1.00  0.00     0.049 A 
ATOM     44  H   UNL A   1      42.401  27.697  29.218  1.00  0.00     0.167 HD
ATOM     45  C   UNL A   1      43.754  31.586  30.742  1.00  0.00     0.037 A 
ATOM     46  C   UNL A   1      42.761  25.079  28.303  1.00  0.00     0.037 A 
ATOM     47  C   UNL A   1      44.911  30.731  30.785  1.00  0.00     0.049 A 
ATOM     48  C   UNL A   1      44.105  25.546  28.791  1.00  0.00     0.074 A 
ATOM     49  C   UNL A   1      46.177  31.021  31.262  1.00  0.00     0.029 A 
ATOM     50  N   UNL A   1      44.943  29.419  30.336  1.00  0.00    -0.354 N 
ATOM     51  N   UNL A   1      44.440  26.713  29.291  1.00  0.00    -0.248 NA
ATOM     52  C   UNL A   1      45.213  24.585  28.714  1.00  0.00     0.031 C 
ATOM     53  C   UNL A   1      46.987  29.901  31.056  1.00  0.00     0.029 A 
ATOM     54  C   UNL A   1      46.212  28.892  30.506  1.00  0.00     0.049 A 
ATOM     55  H   UNL A   1      44.177  28.933  29.954  1.00  0.00     0.167 HD
ATOM     56  C   UNL A   1      45.788  26.613  29.618  1.00  0.00     0.074 A 
ATOM     57  C   UNL A   1      46.203  25.271  29.267  1.00  0.00     0.031 C 
ATOM     58  C   UNL A   1      46.606  27.548  30.162  1.00  0.00     0.037 A 
BRANCH  45  59
ATOM     59  C   UNL A   1      43.897  33.010  31.207  1.00  0.00     0.058 A 
ATOM     60  C   UNL A   1      44.134  34.062  30.306  1.00  0.00     0.135 A 
ATOM     61  C   UNL A   1      43.757  33.335  32.567  1.00  0.00     0.135 A 
ATOM     62  F   UNL A   1      44.292  33.809  28.998  1.00  0.00    -0.206 F 
ATOM     63  C   UNL A   1      44.260  35.377  30.739  1.00  0.00     0.059 A 
ATOM     64  C   UNL A   1      43.848  34.649  33.018  1.00  0.00     0.059 A 
ATOM     65  F   UNL A   1      43.530  32.371  33.473  1.00  0.00    -0.206 F 
ATOM     66  C   UNL A   1      44.115  35.661  32.098  1.00  0.00     0.060 A 
BRANCH  66  67
ATOM     67  S   UNL A   1      44.274  37.375  32.641  1.00  0.00     0.124 S 
ATOM     68  O   UNL A   1      44.212  38.089  31.369  1.00  0.00    -0.237 OA
ATOM     69  O   UNL A   1      43.116  37.534  33.514  1.00  0.00    -0.237 OA
ATOM     70  O   UNL A   1      45.570  37.401  33.311  1.00  0.00    -0.744 OA
ENDBRANCH  66  67
ENDBRANCH  45  59
BRANCH  46  71
ATOM     71  C   UNL A   1      42.578  23.706  27.757  1.00  0.00     0.058 A 
ATOM     72  C   UNL A   1      42.599  23.471  26.374  1.00  0.00     0.135 A 
ATOM     73  C   UNL A   1      42.394  22.603  28.604  1.00  0.00     0.135 A 
ATOM     74  F   UNL A   1      42.768  24.494  25.523  1.00  0.00    -0.206 F 
ATOM     75  C   UNL A   1      42.425  22.195  25.849  1.00  0.00     0.059 A 
ATOM     76  C   UNL A   1      42.246  21.313  28.104  1.00  0.00     0.059 A 
ATOM     77  F   UNL A   1      42.386  22.770  29.936  1.00  0.00    -0.206 F 
ATOM     78  C   UNL A   1      42.252  21.121  26.724  1.00  0.00     0.060 A 
BRANCH  78  79
ATOM     79  S   UNL A   1      42.075  19.461  26.032  1.00  0.00     0.124 S 
ATOM     80  O   UNL A   1      42.603  18.636  27.113  1.00  0.00    -0.237 OA
ATOM     81  O   UNL A   1      40.635  19.377  25.808  1.00  0.00    -0.237 OA
ATOM     82  O   UNL A   1      42.888  19.514  24.822  1.00  0.00    -0.744 OA
ENDBRANCH  78  79
ENDBRANCH  46  71
BRANCH  58  83
ATOM     83  C   UNL A   1      48.024  27.143  30.457  1.00  0.00     0.058 A 
ATOM     84  C   UNL A   1      49.087  27.490  29.610  1.00  0.00     0.135 A 
ATOM     85  C   UNL A   1      48.328  26.449  31.641  1.00  0.00     0.135 A 
ATOM     86  F   UNL A   1      48.850  28.147  28.463  1.00  0.00    -0.206 F 
ATOM     87  C   UNL A   1      50.400  27.146  29.914  1.00  0.00     0.059 A 
ATOM     88  C   UNL A   1      49.637  26.122  31.980  1.00  0.00     0.059 A 
ATOM     89  F   UNL A   1      47.349  26.102  32.492  1.00  0.00    -0.206 F 
ATOM     90  C   UNL A   1      50.665  26.466  31.105  1.00  0.00     0.060 A 
BRANCH  90  91
ATOM     91  S   UNL A   1      52.378  26.062  31.507  1.00  0.00     0.124 S 
ATOM     92  O   UNL A   1      52.224  24.784  32.196  1.00  0.00    -0.237 OA
ATOM     93  O   UNL A   1      53.001  26.002  30.189  1.00  0.00    -0.237 OA
ATOM     94  O   UNL A   1      52.803  27.180  32.344  1.00  0.00    -0.744 OA
ENDBRANCH  90  91
ENDBRANCH  58  83
ENDBRANCH  32  33
ENDBRANCH  24  27
ENDBRANCH  22  23
ENDBRANCH   1  22
TORSDOF 16
ENDMDL
