MODEL 1
REMARK VINA RESULT:     -12.0      0.000      0.000
REMARK SMILES C[C@H]1CCCN(C(=O)c2cn(C)nc2C(=O)NCCCNC(=O)c2ccc(-c3c4nc(c(-c5c(F)cc(S(=O)(=O)[O-])cc5F)c5ccc([nH]5)c(-c5c(F)cc(S(=O)(=O)[O-])cc5F)c5nc(c(-c6c(F)cc(S(=O)(=O)[O-])cc6F)c6ccc3[nH]6)C=C5)C=C4)cc2)C1
REMARK SMILES IDX 19 1 18 2 17 3 15 4 16 5 14 7 9 8 10 9 11 10 13 11 12 12
REMARK SMILES IDX 7 13 8 14 6 15 1 16 2 17 3 18 90 19 4 20 5 21 20 22 21 23
REMARK SMILES IDX 22 24 23 26 24 27 25 28 89 29 26 30 88 31 27 32 28 33 29 34
REMARK SMILES IDX 82 35 30 36 87 37 81 38 83 39 31 40 86 41 80 42 79 43 32 45
REMARK SMILES IDX 66 46 45 47 65 48 46 49 49 50 64 51 84 52 47 53 48 54 63 56
REMARK SMILES IDX 85 57 50 58 33 59 34 60 43 61 35 62 36 63 42 64 44 65 37 66
REMARK SMILES IDX 38 67 39 68 40 69 41 70 67 71 68 72 77 73 69 74 70 75 76 76
REMARK SMILES IDX 78 77 71 78 72 79 73 80 74 81 75 82 51 83 52 84 61 85 53 86
REMARK SMILES IDX 54 87 60 88 62 89 55 90 56 91 57 92 58 93 59 94
REMARK H PARENT 17 6 21 25 83 44 49 55
REMARK Flexibility Score: inf
ROOT
ATOM      1  C   UNL A   1      33.550  28.762  27.099  1.00  0.00     0.042 C 
ENDROOT
BRANCH   1   2
ATOM      2  C   UNL A   1      32.992  29.718  26.049  1.00  0.00     0.118 C 
BRANCH   2   3
ATOM      3  N   UNL A   1      33.607  29.501  24.763  1.00  0.00    -0.351 N 
ATOM      4  C   UNL A   1      33.363  28.685  23.690  1.00  0.00     0.272 C 
ATOM      5  O   UNL A   1      34.154  28.891  22.757  1.00  0.00    -0.267 OA
ATOM      6  H   UNL A   1      34.392  30.078  24.622  1.00  0.00     0.163 HD
BRANCH   4   7
ATOM      7  C   UNL A   1      32.291  27.660  23.564  1.00  0.00     0.162 A 
ATOM      8  C   UNL A   1      32.226  26.243  23.321  1.00  0.00     0.091 A 
ATOM      9  C   UNL A   1      30.874  25.926  23.337  1.00  0.00     0.123 A 
ATOM     10  N   UNL A   1      30.215  27.090  23.529  1.00  0.00    -0.274 N 
ATOM     11  N   UNL A   1      31.023  28.137  23.668  1.00  0.00    -0.167 NA
ATOM     12  C   UNL A   1      28.789  27.293  23.591  1.00  0.00     0.173 C 
BRANCH   8  13
ATOM     13  C   UNL A   1      33.238  25.223  23.146  1.00  0.00     0.257 C 
ATOM     14  O   UNL A   1      34.043  25.312  22.222  1.00  0.00    -0.269 OA
BRANCH  13  15
ATOM     15  N   UNL A   1      33.296  24.195  24.085  1.00  0.00    -0.338 N 
ATOM     16  C   UNL A   1      36.045  22.962  23.249  1.00  0.00     0.009 C 
ATOM     17  C   UNL A   1      34.928  22.329  24.081  1.00  0.00     0.005 C 
ATOM     18  C   UNL A   1      35.126  22.568  25.589  1.00  0.00     0.007 C 
ATOM     19  C   UNL A   1      33.550  22.829  23.632  1.00  0.00     0.123 C 
ATOM     20  C   UNL A   1      34.748  23.989  26.029  1.00  0.00     0.022 C 
ATOM     21  C   UNL A   1      33.351  24.368  25.534  1.00  0.00     0.120 C 
ENDBRANCH  13  15
ENDBRANCH   8  13
ENDBRANCH   4   7
ENDBRANCH   2   3
ENDBRANCH   1   2
BRANCH   1  22
ATOM     22  C   UNL A   1      34.981  29.111  27.509  1.00  0.00     0.118 C 
BRANCH  22  23
ATOM     23  N   UNL A   1      34.999  30.215  28.462  1.00  0.00    -0.352 N 
ATOM     24  C   UNL A   1      35.982  30.612  29.338  1.00  0.00     0.251 C 
ATOM     25  H   UNL A   1      34.180  30.761  28.482  1.00  0.00     0.163 HD
ATOM     26  O   UNL A   1      35.691  31.362  30.266  1.00  0.00    -0.269 OA
BRANCH  24  27
ATOM     27  C   UNL A   1      37.381  30.152  29.176  1.00  0.00     0.039 A 
ATOM     28  C   UNL A   1      38.147  29.885  30.316  1.00  0.00     0.014 A 
ATOM     29  C   UNL A   1      37.969  30.066  27.912  1.00  0.00     0.014 A 
ATOM     30  C   UNL A   1      39.481  29.480  30.188  1.00  0.00     0.010 A 
ATOM     31  C   UNL A   1      39.280  29.609  27.782  1.00  0.00     0.010 A 
ATOM     32  C   UNL A   1      40.052  29.315  28.917  1.00  0.00    -0.014 A 
BRANCH  32  33
ATOM     33  C   UNL A   1      41.458  28.872  28.727  1.00  0.00     0.031 A 
ATOM     34  C   UNL A   1      42.567  29.889  28.767  1.00  0.00     0.074 A 
ATOM     35  C   UNL A   1      41.734  27.591  28.419  1.00  0.00     0.049 A 
ATOM     36  N   UNL A   1      43.804  29.780  28.362  1.00  0.00    -0.248 NA
ATOM     37  C   UNL A   1      42.222  31.215  29.305  1.00  0.00     0.031 C 
ATOM     38  C   UNL A   1      40.755  26.504  28.340  1.00  0.00     0.029 A 
ATOM     39  N   UNL A   1      42.923  26.991  28.082  1.00  0.00    -0.354 N 
ATOM     40  C   UNL A   1      44.374  31.035  28.546  1.00  0.00     0.074 A 
ATOM     41  C   UNL A   1      43.343  31.891  29.096  1.00  0.00     0.031 C 
ATOM     42  C   UNL A   1      41.381  25.373  27.974  1.00  0.00     0.029 A 
ATOM     43  C   UNL A   1      42.794  25.664  27.747  1.00  0.00     0.049 A 
ATOM     44  H   UNL A   1      43.785  27.466  28.082  1.00  0.00     0.167 HD
ATOM     45  C   UNL A   1      45.640  31.437  28.278  1.00  0.00     0.037 A 
ATOM     46  C   UNL A   1      43.704  24.787  27.277  1.00  0.00     0.037 A 
ATOM     47  C   UNL A   1      46.675  30.572  27.779  1.00  0.00     0.049 A 
ATOM     48  C   UNL A   1      45.118  25.242  27.042  1.00  0.00     0.074 A 
ATOM     49  C   UNL A   1      47.988  30.884  27.473  1.00  0.00     0.029 A 
ATOM     50  N   UNL A   1      46.520  29.215  27.539  1.00  0.00    -0.354 N 
ATOM     51  N   UNL A   1      45.628  26.442  27.178  1.00  0.00    -0.248 NA
ATOM     52  C   UNL A   1      46.078  24.226  26.584  1.00  0.00     0.031 C 
ATOM     53  C   UNL A   1      48.628  29.713  27.050  1.00  0.00     0.029 A 
ATOM     54  C   UNL A   1      47.717  28.672  27.110  1.00  0.00     0.049 A 
ATOM     55  H   UNL A   1      45.681  28.714  27.657  1.00  0.00     0.167 HD
ATOM     56  C   UNL A   1      46.970  26.323  26.838  1.00  0.00     0.074 A 
ATOM     57  C   UNL A   1      47.197  24.934  26.496  1.00  0.00     0.031 C 
ATOM     58  C   UNL A   1      47.927  27.281  26.804  1.00  0.00     0.037 A 
BRANCH  45  59
ATOM     59  C   UNL A   1      45.970  32.882  28.516  1.00  0.00     0.058 A 
ATOM     60  C   UNL A   1      45.787  33.850  27.518  1.00  0.00     0.135 A 
ATOM     61  C   UNL A   1      46.460  33.304  29.763  1.00  0.00     0.135 A 
ATOM     62  F   UNL A   1      45.338  33.493  26.305  1.00  0.00    -0.206 F 
ATOM     63  C   UNL A   1      46.103  35.187  27.738  1.00  0.00     0.059 A 
ATOM     64  C   UNL A   1      46.764  34.639  30.011  1.00  0.00     0.059 A 
ATOM     65  F   UNL A   1      46.654  32.416  30.750  1.00  0.00    -0.206 F 
ATOM     66  C   UNL A   1      46.599  35.571  28.985  1.00  0.00     0.060 A 
BRANCH  66  67
ATOM     67  S   UNL A   1      47.018  37.305  29.262  1.00  0.00     0.124 S 
ATOM     68  O   UNL A   1      46.383  37.553  30.553  1.00  0.00    -0.237 OA
ATOM     69  O   UNL A   1      48.478  37.282  29.268  1.00  0.00    -0.237 OA
ATOM     70  O   UNL A   1      46.412  37.983  28.121  1.00  0.00    -0.744 OA
ENDBRANCH  66  67
ENDBRANCH  45  59
BRANCH  46  71
ATOM     71  C   UNL A   1      43.301  23.389  26.986  1.00  0.00     0.058 A 
ATOM     72  C   UNL A   1      43.107  22.958  25.667  1.00  0.00     0.135 A 
ATOM     73  C   UNL A   1      43.118  22.455  28.018  1.00  0.00     0.135 A 
ATOM     74  F   UNL A   1      43.266  23.819  24.651  1.00  0.00    -0.206 F 
ATOM     75  C   UNL A   1      42.731  21.651  25.376  1.00  0.00     0.059 A 
ATOM     76  C   UNL A   1      42.759  21.138  27.751  1.00  0.00     0.059 A 
ATOM     77  F   UNL A   1      43.310  22.817  29.295  1.00  0.00    -0.206 F 
ATOM     78  C   UNL A   1      42.559  20.748  26.426  1.00  0.00     0.060 A 
BRANCH  78  79
ATOM     79  S   UNL A   1      42.132  19.033  26.049  1.00  0.00     0.124 S 
ATOM     80  O   UNL A   1      42.919  18.795  24.845  1.00  0.00    -0.237 OA
ATOM     81  O   UNL A   1      42.570  18.328  27.250  1.00  0.00    -0.237 OA
ATOM     82  O   UNL A   1      40.684  19.089  25.862  1.00  0.00    -0.744 OA
ENDBRANCH  78  79
ENDBRANCH  46  71
BRANCH  58  83
ATOM     83  C   UNL A   1      49.315  26.860  26.427  1.00  0.00     0.058 A 
ATOM     84  C   UNL A   1      50.179  26.272  27.362  1.00  0.00     0.135 A 
ATOM     85  C   UNL A   1      49.754  26.974  25.099  1.00  0.00     0.135 A 
ATOM     86  F   UNL A   1      49.803  26.148  28.643  1.00  0.00    -0.206 F 
ATOM     87  C   UNL A   1      51.437  25.807  26.992  1.00  0.00     0.059 A 
ATOM     88  C   UNL A   1      51.003  26.506  24.704  1.00  0.00     0.059 A 
ATOM     89  F   UNL A   1      48.959  27.528  24.169  1.00  0.00    -0.206 F 
ATOM     90  C   UNL A   1      51.838  25.926  25.659  1.00  0.00     0.060 A 
BRANCH  90  91
ATOM     91  S   UNL A   1      53.446  25.264  25.170  1.00  0.00     0.124 S 
ATOM     92  O   UNL A   1      53.527  25.691  23.778  1.00  0.00    -0.237 OA
ATOM     93  O   UNL A   1      54.359  25.935  26.092  1.00  0.00    -0.237 OA
ATOM     94  O   UNL A   1      53.297  23.828  25.382  1.00  0.00    -0.744 OA
ENDBRANCH  90  91
ENDBRANCH  58  83
ENDBRANCH  32  33
ENDBRANCH  24  27
ENDBRANCH  22  23
ENDBRANCH   1  22
TORSDOF 15
ENDMDL
MODEL 2
REMARK VINA RESULT:     -12.0      6.547     11.936
REMARK SMILES C[C@H]1CCCN(C(=O)c2cn(C)nc2C(=O)NCCCNC(=O)c2ccc(-c3c4nc(c(-c5c(F)cc(S(=O)(=O)[O-])cc5F)c5ccc([nH]5)c(-c5c(F)cc(S(=O)(=O)[O-])cc5F)c5nc(c(-c6c(F)cc(S(=O)(=O)[O-])cc6F)c6ccc3[nH]6)C=C5)C=C4)cc2)C1
REMARK SMILES IDX 19 1 18 2 17 3 15 4 16 5 14 7 9 8 10 9 11 10 13 11 12 12
REMARK SMILES IDX 7 13 8 14 6 15 1 16 2 17 3 18 90 19 4 20 5 21 20 22 21 23
REMARK SMILES IDX 22 24 23 26 24 27 25 28 89 29 26 30 88 31 27 32 28 33 29 34
REMARK SMILES IDX 82 35 30 36 87 37 81 38 83 39 31 40 86 41 80 42 79 43 32 45
REMARK SMILES IDX 66 46 45 47 65 48 46 49 49 50 64 51 84 52 47 53 48 54 63 56
REMARK SMILES IDX 85 57 50 58 33 59 34 60 43 61 35 62 36 63 42 64 44 65 37 66
REMARK SMILES IDX 38 67 39 68 40 69 41 70 67 71 68 72 77 73 69 74 70 75 76 76
REMARK SMILES IDX 78 77 71 78 72 79 73 80 74 81 75 82 51 83 52 84 61 85 53 86
REMARK SMILES IDX 54 87 60 88 62 89 55 90 56 91 57 92 58 93 59 94
REMARK H PARENT 17 6 21 25 83 44 49 55
REMARK Flexibility Score: inf
ROOT
ATOM      1  C   UNL A   1      37.194  23.514  25.242  1.00  0.00     0.042 C 
ENDROOT
BRANCH   1   2
ATOM      2  C   UNL A   1      36.836  22.050  25.479  1.00  0.00     0.118 C 
BRANCH   2   3
ATOM      3  N   UNL A   1      35.816  21.916  26.490  1.00  0.00    -0.351 N 
ATOM      4  C   UNL A   1      34.507  21.512  26.507  1.00  0.00     0.272 C 
ATOM      5  O   UNL A   1      34.031  21.518  27.652  1.00  0.00    -0.267 OA
ATOM      6  H   UNL A   1      36.137  22.179  27.382  1.00  0.00     0.163 HD
BRANCH   4   7
ATOM      7  C   UNL A   1      33.681  21.084  25.344  1.00  0.00     0.162 A 
ATOM      8  C   UNL A   1      32.954  21.733  24.286  1.00  0.00     0.091 A 
ATOM      9  C   UNL A   1      32.406  20.706  23.530  1.00  0.00     0.123 A 
ATOM     10  N   UNL A   1      32.758  19.555  24.142  1.00  0.00    -0.274 N 
ATOM     11  N   UNL A   1      33.515  19.741  25.220  1.00  0.00    -0.167 NA
ATOM     12  C   UNL A   1      32.406  18.211  23.759  1.00  0.00     0.173 C 
BRANCH   8  13
ATOM     13  C   UNL A   1      32.785  23.121  23.909  1.00  0.00     0.257 C 
ATOM     14  O   UNL A   1      33.568  23.639  23.116  1.00  0.00    -0.269 OA
BRANCH  13  15
ATOM     15  N   UNL A   1      31.689  23.807  24.425  1.00  0.00    -0.338 N 
ATOM     16  C   UNL A   1      33.222  26.160  25.799  1.00  0.00     0.009 C 
ATOM     17  C   UNL A   1      31.791  25.679  26.047  1.00  0.00     0.005 C 
ATOM     18  C   UNL A   1      30.770  26.426  25.171  1.00  0.00     0.007 C 
ATOM     19  C   UNL A   1      31.673  24.164  25.842  1.00  0.00     0.123 C 
ATOM     20  C   UNL A   1      30.757  25.943  23.715  1.00  0.00     0.022 C 
ATOM     21  C   UNL A   1      30.622  24.420  23.639  1.00  0.00     0.120 C 
ENDBRANCH  13  15
ENDBRANCH   8  13
ENDBRANCH   4   7
ENDBRANCH   2   3
ENDBRANCH   1   2
BRANCH   1  22
ATOM     22  C   UNL A   1      38.087  24.086  26.345  1.00  0.00     0.118 C 
BRANCH  22  23
ATOM     23  N   UNL A   1      39.469  23.648  26.180  1.00  0.00    -0.352 N 
ATOM     24  C   UNL A   1      40.641  24.265  26.546  1.00  0.00     0.251 C 
ATOM     25  H   UNL A   1      39.578  22.775  25.739  1.00  0.00     0.163 HD
ATOM     26  O   UNL A   1      41.698  23.888  26.046  1.00  0.00    -0.269 OA
BRANCH  24  27
ATOM     27  C   UNL A   1      40.648  25.370  27.531  1.00  0.00     0.039 A 
ATOM     28  C   UNL A   1      41.669  26.328  27.475  1.00  0.00     0.014 A 
ATOM     29  C   UNL A   1      39.707  25.423  28.562  1.00  0.00     0.014 A 
ATOM     30  C   UNL A   1      41.713  27.363  28.416  1.00  0.00     0.010 A 
ATOM     31  C   UNL A   1      39.719  26.485  29.464  1.00  0.00     0.010 A 
ATOM     32  C   UNL A   1      40.724  27.464  29.405  1.00  0.00    -0.014 A 
BRANCH  32  33
ATOM     33  C   UNL A   1      40.717  28.554  30.416  1.00  0.00     0.031 A 
ATOM     34  C   UNL A   1      41.659  28.482  31.588  1.00  0.00     0.074 A 
ATOM     35  C   UNL A   1      39.808  29.545  30.346  1.00  0.00     0.049 A 
ATOM     36  N   UNL A   1      41.638  29.154  32.709  1.00  0.00    -0.248 NA
ATOM     37  C   UNL A   1      42.748  27.496  31.496  1.00  0.00     0.031 C 
ATOM     38  C   UNL A   1      38.834  29.731  29.269  1.00  0.00     0.029 A 
ATOM     39  N   UNL A   1      39.537  30.570  31.219  1.00  0.00    -0.354 N 
ATOM     40  C   UNL A   1      42.676  28.639  33.478  1.00  0.00     0.074 A 
ATOM     41  C   UNL A   1      43.303  27.595  32.695  1.00  0.00     0.031 C 
ATOM     42  C   UNL A   1      38.069  30.801  29.547  1.00  0.00     0.029 A 
ATOM     43  C   UNL A   1      38.467  31.346  30.842  1.00  0.00     0.049 A 
ATOM     44  H   UNL A   1      40.060  30.733  32.037  1.00  0.00     0.167 HD
ATOM     45  C   UNL A   1      43.067  29.002  34.723  1.00  0.00     0.037 A 
ATOM     46  C   UNL A   1      37.853  32.362  31.482  1.00  0.00     0.037 A 
ATOM     47  C   UNL A   1      42.474  30.074  35.477  1.00  0.00     0.049 A 
ATOM     48  C   UNL A   1      38.342  32.786  32.839  1.00  0.00     0.074 A 
ATOM     49  C   UNL A   1      42.797  30.518  36.747  1.00  0.00     0.029 A 
ATOM     50  N   UNL A   1      41.451  30.889  35.017  1.00  0.00    -0.354 N 
ATOM     51  N   UNL A   1      39.295  32.260  33.570  1.00  0.00    -0.248 NA
ATOM     52  C   UNL A   1      37.670  33.936  33.460  1.00  0.00     0.031 C 
ATOM     53  C   UNL A   1      41.969  31.604  37.054  1.00  0.00     0.029 A 
ATOM     54  C   UNL A   1      41.145  31.845  35.968  1.00  0.00     0.049 A 
ATOM     55  H   UNL A   1      41.009  30.799  34.142  1.00  0.00     0.167 HD
ATOM     56  C   UNL A   1      39.347  33.022  34.729  1.00  0.00     0.074 A 
ATOM     57  C   UNL A   1      38.336  34.052  34.602  1.00  0.00     0.031 C 
ATOM     58  C   UNL A   1      40.155  32.878  35.808  1.00  0.00     0.037 A 
BRANCH  45  59
ATOM     59  C   UNL A   1      44.190  28.226  35.347  1.00  0.00     0.058 A 
ATOM     60  C   UNL A   1      43.949  27.081  36.120  1.00  0.00     0.135 A 
ATOM     61  C   UNL A   1      45.523  28.624  35.156  1.00  0.00     0.135 A 
ATOM     62  F   UNL A   1      42.691  26.672  36.347  1.00  0.00    -0.206 F 
ATOM     63  C   UNL A   1      44.990  26.369  36.707  1.00  0.00     0.059 A 
ATOM     64  C   UNL A   1      46.581  27.915  35.717  1.00  0.00     0.059 A 
ATOM     65  F   UNL A   1      45.806  29.713  34.425  1.00  0.00    -0.206 F 
ATOM     66  C   UNL A   1      46.303  26.799  36.506  1.00  0.00     0.060 A 
BRANCH  66  67
ATOM     67  S   UNL A   1      47.651  25.878  37.278  1.00  0.00     0.124 S 
ATOM     68  O   UNL A   1      48.813  26.443  36.598  1.00  0.00    -0.237 OA
ATOM     69  O   UNL A   1      47.509  26.228  38.688  1.00  0.00    -0.237 OA
ATOM     70  O   UNL A   1      47.341  24.490  36.948  1.00  0.00    -0.744 OA
ENDBRANCH  66  67
ENDBRANCH  45  59
BRANCH  46  71
ATOM     71  C   UNL A   1      36.698  33.043  30.847  1.00  0.00     0.058 A 
ATOM     72  C   UNL A   1      35.394  32.828  31.315  1.00  0.00     0.135 A 
ATOM     73  C   UNL A   1      36.875  33.931  29.776  1.00  0.00     0.135 A 
ATOM     74  F   UNL A   1      35.178  31.982  32.333  1.00  0.00    -0.206 F 
ATOM     75  C   UNL A   1      34.299  33.459  30.734  1.00  0.00     0.059 A 
ATOM     76  C   UNL A   1      35.798  34.588  29.190  1.00  0.00     0.059 A 
ATOM     77  F   UNL A   1      38.107  34.183  29.307  1.00  0.00    -0.206 F 
ATOM     78  C   UNL A   1      34.512  34.338  29.670  1.00  0.00     0.060 A 
BRANCH  78  79
ATOM     79  S   UNL A   1      33.100  35.207  28.953  1.00  0.00     0.124 S 
ATOM     80  O   UNL A   1      33.741  36.391  28.393  1.00  0.00    -0.237 OA
ATOM     81  O   UNL A   1      32.590  34.238  27.988  1.00  0.00    -0.237 OA
ATOM     82  O   UNL A   1      32.236  35.439  30.108  1.00  0.00    -0.744 OA
ENDBRANCH  78  79
ENDBRANCH  46  71
BRANCH  58  83
ATOM     83  C   UNL A   1      40.015  33.877  36.917  1.00  0.00     0.058 A 
ATOM     84  C   UNL A   1      40.639  35.131  36.854  1.00  0.00     0.135 A 
ATOM     85  C   UNL A   1      39.183  33.605  38.014  1.00  0.00     0.135 A 
ATOM     86  F   UNL A   1      41.447  35.431  35.826  1.00  0.00    -0.206 F 
ATOM     87  C   UNL A   1      40.443  36.087  37.844  1.00  0.00     0.059 A 
ATOM     88  C   UNL A   1      38.963  34.549  39.010  1.00  0.00     0.059 A 
ATOM     89  F   UNL A   1      38.563  32.418  38.114  1.00  0.00    -0.206 F 
ATOM     90  C   UNL A   1      39.600  35.787  38.917  1.00  0.00     0.060 A 
BRANCH  90  91
ATOM     91  S   UNL A   1      39.297  37.055  40.168  1.00  0.00     0.124 S 
ATOM     92  O   UNL A   1      40.649  37.322  40.647  1.00  0.00    -0.237 OA
ATOM     93  O   UNL A   1      38.677  38.125  39.392  1.00  0.00    -0.237 OA
ATOM     94  O   UNL A   1      38.412  36.386  41.117  1.00  0.00    -0.744 OA
ENDBRANCH  90  91
ENDBRANCH  58  83
ENDBRANCH  32  33
ENDBRANCH  24  27
ENDBRANCH  22  23
ENDBRANCH   1  22
TORSDOF 15
ENDMDL
MODEL 3
REMARK VINA RESULT:     -11.8      6.905     12.664
REMARK SMILES C[C@H]1CCCN(C(=O)c2cn(C)nc2C(=O)NCCCNC(=O)c2ccc(-c3c4nc(c(-c5c(F)cc(S(=O)(=O)[O-])cc5F)c5ccc([nH]5)c(-c5c(F)cc(S(=O)(=O)[O-])cc5F)c5nc(c(-c6c(F)cc(S(=O)(=O)[O-])cc6F)c6ccc3[nH]6)C=C5)C=C4)cc2)C1
REMARK SMILES IDX 19 1 18 2 17 3 15 4 16 5 14 7 9 8 10 9 11 10 13 11 12 12
REMARK SMILES IDX 7 13 8 14 6 15 1 16 2 17 3 18 90 19 4 20 5 21 20 22 21 23
REMARK SMILES IDX 22 24 23 26 24 27 25 28 89 29 26 30 88 31 27 32 28 33 29 34
REMARK SMILES IDX 82 35 30 36 87 37 81 38 83 39 31 40 86 41 80 42 79 43 32 45
REMARK SMILES IDX 66 46 45 47 65 48 46 49 49 50 64 51 84 52 47 53 48 54 63 56
REMARK SMILES IDX 85 57 50 58 33 59 34 60 43 61 35 62 36 63 42 64 44 65 37 66
REMARK SMILES IDX 38 67 39 68 40 69 41 70 67 71 68 72 77 73 69 74 70 75 76 76
REMARK SMILES IDX 78 77 71 78 72 79 73 80 74 81 75 82 51 83 52 84 61 85 53 86
REMARK SMILES IDX 54 87 60 88 62 89 55 90 56 91 57 92 58 93 59 94
REMARK H PARENT 17 6 21 25 83 44 49 55
REMARK Flexibility Score: inf
ROOT
ATOM      1  C   UNL A   1      39.912  22.615  27.263  1.00  0.00     0.042 C 
ENDROOT
BRANCH   1   2
ATOM      2  C   UNL A   1      40.177  21.517  26.238  1.00  0.00     0.118 C 
BRANCH   2   3
ATOM      3  N   UNL A   1      40.852  20.392  26.836  1.00  0.00    -0.351 N 
ATOM      4  C   UNL A   1      42.086  19.811  26.702  1.00  0.00     0.272 C 
ATOM      5  O   UNL A   1      42.243  18.863  27.486  1.00  0.00    -0.267 OA
ATOM      6  H   UNL A   1      40.292  19.930  27.500  1.00  0.00     0.163 HD
BRANCH   4   7
ATOM      7  C   UNL A   1      43.175  20.213  25.770  1.00  0.00     0.162 A 
ATOM      8  C   UNL A   1      43.856  21.433  25.427  1.00  0.00     0.091 A 
ATOM      9  C   UNL A   1      44.790  21.077  24.463  1.00  0.00     0.123 A 
ATOM     10  N   UNL A   1      44.619  19.755  24.241  1.00  0.00    -0.274 N 
ATOM     11  N   UNL A   1      43.672  19.211  24.999  1.00  0.00    -0.167 NA
ATOM     12  C   UNL A   1      45.330  18.922  23.304  1.00  0.00     0.173 C 
BRANCH   8  13
ATOM     13  C   UNL A   1      43.762  22.791  25.921  1.00  0.00     0.257 C 
ATOM     14  O   UNL A   1      43.315  23.676  25.196  1.00  0.00    -0.269 OA
BRANCH  13  15
ATOM     15  N   UNL A   1      44.135  23.031  27.241  1.00  0.00    -0.338 N 
ATOM     16  C   UNL A   1      44.720  26.093  27.007  1.00  0.00     0.009 C 
ATOM     17  C   UNL A   1      45.174  25.115  28.091  1.00  0.00     0.005 C 
ATOM     18  C   UNL A   1      44.189  25.063  29.273  1.00  0.00     0.007 C 
ATOM     19  C   UNL A   1      45.398  23.712  27.514  1.00  0.00     0.123 C 
ATOM     20  C   UNL A   1      42.924  24.251  28.967  1.00  0.00     0.022 C 
ATOM     21  C   UNL A   1      43.275  22.869  28.411  1.00  0.00     0.120 C 
ENDBRANCH  13  15
ENDBRANCH   8  13
ENDBRANCH   4   7
ENDBRANCH   2   3
ENDBRANCH   1   2
BRANCH   1  22
ATOM     22  C   UNL A   1      39.360  23.892  26.628  1.00  0.00     0.118 C 
BRANCH  22  23
ATOM     23  N   UNL A   1      40.389  24.579  25.854  1.00  0.00    -0.352 N 
ATOM     24  C   UNL A   1      40.923  25.836  26.012  1.00  0.00     0.251 C 
ATOM     25  H   UNL A   1      40.758  24.062  25.101  1.00  0.00     0.163 HD
ATOM     26  O   UNL A   1      41.544  26.345  25.083  1.00  0.00    -0.269 OA
BRANCH  24  27
ATOM     27  C   UNL A   1      40.763  26.580  27.283  1.00  0.00     0.039 A 
ATOM     28  C   UNL A   1      39.806  26.149  28.209  1.00  0.00     0.014 A 
ATOM     29  C   UNL A   1      41.487  27.748  27.530  1.00  0.00     0.014 A 
ATOM     30  C   UNL A   1      39.615  26.855  29.403  1.00  0.00     0.010 A 
ATOM     31  C   UNL A   1      41.337  28.420  28.742  1.00  0.00     0.010 A 
ATOM     32  C   UNL A   1      40.397  27.984  29.690  1.00  0.00    -0.014 A 
BRANCH  32  33
ATOM     33  C   UNL A   1      40.244  28.759  30.950  1.00  0.00     0.031 A 
ATOM     34  C   UNL A   1      39.220  29.860  31.022  1.00  0.00     0.074 A 
ATOM     35  C   UNL A   1      41.082  28.553  31.983  1.00  0.00     0.049 A 
ATOM     36  N   UNL A   1      39.103  30.824  31.896  1.00  0.00    -0.248 NA
ATOM     37  C   UNL A   1      38.216  29.894  29.947  1.00  0.00     0.031 C 
ATOM     38  C   UNL A   1      42.123  27.525  32.043  1.00  0.00     0.029 A 
ATOM     39  N   UNL A   1      41.208  29.222  33.176  1.00  0.00    -0.354 N 
ATOM     40  C   UNL A   1      38.047  31.612  31.450  1.00  0.00     0.074 A 
ATOM     41  C   UNL A   1      37.561  31.012  30.225  1.00  0.00     0.031 C 
ATOM     42  C   UNL A   1      42.784  27.635  33.208  1.00  0.00     0.029 A 
ATOM     43  C   UNL A   1      42.246  28.769  33.955  1.00  0.00     0.049 A 
ATOM     44  H   UNL A   1      40.611  29.957  33.447  1.00  0.00     0.167 HD
ATOM     45  C   UNL A   1      37.533  32.733  32.010  1.00  0.00     0.037 A 
ATOM     46  C   UNL A   1      42.732  29.233  35.123  1.00  0.00     0.037 A 
ATOM     47  C   UNL A   1      37.985  33.297  33.253  1.00  0.00     0.049 A 
ATOM     48  C   UNL A   1      42.107  30.446  35.756  1.00  0.00     0.074 A 
ATOM     49  C   UNL A   1      37.531  34.432  33.903  1.00  0.00     0.029 A 
ATOM     50  N   UNL A   1      38.980  32.752  34.050  1.00  0.00    -0.354 N 
ATOM     51  N   UNL A   1      41.139  31.204  35.299  1.00  0.00    -0.248 NA
ATOM     52  C   UNL A   1      42.643  30.870  37.058  1.00  0.00     0.031 C 
ATOM     53  C   UNL A   1      38.251  34.570  35.095  1.00  0.00     0.029 A 
ATOM     54  C   UNL A   1      39.139  33.513  35.194  1.00  0.00     0.049 A 
ATOM     55  H   UNL A   1      39.496  31.942  33.833  1.00  0.00     0.167 HD
ATOM     56  C   UNL A   1      40.941  32.184  36.263  1.00  0.00     0.074 A 
ATOM     57  C   UNL A   1      41.881  31.922  37.332  1.00  0.00     0.031 C 
ATOM     58  C   UNL A   1      40.062  33.216  36.259  1.00  0.00     0.037 A 
BRANCH  45  59
ATOM     59  C   UNL A   1      36.422  33.425  31.274  1.00  0.00     0.058 A 
ATOM     60  C   UNL A   1      36.660  34.133  30.087  1.00  0.00     0.135 A 
ATOM     61  C   UNL A   1      35.104  33.365  31.754  1.00  0.00     0.135 A 
ATOM     62  F   UNL A   1      37.905  34.234  29.599  1.00  0.00    -0.206 F 
ATOM     63  C   UNL A   1      35.631  34.783  29.412  1.00  0.00     0.059 A 
ATOM     64  C   UNL A   1      34.056  33.990  31.084  1.00  0.00     0.059 A 
ATOM     65  F   UNL A   1      34.825  32.700  32.886  1.00  0.00    -0.206 F 
ATOM     66  C   UNL A   1      34.334  34.712  29.923  1.00  0.00     0.060 A 
BRANCH  66  67
ATOM     67  S   UNL A   1      33.004  35.565  29.049  1.00  0.00     0.124 S 
ATOM     68  O   UNL A   1      32.476  34.494  28.209  1.00  0.00    -0.237 OA
ATOM     69  O   UNL A   1      32.136  36.002  30.138  1.00  0.00    -0.237 OA
ATOM     70  O   UNL A   1      33.700  36.636  28.342  1.00  0.00    -0.744 OA
ENDBRANCH  66  67
ENDBRANCH  45  59
BRANCH  46  71
ATOM     71  C   UNL A   1      43.882  28.552  35.768  1.00  0.00     0.058 A 
ATOM     72  C   UNL A   1      45.197  28.954  35.496  1.00  0.00     0.135 A 
ATOM     73  C   UNL A   1      43.689  27.501  36.676  1.00  0.00     0.135 A 
ATOM     74  F   UNL A   1      45.427  29.952  34.628  1.00  0.00    -0.206 F 
ATOM     75  C   UNL A   1      46.287  28.329  36.092  1.00  0.00     0.059 A 
ATOM     76  C   UNL A   1      44.763  26.872  37.298  1.00  0.00     0.059 A 
ATOM     77  F   UNL A   1      42.448  27.094  36.982  1.00  0.00    -0.206 F 
ATOM     78  C   UNL A   1      46.060  27.287  36.992  1.00  0.00     0.060 A 
BRANCH  78  79
ATOM     79  S   UNL A   1      47.469  26.513  37.816  1.00  0.00     0.124 S 
ATOM     80  O   UNL A   1      46.915  25.216  38.183  1.00  0.00    -0.237 OA
ATOM     81  O   UNL A   1      48.481  26.502  36.763  1.00  0.00    -0.237 OA
ATOM     82  O   UNL A   1      47.743  27.425  38.923  1.00  0.00    -0.744 OA
ENDBRANCH  78  79
ENDBRANCH  46  71
BRANCH  58  83
ATOM     83  C   UNL A   1      40.041  34.113  37.459  1.00  0.00     0.058 A 
ATOM     84  C   UNL A   1      40.831  35.269  37.521  1.00  0.00     0.135 A 
ATOM     85  C   UNL A   1      39.161  33.853  38.522  1.00  0.00     0.135 A 
ATOM     86  F   UNL A   1      41.690  35.553  36.530  1.00  0.00    -0.206 F 
ATOM     87  C   UNL A   1      40.751  36.143  38.600  1.00  0.00     0.059 A 
ATOM     88  C   UNL A   1      39.056  34.718  39.605  1.00  0.00     0.059 A 
ATOM     89  F   UNL A   1      38.383  32.758  38.503  1.00  0.00    -0.206 F 
ATOM     90  C   UNL A   1      39.857  35.860  39.636  1.00  0.00     0.060 A 
BRANCH  90  91
ATOM     91  S   UNL A   1      39.709  37.031  41.004  1.00  0.00     0.124 S 
ATOM     92  O   UNL A   1      41.021  37.669  40.986  1.00  0.00    -0.237 OA
ATOM     93  O   UNL A   1      38.591  37.870  40.584  1.00  0.00    -0.237 OA
ATOM     94  O   UNL A   1      39.441  36.172  42.153  1.00  0.00    -0.744 OA
ENDBRANCH  90  91
ENDBRANCH  58  83
ENDBRANCH  32  33
ENDBRANCH  24  27
ENDBRANCH  22  23
ENDBRANCH   1  22
TORSDOF 15
ENDMDL
