MODEL 1
REMARK VINA RESULT:     -11.0      0.000      0.000
REMARK SMILES C#CC[N@H+](CC(=O)NCCCNC(=O)c1ccc(-c2c3nc(c(-c4c(F)cc(S(=O)(=O)[O-])cc4F)c4ccc([nH]4)c(-c4c(F)cc(S(=O)(=O)[O-])cc4F)c4nc(c(-c5c(F)cc(S(=O)(=O)[O-])cc5F)c5ccc2[nH]5)C=C4)C=C3)cc1)[C@H](C)c1ccccc1[N+](=O)[O-]
REMARK SMILES IDX 9 1 8 2 6 3 7 4 5 6 4 7 3 9 2 10 1 11 81 12 82 13 83 14
REMARK SMILES IDX 84 15 88 16 85 17 87 18 86 19 89 20 90 21 91 22 10 23 11 24
REMARK SMILES IDX 12 25 13 26 14 28 15 29 16 30 80 31 17 32 79 33 18 34 19 35
REMARK SMILES IDX 20 36 73 37 21 38 78 39 72 40 74 41 22 42 77 43 71 44 70 45
REMARK SMILES IDX 23 47 57 48 36 49 56 50 37 51 40 52 55 53 75 54 38 55 39 56
REMARK SMILES IDX 54 58 76 59 41 60 24 61 25 62 34 63 26 64 27 65 33 66 35 67
REMARK SMILES IDX 28 68 29 69 30 70 31 71 32 72 58 73 59 74 68 75 60 76 61 77
REMARK SMILES IDX 67 78 69 79 62 80 63 81 64 82 65 83 66 84 42 85 43 86 52 87
REMARK SMILES IDX 44 88 45 89 51 90 53 91 46 92 47 93 48 94 49 95 50 96
REMARK H PARENT 8 5 4 8 12 27 74 46 40 57
REMARK Flexibility Score: inf
ROOT
ATOM      1  C   UNL A   1      37.867  22.290  25.002  1.00  0.00     0.118 C 
ENDROOT
BRANCH   1   2
ATOM      2  N   UNL A   1      36.940  22.936  24.096  1.00  0.00    -0.351 N 
ATOM      3  C   UNL A   1      35.681  22.592  23.700  1.00  0.00     0.275 C 
ATOM      4  O   UNL A   1      35.169  23.304  22.829  1.00  0.00    -0.269 OA
ATOM      5  H   UNL A   1      37.279  23.769  23.694  1.00  0.00     0.163 HD
BRANCH   3   6
ATOM      6  C   UNL A   1      34.859  21.493  24.400  1.00  0.00     0.364 C 
BRANCH   6   7
ATOM      7  N   UNL A   1      33.664  21.971  25.166  1.00  0.00    -0.311 N 
ATOM      8  H   UNL A   1      33.041  22.478  24.539  1.00  0.00     0.349 HD
BRANCH   7   9
ATOM      9  C   UNL A   1      32.909  20.822  25.691  1.00  0.00     0.354 C 
BRANCH   9  10
ATOM     10  C   UNL A   1      32.714  19.671  24.807  1.00  0.00    -0.047 C 
ATOM     11  C   UNL A   1      32.446  18.780  24.042  1.00  0.00     0.010 C 
ENDBRANCH   9  10
ENDBRANCH   7   9
BRANCH   7  12
ATOM     12  C   UNL A   1      34.068  22.935  26.231  1.00  0.00     0.220 C 
ATOM     13  C   UNL A   1      33.740  22.350  27.631  1.00  0.00     0.081 C 
BRANCH  12  14
ATOM     14  C   UNL A   1      33.480  24.339  26.003  1.00  0.00     0.087 A 
ATOM     15  C   UNL A   1      34.324  25.427  25.701  1.00  0.00     0.017 A 
ATOM     16  C   UNL A   1      32.106  24.641  26.170  1.00  0.00     0.278 A 
ATOM     17  C   UNL A   1      33.860  26.746  25.742  1.00  0.00     0.001 A 
ATOM     18  C   UNL A   1      31.641  25.964  26.240  1.00  0.00     0.086 A 
ATOM     19  C   UNL A   1      32.533  27.017  26.058  1.00  0.00     0.007 A 
BRANCH  16  20
ATOM     20  N   UNL A   1      31.105  23.587  26.302  1.00  0.00     0.063 N 
ATOM     21  O   UNL A   1      30.714  23.306  27.446  1.00  0.00    -0.258 OA
ATOM     22  O   UNL A   1      30.653  23.110  25.250  1.00  0.00    -0.258 OA
ENDBRANCH  16  20
ENDBRANCH  12  14
ENDBRANCH   7  12
ENDBRANCH   6   7
ENDBRANCH   3   6
ENDBRANCH   1   2
BRANCH   1  23
ATOM     23  C   UNL A   1      37.830  22.970  26.373  1.00  0.00     0.042 C 
BRANCH  23  24
ATOM     24  C   UNL A   1      38.533  24.310  26.394  1.00  0.00     0.118 C 
BRANCH  24  25
ATOM     25  N   UNL A   1      39.952  24.152  26.109  1.00  0.00    -0.352 N 
ATOM     26  C   UNL A   1      41.007  24.957  26.463  1.00  0.00     0.251 C 
ATOM     27  H   UNL A   1      40.190  23.352  25.587  1.00  0.00     0.163 HD
ATOM     28  O   UNL A   1      42.070  24.848  25.857  1.00  0.00    -0.269 OA
BRANCH  26  29
ATOM     29  C   UNL A   1      40.864  25.946  27.555  1.00  0.00     0.039 A 
ATOM     30  C   UNL A   1      39.895  25.738  28.540  1.00  0.00     0.014 A 
ATOM     31  C   UNL A   1      41.653  27.099  27.593  1.00  0.00     0.014 A 
ATOM     32  C   UNL A   1      39.749  26.665  29.575  1.00  0.00     0.010 A 
ATOM     33  C   UNL A   1      41.593  27.952  28.687  1.00  0.00     0.010 A 
ATOM     34  C   UNL A   1      40.617  27.766  29.673  1.00  0.00    -0.014 A 
BRANCH  34  35
ATOM     35  C   UNL A   1      40.490  28.760  30.768  1.00  0.00     0.031 A 
ATOM     36  C   UNL A   1      41.368  28.646  31.988  1.00  0.00     0.074 A 
ATOM     37  C   UNL A   1      39.562  29.732  30.683  1.00  0.00     0.049 A 
ATOM     38  N   UNL A   1      41.374  29.377  33.073  1.00  0.00    -0.248 NA
ATOM     39  C   UNL A   1      42.351  27.548  32.006  1.00  0.00     0.031 C 
ATOM     40  C   UNL A   1      38.629  29.918  29.568  1.00  0.00     0.029 A 
ATOM     41  N   UNL A   1      39.246  30.748  31.549  1.00  0.00    -0.354 N 
ATOM     42  C   UNL A   1      42.351  28.828  33.896  1.00  0.00     0.074 A 
ATOM     43  C   UNL A   1      42.864  27.659  33.222  1.00  0.00     0.031 C 
ATOM     44  C   UNL A   1      37.874  31.001  29.801  1.00  0.00     0.029 A 
ATOM     45  C   UNL A   1      38.227  31.558  31.103  1.00  0.00     0.049 A 
ATOM     46  H   UNL A   1      39.706  30.885  32.409  1.00  0.00     0.167 HD
ATOM     47  C   UNL A   1      42.804  29.277  35.089  1.00  0.00     0.037 A 
ATOM     48  C   UNL A   1      37.638  32.619  31.685  1.00  0.00     0.037 A 
ATOM     49  C   UNL A   1      42.292  30.452  35.747  1.00  0.00     0.049 A 
ATOM     50  C   UNL A   1      38.127  33.071  33.037  1.00  0.00     0.074 A 
ATOM     51  C   UNL A   1      42.700  31.014  36.943  1.00  0.00     0.029 A 
ATOM     52  N   UNL A   1      41.256  31.239  35.267  1.00  0.00    -0.354 N 
ATOM     53  N   UNL A   1      39.093  32.575  33.774  1.00  0.00    -0.248 NA
ATOM     54  C   UNL A   1      37.452  34.230  33.634  1.00  0.00     0.031 C 
ATOM     55  C   UNL A   1      41.871  32.104  37.216  1.00  0.00     0.029 A 
ATOM     56  C   UNL A   1      40.995  32.269  36.155  1.00  0.00     0.049 A 
ATOM     57  H   UNL A   1      40.778  31.090  34.420  1.00  0.00     0.167 HD
ATOM     58  C   UNL A   1      39.166  33.385  34.902  1.00  0.00     0.074 A 
ATOM     59  C   UNL A   1      38.156  34.411  34.742  1.00  0.00     0.031 C 
ATOM     60  C   UNL A   1      39.994  33.292  35.972  1.00  0.00     0.037 A 
BRANCH  47  61
ATOM     61  C   UNL A   1      43.911  28.504  35.757  1.00  0.00     0.058 A 
ATOM     62  C   UNL A   1      45.264  28.805  35.529  1.00  0.00     0.135 A 
ATOM     63  C   UNL A   1      43.618  27.476  36.668  1.00  0.00     0.135 A 
ATOM     64  F   UNL A   1      45.607  29.766  34.656  1.00  0.00    -0.206 F 
ATOM     65  C   UNL A   1      46.285  28.098  36.156  1.00  0.00     0.059 A 
ATOM     66  C   UNL A   1      44.622  26.778  37.334  1.00  0.00     0.059 A 
ATOM     67  F   UNL A   1      42.343  27.141  36.924  1.00  0.00    -0.206 F 
ATOM     68  C   UNL A   1      45.953  27.089  37.061  1.00  0.00     0.060 A 
BRANCH  68  69
ATOM     69  S   UNL A   1      47.292  26.196  37.879  1.00  0.00     0.124 S 
ATOM     70  O   UNL A   1      46.573  25.073  38.473  1.00  0.00    -0.237 OA
ATOM     71  O   UNL A   1      48.171  25.865  36.762  1.00  0.00    -0.237 OA
ATOM     72  O   UNL A   1      47.825  27.171  38.826  1.00  0.00    -0.744 OA
ENDBRANCH  68  69
ENDBRANCH  47  61
BRANCH  48  73
ATOM     73  C   UNL A   1      36.533  33.339  30.993  1.00  0.00     0.058 A 
ATOM     74  C   UNL A   1      35.208  33.237  31.445  1.00  0.00     0.135 A 
ATOM     75  C   UNL A   1      36.774  34.132  29.860  1.00  0.00     0.135 A 
ATOM     76  F   UNL A   1      34.922  32.489  32.521  1.00  0.00    -0.206 F 
ATOM     77  C   UNL A   1      34.160  33.867  30.782  1.00  0.00     0.059 A 
ATOM     78  C   UNL A   1      35.748  34.801  29.201  1.00  0.00     0.059 A 
ATOM     79  F   UNL A   1      38.024  34.280  29.395  1.00  0.00    -0.206 F 
ATOM     80  C   UNL A   1      34.441  34.648  29.661  1.00  0.00     0.060 A 
BRANCH  80  81
ATOM     81  S   UNL A   1      33.076  35.481  28.821  1.00  0.00     0.124 S 
ATOM     82  O   UNL A   1      33.782  36.487  28.037  1.00  0.00    -0.237 OA
ATOM     83  O   UNL A   1      32.473  34.388  28.065  1.00  0.00    -0.237 OA
ATOM     84  O   UNL A   1      32.266  35.993  29.923  1.00  0.00    -0.744 OA
ENDBRANCH  80  81
ENDBRANCH  48  73
BRANCH  60  85
ATOM     85  C   UNL A   1      39.885  34.356  37.031  1.00  0.00     0.058 A 
ATOM     86  C   UNL A   1      40.580  35.572  36.941  1.00  0.00     0.135 A 
ATOM     87  C   UNL A   1      39.025  34.174  38.127  1.00  0.00     0.135 A 
ATOM     88  F   UNL A   1      41.421  35.796  35.919  1.00  0.00    -0.206 F 
ATOM     89  C   UNL A   1      40.448  36.558  37.913  1.00  0.00     0.059 A 
ATOM     90  C   UNL A   1      38.847  35.161  39.090  1.00  0.00     0.059 A 
ATOM     91  F   UNL A   1      38.327  33.035  38.258  1.00  0.00    -0.206 F 
ATOM     92  C   UNL A   1      39.573  36.346  38.982  1.00  0.00     0.060 A 
BRANCH  92  93
ATOM     93  S   UNL A   1      39.382  37.651  40.212  1.00  0.00     0.124 S 
ATOM     94  O   UNL A   1      40.674  38.324  40.132  1.00  0.00    -0.237 OA
ATOM     95  O   UNL A   1      38.243  38.402  39.693  1.00  0.00    -0.237 OA
ATOM     96  O   UNL A   1      39.131  36.920  41.450  1.00  0.00    -0.744 OA
ENDBRANCH  92  93
ENDBRANCH  60  85
ENDBRANCH  34  35
ENDBRANCH  26  29
ENDBRANCH  24  25
ENDBRANCH  23  24
ENDBRANCH   1  23
TORSDOF 19
ENDMDL
MODEL 2
REMARK VINA RESULT:     -10.9      1.087      2.267
REMARK SMILES C#CC[N@H+](CC(=O)NCCCNC(=O)c1ccc(-c2c3nc(c(-c4c(F)cc(S(=O)(=O)[O-])cc4F)c4ccc([nH]4)c(-c4c(F)cc(S(=O)(=O)[O-])cc4F)c4nc(c(-c5c(F)cc(S(=O)(=O)[O-])cc5F)c5ccc2[nH]5)C=C4)C=C3)cc1)[C@H](C)c1ccccc1[N+](=O)[O-]
REMARK SMILES IDX 9 1 8 2 6 3 7 4 5 6 4 7 3 9 2 10 1 11 81 12 82 13 83 14
REMARK SMILES IDX 84 15 88 16 85 17 87 18 86 19 89 20 90 21 91 22 10 23 11 24
REMARK SMILES IDX 12 25 13 26 14 28 15 29 16 30 80 31 17 32 79 33 18 34 19 35
REMARK SMILES IDX 20 36 73 37 21 38 78 39 72 40 74 41 22 42 77 43 71 44 70 45
REMARK SMILES IDX 23 47 57 48 36 49 56 50 37 51 40 52 55 53 75 54 38 55 39 56
REMARK SMILES IDX 54 58 76 59 41 60 24 61 25 62 34 63 26 64 27 65 33 66 35 67
REMARK SMILES IDX 28 68 29 69 30 70 31 71 32 72 58 73 59 74 68 75 60 76 61 77
REMARK SMILES IDX 67 78 69 79 62 80 63 81 64 82 65 83 66 84 42 85 43 86 52 87
REMARK SMILES IDX 44 88 45 89 51 90 53 91 46 92 47 93 48 94 49 95 50 96
REMARK H PARENT 8 5 4 8 12 27 74 46 40 57
REMARK Flexibility Score: inf
ROOT
ATOM      1  C   UNL A   1      37.663  22.780  25.731  1.00  0.00     0.118 C 
ENDROOT
BRANCH   1   2
ATOM      2  N   UNL A   1      36.563  22.127  26.408  1.00  0.00    -0.351 N 
ATOM      3  C   UNL A   1      35.237  22.047  26.099  1.00  0.00     0.275 C 
ATOM      4  O   UNL A   1      34.515  21.490  26.934  1.00  0.00    -0.269 OA
ATOM      5  H   UNL A   1      36.817  21.659  27.236  1.00  0.00     0.163 HD
BRANCH   3   6
ATOM      6  C   UNL A   1      34.674  22.465  24.728  1.00  0.00     0.364 C 
BRANCH   6   7
ATOM      7  N   UNL A   1      33.749  23.644  24.742  1.00  0.00    -0.311 N 
ATOM      8  H   UNL A   1      33.291  23.703  25.651  1.00  0.00     0.349 HD
BRANCH   7   9
ATOM      9  C   UNL A   1      34.515  24.888  24.561  1.00  0.00     0.354 C 
BRANCH   9  10
ATOM     10  C   UNL A   1      34.079  26.072  25.306  1.00  0.00    -0.047 C 
ATOM     11  C   UNL A   1      33.681  26.966  26.007  1.00  0.00     0.010 C 
ENDBRANCH   9  10
ENDBRANCH   7   9
BRANCH   7  12
ATOM     12  C   UNL A   1      32.664  23.478  23.731  1.00  0.00     0.220 C 
ATOM     13  C   UNL A   1      33.266  23.482  22.300  1.00  0.00     0.081 C 
BRANCH  12  14
ATOM     14  C   UNL A   1      31.529  24.500  23.918  1.00  0.00     0.087 A 
ATOM     15  C   UNL A   1      31.231  25.430  22.902  1.00  0.00     0.017 A 
ATOM     16  C   UNL A   1      30.794  24.631  25.121  1.00  0.00     0.278 A 
ATOM     17  C   UNL A   1      30.391  26.525  23.135  1.00  0.00     0.001 A 
ATOM     18  C   UNL A   1      29.972  25.743  25.371  1.00  0.00     0.086 A 
ATOM     19  C   UNL A   1      29.801  26.707  24.381  1.00  0.00     0.007 A 
BRANCH  16  20
ATOM     20  N   UNL A   1      30.873  23.626  26.177  1.00  0.00     0.063 N 
ATOM     21  O   UNL A   1      30.796  22.433  25.841  1.00  0.00    -0.258 OA
ATOM     22  O   UNL A   1      31.100  24.037  27.325  1.00  0.00    -0.258 OA
ENDBRANCH  16  20
ENDBRANCH  12  14
ENDBRANCH   7  12
ENDBRANCH   6   7
ENDBRANCH   3   6
ENDBRANCH   1   2
BRANCH   1  23
ATOM     23  C   UNL A   1      38.999  22.313  26.315  1.00  0.00     0.042 C 
BRANCH  23  24
ATOM     24  C   UNL A   1      39.770  23.421  26.999  1.00  0.00     0.118 C 
BRANCH  24  25
ATOM     25  N   UNL A   1      40.792  23.961  26.113  1.00  0.00    -0.352 N 
ATOM     26  C   UNL A   1      41.301  25.234  26.044  1.00  0.00     0.251 C 
ATOM     27  H   UNL A   1      41.171  23.320  25.469  1.00  0.00     0.163 HD
ATOM     28  O   UNL A   1      41.898  25.584  25.029  1.00  0.00    -0.269 OA
BRANCH  26  29
ATOM     29  C   UNL A   1      41.129  26.175  27.175  1.00  0.00     0.039 A 
ATOM     30  C   UNL A   1      40.148  25.913  28.135  1.00  0.00     0.014 A 
ATOM     31  C   UNL A   1      41.901  27.336  27.273  1.00  0.00     0.014 A 
ATOM     32  C   UNL A   1      39.975  26.794  29.206  1.00  0.00     0.010 A 
ATOM     33  C   UNL A   1      41.813  28.141  28.400  1.00  0.00     0.010 A 
ATOM     34  C   UNL A   1      40.825  27.901  29.362  1.00  0.00    -0.014 A 
BRANCH  34  35
ATOM     35  C   UNL A   1      40.668  28.847  30.496  1.00  0.00     0.031 A 
ATOM     36  C   UNL A   1      41.557  28.718  31.706  1.00  0.00     0.074 A 
ATOM     37  C   UNL A   1      39.704  29.786  30.453  1.00  0.00     0.049 A 
ATOM     38  N   UNL A   1      41.543  29.407  32.818  1.00  0.00    -0.248 NA
ATOM     39  C   UNL A   1      42.581  27.659  31.677  1.00  0.00     0.031 C 
ATOM     40  C   UNL A   1      38.759  29.980  29.351  1.00  0.00     0.029 A 
ATOM     41  N   UNL A   1      39.357  30.756  31.359  1.00  0.00    -0.354 N 
ATOM     42  C   UNL A   1      42.545  28.864  33.615  1.00  0.00     0.074 A 
ATOM     43  C   UNL A   1      43.097  27.741  32.893  1.00  0.00     0.031 C 
ATOM     44  C   UNL A   1      37.965  31.025  29.629  1.00  0.00     0.029 A 
ATOM     45  C   UNL A   1      38.306  31.543  30.950  1.00  0.00     0.049 A 
ATOM     46  H   UNL A   1      39.816  30.877  32.221  1.00  0.00     0.167 HD
ATOM     47  C   UNL A   1      42.989  29.283  34.822  1.00  0.00     0.037 A 
ATOM     48  C   UNL A   1      37.681  32.559  31.576  1.00  0.00     0.037 A 
ATOM     49  C   UNL A   1      42.438  30.411  35.528  1.00  0.00     0.049 A 
ATOM     50  C   UNL A   1      38.162  32.976  32.942  1.00  0.00     0.074 A 
ATOM     51  C   UNL A   1      42.832  30.941  36.743  1.00  0.00     0.029 A 
ATOM     52  N   UNL A   1      41.370  31.178  35.083  1.00  0.00    -0.354 N 
ATOM     53  N   UNL A   1      39.150  32.488  33.654  1.00  0.00    -0.248 NA
ATOM     54  C   UNL A   1      37.448  34.086  33.586  1.00  0.00     0.031 C 
ATOM     55  C   UNL A   1      41.965  31.989  37.062  1.00  0.00     0.029 A 
ATOM     56  C   UNL A   1      41.076  32.162  36.012  1.00  0.00     0.049 A 
ATOM     57  H   UNL A   1      40.893  31.043  34.233  1.00  0.00     0.167 HD
ATOM     58  C   UNL A   1      39.199  33.257  34.812  1.00  0.00     0.074 A 
ATOM     59  C   UNL A   1      38.151  34.250  34.697  1.00  0.00     0.031 C 
ATOM     60  C   UNL A   1      40.037  33.154  35.874  1.00  0.00     0.037 A 
BRANCH  47  61
ATOM     61  C   UNL A   1      44.127  28.526  35.454  1.00  0.00     0.058 A 
ATOM     62  C   UNL A   1      43.905  27.407  36.275  1.00  0.00     0.135 A 
ATOM     63  C   UNL A   1      45.459  28.895  35.205  1.00  0.00     0.135 A 
ATOM     64  F   UNL A   1      42.653  27.017  36.564  1.00  0.00    -0.206 F 
ATOM     65  C   UNL A   1      44.958  26.701  36.848  1.00  0.00     0.059 A 
ATOM     66  C   UNL A   1      46.530  28.183  35.739  1.00  0.00     0.059 A 
ATOM     67  F   UNL A   1      45.733  29.958  34.431  1.00  0.00    -0.206 F 
ATOM     68  C   UNL A   1      46.268  27.094  36.570  1.00  0.00     0.060 A 
BRANCH  68  69
ATOM     69  S   UNL A   1      47.620  26.154  37.307  1.00  0.00     0.124 S 
ATOM     70  O   UNL A   1      47.902  26.939  38.505  1.00  0.00    -0.237 OA
ATOM     71  O   UNL A   1      47.004  24.851  37.534  1.00  0.00    -0.237 OA
ATOM     72  O   UNL A   1      48.658  26.184  36.280  1.00  0.00    -0.744 OA
ENDBRANCH  68  69
ENDBRANCH  47  61
BRANCH  48  73
ATOM     73  C   UNL A   1      36.546  33.263  30.917  1.00  0.00     0.058 A 
ATOM     74  C   UNL A   1      36.765  34.151  29.852  1.00  0.00     0.135 A 
ATOM     75  C   UNL A   1      35.222  33.076  31.346  1.00  0.00     0.135 A 
ATOM     76  F   UNL A   1      38.011  34.370  29.406  1.00  0.00    -0.206 F 
ATOM     77  C   UNL A   1      35.719  34.850  29.257  1.00  0.00     0.059 A 
ATOM     78  C   UNL A   1      34.156  33.736  30.744  1.00  0.00     0.059 A 
ATOM     79  F   UNL A   1      34.953  32.225  32.348  1.00  0.00    -0.206 F 
ATOM     80  C   UNL A   1      34.417  34.634  29.710  1.00  0.00     0.060 A 
BRANCH  80  81
ATOM     81  S   UNL A   1      33.065  35.529  28.916  1.00  0.00     0.124 S 
ATOM     82  O   UNL A   1      33.789  36.528  28.138  1.00  0.00    -0.237 OA
ATOM     83  O   UNL A   1      32.410  34.473  28.151  1.00  0.00    -0.237 OA
ATOM     84  O   UNL A   1      32.294  36.045  30.044  1.00  0.00    -0.744 OA
ENDBRANCH  80  81
ENDBRANCH  48  73
BRANCH  60  85
ATOM     85  C   UNL A   1      39.896  34.171  36.974  1.00  0.00     0.058 A 
ATOM     86  C   UNL A   1      40.625  35.370  36.978  1.00  0.00     0.135 A 
ATOM     87  C   UNL A   1      38.971  33.963  38.012  1.00  0.00     0.135 A 
ATOM     88  F   UNL A   1      41.527  35.618  36.016  1.00  0.00    -0.206 F 
ATOM     89  C   UNL A   1      40.463  36.314  37.987  1.00  0.00     0.059 A 
ATOM     90  C   UNL A   1      38.764  34.910  39.008  1.00  0.00     0.059 A 
ATOM     91  F   UNL A   1      38.239  32.839  38.051  1.00  0.00    -0.206 F 
ATOM     92  C   UNL A   1      39.524  36.078  38.995  1.00  0.00     0.060 A 
BRANCH  92  93
ATOM     93  S   UNL A   1      39.297  37.331  40.273  1.00  0.00     0.124 S 
ATOM     94  O   UNL A   1      38.936  36.514  41.426  1.00  0.00    -0.237 OA
ATOM     95  O   UNL A   1      40.613  37.960  40.328  1.00  0.00    -0.237 OA
ATOM     96  O   UNL A   1      38.229  38.172  39.741  1.00  0.00    -0.744 OA
ENDBRANCH  92  93
ENDBRANCH  60  85
ENDBRANCH  34  35
ENDBRANCH  26  29
ENDBRANCH  24  25
ENDBRANCH  23  24
ENDBRANCH   1  23
TORSDOF 19
ENDMDL
MODEL 3
REMARK VINA RESULT:     -10.8      6.436     11.094
REMARK SMILES C#CC[N@H+](CC(=O)NCCCNC(=O)c1ccc(-c2c3nc(c(-c4c(F)cc(S(=O)(=O)[O-])cc4F)c4ccc([nH]4)c(-c4c(F)cc(S(=O)(=O)[O-])cc4F)c4nc(c(-c5c(F)cc(S(=O)(=O)[O-])cc5F)c5ccc2[nH]5)C=C4)C=C3)cc1)[C@H](C)c1ccccc1[N+](=O)[O-]
REMARK SMILES IDX 9 1 8 2 6 3 7 4 5 6 4 7 3 9 2 10 1 11 81 12 82 13 83 14
REMARK SMILES IDX 84 15 88 16 85 17 87 18 86 19 89 20 90 21 91 22 10 23 11 24
REMARK SMILES IDX 12 25 13 26 14 28 15 29 16 30 80 31 17 32 79 33 18 34 19 35
REMARK SMILES IDX 20 36 73 37 21 38 78 39 72 40 74 41 22 42 77 43 71 44 70 45
REMARK SMILES IDX 23 47 57 48 36 49 56 50 37 51 40 52 55 53 75 54 38 55 39 56
REMARK SMILES IDX 54 58 76 59 41 60 24 61 25 62 34 63 26 64 27 65 33 66 35 67
REMARK SMILES IDX 28 68 29 69 30 70 31 71 32 72 58 73 59 74 68 75 60 76 61 77
REMARK SMILES IDX 67 78 69 79 62 80 63 81 64 82 65 83 66 84 42 85 43 86 52 87
REMARK SMILES IDX 44 88 45 89 51 90 53 91 46 92 47 93 48 94 49 95 50 96
REMARK H PARENT 8 5 4 8 12 27 74 46 40 57
REMARK Flexibility Score: inf
ROOT
ATOM      1  C   UNL A   1      37.088  20.536  24.825  1.00  0.00     0.118 C 
ENDROOT
BRANCH   1   2
ATOM      2  N   UNL A   1      35.833  19.859  25.073  1.00  0.00    -0.351 N 
ATOM      3  C   UNL A   1      34.542  20.280  24.942  1.00  0.00     0.275 C 
ATOM      4  O   UNL A   1      33.669  19.493  25.326  1.00  0.00    -0.269 OA
ATOM      5  H   UNL A   1      35.927  18.932  25.393  1.00  0.00     0.163 HD
BRANCH   3   6
ATOM      6  C   UNL A   1      34.160  21.578  24.207  1.00  0.00     0.364 C 
BRANCH   6   7
ATOM      7  N   UNL A   1      33.270  22.513  24.968  1.00  0.00    -0.311 N 
ATOM      8  H   UNL A   1      33.175  22.183  25.928  1.00  0.00     0.349 HD
BRANCH   7   9
ATOM      9  C   UNL A   1      33.878  23.852  25.028  1.00  0.00     0.354 C 
BRANCH   9  10
ATOM     10  C   UNL A   1      35.297  23.942  25.379  1.00  0.00    -0.047 C 
ATOM     11  C   UNL A   1      36.457  24.138  25.637  1.00  0.00     0.010 C 
ENDBRANCH   9  10
ENDBRANCH   7   9
BRANCH   7  12
ATOM     12  C   UNL A   1      31.895  22.525  24.387  1.00  0.00     0.220 C 
ATOM     13  C   UNL A   1      31.937  22.047  22.911  1.00  0.00     0.081 C 
BRANCH  12  14
ATOM     14  C   UNL A   1      31.196  23.885  24.568  1.00  0.00     0.087 A 
ATOM     15  C   UNL A   1      31.080  24.778  23.484  1.00  0.00     0.017 A 
ATOM     16  C   UNL A   1      30.723  24.354  25.818  1.00  0.00     0.278 A 
ATOM     17  C   UNL A   1      30.688  26.108  23.670  1.00  0.00     0.001 A 
ATOM     18  C   UNL A   1      30.356  25.695  26.016  1.00  0.00     0.086 A 
ATOM     19  C   UNL A   1      30.372  26.578  24.941  1.00  0.00     0.007 A 
BRANCH  16  20
ATOM     20  N   UNL A   1      30.616  23.468  26.974  1.00  0.00     0.063 N 
ATOM     21  O   UNL A   1      31.672  23.073  27.495  1.00  0.00    -0.258 OA
ATOM     22  O   UNL A   1      29.474  23.246  27.404  1.00  0.00    -0.258 OA
ENDBRANCH  16  20
ENDBRANCH  12  14
ENDBRANCH   7  12
ENDBRANCH   6   7
ENDBRANCH   3   6
ENDBRANCH   1   2
BRANCH   1  23
ATOM     23  C   UNL A   1      38.263  19.595  25.107  1.00  0.00     0.042 C 
BRANCH  23  24
ATOM     24  C   UNL A   1      39.409  20.272  25.827  1.00  0.00     0.118 C 
BRANCH  24  25
ATOM     25  N   UNL A   1      40.441  19.305  26.176  1.00  0.00    -0.352 N 
ATOM     26  C   UNL A   1      41.790  19.495  26.346  1.00  0.00     0.251 C 
ATOM     27  H   UNL A   1      40.126  18.382  26.307  1.00  0.00     0.163 HD
ATOM     28  O   UNL A   1      42.539  18.522  26.304  1.00  0.00    -0.269 OA
BRANCH  26  29
ATOM     29  C   UNL A   1      42.337  20.853  26.571  1.00  0.00     0.039 A 
ATOM     30  C   UNL A   1      42.468  21.324  27.880  1.00  0.00     0.014 A 
ATOM     31  C   UNL A   1      42.683  21.679  25.500  1.00  0.00     0.014 A 
ATOM     32  C   UNL A   1      42.980  22.604  28.106  1.00  0.00     0.010 A 
ATOM     33  C   UNL A   1      43.308  22.898  25.730  1.00  0.00     0.010 A 
ATOM     34  C   UNL A   1      43.431  23.391  27.033  1.00  0.00    -0.014 A 
BRANCH  34  35
ATOM     35  C   UNL A   1      43.989  24.750  27.248  1.00  0.00     0.031 A 
ATOM     36  C   UNL A   1      43.079  25.874  27.671  1.00  0.00     0.074 A 
ATOM     37  C   UNL A   1      45.297  24.978  27.020  1.00  0.00     0.049 A 
ATOM     38  N   UNL A   1      43.359  27.139  27.857  1.00  0.00    -0.248 NA
ATOM     39  C   UNL A   1      41.660  25.542  27.890  1.00  0.00     0.031 C 
ATOM     40  C   UNL A   1      46.266  23.977  26.569  1.00  0.00     0.029 A 
ATOM     41  N   UNL A   1      46.039  26.127  27.136  1.00  0.00    -0.354 N 
ATOM     42  C   UNL A   1      42.158  27.746  28.207  1.00  0.00     0.074 A 
ATOM     43  C   UNL A   1      41.133  26.731  28.135  1.00  0.00     0.031 C 
ATOM     44  C   UNL A   1      47.478  24.544  26.482  1.00  0.00     0.029 A 
ATOM     45  C   UNL A   1      47.367  25.960  26.817  1.00  0.00     0.049 A 
ATOM     46  H   UNL A   1      45.658  26.989  27.420  1.00  0.00     0.167 HD
ATOM     47  C   UNL A   1      41.935  29.026  28.587  1.00  0.00     0.037 A 
ATOM     48  C   UNL A   1      48.375  26.852  26.786  1.00  0.00     0.037 A 
ATOM     49  C   UNL A   1      42.968  30.027  28.666  1.00  0.00     0.049 A 
ATOM     50  C   UNL A   1      48.092  28.282  27.168  1.00  0.00     0.074 A 
ATOM     51  C   UNL A   1      42.858  31.345  29.069  1.00  0.00     0.029 A 
ATOM     52  N   UNL A   1      44.298  29.820  28.328  1.00  0.00    -0.354 N 
ATOM     53  N   UNL A   1      46.962  28.825  27.553  1.00  0.00    -0.248 NA
ATOM     54  C   UNL A   1      49.222  29.218  27.116  1.00  0.00     0.031 C 
ATOM     55  C   UNL A   1      44.107  31.952  28.917  1.00  0.00     0.029 A 
ATOM     56  C   UNL A   1      45.014  30.994  28.491  1.00  0.00     0.049 A 
ATOM     57  H   UNL A   1      44.676  28.966  28.020  1.00  0.00     0.167 HD
ATOM     58  C   UNL A   1      47.254  30.157  27.827  1.00  0.00     0.074 A 
ATOM     59  C   UNL A   1      48.670  30.332  27.576  1.00  0.00     0.031 C 
ATOM     60  C   UNL A   1      46.428  31.146  28.251  1.00  0.00     0.037 A 
BRANCH  47  61
ATOM     61  C   UNL A   1      40.527  29.415  28.954  1.00  0.00     0.058 A 
ATOM     62  C   UNL A   1      39.530  29.581  27.979  1.00  0.00     0.135 A 
ATOM     63  C   UNL A   1      40.157  29.582  30.298  1.00  0.00     0.135 A 
ATOM     64  F   UNL A   1      39.826  29.451  26.676  1.00  0.00    -0.206 F 
ATOM     65  C   UNL A   1      38.226  29.928  28.321  1.00  0.00     0.059 A 
ATOM     66  C   UNL A   1      38.851  29.895  30.666  1.00  0.00     0.059 A 
ATOM     67  F   UNL A   1      41.069  29.439  31.274  1.00  0.00    -0.206 F 
ATOM     68  C   UNL A   1      37.895  30.078  29.668  1.00  0.00     0.060 A 
BRANCH  68  69
ATOM     69  S   UNL A   1      36.195  30.509  30.091  1.00  0.00     0.124 S 
ATOM     70  O   UNL A   1      36.293  31.956  30.256  1.00  0.00    -0.237 OA
ATOM     71  O   UNL A   1      35.459  30.055  28.916  1.00  0.00    -0.237 OA
ATOM     72  O   UNL A   1      35.945  29.755  31.316  1.00  0.00    -0.744 OA
ENDBRANCH  68  69
ENDBRANCH  47  61
BRANCH  48  73
ATOM     73  C   UNL A   1      49.747  26.422  26.397  1.00  0.00     0.058 A 
ATOM     74  C   UNL A   1      50.205  26.570  25.078  1.00  0.00     0.135 A 
ATOM     75  C   UNL A   1      50.624  25.844  27.328  1.00  0.00     0.135 A 
ATOM     76  F   UNL A   1      49.405  27.113  24.148  1.00  0.00    -0.206 F 
ATOM     77  C   UNL A   1      51.467  26.132  24.690  1.00  0.00     0.059 A 
ATOM     78  C   UNL A   1      51.904  25.431  26.973  1.00  0.00     0.059 A 
ATOM     79  F   UNL A   1      50.246  25.696  28.607  1.00  0.00    -0.206 F 
ATOM     80  C   UNL A   1      52.310  25.565  25.646  1.00  0.00     0.060 A 
BRANCH  80  81
ATOM     81  S   UNL A   1      53.955  25.021  25.136  1.00  0.00     0.124 S 
ATOM     82  O   UNL A   1      54.749  25.339  26.317  1.00  0.00    -0.237 OA
ATOM     83  O   UNL A   1      53.738  23.602  24.873  1.00  0.00    -0.237 OA
ATOM     84  O   UNL A   1      54.227  25.836  23.955  1.00  0.00    -0.744 OA
ENDBRANCH  80  81
ENDBRANCH  48  73
BRANCH  60  85
ATOM     85  C   UNL A   1      47.040  32.495  28.524  1.00  0.00     0.058 A 
ATOM     86  C   UNL A   1      47.583  32.827  29.774  1.00  0.00     0.135 A 
ATOM     87  C   UNL A   1      47.130  33.449  27.496  1.00  0.00     0.135 A 
ATOM     88  F   UNL A   1      47.517  31.956  30.794  1.00  0.00    -0.206 F 
ATOM     89  C   UNL A   1      48.170  34.066  30.004  1.00  0.00     0.059 A 
ATOM     90  C   UNL A   1      47.748  34.679  27.692  1.00  0.00     0.059 A 
ATOM     91  F   UNL A   1      46.637  33.180  26.277  1.00  0.00    -0.206 F 
ATOM     92  C   UNL A   1      48.254  34.984  28.954  1.00  0.00     0.060 A 
BRANCH  92  93
ATOM     93  S   UNL A   1      49.056  36.572  29.258  1.00  0.00     0.124 S 
ATOM     94  O   UNL A   1      49.015  37.181  27.932  1.00  0.00    -0.237 OA
ATOM     95  O   UNL A   1      48.181  37.174  30.259  1.00  0.00    -0.237 OA
ATOM     96  O   UNL A   1      50.384  36.199  29.736  1.00  0.00    -0.744 OA
ENDBRANCH  92  93
ENDBRANCH  60  85
ENDBRANCH  34  35
ENDBRANCH  26  29
ENDBRANCH  24  25
ENDBRANCH  23  24
ENDBRANCH   1  23
TORSDOF 19
ENDMDL
