MODEL 1
REMARK VINA RESULT:     -12.9      0.000      0.000
REMARK SMILES Cc1cc(C(=O)NCCCNC(=O)c2ccc(-c3c4nc(c(-c5c(F)cc(S(=O)(=O)[O-])cc5F)c5ccc([nH]5)c(-c5c(F)cc(S(=O)(=O)[O-])cc5F)c5nc(c(-c6c(F)cc(S(=O)(=O)[O-])cc6F)c6ccc3[nH]6)C=C5)C=C4)cc2)c(C#Cc2ccccc2)s1
REMARK SMILES IDX 9 1 8 2 7 3 5 4 6 5 4 7 1 8 2 9 3 10 89 11 80 12 81 13 82 14
REMARK SMILES IDX 83 15 84 16 88 17 85 18 87 19 86 20 10 21 11 22 12 23 13 25
REMARK SMILES IDX 14 26 15 27 79 28 16 29 78 30 17 31 18 32 19 33 72 34 20 35
REMARK SMILES IDX 77 36 71 37 73 38 21 39 76 40 70 41 69 42 22 44 56 45 35 46
REMARK SMILES IDX 55 47 36 48 39 49 54 50 74 51 37 52 38 53 53 55 75 56 40 57
REMARK SMILES IDX 23 58 24 59 33 60 25 61 26 62 32 63 34 64 27 65 28 66 29 67
REMARK SMILES IDX 30 68 31 69 57 70 58 71 67 72 59 73 60 74 66 75 68 76 61 77
REMARK SMILES IDX 62 78 63 79 64 80 65 81 41 82 42 83 51 84 43 85 44 86 50 87
REMARK SMILES IDX 52 88 45 89 46 90 47 91 48 92 49 93
REMARK H PARENT 7 6 11 24 73 43 39 54
REMARK Flexibility Score: inf
ROOT
ATOM      1  C   UNL A   1      39.042  21.445  26.120  1.00  0.00     0.042 C 
ENDROOT
BRANCH   1   2
ATOM      2  C   UNL A   1      38.127  22.650  25.881  1.00  0.00     0.118 C 
BRANCH   2   3
ATOM      3  N   UNL A   1      37.589  22.654  24.529  1.00  0.00    -0.352 N 
ATOM      4  C   UNL A   1      36.395  22.994  23.945  1.00  0.00     0.253 C 
ATOM      5  O   UNL A   1      36.378  22.847  22.718  1.00  0.00    -0.269 OA
ATOM      6  H   UNL A   1      38.245  22.333  23.870  1.00  0.00     0.163 HD
BRANCH   4   7
ATOM      7  C   UNL A   1      35.239  23.523  24.686  1.00  0.00     0.066 A 
ATOM      8  C   UNL A   1      33.113  26.339  26.128  1.00  0.00     0.056 C 
ATOM      9  C   UNL A   1      33.734  25.057  25.688  1.00  0.00     0.004 A 
ATOM     10  C   UNL A   1      34.982  24.870  25.132  1.00  0.00     0.030 A 
ATOM     11  S   UNL A   1      32.903  23.587  25.835  1.00  0.00    -0.131 S 
ATOM     12  C   UNL A   1      34.183  22.710  25.105  1.00  0.00     0.090 A 
BRANCH  12  13
ATOM     13  C   UNL A   1      34.058  21.286  24.970  1.00  0.00    -0.050 C 
ATOM     14  C   UNL A   1      33.901  20.102  24.890  1.00  0.00    -0.061 C 
BRANCH  14  15
ATOM     15  C   UNL A   1      33.658  18.693  24.782  1.00  0.00     0.025 A 
ATOM     16  C   UNL A   1      32.727  18.072  25.616  1.00  0.00     0.017 A 
ATOM     17  C   UNL A   1      34.382  17.930  23.861  1.00  0.00     0.017 A 
ATOM     18  C   UNL A   1      32.537  16.691  25.545  1.00  0.00     0.001 A 
ATOM     19  C   UNL A   1      34.192  16.549  23.790  1.00  0.00     0.001 A 
ATOM     20  C   UNL A   1      33.273  15.928  24.637  1.00  0.00     0.000 A 
ENDBRANCH  14  15
ENDBRANCH  12  13
ENDBRANCH   4   7
ENDBRANCH   2   3
ENDBRANCH   1   2
BRANCH   1  21
ATOM     21  C   UNL A   1      40.422  21.843  26.650  1.00  0.00     0.118 C 
BRANCH  21  22
ATOM     22  N   UNL A   1      41.390  22.136  25.610  1.00  0.00    -0.352 N 
ATOM     23  C   UNL A   1      42.290  23.133  25.364  1.00  0.00     0.251 C 
ATOM     24  H   UNL A   1      41.400  21.447  24.907  1.00  0.00     0.163 HD
ATOM     25  O   UNL A   1      43.030  22.949  24.394  1.00  0.00    -0.269 OA
BRANCH  23  26
ATOM     26  C   UNL A   1      42.367  24.427  26.090  1.00  0.00     0.039 A 
ATOM     27  C   UNL A   1      43.270  24.754  27.102  1.00  0.00     0.014 A 
ATOM     28  C   UNL A   1      41.368  25.360  25.750  1.00  0.00     0.014 A 
ATOM     29  C   UNL A   1      43.057  25.890  27.880  1.00  0.00     0.010 A 
ATOM     30  C   UNL A   1      41.175  26.508  26.498  1.00  0.00     0.010 A 
ATOM     31  C   UNL A   1      41.960  26.721  27.621  1.00  0.00    -0.014 A 
BRANCH  31  32
ATOM     32  C   UNL A   1      41.768  27.939  28.409  1.00  0.00     0.031 A 
ATOM     33  C   UNL A   1      42.909  28.886  28.237  1.00  0.00     0.074 A 
ATOM     34  C   UNL A   1      40.624  28.205  29.089  1.00  0.00     0.049 A 
ATOM     35  N   UNL A   1      43.761  29.260  29.132  1.00  0.00    -0.248 NA
ATOM     36  C   UNL A   1      43.290  29.288  26.866  1.00  0.00     0.031 C 
ATOM     37  C   UNL A   1      39.391  27.409  29.133  1.00  0.00     0.029 A 
ATOM     38  N   UNL A   1      40.281  29.301  29.838  1.00  0.00    -0.354 N 
ATOM     39  C   UNL A   1      44.612  30.159  28.494  1.00  0.00     0.074 A 
ATOM     40  C   UNL A   1      44.414  29.973  27.084  1.00  0.00     0.031 C 
ATOM     41  C   UNL A   1      38.379  28.148  29.646  1.00  0.00     0.029 A 
ATOM     42  C   UNL A   1      38.904  29.420  30.104  1.00  0.00     0.049 A 
ATOM     43  H   UNL A   1      40.945  29.951  30.164  1.00  0.00     0.167 HD
ATOM     44  C   UNL A   1      45.203  31.170  29.188  1.00  0.00     0.037 A 
ATOM     45  C   UNL A   1      38.267  30.507  30.640  1.00  0.00     0.037 A 
ATOM     46  C   UNL A   1      45.190  30.890  30.600  1.00  0.00     0.049 A 
ATOM     47  C   UNL A   1      39.317  31.298  31.340  1.00  0.00     0.074 A 
ATOM     48  C   UNL A   1      45.752  29.912  31.397  1.00  0.00     0.029 A 
ATOM     49  N   UNL A   1      44.166  31.438  31.332  1.00  0.00    -0.354 N 
ATOM     50  N   UNL A   1      39.966  30.854  32.383  1.00  0.00    -0.248 NA
ATOM     51  C   UNL A   1      40.002  32.305  30.544  1.00  0.00     0.031 C 
ATOM     52  C   UNL A   1      44.747  29.598  32.356  1.00  0.00     0.029 A 
ATOM     53  C   UNL A   1      43.677  30.474  32.174  1.00  0.00     0.049 A 
ATOM     54  H   UNL A   1      43.839  32.365  31.263  1.00  0.00     0.167 HD
ATOM     55  C   UNL A   1      41.290  31.177  32.128  1.00  0.00     0.074 A 
ATOM     56  C   UNL A   1      41.245  32.082  30.976  1.00  0.00     0.031 C 
ATOM     57  C   UNL A   1      42.315  30.453  32.664  1.00  0.00     0.037 A 
BRANCH  44  58
ATOM     58  C   UNL A   1      45.415  32.561  28.640  1.00  0.00     0.058 A 
ATOM     59  C   UNL A   1      46.714  33.106  28.612  1.00  0.00     0.135 A 
ATOM     60  C   UNL A   1      44.367  33.479  28.398  1.00  0.00     0.135 A 
ATOM     61  F   UNL A   1      47.785  32.332  28.855  1.00  0.00    -0.206 F 
ATOM     62  C   UNL A   1      46.952  34.465  28.402  1.00  0.00     0.059 A 
ATOM     63  C   UNL A   1      44.584  34.828  28.139  1.00  0.00     0.059 A 
ATOM     64  F   UNL A   1      43.077  33.135  28.493  1.00  0.00    -0.206 F 
ATOM     65  C   UNL A   1      45.878  35.319  28.167  1.00  0.00     0.060 A 
BRANCH  65  66
ATOM     66  S   UNL A   1      46.185  37.077  27.927  1.00  0.00     0.124 S 
ATOM     67  O   UNL A   1      45.144  37.433  26.970  1.00  0.00    -0.237 OA
ATOM     68  O   UNL A   1      46.015  37.594  29.282  1.00  0.00    -0.237 OA
ATOM     69  O   UNL A   1      47.553  37.114  27.417  1.00  0.00    -0.744 OA
ENDBRANCH  65  66
ENDBRANCH  44  58
BRANCH  45  70
ATOM     70  C   UNL A   1      36.968  31.138  30.229  1.00  0.00     0.058 A 
ATOM     71  C   UNL A   1      36.096  31.740  31.166  1.00  0.00     0.135 A 
ATOM     72  C   UNL A   1      36.708  31.448  28.881  1.00  0.00     0.135 A 
ATOM     73  F   UNL A   1      36.266  31.523  32.480  1.00  0.00    -0.206 F 
ATOM     74  C   UNL A   1      35.075  32.632  30.791  1.00  0.00     0.059 A 
ATOM     75  C   UNL A   1      35.700  32.332  28.485  1.00  0.00     0.059 A 
ATOM     76  F   UNL A   1      37.494  30.971  27.905  1.00  0.00    -0.206 F 
ATOM     77  C   UNL A   1      34.903  32.944  29.445  1.00  0.00     0.060 A 
BRANCH  77  78
ATOM     78  S   UNL A   1      33.719  34.229  28.953  1.00  0.00     0.124 S 
ATOM     79  O   UNL A   1      32.871  33.517  28.002  1.00  0.00    -0.237 OA
ATOM     80  O   UNL A   1      33.096  34.579  30.224  1.00  0.00    -0.237 OA
ATOM     81  O   UNL A   1      34.568  35.267  28.372  1.00  0.00    -0.744 OA
ENDBRANCH  77  78
ENDBRANCH  45  70
BRANCH  57  82
ATOM     82  C   UNL A   1      42.009  29.441  33.739  1.00  0.00     0.058 A 
ATOM     83  C   UNL A   1      41.529  28.136  33.516  1.00  0.00     0.135 A 
ATOM     84  C   UNL A   1      42.414  29.757  35.044  1.00  0.00     0.135 A 
ATOM     85  F   UNL A   1      41.204  27.724  32.282  1.00  0.00    -0.206 F 
ATOM     86  C   UNL A   1      41.442  27.197  34.551  1.00  0.00     0.059 A 
ATOM     87  C   UNL A   1      42.367  28.831  36.081  1.00  0.00     0.059 A 
ATOM     88  F   UNL A   1      42.932  30.968  35.310  1.00  0.00    -0.206 F 
ATOM     89  C   UNL A   1      41.872  27.555  35.830  1.00  0.00     0.060 A 
BRANCH  89  90
ATOM     90  S   UNL A   1      41.833  26.330  37.160  1.00  0.00     0.124 S 
ATOM     91  O   UNL A   1      40.519  26.561  37.751  1.00  0.00    -0.237 OA
ATOM     92  O   UNL A   1      41.989  25.072  36.435  1.00  0.00    -0.237 OA
ATOM     93  O   UNL A   1      42.968  26.701  38.001  1.00  0.00    -0.744 OA
ENDBRANCH  89  90
ENDBRANCH  57  82
ENDBRANCH  31  32
ENDBRANCH  23  26
ENDBRANCH  21  22
ENDBRANCH   1  21
TORSDOF 15
ENDMDL
MODEL 2
REMARK VINA RESULT:     -12.8      3.547     10.110
REMARK SMILES Cc1cc(C(=O)NCCCNC(=O)c2ccc(-c3c4nc(c(-c5c(F)cc(S(=O)(=O)[O-])cc5F)c5ccc([nH]5)c(-c5c(F)cc(S(=O)(=O)[O-])cc5F)c5nc(c(-c6c(F)cc(S(=O)(=O)[O-])cc6F)c6ccc3[nH]6)C=C5)C=C4)cc2)c(C#Cc2ccccc2)s1
REMARK SMILES IDX 9 1 8 2 7 3 5 4 6 5 4 7 1 8 2 9 3 10 89 11 80 12 81 13 82 14
REMARK SMILES IDX 83 15 84 16 88 17 85 18 87 19 86 20 10 21 11 22 12 23 13 25
REMARK SMILES IDX 14 26 15 27 79 28 16 29 78 30 17 31 18 32 19 33 72 34 20 35
REMARK SMILES IDX 77 36 71 37 73 38 21 39 76 40 70 41 69 42 22 44 56 45 35 46
REMARK SMILES IDX 55 47 36 48 39 49 54 50 74 51 37 52 38 53 53 55 75 56 40 57
REMARK SMILES IDX 23 58 24 59 33 60 25 61 26 62 32 63 34 64 27 65 28 66 29 67
REMARK SMILES IDX 30 68 31 69 57 70 58 71 67 72 59 73 60 74 66 75 68 76 61 77
REMARK SMILES IDX 62 78 63 79 64 80 65 81 41 82 42 83 51 84 43 85 44 86 50 87
REMARK SMILES IDX 52 88 45 89 46 90 47 91 48 92 49 93
REMARK H PARENT 7 6 11 24 73 43 39 54
REMARK Flexibility Score: inf
ROOT
ATOM      1  C   UNL A   1      32.163  29.442  26.776  1.00  0.00     0.042 C 
ENDROOT
BRANCH   1   2
ATOM      2  C   UNL A   1      32.226  28.158  27.610  1.00  0.00     0.118 C 
BRANCH   2   3
ATOM      3  N   UNL A   1      31.174  27.225  27.239  1.00  0.00    -0.352 N 
ATOM      4  C   UNL A   1      30.967  26.327  26.223  1.00  0.00     0.253 C 
ATOM      5  O   UNL A   1      29.899  25.711  26.308  1.00  0.00    -0.269 OA
ATOM      6  H   UNL A   1      30.424  27.243  27.875  1.00  0.00     0.163 HD
BRANCH   4   7
ATOM      7  C   UNL A   1      31.931  26.076  25.139  1.00  0.00     0.066 A 
ATOM      8  C   UNL A   1      34.762  24.139  23.477  1.00  0.00     0.056 C 
ATOM      9  C   UNL A   1      33.672  25.073  23.880  1.00  0.00     0.004 A 
ATOM     10  C   UNL A   1      33.043  25.159  25.104  1.00  0.00     0.030 A 
ATOM     11  S   UNL A   1      33.044  26.208  22.789  1.00  0.00    -0.131 S 
ATOM     12  C   UNL A   1      31.897  26.774  23.930  1.00  0.00     0.090 A 
BRANCH  12  13
ATOM     13  C   UNL A   1      31.022  27.851  23.557  1.00  0.00    -0.050 C 
ATOM     14  C   UNL A   1      30.335  28.788  23.272  1.00  0.00    -0.061 C 
BRANCH  14  15
ATOM     15  C   UNL A   1      29.557  29.938  22.913  1.00  0.00     0.025 A 
ATOM     16  C   UNL A   1      29.079  30.086  21.610  1.00  0.00     0.017 A 
ATOM     17  C   UNL A   1      29.306  30.933  23.861  1.00  0.00     0.017 A 
ATOM     18  C   UNL A   1      28.370  31.235  21.251  1.00  0.00     0.001 A 
ATOM     19  C   UNL A   1      28.597  32.082  23.503  1.00  0.00     0.001 A 
ATOM     20  C   UNL A   1      28.135  32.235  22.196  1.00  0.00     0.000 A 
ENDBRANCH  14  15
ENDBRANCH  12  13
ENDBRANCH   4   7
ENDBRANCH   2   3
ENDBRANCH   1   2
BRANCH   1  21
ATOM     21  C   UNL A   1      33.496  30.194  26.741  1.00  0.00     0.118 C 
BRANCH  21  22
ATOM     22  N   UNL A   1      33.740  31.015  27.912  1.00  0.00    -0.352 N 
ATOM     23  C   UNL A   1      34.835  31.365  28.649  1.00  0.00     0.251 C 
ATOM     24  H   UNL A   1      32.913  31.418  28.262  1.00  0.00     0.163 HD
ATOM     25  O   UNL A   1      34.630  32.202  29.534  1.00  0.00    -0.269 OA
BRANCH  23  26
ATOM     26  C   UNL A   1      36.185  30.755  28.538  1.00  0.00     0.039 A 
ATOM     27  C   UNL A   1      36.468  29.433  28.195  1.00  0.00     0.014 A 
ATOM     28  C   UNL A   1      37.251  31.602  28.897  1.00  0.00     0.014 A 
ATOM     29  C   UNL A   1      37.749  28.925  28.396  1.00  0.00     0.010 A 
ATOM     30  C   UNL A   1      38.534  31.109  29.064  1.00  0.00     0.010 A 
ATOM     31  C   UNL A   1      38.759  29.750  28.905  1.00  0.00    -0.014 A 
BRANCH  31  32
ATOM     32  C   UNL A   1      40.115  29.225  29.069  1.00  0.00     0.031 A 
ATOM     33  C   UNL A   1      40.485  29.112  30.512  1.00  0.00     0.074 A 
ATOM     34  C   UNL A   1      40.864  28.777  28.030  1.00  0.00     0.049 A 
ATOM     35  N   UNL A   1      41.399  29.772  31.142  1.00  0.00    -0.248 NA
ATOM     36  C   UNL A   1      39.592  28.351  31.410  1.00  0.00     0.031 C 
ATOM     37  C   UNL A   1      40.481  28.674  26.616  1.00  0.00     0.029 A 
ATOM     38  N   UNL A   1      42.123  28.234  28.024  1.00  0.00    -0.354 N 
ATOM     39  C   UNL A   1      41.373  29.299  32.451  1.00  0.00     0.074 A 
ATOM     40  C   UNL A   1      40.127  28.603  32.606  1.00  0.00     0.031 C 
ATOM     41  C   UNL A   1      41.365  27.892  25.951  1.00  0.00     0.029 A 
ATOM     42  C   UNL A   1      42.458  27.549  26.840  1.00  0.00     0.049 A 
ATOM     43  H   UNL A   1      42.741  28.317  28.785  1.00  0.00     0.167 HD
ATOM     44  C   UNL A   1      42.504  29.287  33.209  1.00  0.00     0.037 A 
ATOM     45  C   UNL A   1      43.549  26.746  26.644  1.00  0.00     0.037 A 
ATOM     46  C   UNL A   1      43.489  30.184  32.664  1.00  0.00     0.049 A 
ATOM     47  C   UNL A   1      44.540  27.131  27.686  1.00  0.00     0.074 A 
ATOM     48  C   UNL A   1      43.546  31.549  32.463  1.00  0.00     0.029 A 
ATOM     49  N   UNL A   1      44.439  29.636  31.839  1.00  0.00    -0.354 N 
ATOM     50  N   UNL A   1      45.106  28.308  27.731  1.00  0.00    -0.248 NA
ATOM     51  C   UNL A   1      44.455  26.416  28.950  1.00  0.00     0.031 C 
ATOM     52  C   UNL A   1      44.179  31.708  31.197  1.00  0.00     0.029 A 
ATOM     53  C   UNL A   1      44.580  30.451  30.746  1.00  0.00     0.049 A 
ATOM     54  H   UNL A   1      44.934  28.801  32.005  1.00  0.00     0.167 HD
ATOM     55  C   UNL A   1      45.038  28.672  29.067  1.00  0.00     0.074 A 
ATOM     56  C   UNL A   1      44.631  27.453  29.773  1.00  0.00     0.031 C 
ATOM     57  C   UNL A   1      45.015  29.982  29.448  1.00  0.00     0.037 A 
BRANCH  44  58
ATOM     58  C   UNL A   1      42.861  28.185  34.178  1.00  0.00     0.058 A 
ATOM     59  C   UNL A   1      43.073  28.496  35.535  1.00  0.00     0.135 A 
ATOM     60  C   UNL A   1      43.269  26.891  33.781  1.00  0.00     0.135 A 
ATOM     61  F   UNL A   1      42.749  29.707  36.018  1.00  0.00    -0.206 F 
ATOM     62  C   UNL A   1      43.684  27.606  36.422  1.00  0.00     0.059 A 
ATOM     63  C   UNL A   1      43.835  25.971  34.658  1.00  0.00     0.059 A 
ATOM     64  F   UNL A   1      43.227  26.486  32.507  1.00  0.00    -0.206 F 
ATOM     65  C   UNL A   1      44.062  26.344  35.971  1.00  0.00     0.060 A 
BRANCH  65  66
ATOM     66  S   UNL A   1      44.877  25.210  37.107  1.00  0.00     0.124 S 
ATOM     67  O   UNL A   1      44.633  23.922  36.468  1.00  0.00    -0.237 OA
ATOM     68  O   UNL A   1      46.253  25.694  37.071  1.00  0.00    -0.237 OA
ATOM     69  O   UNL A   1      44.174  25.433  38.368  1.00  0.00    -0.744 OA
ENDBRANCH  65  66
ENDBRANCH  44  58
BRANCH  45  70
ATOM     70  C   UNL A   1      43.630  25.414  25.954  1.00  0.00     0.058 A 
ATOM     71  C   UNL A   1      44.731  25.055  25.141  1.00  0.00     0.135 A 
ATOM     72  C   UNL A   1      42.791  24.350  26.334  1.00  0.00     0.135 A 
ATOM     73  F   UNL A   1      45.603  25.992  24.736  1.00  0.00    -0.206 F 
ATOM     74  C   UNL A   1      45.008  23.724  24.781  1.00  0.00     0.059 A 
ATOM     75  C   UNL A   1      43.047  23.020  25.988  1.00  0.00     0.059 A 
ATOM     76  F   UNL A   1      41.740  24.561  27.138  1.00  0.00    -0.206 F 
ATOM     77  C   UNL A   1      44.171  22.707  25.235  1.00  0.00     0.060 A 
BRANCH  77  78
ATOM     78  S   UNL A   1      44.608  20.970  24.940  1.00  0.00     0.124 S 
ATOM     79  O   UNL A   1      45.956  20.894  25.495  1.00  0.00    -0.237 OA
ATOM     80  O   UNL A   1      43.574  20.260  25.684  1.00  0.00    -0.237 OA
ATOM     81  O   UNL A   1      44.526  20.841  23.487  1.00  0.00    -0.744 OA
ENDBRANCH  77  78
ENDBRANCH  45  70
BRANCH  57  82
ATOM     82  C   UNL A   1      45.311  31.045  28.420  1.00  0.00     0.058 A 
ATOM     83  C   UNL A   1      44.364  31.625  27.553  1.00  0.00     0.135 A 
ATOM     84  C   UNL A   1      46.582  31.636  28.463  1.00  0.00     0.135 A 
ATOM     85  F   UNL A   1      43.100  31.178  27.516  1.00  0.00    -0.206 F 
ATOM     86  C   UNL A   1      44.679  32.732  26.755  1.00  0.00     0.059 A 
ATOM     87  C   UNL A   1      46.907  32.754  27.703  1.00  0.00     0.059 A 
ATOM     88  F   UNL A   1      47.512  31.163  29.309  1.00  0.00    -0.206 F 
ATOM     89  C   UNL A   1      45.953  33.294  26.845  1.00  0.00     0.060 A 
BRANCH  89  90
ATOM     90  S   UNL A   1      46.350  34.766  25.873  1.00  0.00     0.124 S 
ATOM     91  O   UNL A   1      47.808  34.715  25.818  1.00  0.00    -0.237 OA
ATOM     92  O   UNL A   1      45.660  34.507  24.613  1.00  0.00    -0.237 OA
ATOM     93  O   UNL A   1      45.795  35.860  26.666  1.00  0.00    -0.744 OA
ENDBRANCH  89  90
ENDBRANCH  57  82
ENDBRANCH  31  32
ENDBRANCH  23  26
ENDBRANCH  21  22
ENDBRANCH   1  21
TORSDOF 15
ENDMDL
MODEL 3
REMARK VINA RESULT:     -12.7      1.677      2.353
REMARK SMILES Cc1cc(C(=O)NCCCNC(=O)c2ccc(-c3c4nc(c(-c5c(F)cc(S(=O)(=O)[O-])cc5F)c5ccc([nH]5)c(-c5c(F)cc(S(=O)(=O)[O-])cc5F)c5nc(c(-c6c(F)cc(S(=O)(=O)[O-])cc6F)c6ccc3[nH]6)C=C5)C=C4)cc2)c(C#Cc2ccccc2)s1
REMARK SMILES IDX 9 1 8 2 7 3 5 4 6 5 4 7 1 8 2 9 3 10 89 11 80 12 81 13 82 14
REMARK SMILES IDX 83 15 84 16 88 17 85 18 87 19 86 20 10 21 11 22 12 23 13 25
REMARK SMILES IDX 14 26 15 27 79 28 16 29 78 30 17 31 18 32 19 33 72 34 20 35
REMARK SMILES IDX 77 36 71 37 73 38 21 39 76 40 70 41 69 42 22 44 56 45 35 46
REMARK SMILES IDX 55 47 36 48 39 49 54 50 74 51 37 52 38 53 53 55 75 56 40 57
REMARK SMILES IDX 23 58 24 59 33 60 25 61 26 62 32 63 34 64 27 65 28 66 29 67
REMARK SMILES IDX 30 68 31 69 57 70 58 71 67 72 59 73 60 74 66 75 68 76 61 77
REMARK SMILES IDX 62 78 63 79 64 80 65 81 41 82 42 83 51 84 43 85 44 86 50 87
REMARK SMILES IDX 52 88 45 89 46 90 47 91 48 92 49 93
REMARK H PARENT 7 6 11 24 73 43 39 54
REMARK Flexibility Score: inf
ROOT
ATOM      1  C   UNL A   1      36.801  22.007  24.333  1.00  0.00     0.042 C 
ENDROOT
BRANCH   1   2
ATOM      2  C   UNL A   1      36.060  23.327  24.101  1.00  0.00     0.118 C 
BRANCH   2   3
ATOM      3  N   UNL A   1      35.161  23.244  22.961  1.00  0.00    -0.352 N 
ATOM      4  C   UNL A   1      33.806  23.337  22.766  1.00  0.00     0.253 C 
ATOM      5  O   UNL A   1      33.459  23.213  21.587  1.00  0.00    -0.269 OA
ATOM      6  H   UNL A   1      35.644  23.079  22.120  1.00  0.00     0.163 HD
BRANCH   4   7
ATOM      7  C   UNL A   1      32.837  23.600  23.843  1.00  0.00     0.066 A 
ATOM      8  C   UNL A   1      30.548  25.855  25.894  1.00  0.00     0.056 C 
ATOM      9  C   UNL A   1      31.344  24.754  25.278  1.00  0.00     0.004 A 
ATOM     10  C   UNL A   1      32.354  24.862  24.346  1.00  0.00     0.030 A 
ATOM     11  S   UNL A   1      31.063  23.134  25.691  1.00  0.00    -0.131 S 
ATOM     12  C   UNL A   1      32.247  22.574  24.585  1.00  0.00     0.090 A 
BRANCH  12  13
ATOM     13  C   UNL A   1      32.504  21.163  24.501  1.00  0.00    -0.050 C 
ATOM     14  C   UNL A   1      32.736  19.989  24.491  1.00  0.00    -0.061 C 
BRANCH  14  15
ATOM     15  C   UNL A   1      32.987  18.578  24.528  1.00  0.00     0.025 A 
ATOM     16  C   UNL A   1      32.617  17.826  25.644  1.00  0.00     0.017 A 
ATOM     17  C   UNL A   1      33.638  17.959  23.458  1.00  0.00     0.017 A 
ATOM     18  C   UNL A   1      32.915  16.462  25.698  1.00  0.00     0.001 A 
ATOM     19  C   UNL A   1      33.937  16.595  23.513  1.00  0.00     0.001 A 
ATOM     20  C   UNL A   1      33.580  15.849  24.636  1.00  0.00     0.000 A 
ENDBRANCH  14  15
ENDBRANCH  12  13
ENDBRANCH   4   7
ENDBRANCH   2   3
ENDBRANCH   1   2
BRANCH   1  21
ATOM     21  C   UNL A   1      37.490  21.944  25.699  1.00  0.00     0.118 C 
BRANCH  21  22
ATOM     22  N   UNL A   1      38.922  21.722  25.626  1.00  0.00    -0.352 N 
ATOM     23  C   UNL A   1      40.026  22.255  26.229  1.00  0.00     0.251 C 
ATOM     24  H   UNL A   1      39.156  21.014  24.984  1.00  0.00     0.163 HD
ATOM     25  O   UNL A   1      41.094  21.694  25.966  1.00  0.00    -0.269 OA
BRANCH  23  26
ATOM     26  C   UNL A   1      40.048  23.484  27.063  1.00  0.00     0.039 A 
ATOM     27  C   UNL A   1      39.093  24.501  27.061  1.00  0.00     0.014 A 
ATOM     28  C   UNL A   1      41.198  23.640  27.862  1.00  0.00     0.014 A 
ATOM     29  C   UNL A   1      39.374  25.716  27.683  1.00  0.00     0.010 A 
ATOM     30  C   UNL A   1      41.464  24.833  28.511  1.00  0.00     0.010 A 
ATOM     31  C   UNL A   1      40.596  25.901  28.340  1.00  0.00    -0.014 A 
BRANCH  31  32
ATOM     32  C   UNL A   1      40.867  27.161  29.033  1.00  0.00     0.031 A 
ATOM     33  C   UNL A   1      42.011  27.891  28.409  1.00  0.00     0.074 A 
ATOM     34  C   UNL A   1      40.076  27.644  30.023  1.00  0.00     0.049 A 
ATOM     35  N   UNL A   1      43.162  28.144  28.937  1.00  0.00    -0.248 NA
ATOM     36  C   UNL A   1      41.960  28.172  26.959  1.00  0.00     0.031 C 
ATOM     37  C   UNL A   1      38.826  27.074  30.543  1.00  0.00     0.029 A 
ATOM     38  N   UNL A   1      40.176  28.809  30.740  1.00  0.00    -0.354 N 
ATOM     39  C   UNL A   1      43.871  28.860  27.975  1.00  0.00     0.074 A 
ATOM     40  C   UNL A   1      43.180  28.661  26.731  1.00  0.00     0.031 C 
ATOM     41  C   UNL A   1      38.171  27.994  31.291  1.00  0.00     0.029 A 
ATOM     42  C   UNL A   1      39.005  29.172  31.432  1.00  0.00     0.049 A 
ATOM     43  H   UNL A   1      41.001  29.346  30.768  1.00  0.00     0.167 HD
ATOM     44  C   UNL A   1      44.807  29.778  28.340  1.00  0.00     0.037 A 
ATOM     45  C   UNL A   1      38.759  30.371  32.045  1.00  0.00     0.037 A 
ATOM     46  C   UNL A   1      45.231  29.556  29.697  1.00  0.00     0.049 A 
ATOM     47  C   UNL A   1      40.090  30.994  32.286  1.00  0.00     0.074 A 
ATOM     48  C   UNL A   1      45.877  28.525  30.351  1.00  0.00     0.029 A 
ATOM     49  N   UNL A   1      44.611  30.298  30.671  1.00  0.00    -0.354 N 
ATOM     50  N   UNL A   1      40.980  30.483  33.093  1.00  0.00    -0.248 NA
ATOM     51  C   UNL A   1      40.607  31.839  31.220  1.00  0.00     0.031 C 
ATOM     52  C   UNL A   1      45.222  28.423  31.611  1.00  0.00     0.029 A 
ATOM     53  C   UNL A   1      44.298  29.463  31.712  1.00  0.00     0.049 A 
ATOM     54  H   UNL A   1      44.423  31.264  30.629  1.00  0.00     0.167 HD
ATOM     55  C   UNL A   1      42.171  30.564  32.389  1.00  0.00     0.074 A 
ATOM     56  C   UNL A   1      41.874  31.421  31.238  1.00  0.00     0.031 C 
ATOM     57  C   UNL A   1      43.197  29.694  32.622  1.00  0.00     0.037 A 
BRANCH  44  58
ATOM     58  C   UNL A   1      45.026  31.092  27.628  1.00  0.00     0.058 A 
ATOM     59  C   UNL A   1      46.233  31.313  26.935  1.00  0.00     0.135 A 
ATOM     60  C   UNL A   1      44.222  32.238  27.826  1.00  0.00     0.135 A 
ATOM     61  F   UNL A   1      47.089  30.302  26.713  1.00  0.00    -0.206 F 
ATOM     62  C   UNL A   1      46.631  32.581  26.509  1.00  0.00     0.059 A 
ATOM     63  C   UNL A   1      44.576  33.502  27.368  1.00  0.00     0.059 A 
ATOM     64  F   UNL A   1      43.099  32.208  28.552  1.00  0.00    -0.206 F 
ATOM     65  C   UNL A   1      45.793  33.671  26.732  1.00  0.00     0.060 A 
BRANCH  65  66
ATOM     66  S   UNL A   1      46.323  35.311  26.209  1.00  0.00     0.124 S 
ATOM     67  O   UNL A   1      46.993  35.020  24.948  1.00  0.00    -0.237 OA
ATOM     68  O   UNL A   1      45.048  36.015  26.111  1.00  0.00    -0.237 OA
ATOM     69  O   UNL A   1      47.190  35.749  27.300  1.00  0.00    -0.744 OA
ENDBRANCH  65  66
ENDBRANCH  44  58
BRANCH  45  70
ATOM     70  C   UNL A   1      37.507  31.201  32.028  1.00  0.00     0.058 A 
ATOM     71  C   UNL A   1      36.940  31.729  33.212  1.00  0.00     0.135 A 
ATOM     72  C   UNL A   1      37.026  31.760  30.830  1.00  0.00     0.135 A 
ATOM     73  F   UNL A   1      37.341  31.277  34.410  1.00  0.00    -0.206 F 
ATOM     74  C   UNL A   1      36.004  32.778  33.204  1.00  0.00     0.059 A 
ATOM     75  C   UNL A   1      36.096  32.804  30.798  1.00  0.00     0.059 A 
ATOM     76  F   UNL A   1      37.519  31.371  29.646  1.00  0.00    -0.206 F 
ATOM     77  C   UNL A   1      35.608  33.329  31.987  1.00  0.00     0.060 A 
BRANCH  77  78
ATOM     78  S   UNL A   1      34.545  34.801  31.958  1.00  0.00     0.124 S 
ATOM     79  O   UNL A   1      35.329  35.760  32.730  1.00  0.00    -0.237 OA
ATOM     80  O   UNL A   1      34.434  35.074  30.530  1.00  0.00    -0.237 OA
ATOM     81  O   UNL A   1      33.315  34.344  32.600  1.00  0.00    -0.744 OA
ENDBRANCH  77  78
ENDBRANCH  45  70
BRANCH  57  82
ATOM     82  C   UNL A   1      43.125  28.789  33.826  1.00  0.00     0.058 A 
ATOM     83  C   UNL A   1      43.385  29.179  35.154  1.00  0.00     0.135 A 
ATOM     84  C   UNL A   1      42.573  27.514  33.632  1.00  0.00     0.135 A 
ATOM     85  F   UNL A   1      43.829  30.413  35.435  1.00  0.00    -0.206 F 
ATOM     86  C   UNL A   1      43.121  28.329  36.235  1.00  0.00     0.059 A 
ATOM     87  C   UNL A   1      42.273  26.666  34.692  1.00  0.00     0.059 A 
ATOM     88  F   UNL A   1      42.251  27.105  32.394  1.00  0.00    -0.206 F 
ATOM     89  C   UNL A   1      42.557  27.075  35.992  1.00  0.00     0.060 A 
BRANCH  89  90
ATOM     90  S   UNL A   1      42.146  25.996  37.383  1.00  0.00     0.124 S 
ATOM     91  O   UNL A   1      42.332  24.668  36.808  1.00  0.00    -0.237 OA
ATOM     92  O   UNL A   1      43.126  26.393  38.390  1.00  0.00    -0.237 OA
ATOM     93  O   UNL A   1      40.764  26.352  37.695  1.00  0.00    -0.744 OA
ENDBRANCH  89  90
ENDBRANCH  57  82
ENDBRANCH  31  32
ENDBRANCH  23  26
ENDBRANCH  21  22
ENDBRANCH   1  21
TORSDOF 15
ENDMDL
