MODEL 1
REMARK VINA RESULT:     -12.3      0.000      0.000
REMARK SMILES O=C(NCCCNC(=O)[C@H]1SC=C[C@@H]1S(=O)(=O)NCCC1=c2ccccc2=NC1)c1ccc(-c2c3nc(c(-c4c(F)cc(S(=O)(=O)[O-])cc4F)c4ccc([nH]4)c(-c4c(F)cc(S(=O)(=O)[O-])cc4F)c4nc(c(-c5c(F)cc(S(=O)(=O)[O-])cc5F)c5ccc2[nH]5)C=C4)C=C3)cc1
REMARK SMILES IDX 6 1 5 2 4 3 3 4 1 5 2 6 30 8 31 9 95 10 32 11 94 12 33 13
REMARK SMILES IDX 34 14 35 15 88 16 36 17 93 18 87 19 89 20 37 21 92 22 86 23
REMARK SMILES IDX 85 24 38 26 72 27 51 28 71 29 52 30 55 31 70 32 90 33 53 34
REMARK SMILES IDX 54 35 69 37 91 38 56 39 39 40 40 41 49 42 41 43 42 44 48 45
REMARK SMILES IDX 50 46 43 47 44 48 45 49 46 50 47 51 73 52 74 53 83 54 75 55
REMARK SMILES IDX 76 56 82 57 84 58 77 59 78 60 79 61 80 62 81 63 57 64 58 65
REMARK SMILES IDX 67 66 59 67 60 68 66 69 68 70 61 71 62 72 63 73 64 74 65 75
REMARK SMILES IDX 7 76 8 77 9 79 10 80 11 81 14 82 12 83 13 84 15 85 16 86
REMARK SMILES IDX 17 87 18 88 19 90 20 91 21 92 22 93 29 94 23 95 27 96 28 97
REMARK SMILES IDX 24 98 26 99 25 100
REMARK H PARENT 3 7 89 25 55 36 7 78 18 89
REMARK Flexibility Score: inf
ROOT
ATOM      1  C   UNL A   1      33.729  29.820  27.014  1.00  0.00     0.117 C 
ENDROOT
BRANCH   1   2
ATOM      2  C   UNL A   1      34.186  31.193  27.500  1.00  0.00     0.042 C 
BRANCH   2   3
ATOM      3  C   UNL A   1      35.569  31.186  28.123  1.00  0.00     0.118 C 
BRANCH   3   4
ATOM      4  N   UNL A   1      35.509  30.848  29.534  1.00  0.00    -0.352 N 
ATOM      5  O   UNL A   1      36.021  29.715  31.392  1.00  0.00    -0.269 OA
ATOM      6  C   UNL A   1      36.404  30.166  30.315  1.00  0.00     0.251 C 
ATOM      7  H   UNL A   1      34.701  31.158  30.002  1.00  0.00     0.163 HD
BRANCH   6   8
ATOM      8  C   UNL A   1      37.811  29.991  29.889  1.00  0.00     0.039 A 
ATOM      9  C   UNL A   1      38.087  29.875  28.523  1.00  0.00     0.014 A 
ATOM     10  C   UNL A   1      38.840  29.833  30.823  1.00  0.00     0.014 A 
ATOM     11  C   UNL A   1      39.386  29.588  28.101  1.00  0.00     0.010 A 
ATOM     12  C   UNL A   1      40.150  29.656  30.397  1.00  0.00     0.010 A 
ATOM     13  C   UNL A   1      40.425  29.472  29.037  1.00  0.00    -0.014 A 
BRANCH  13  14
ATOM     14  C   UNL A   1      41.780  29.034  28.629  1.00  0.00     0.031 A 
ATOM     15  C   UNL A   1      42.911  30.032  28.640  1.00  0.00     0.074 A 
ATOM     16  C   UNL A   1      41.991  27.762  28.244  1.00  0.00     0.049 A 
ATOM     17  N   UNL A   1      44.153  29.878  28.266  1.00  0.00    -0.248 NA
ATOM     18  C   UNL A   1      42.595  31.393  29.111  1.00  0.00     0.031 C 
ATOM     19  C   UNL A   1      40.968  26.717  28.187  1.00  0.00     0.029 A 
ATOM     20  N   UNL A   1      43.138  27.131  27.838  1.00  0.00    -0.354 N 
ATOM     21  C   UNL A   1      44.758  31.117  28.448  1.00  0.00     0.074 A 
ATOM     22  C   UNL A   1      43.733  32.032  28.891  1.00  0.00     0.031 C 
ATOM     23  C   UNL A   1      41.543  25.564  27.808  1.00  0.00     0.029 A 
ATOM     24  C   UNL A   1      42.961  25.798  27.553  1.00  0.00     0.049 A 
ATOM     25  H   UNL A   1      44.005  27.589  27.756  1.00  0.00     0.167 HD
ATOM     26  C   UNL A   1      46.061  31.453  28.297  1.00  0.00     0.037 A 
ATOM     27  C   UNL A   1      43.846  24.874  27.133  1.00  0.00     0.037 A 
ATOM     28  C   UNL A   1      47.080  30.525  27.886  1.00  0.00     0.049 A 
ATOM     29  C   UNL A   1      45.280  25.282  26.928  1.00  0.00     0.074 A 
ATOM     30  C   UNL A   1      48.435  30.751  27.726  1.00  0.00     0.029 A 
ATOM     31  N   UNL A   1      46.855  29.190  27.581  1.00  0.00    -0.354 N 
ATOM     32  N   UNL A   1      45.841  26.451  27.125  1.00  0.00    -0.248 NA
ATOM     33  C   UNL A   1      46.202  24.246  26.444  1.00  0.00     0.031 C 
ATOM     34  C   UNL A   1      49.023  29.565  27.278  1.00  0.00     0.029 A 
ATOM     35  C   UNL A   1      48.044  28.585  27.212  1.00  0.00     0.049 A 
ATOM     36  H   UNL A   1      45.981  28.740  27.620  1.00  0.00     0.167 HD
ATOM     37  C   UNL A   1      47.185  26.288  26.811  1.00  0.00     0.074 A 
ATOM     38  C   UNL A   1      47.355  24.901  26.425  1.00  0.00     0.031 C 
ATOM     39  C   UNL A   1      48.188  27.200  26.836  1.00  0.00     0.037 A 
BRANCH  26  40
ATOM     40  C   UNL A   1      46.458  32.874  28.595  1.00  0.00     0.058 A 
ATOM     41  C   UNL A   1      46.835  33.275  29.888  1.00  0.00     0.135 A 
ATOM     42  C   UNL A   1      46.498  33.837  27.576  1.00  0.00     0.135 A 
ATOM     43  F   UNL A   1      46.796  32.401  30.907  1.00  0.00    -0.206 F 
ATOM     44  C   UNL A   1      47.214  34.585  30.163  1.00  0.00     0.059 A 
ATOM     45  C   UNL A   1      46.905  35.147  27.821  1.00  0.00     0.059 A 
ATOM     46  F   UNL A   1      46.143  33.512  26.322  1.00  0.00    -0.206 F 
ATOM     47  C   UNL A   1      47.250  35.513  29.121  1.00  0.00     0.060 A 
BRANCH  47  48
ATOM     48  S   UNL A   1      47.758  37.203  29.498  1.00  0.00     0.124 S 
ATOM     49  O   UNL A   1      47.635  37.227  30.953  1.00  0.00    -0.237 OA
ATOM     50  O   UNL A   1      49.120  37.240  28.978  1.00  0.00    -0.237 OA
ATOM     51  O   UNL A   1      46.789  38.020  28.775  1.00  0.00    -0.744 OA
ENDBRANCH  47  48
ENDBRANCH  26  40
BRANCH  27  52
ATOM     52  C   UNL A   1      43.403  23.471  26.918  1.00  0.00     0.058 A 
ATOM     53  C   UNL A   1      43.240  22.961  25.621  1.00  0.00     0.135 A 
ATOM     54  C   UNL A   1      43.172  22.600  27.996  1.00  0.00     0.135 A 
ATOM     55  F   UNL A   1      43.444  23.756  24.559  1.00  0.00    -0.206 F 
ATOM     56  C   UNL A   1      42.857  21.643  25.398  1.00  0.00     0.059 A 
ATOM     57  C   UNL A   1      42.815  21.270  27.797  1.00  0.00     0.059 A 
ATOM     58  F   UNL A   1      43.330  23.033  29.256  1.00  0.00    -0.206 F 
ATOM     59  C   UNL A   1      42.655  20.803  26.493  1.00  0.00     0.060 A 
BRANCH  59  60
ATOM     60  S   UNL A   1      42.220  19.077  26.187  1.00  0.00     0.124 S 
ATOM     61  O   UNL A   1      42.504  18.467  27.480  1.00  0.00    -0.237 OA
ATOM     62  O   UNL A   1      40.809  19.181  25.824  1.00  0.00    -0.237 OA
ATOM     63  O   UNL A   1      43.112  18.693  25.097  1.00  0.00    -0.744 OA
ENDBRANCH  59  60
ENDBRANCH  27  52
BRANCH  39  64
ATOM     64  C   UNL A   1      49.565  26.732  26.453  1.00  0.00     0.058 A 
ATOM     65  C   UNL A   1      50.415  26.115  27.385  1.00  0.00     0.135 A 
ATOM     66  C   UNL A   1      50.005  26.826  25.122  1.00  0.00     0.135 A 
ATOM     67  F   UNL A   1      50.044  26.005  28.670  1.00  0.00    -0.206 F 
ATOM     68  C   UNL A   1      51.660  25.621  27.013  1.00  0.00     0.059 A 
ATOM     69  C   UNL A   1      51.234  26.312  24.723  1.00  0.00     0.059 A 
ATOM     70  F   UNL A   1      49.225  27.396  24.191  1.00  0.00    -0.206 F 
ATOM     71  C   UNL A   1      52.057  25.717  25.677  1.00  0.00     0.060 A 
BRANCH  71  72
ATOM     72  S   UNL A   1      53.657  25.028  25.205  1.00  0.00     0.124 S 
ATOM     73  O   UNL A   1      53.373  23.597  25.206  1.00  0.00    -0.237 OA
ATOM     74  O   UNL A   1      53.877  25.629  23.894  1.00  0.00    -0.237 OA
ATOM     75  O   UNL A   1      54.553  25.491  26.260  1.00  0.00    -0.744 OA
ENDBRANCH  71  72
ENDBRANCH  39  64
ENDBRANCH  13  14
ENDBRANCH   6   8
ENDBRANCH   3   4
ENDBRANCH   2   3
ENDBRANCH   1   2
BRANCH   1  76
ATOM     76  N   UNL A   1      33.955  29.603  25.597  1.00  0.00    -0.355 N 
ATOM     77  C   UNL A   1      33.206  29.027  24.616  1.00  0.00     0.235 C 
ATOM     78  H   UNL A   1      34.824  29.940  25.280  1.00  0.00     0.163 HD
ATOM     79  O   UNL A   1      33.683  29.093  23.476  1.00  0.00    -0.274 OA
BRANCH  77  80
ATOM     80  C   UNL A   1      31.831  28.384  24.810  1.00  0.00     0.163 C 
ATOM     81  S   UNL A   1      30.550  29.112  23.723  1.00  0.00    -0.119 SA
ATOM     82  C   UNL A   1      31.818  26.887  24.538  1.00  0.00     0.170 C 
ATOM     83  C   UNL A   1      30.467  27.698  22.720  1.00  0.00     0.038 C 
ATOM     84  C   UNL A   1      31.114  26.643  23.228  1.00  0.00     0.002 C 
BRANCH  82  85
ATOM     85  S   UNL A   1      30.985  25.965  25.862  1.00  0.00     0.219 S 
ATOM     86  O   UNL A   1      31.326  26.571  27.129  1.00  0.00    -0.212 OA
ATOM     87  O   UNL A   1      29.590  25.832  25.491  1.00  0.00    -0.212 OA
BRANCH  85  88
ATOM     88  N   UNL A   1      31.563  24.403  25.857  1.00  0.00    -0.214 NA
ATOM     89  H   UNL A   1      31.666  24.161  26.843  1.00  0.00     0.141 HD
BRANCH  88  90
ATOM     90  C   UNL A   1      30.943  23.218  25.243  1.00  0.00     0.103 C 
BRANCH  90  91
ATOM     91  C   UNL A   1      31.875  22.042  24.950  1.00  0.00     0.050 C 
BRANCH  91  92
ATOM     92  C   UNL A   1      33.050  22.443  24.124  1.00  0.00    -0.038 C 
ATOM     93  C   UNL A   1      34.331  22.178  24.363  1.00  0.00     0.001 A 
ATOM     94  C   UNL A   1      32.901  23.277  22.886  1.00  0.00     0.174 C 
ATOM     95  C   UNL A   1      35.045  21.433  25.348  1.00  0.00     0.010 A 
ATOM     96  C   UNL A   1      35.016  22.917  23.293  1.00  0.00     0.065 A 
ATOM     97  N   UNL A   1      34.287  23.553  22.429  1.00  0.00    -0.280 NA
ATOM     98  C   UNL A   1      36.387  21.430  25.300  1.00  0.00     0.001 A 
ATOM     99  C   UNL A   1      36.493  22.888  23.324  1.00  0.00     0.028 A 
ATOM    100  C   UNL A   1      37.110  22.180  24.286  1.00  0.00     0.002 A 
ENDBRANCH  91  92
ENDBRANCH  90  91
ENDBRANCH  88  90
ENDBRANCH  85  88
ENDBRANCH  82  85
ENDBRANCH  77  80
ENDBRANCH   1  76
TORSDOF 18
ENDMDL
MODEL 2
REMARK VINA RESULT:     -12.1      2.255      9.051
REMARK SMILES O=C(NCCCNC(=O)[C@H]1SC=C[C@@H]1S(=O)(=O)NCCC1=c2ccccc2=NC1)c1ccc(-c2c3nc(c(-c4c(F)cc(S(=O)(=O)[O-])cc4F)c4ccc([nH]4)c(-c4c(F)cc(S(=O)(=O)[O-])cc4F)c4nc(c(-c5c(F)cc(S(=O)(=O)[O-])cc5F)c5ccc2[nH]5)C=C4)C=C3)cc1
REMARK SMILES IDX 6 1 5 2 4 3 3 4 1 5 2 6 30 8 31 9 95 10 32 11 94 12 33 13
REMARK SMILES IDX 34 14 35 15 88 16 36 17 93 18 87 19 89 20 37 21 92 22 86 23
REMARK SMILES IDX 85 24 38 26 72 27 51 28 71 29 52 30 55 31 70 32 90 33 53 34
REMARK SMILES IDX 54 35 69 37 91 38 56 39 39 40 40 41 49 42 41 43 42 44 48 45
REMARK SMILES IDX 50 46 43 47 44 48 45 49 46 50 47 51 73 52 74 53 83 54 75 55
REMARK SMILES IDX 76 56 82 57 84 58 77 59 78 60 79 61 80 62 81 63 57 64 58 65
REMARK SMILES IDX 67 66 59 67 60 68 66 69 68 70 61 71 62 72 63 73 64 74 65 75
REMARK SMILES IDX 7 76 8 77 9 79 10 80 11 81 14 82 12 83 13 84 15 85 16 86
REMARK SMILES IDX 17 87 18 88 19 90 20 91 21 92 22 93 29 94 23 95 27 96 28 97
REMARK SMILES IDX 24 98 26 99 25 100
REMARK H PARENT 3 7 89 25 55 36 7 78 18 89
REMARK Flexibility Score: inf
ROOT
ATOM      1  C   UNL A   1      36.850  21.027  25.220  1.00  0.00     0.117 C 
ENDROOT
BRANCH   1   2
ATOM      2  C   UNL A   1      38.076  20.125  25.101  1.00  0.00     0.042 C 
BRANCH   2   3
ATOM      3  C   UNL A   1      39.230  20.553  25.988  1.00  0.00     0.118 C 
BRANCH   3   4
ATOM      4  N   UNL A   1      40.220  19.498  26.110  1.00  0.00    -0.352 N 
ATOM      5  O   UNL A   1      42.233  18.545  25.915  1.00  0.00    -0.269 OA
ATOM      6  C   UNL A   1      41.587  19.570  26.123  1.00  0.00     0.251 C 
ATOM      7  H   UNL A   1      39.850  18.590  26.199  1.00  0.00     0.163 HD
BRANCH   6   8
ATOM      8  C   UNL A   1      42.282  20.846  26.403  1.00  0.00     0.039 A 
ATOM      9  C   UNL A   1      42.475  21.225  27.735  1.00  0.00     0.014 A 
ATOM     10  C   UNL A   1      42.648  21.718  25.373  1.00  0.00     0.014 A 
ATOM     11  C   UNL A   1      43.017  22.477  28.028  1.00  0.00     0.010 A 
ATOM     12  C   UNL A   1      43.287  22.916  25.663  1.00  0.00     0.010 A 
ATOM     13  C   UNL A   1      43.423  23.333  26.993  1.00  0.00    -0.014 A 
BRANCH  13  14
ATOM     14  C   UNL A   1      43.872  24.717  27.271  1.00  0.00     0.031 A 
ATOM     15  C   UNL A   1      45.326  25.071  27.082  1.00  0.00     0.074 A 
ATOM     16  C   UNL A   1      42.991  25.639  27.698  1.00  0.00     0.049 A 
ATOM     17  N   UNL A   1      45.941  26.198  27.325  1.00  0.00    -0.248 NA
ATOM     18  C   UNL A   1      46.211  24.006  26.577  1.00  0.00     0.031 C 
ATOM     19  C   UNL A   1      41.564  25.403  27.924  1.00  0.00     0.029 A 
ATOM     20  N   UNL A   1      43.164  26.963  28.009  1.00  0.00    -0.354 N 
ATOM     21  C   UNL A   1      47.277  25.974  27.011  1.00  0.00     0.074 A 
ATOM     22  C   UNL A   1      47.400  24.585  26.635  1.00  0.00     0.031 C 
ATOM     23  C   UNL A   1      40.984  26.555  28.298  1.00  0.00     0.029 A 
ATOM     24  C   UNL A   1      42.003  27.597  28.383  1.00  0.00     0.049 A 
ATOM     25  H   UNL A   1      44.037  27.415  27.970  1.00  0.00     0.167 HD
ATOM     26  C   UNL A   1      48.303  26.857  26.999  1.00  0.00     0.037 A 
ATOM     27  C   UNL A   1      41.791  28.875  28.751  1.00  0.00     0.037 A 
ATOM     28  C   UNL A   1      48.162  28.245  27.344  1.00  0.00     0.049 A 
ATOM     29  C   UNL A   1      42.955  29.827  28.775  1.00  0.00     0.074 A 
ATOM     30  C   UNL A   1      49.128  29.235  27.342  1.00  0.00     0.029 A 
ATOM     31  N   UNL A   1      46.974  28.843  27.743  1.00  0.00    -0.354 N 
ATOM     32  N   UNL A   1      44.209  29.606  28.455  1.00  0.00    -0.248 NA
ATOM     33  C   UNL A   1      42.679  31.203  29.210  1.00  0.00     0.031 C 
ATOM     34  C   UNL A   1      48.536  30.421  27.785  1.00  0.00     0.029 A 
ATOM     35  C   UNL A   1      47.189  30.184  28.011  1.00  0.00     0.049 A 
ATOM     36  H   UNL A   1      46.109  28.382  27.825  1.00  0.00     0.167 HD
ATOM     37  C   UNL A   1      44.866  30.819  28.627  1.00  0.00     0.074 A 
ATOM     38  C   UNL A   1      43.868  31.773  29.066  1.00  0.00     0.031 C 
ATOM     39  C   UNL A   1      46.177  31.116  28.443  1.00  0.00     0.037 A 
BRANCH  26  40
ATOM     40  C   UNL A   1      49.658  26.351  26.583  1.00  0.00     0.058 A 
ATOM     41  C   UNL A   1      50.105  26.456  25.255  1.00  0.00     0.135 A 
ATOM     42  C   UNL A   1      50.535  25.791  27.524  1.00  0.00     0.135 A 
ATOM     43  F   UNL A   1      49.300  26.965  24.308  1.00  0.00    -0.206 F 
ATOM     44  C   UNL A   1      51.362  26.001  24.871  1.00  0.00     0.059 A 
ATOM     45  C   UNL A   1      51.810  25.357  27.169  1.00  0.00     0.059 A 
ATOM     46  F   UNL A   1      50.159  25.660  28.807  1.00  0.00    -0.206 F 
ATOM     47  C   UNL A   1      52.209  25.456  25.837  1.00  0.00     0.060 A 
BRANCH  47  48
ATOM     48  S   UNL A   1      53.841  24.885  25.319  1.00  0.00     0.124 S 
ATOM     49  O   UNL A   1      54.651  25.218  26.487  1.00  0.00    -0.237 OA
ATOM     50  O   UNL A   1      53.613  23.462  25.091  1.00  0.00    -0.237 OA
ATOM     51  O   UNL A   1      54.115  25.674  24.123  1.00  0.00    -0.744 OA
ENDBRANCH  47  48
ENDBRANCH  26  40
BRANCH  27  52
ATOM     52  C   UNL A   1      40.416  29.327  29.089  1.00  0.00     0.058 A 
ATOM     53  C   UNL A   1      40.040  29.548  30.423  1.00  0.00     0.135 A 
ATOM     54  C   UNL A   1      39.462  29.586  28.091  1.00  0.00     0.135 A 
ATOM     55  F   UNL A   1      40.915  29.309  31.412  1.00  0.00    -0.206 F 
ATOM     56  C   UNL A   1      38.769  30.001  30.757  1.00  0.00     0.059 A 
ATOM     57  C   UNL A   1      38.192  30.066  28.400  1.00  0.00     0.059 A 
ATOM     58  F   UNL A   1      39.775  29.407  26.798  1.00  0.00    -0.206 F 
ATOM     59  C   UNL A   1      37.854  30.265  29.737  1.00  0.00     0.060 A 
BRANCH  59  60
ATOM     60  S   UNL A   1      36.229  30.914  30.184  1.00  0.00     0.124 S 
ATOM     61  O   UNL A   1      35.411  30.455  29.067  1.00  0.00    -0.237 OA
ATOM     62  O   UNL A   1      35.985  30.259  31.466  1.00  0.00    -0.237 OA
ATOM     63  O   UNL A   1      36.449  32.355  30.256  1.00  0.00    -0.744 OA
ENDBRANCH  59  60
ENDBRANCH  27  52
BRANCH  39  64
ATOM     64  C   UNL A   1      46.611  32.534  28.696  1.00  0.00     0.058 A 
ATOM     65  C   UNL A   1      46.570  33.505  27.684  1.00  0.00     0.135 A 
ATOM     66  C   UNL A   1      46.992  32.942  29.985  1.00  0.00     0.135 A 
ATOM     67  F   UNL A   1      46.218  33.164  26.433  1.00  0.00    -0.206 F 
ATOM     68  C   UNL A   1      46.907  34.829  27.936  1.00  0.00     0.059 A 
ATOM     69  C   UNL A   1      47.303  34.268  30.267  1.00  0.00     0.059 A 
ATOM     70  F   UNL A   1      47.035  32.055  30.990  1.00  0.00    -0.206 F 
ATOM     71  C   UNL A   1      47.264  35.203  29.234  1.00  0.00     0.060 A 
BRANCH  71  72
ATOM     72  S   UNL A   1      47.651  36.936  29.553  1.00  0.00     0.124 S 
ATOM     73  O   UNL A   1      46.342  37.470  29.909  1.00  0.00    -0.237 OA
ATOM     74  O   UNL A   1      48.616  36.841  30.645  1.00  0.00    -0.237 OA
ATOM     75  O   UNL A   1      48.195  37.404  28.282  1.00  0.00    -0.744 OA
ENDBRANCH  71  72
ENDBRANCH  39  64
ENDBRANCH  13  14
ENDBRANCH   6   8
ENDBRANCH   3   4
ENDBRANCH   2   3
ENDBRANCH   1   2
BRANCH   1  76
ATOM     76  N   UNL A   1      35.592  20.307  25.133  1.00  0.00    -0.355 N 
ATOM     77  C   UNL A   1      34.298  20.712  25.004  1.00  0.00     0.235 C 
ATOM     78  H   UNL A   1      35.695  19.328  25.177  1.00  0.00     0.163 HD
ATOM     79  O   UNL A   1      33.468  19.804  24.872  1.00  0.00    -0.274 OA
BRANCH  77  80
ATOM     80  C   UNL A   1      33.824  22.166  24.947  1.00  0.00     0.163 C 
ATOM     81  S   UNL A   1      34.243  22.985  23.364  1.00  0.00    -0.119 SA
ATOM     82  C   UNL A   1      32.321  22.321  25.121  1.00  0.00     0.170 C 
ATOM     83  C   UNL A   1      32.593  22.996  22.828  1.00  0.00     0.038 C 
ATOM     84  C   UNL A   1      31.717  22.671  23.785  1.00  0.00     0.002 C 
BRANCH  82  85
ATOM     85  S   UNL A   1      31.908  23.606  26.335  1.00  0.00     0.219 S 
ATOM     86  O   UNL A   1      31.791  22.989  27.636  1.00  0.00    -0.212 OA
ATOM     87  O   UNL A   1      32.841  24.700  26.149  1.00  0.00    -0.212 OA
BRANCH  85  88
ATOM     88  N   UNL A   1      30.428  24.255  25.928  1.00  0.00    -0.214 NA
ATOM     89  H   UNL A   1      29.801  23.962  26.678  1.00  0.00     0.141 HD
BRANCH  88  90
ATOM     90  C   UNL A   1      30.101  25.672  25.699  1.00  0.00     0.103 C 
BRANCH  90  91
ATOM     91  C   UNL A   1      29.337  25.989  24.413  1.00  0.00     0.050 C 
BRANCH  91  92
ATOM     92  C   UNL A   1      29.913  27.157  23.686  1.00  0.00    -0.038 C 
ATOM     93  C   UNL A   1      29.253  28.184  23.161  1.00  0.00     0.001 A 
ATOM     94  C   UNL A   1      31.384  27.275  23.415  1.00  0.00     0.174 C 
ATOM     95  C   UNL A   1      27.890  28.602  23.127  1.00  0.00     0.010 A 
ATOM     96  C   UNL A   1      30.318  28.936  22.482  1.00  0.00     0.065 A 
ATOM     97  N   UNL A   1      31.534  28.494  22.580  1.00  0.00    -0.280 NA
ATOM     98  C   UNL A   1      27.575  29.709  22.434  1.00  0.00     0.001 A 
ATOM     99  C   UNL A   1      29.890  30.127  21.718  1.00  0.00     0.028 A 
ATOM    100  C   UNL A   1      28.588  30.462  21.712  1.00  0.00     0.002 A 
ENDBRANCH  91  92
ENDBRANCH  90  91
ENDBRANCH  88  90
ENDBRANCH  85  88
ENDBRANCH  82  85
ENDBRANCH  77  80
ENDBRANCH   1  76
TORSDOF 18
ENDMDL
MODEL 3
REMARK VINA RESULT:     -12.1      0.606      8.113
REMARK SMILES O=C(NCCCNC(=O)[C@H]1SC=C[C@@H]1S(=O)(=O)NCCC1=c2ccccc2=NC1)c1ccc(-c2c3nc(c(-c4c(F)cc(S(=O)(=O)[O-])cc4F)c4ccc([nH]4)c(-c4c(F)cc(S(=O)(=O)[O-])cc4F)c4nc(c(-c5c(F)cc(S(=O)(=O)[O-])cc5F)c5ccc2[nH]5)C=C4)C=C3)cc1
REMARK SMILES IDX 6 1 5 2 4 3 3 4 1 5 2 6 30 8 31 9 95 10 32 11 94 12 33 13
REMARK SMILES IDX 34 14 35 15 88 16 36 17 93 18 87 19 89 20 37 21 92 22 86 23
REMARK SMILES IDX 85 24 38 26 72 27 51 28 71 29 52 30 55 31 70 32 90 33 53 34
REMARK SMILES IDX 54 35 69 37 91 38 56 39 39 40 40 41 49 42 41 43 42 44 48 45
REMARK SMILES IDX 50 46 43 47 44 48 45 49 46 50 47 51 73 52 74 53 83 54 75 55
REMARK SMILES IDX 76 56 82 57 84 58 77 59 78 60 79 61 80 62 81 63 57 64 58 65
REMARK SMILES IDX 67 66 59 67 60 68 66 69 68 70 61 71 62 72 63 73 64 74 65 75
REMARK SMILES IDX 7 76 8 77 9 79 10 80 11 81 14 82 12 83 13 84 15 85 16 86
REMARK SMILES IDX 17 87 18 88 19 90 20 91 21 92 22 93 29 94 23 95 27 96 28 97
REMARK SMILES IDX 24 98 26 99 25 100
REMARK H PARENT 3 7 89 25 55 36 7 78 18 89
REMARK Flexibility Score: inf
ROOT
ATOM      1  C   UNL A   1      33.907  29.450  26.768  1.00  0.00     0.117 C 
ENDROOT
BRANCH   1   2
ATOM      2  C   UNL A   1      35.113  29.307  27.692  1.00  0.00     0.042 C 
BRANCH   2   3
ATOM      3  C   UNL A   1      35.571  30.620  28.298  1.00  0.00     0.118 C 
BRANCH   3   4
ATOM      4  N   UNL A   1      35.561  30.563  29.749  1.00  0.00    -0.352 N 
ATOM      5  O   UNL A   1      36.214  29.883  31.776  1.00  0.00    -0.269 OA
ATOM      6  C   UNL A   1      36.534  30.153  30.620  1.00  0.00     0.251 C 
ATOM      7  H   UNL A   1      34.725  30.867  30.171  1.00  0.00     0.163 HD
BRANCH   6   8
ATOM      8  C   UNL A   1      37.949  30.055  30.195  1.00  0.00     0.039 A 
ATOM      9  C   UNL A   1      38.250  30.194  28.837  1.00  0.00     0.014 A 
ATOM     10  C   UNL A   1      38.960  29.723  31.101  1.00  0.00     0.014 A 
ATOM     11  C   UNL A   1      39.557  29.987  28.393  1.00  0.00     0.010 A 
ATOM     12  C   UNL A   1      40.278  29.624  30.674  1.00  0.00     0.010 A 
ATOM     13  C   UNL A   1      40.578  29.695  29.309  1.00  0.00    -0.014 A 
BRANCH  13  14
ATOM     14  C   UNL A   1      41.941  29.336  28.852  1.00  0.00     0.031 A 
ATOM     15  C   UNL A   1      42.219  27.921  28.408  1.00  0.00     0.074 A 
ATOM     16  C   UNL A   1      42.917  30.262  28.846  1.00  0.00     0.049 A 
ATOM     17  N   UNL A   1      43.347  27.380  28.032  1.00  0.00    -0.248 NA
ATOM     18  C   UNL A   1      41.081  26.984  28.415  1.00  0.00     0.031 C 
ATOM     19  C   UNL A   1      42.761  31.656  29.263  1.00  0.00     0.029 A 
ATOM     20  N   UNL A   1      44.231  30.171  28.467  1.00  0.00    -0.354 N 
ATOM     21  C   UNL A   1      43.055  26.046  27.767  1.00  0.00     0.074 A 
ATOM     22  C   UNL A   1      41.666  25.839  28.099  1.00  0.00     0.031 C 
ATOM     23  C   UNL A   1      43.924  32.300  29.077  1.00  0.00     0.029 A 
ATOM     24  C   UNL A   1      44.918  31.357  28.574  1.00  0.00     0.049 A 
ATOM     25  H   UNL A   1      44.644  29.335  28.150  1.00  0.00     0.167 HD
ATOM     26  C   UNL A   1      43.864  25.088  27.255  1.00  0.00     0.037 A 
ATOM     27  C   UNL A   1      46.204  31.645  28.296  1.00  0.00     0.037 A 
ATOM     28  C   UNL A   1      45.238  25.314  26.898  1.00  0.00     0.049 A 
ATOM     29  C   UNL A   1      47.096  30.553  27.772  1.00  0.00     0.074 A 
ATOM     30  C   UNL A   1      46.142  24.423  26.348  1.00  0.00     0.029 A 
ATOM     31  N   UNL A   1      45.904  26.523  27.047  1.00  0.00    -0.354 N 
ATOM     32  N   UNL A   1      46.799  29.302  27.505  1.00  0.00    -0.248 NA
ATOM     33  C   UNL A   1      48.496  30.908  27.509  1.00  0.00     0.031 C 
ATOM     34  C   UNL A   1      47.368  25.079  26.208  1.00  0.00     0.029 A 
ATOM     35  C   UNL A   1      47.214  26.395  26.619  1.00  0.00     0.049 A 
ATOM     36  H   UNL A   1      45.505  27.348  27.404  1.00  0.00     0.167 HD
ATOM     37  C   UNL A   1      47.970  28.727  27.023  1.00  0.00     0.074 A 
ATOM     38  C   UNL A   1      48.974  29.772  27.020  1.00  0.00     0.031 C 
ATOM     39  C   UNL A   1      48.195  27.451  26.622  1.00  0.00     0.037 A 
BRANCH  26  40
ATOM     40  C   UNL A   1      43.277  23.720  27.035  1.00  0.00     0.058 A 
ATOM     41  C   UNL A   1      42.886  23.285  25.758  1.00  0.00     0.135 A 
ATOM     42  C   UNL A   1      43.138  22.818  28.102  1.00  0.00     0.135 A 
ATOM     43  F   UNL A   1      42.977  24.113  24.704  1.00  0.00    -0.206 F 
ATOM     44  C   UNL A   1      42.355  22.017  25.550  1.00  0.00     0.059 A 
ATOM     45  C   UNL A   1      42.639  21.532  27.912  1.00  0.00     0.059 A 
ATOM     46  F   UNL A   1      43.491  23.181  29.345  1.00  0.00    -0.206 F 
ATOM     47  C   UNL A   1      42.240  21.145  26.634  1.00  0.00     0.060 A 
BRANCH  47  48
ATOM     48  S   UNL A   1      41.562  19.499  26.339  1.00  0.00     0.124 S 
ATOM     49  O   UNL A   1      41.786  18.855  27.630  1.00  0.00    -0.237 OA
ATOM     50  O   UNL A   1      40.171  19.791  26.010  1.00  0.00    -0.237 OA
ATOM     51  O   UNL A   1      42.372  18.989  25.238  1.00  0.00    -0.744 OA
ENDBRANCH  47  48
ENDBRANCH  26  40
BRANCH  27  52
ATOM     52  C   UNL A   1      46.705  33.033  28.475  1.00  0.00     0.058 A 
ATOM     53  C   UNL A   1      46.623  33.966  27.430  1.00  0.00     0.135 A 
ATOM     54  C   UNL A   1      47.239  33.469  29.699  1.00  0.00     0.135 A 
ATOM     55  F   UNL A   1      46.125  33.595  26.240  1.00  0.00    -0.206 F 
ATOM     56  C   UNL A   1      47.057  35.278  27.587  1.00  0.00     0.059 A 
ATOM     57  C   UNL A   1      47.655  34.784  29.888  1.00  0.00     0.059 A 
ATOM     58  F   UNL A   1      47.326  32.621  30.735  1.00  0.00    -0.206 F 
ATOM     59  C   UNL A   1      47.564  35.679  28.823  1.00  0.00     0.060 A 
BRANCH  59  60
ATOM     60  S   UNL A   1      48.065  37.401  29.031  1.00  0.00     0.124 S 
ATOM     61  O   UNL A   1      46.775  38.080  29.080  1.00  0.00    -0.237 OA
ATOM     62  O   UNL A   1      48.808  37.351  30.287  1.00  0.00    -0.237 OA
ATOM     63  O   UNL A   1      48.873  37.663  27.844  1.00  0.00    -0.744 OA
ENDBRANCH  59  60
ENDBRANCH  27  52
BRANCH  39  64
ATOM     64  C   UNL A   1      49.574  27.110  26.128  1.00  0.00     0.058 A 
ATOM     65  C   UNL A   1      50.546  26.569  26.984  1.00  0.00     0.135 A 
ATOM     66  C   UNL A   1      49.898  27.247  24.768  1.00  0.00     0.135 A 
ATOM     67  F   UNL A   1      50.289  26.423  28.293  1.00  0.00    -0.206 F 
ATOM     68  C   UNL A   1      51.798  26.192  26.511  1.00  0.00     0.059 A 
ATOM     69  C   UNL A   1      51.133  26.847  24.268  1.00  0.00     0.059 A 
ATOM     70  F   UNL A   1      48.999  27.748  23.906  1.00  0.00    -0.206 F 
ATOM     71  C   UNL A   1      52.078  26.326  25.149  1.00  0.00     0.060 A 
BRANCH  71  72
ATOM     72  S   UNL A   1      53.691  25.786  24.547  1.00  0.00     0.124 S 
ATOM     73  O   UNL A   1      53.647  24.355  24.830  1.00  0.00    -0.237 OA
ATOM     74  O   UNL A   1      53.633  26.154  23.136  1.00  0.00    -0.237 OA
ATOM     75  O   UNL A   1      54.632  26.556  25.353  1.00  0.00    -0.744 OA
ENDBRANCH  71  72
ENDBRANCH  39  64
ENDBRANCH  13  14
ENDBRANCH   6   8
ENDBRANCH   3   4
ENDBRANCH   2   3
ENDBRANCH   1   2
BRANCH   1  76
ATOM     76  N   UNL A   1      34.156  28.982  25.416  1.00  0.00    -0.355 N 
ATOM     77  C   UNL A   1      33.387  28.323  24.506  1.00  0.00     0.235 C 
ATOM     78  H   UNL A   1      35.064  29.181  25.092  1.00  0.00     0.163 HD
ATOM     79  O   UNL A   1      33.904  28.156  23.395  1.00  0.00    -0.274 OA
BRANCH  77  80
ATOM     80  C   UNL A   1      31.949  27.849  24.735  1.00  0.00     0.163 C 
ATOM     81  S   UNL A   1      30.718  28.861  23.833  1.00  0.00    -0.119 SA
ATOM     82  C   UNL A   1      31.711  26.408  24.308  1.00  0.00     0.170 C 
ATOM     83  C   UNL A   1      30.378  27.596  22.695  1.00  0.00     0.038 C 
ATOM     84  C   UNL A   1      30.900  26.413  23.037  1.00  0.00     0.002 C 
BRANCH  82  85
ATOM     85  S   UNL A   1      30.839  25.458  25.585  1.00  0.00     0.219 S 
ATOM     86  O   UNL A   1      31.669  25.408  26.767  1.00  0.00    -0.212 OA
ATOM     87  O   UNL A   1      29.494  25.988  25.685  1.00  0.00    -0.212 OA
BRANCH  85  88
ATOM     88  N   UNL A   1      30.628  23.902  25.028  1.00  0.00    -0.214 NA
ATOM     89  H   UNL A   1      30.718  23.975  24.014  1.00  0.00     0.141 HD
BRANCH  88  90
ATOM     90  C   UNL A   1      31.405  22.705  25.389  1.00  0.00     0.103 C 
BRANCH  90  91
ATOM     91  C   UNL A   1      31.944  21.873  24.225  1.00  0.00     0.050 C 
BRANCH  91  92
ATOM     92  C   UNL A   1      33.264  22.367  23.739  1.00  0.00    -0.038 C 
ATOM     93  C   UNL A   1      34.469  21.935  24.099  1.00  0.00     0.001 A 
ATOM     94  C   UNL A   1      33.376  23.505  22.768  1.00  0.00     0.174 C 
ATOM     95  C   UNL A   1      34.962  20.898  24.945  1.00  0.00     0.010 A 
ATOM     96  C   UNL A   1      35.366  22.863  23.395  1.00  0.00     0.065 A 
ATOM     97  N   UNL A   1      34.831  23.765  22.632  1.00  0.00    -0.280 NA
ATOM     98  C   UNL A   1      36.290  20.786  25.114  1.00  0.00     0.001 A 
ATOM     99  C   UNL A   1      36.811  22.693  23.653  1.00  0.00     0.028 A 
ATOM    100  C   UNL A   1      37.214  21.706  24.472  1.00  0.00     0.002 A 
ENDBRANCH  91  92
ENDBRANCH  90  91
ENDBRANCH  88  90
ENDBRANCH  85  88
ENDBRANCH  82  85
ENDBRANCH  77  80
ENDBRANCH   1  76
TORSDOF 18
ENDMDL
