MODEL 1
REMARK VINA RESULT:     -11.6      0.000      0.000
REMARK SMILES C#CCNC(=O)[C@H](C)S(=O)(=O)c1ccc(C(=O)NCCCNC(=O)c2ccc(-c3c4nc(c(-c5c(F)cc(S(=O)(=O)[O-])cc5F)c5ccc([nH]5)c(-c5c(F)cc(S(=O)(=O)[O-])cc5F)c5nc(c(-c6c(F)cc(S(=O)(=O)[O-])cc6F)c6ccc3[nH]6)C=C5)C=C4)cc2)cc1F
REMARK SMILES IDX 19 1 18 2 16 3 17 4 15 6 12 7 13 8 92 9 14 10 91 11 93 12
REMARK SMILES IDX 9 13 10 14 11 15 7 16 8 17 5 18 4 19 6 21 3 22 2 23 1 24
REMARK SMILES IDX 20 25 21 26 22 27 23 28 24 30 25 31 26 32 90 33 27 34 89 35
REMARK SMILES IDX 28 36 29 37 30 38 83 39 31 40 88 41 82 42 84 43 32 44 87 45
REMARK SMILES IDX 81 46 80 47 33 49 67 50 46 51 66 52 47 53 50 54 65 55 85 56
REMARK SMILES IDX 48 57 49 58 64 60 86 61 51 62 34 63 35 64 44 65 36 66 37 67
REMARK SMILES IDX 43 68 45 69 38 70 39 71 40 72 41 73 42 74 68 75 69 76 78 77
REMARK SMILES IDX 70 78 71 79 77 80 79 81 72 82 73 83 74 84 75 85 76 86 52 87
REMARK SMILES IDX 53 88 62 89 54 90 55 91 61 92 63 93 56 94 57 95 58 96 59 97
REMARK SMILES IDX 60 98
REMARK H PARENT 18 5 4 20 22 29 84 48 50 59
REMARK Flexibility Score: inf
ROOT
ATOM      1  C   UNL A   1      32.059  29.466  25.022  1.00  0.00     0.118 C 
ENDROOT
BRANCH   1   2
ATOM      2  N   UNL A   1      31.385  29.304  23.744  1.00  0.00    -0.352 N 
ATOM      3  C   UNL A   1      30.830  28.217  23.121  1.00  0.00     0.251 C 
ATOM      4  O   UNL A   1      30.251  28.401  22.050  1.00  0.00    -0.269 OA
ATOM      5  H   UNL A   1      31.314  30.137  23.226  1.00  0.00     0.163 HD
BRANCH   3   6
ATOM      6  C   UNL A   1      30.800  26.859  23.732  1.00  0.00     0.042 A 
ATOM      7  C   UNL A   1      31.109  24.488  25.195  1.00  0.00     0.103 A 
ATOM      8  C   UNL A   1      30.486  25.591  25.785  1.00  0.00     0.024 A 
ATOM      9  C   UNL A   1      31.385  24.516  23.838  1.00  0.00     0.142 A 
ATOM     10  C   UNL A   1      30.324  26.767  25.048  1.00  0.00     0.015 A 
ATOM     11  C   UNL A   1      31.244  25.696  23.105  1.00  0.00     0.054 A 
ATOM     12  F   UNL A   1      31.862  23.440  23.204  1.00  0.00    -0.206 F 
BRANCH   7  13
ATOM     13  S   UNL A   1      31.498  23.069  26.172  1.00  0.00     0.192 S 
ATOM     14  O   UNL A   1      30.611  22.019  25.704  1.00  0.00    -0.223 OA
ATOM     15  O   UNL A   1      31.394  23.504  27.555  1.00  0.00    -0.223 OA
BRANCH  13  16
ATOM     16  C   UNL A   1      33.161  22.536  25.918  1.00  0.00     0.199 C 
ATOM     17  C   UNL A   1      34.244  23.586  25.781  1.00  0.00     0.036 C 
BRANCH  16  18
ATOM     18  C   UNL A   1      33.571  21.313  26.703  1.00  0.00     0.239 C 
ATOM     19  N   UNL A   1      33.212  20.041  26.414  1.00  0.00    -0.344 N 
ATOM     20  H   UNL A   1      33.401  19.410  27.147  1.00  0.00     0.164 HD
ATOM     21  O   UNL A   1      34.188  21.449  27.768  1.00  0.00    -0.274 OA
BRANCH  19  22
ATOM     22  C   UNL A   1      32.614  19.407  25.266  1.00  0.00     0.206 C 
BRANCH  22  23
ATOM     23  C   UNL A   1      32.802  17.957  25.393  1.00  0.00    -0.085 C 
ATOM     24  C   UNL A   1      32.954  16.771  25.449  1.00  0.00     0.006 C 
ENDBRANCH  22  23
ENDBRANCH  19  22
ENDBRANCH  16  18
ENDBRANCH  13  16
ENDBRANCH   7  13
ENDBRANCH   3   6
ENDBRANCH   1   2
BRANCH   1  25
ATOM     25  C   UNL A   1      33.446  28.830  25.002  1.00  0.00     0.042 C 
BRANCH  25  26
ATOM     26  C   UNL A   1      34.115  28.786  26.371  1.00  0.00     0.118 C 
BRANCH  26  27
ATOM     27  N   UNL A   1      33.948  30.032  27.108  1.00  0.00    -0.352 N 
ATOM     28  C   UNL A   1      34.763  30.604  28.056  1.00  0.00     0.251 C 
ATOM     29  H   UNL A   1      33.130  30.538  26.897  1.00  0.00     0.163 HD
ATOM     30  O   UNL A   1      34.346  31.546  28.723  1.00  0.00    -0.269 OA
BRANCH  28  31
ATOM     31  C   UNL A   1      36.125  30.072  28.284  1.00  0.00     0.039 A 
ATOM     32  C   UNL A   1      37.056  30.113  27.244  1.00  0.00     0.014 A 
ATOM     33  C   UNL A   1      36.482  29.530  29.522  1.00  0.00     0.014 A 
ATOM     34  C   UNL A   1      38.366  29.681  27.469  1.00  0.00     0.010 A 
ATOM     35  C   UNL A   1      37.806  29.181  29.769  1.00  0.00     0.010 A 
ATOM     36  C   UNL A   1      38.764  29.253  28.747  1.00  0.00    -0.014 A 
BRANCH  36  37
ATOM     37  C   UNL A   1      40.171  28.880  29.046  1.00  0.00     0.031 A 
ATOM     38  C   UNL A   1      41.126  29.917  29.574  1.00  0.00     0.074 A 
ATOM     39  C   UNL A   1      40.610  27.638  28.759  1.00  0.00     0.049 A 
ATOM     40  N   UNL A   1      42.416  29.826  29.769  1.00  0.00    -0.248 NA
ATOM     41  C   UNL A   1      40.565  31.239  29.906  1.00  0.00     0.031 C 
ATOM     42  C   UNL A   1      39.787  26.557  28.208  1.00  0.00     0.029 A 
ATOM     43  N   UNL A   1      41.858  27.075  28.870  1.00  0.00    -0.354 N 
ATOM     44  C   UNL A   1      42.820  31.075  30.224  1.00  0.00     0.074 A 
ATOM     45  C   UNL A   1      41.650  31.924  30.238  1.00  0.00     0.031 C 
ATOM     46  C   UNL A   1      40.548  25.464  28.040  1.00  0.00     0.029 A 
ATOM     47  C   UNL A   1      41.924  25.776  28.417  1.00  0.00     0.049 A 
ATOM     48  H   UNL A   1      42.634  27.555  29.238  1.00  0.00     0.167 HD
ATOM     49  C   UNL A   1      44.055  31.469  30.614  1.00  0.00     0.037 A 
ATOM     50  C   UNL A   1      42.973  24.938  28.292  1.00  0.00     0.037 A 
ATOM     51  C   UNL A   1      45.205  30.604  30.633  1.00  0.00     0.049 A 
ATOM     52  C   UNL A   1      44.339  25.409  28.718  1.00  0.00     0.074 A 
ATOM     53  C   UNL A   1      46.482  30.895  31.078  1.00  0.00     0.029 A 
ATOM     54  N   UNL A   1      45.224  29.291  30.189  1.00  0.00    -0.354 N 
ATOM     55  N   UNL A   1      44.689  26.575  29.208  1.00  0.00    -0.248 NA
ATOM     56  C   UNL A   1      45.452  24.459  28.581  1.00  0.00     0.031 C 
ATOM     57  C   UNL A   1      47.290  29.781  30.842  1.00  0.00     0.029 A 
ATOM     58  C   UNL A   1      46.499  28.770  30.319  1.00  0.00     0.049 A 
ATOM     59  H   UNL A   1      44.446  28.803  29.835  1.00  0.00     0.167 HD
ATOM     60  C   UNL A   1      46.054  26.488  29.461  1.00  0.00     0.074 A 
ATOM     61  C   UNL A   1      46.465  25.152  29.084  1.00  0.00     0.031 C 
ATOM     62  C   UNL A   1      46.890  27.430  29.960  1.00  0.00     0.037 A 
BRANCH  49  63
ATOM     63  C   UNL A   1      44.248  32.888  31.073  1.00  0.00     0.058 A 
ATOM     64  C   UNL A   1      43.950  33.252  32.397  1.00  0.00     0.135 A 
ATOM     65  C   UNL A   1      44.597  33.910  30.175  1.00  0.00     0.135 A 
ATOM     66  F   UNL A   1      43.620  32.312  33.297  1.00  0.00    -0.206 F 
ATOM     67  C   UNL A   1      43.947  34.580  32.803  1.00  0.00     0.059 A 
ATOM     68  C   UNL A   1      44.629  35.244  30.568  1.00  0.00     0.059 A 
ATOM     69  F   UNL A   1      44.914  33.614  28.905  1.00  0.00    -0.206 F 
ATOM     70  C   UNL A   1      44.279  35.572  31.878  1.00  0.00     0.060 A 
BRANCH  70  71
ATOM     71  S   UNL A   1      44.240  37.294  32.415  1.00  0.00     0.124 S 
ATOM     72  O   UNL A   1      43.199  37.268  33.436  1.00  0.00    -0.237 OA
ATOM     73  O   UNL A   1      45.603  37.491  32.899  1.00  0.00    -0.237 OA
ATOM     74  O   UNL A   1      43.905  38.022  31.194  1.00  0.00    -0.744 OA
ENDBRANCH  70  71
ENDBRANCH  49  63
BRANCH  50  75
ATOM     75  C   UNL A   1      42.775  23.572  27.731  1.00  0.00     0.058 A 
ATOM     76  C   UNL A   1      42.858  23.333  26.350  1.00  0.00     0.135 A 
ATOM     77  C   UNL A   1      42.490  22.479  28.563  1.00  0.00     0.135 A 
ATOM     78  F   UNL A   1      43.116  24.344  25.505  1.00  0.00    -0.206 F 
ATOM     79  C   UNL A   1      42.649  22.068  25.813  1.00  0.00     0.059 A 
ATOM     80  C   UNL A   1      42.310  21.195  28.052  1.00  0.00     0.059 A 
ATOM     81  F   UNL A   1      42.409  22.651  29.892  1.00  0.00    -0.206 F 
ATOM     82  C   UNL A   1      42.378  21.003  26.673  1.00  0.00     0.060 A 
BRANCH  82  83
ATOM     83  S   UNL A   1      42.127  19.367  25.954  1.00  0.00     0.124 S 
ATOM     84  O   UNL A   1      40.683  19.361  25.741  1.00  0.00    -0.237 OA
ATOM     85  O   UNL A   1      42.947  19.436  24.749  1.00  0.00    -0.237 OA
ATOM     86  O   UNL A   1      42.613  18.463  26.991  1.00  0.00    -0.744 OA
ENDBRANCH  82  83
ENDBRANCH  50  75
BRANCH  62  87
ATOM     87  C   UNL A   1      48.334  27.063  30.171  1.00  0.00     0.058 A 
ATOM     88  C   UNL A   1      48.745  26.487  31.385  1.00  0.00     0.135 A 
ATOM     89  C   UNL A   1      49.324  27.394  29.233  1.00  0.00     0.135 A 
ATOM     90  F   UNL A   1      47.840  26.158  32.320  1.00  0.00    -0.206 F 
ATOM     91  C   UNL A   1      50.090  26.288  31.677  1.00  0.00     0.059 A 
ATOM     92  C   UNL A   1      50.674  27.173  29.491  1.00  0.00     0.059 A 
ATOM     93  F   UNL A   1      48.983  27.936  28.054  1.00  0.00    -0.206 F 
ATOM     94  C   UNL A   1      51.047  26.640  30.725  1.00  0.00     0.060 A 
BRANCH  94  95
ATOM     95  S   UNL A   1      52.789  26.394  31.133  1.00  0.00     0.124 S 
ATOM     96  O   UNL A   1      52.741  25.170  31.927  1.00  0.00    -0.237 OA
ATOM     97  O   UNL A   1      53.397  26.270  29.812  1.00  0.00    -0.237 OA
ATOM     98  O   UNL A   1      53.140  27.605  31.868  1.00  0.00    -0.744 OA
ENDBRANCH  94  95
ENDBRANCH  62  87
ENDBRANCH  36  37
ENDBRANCH  28  31
ENDBRANCH  26  27
ENDBRANCH  25  26
ENDBRANCH   1  25
TORSDOF 18
ENDMDL
MODEL 2
REMARK VINA RESULT:     -11.5      4.623      9.591
REMARK SMILES C#CCNC(=O)[C@H](C)S(=O)(=O)c1ccc(C(=O)NCCCNC(=O)c2ccc(-c3c4nc(c(-c5c(F)cc(S(=O)(=O)[O-])cc5F)c5ccc([nH]5)c(-c5c(F)cc(S(=O)(=O)[O-])cc5F)c5nc(c(-c6c(F)cc(S(=O)(=O)[O-])cc6F)c6ccc3[nH]6)C=C5)C=C4)cc2)cc1F
REMARK SMILES IDX 19 1 18 2 16 3 17 4 15 6 12 7 13 8 92 9 14 10 91 11 93 12
REMARK SMILES IDX 9 13 10 14 11 15 7 16 8 17 5 18 4 19 6 21 3 22 2 23 1 24
REMARK SMILES IDX 20 25 21 26 22 27 23 28 24 30 25 31 26 32 90 33 27 34 89 35
REMARK SMILES IDX 28 36 29 37 30 38 83 39 31 40 88 41 82 42 84 43 32 44 87 45
REMARK SMILES IDX 81 46 80 47 33 49 67 50 46 51 66 52 47 53 50 54 65 55 85 56
REMARK SMILES IDX 48 57 49 58 64 60 86 61 51 62 34 63 35 64 44 65 36 66 37 67
REMARK SMILES IDX 43 68 45 69 38 70 39 71 40 72 41 73 42 74 68 75 69 76 78 77
REMARK SMILES IDX 70 78 71 79 77 80 79 81 72 82 73 83 74 84 75 85 76 86 52 87
REMARK SMILES IDX 53 88 62 89 54 90 55 91 61 92 63 93 56 94 57 95 58 96 59 97
REMARK SMILES IDX 60 98
REMARK H PARENT 18 5 4 20 22 29 84 48 50 59
REMARK Flexibility Score: inf
ROOT
ATOM      1  C   UNL A   1      31.399  30.698  26.317  1.00  0.00     0.118 C 
ENDROOT
BRANCH   1   2
ATOM      2  N   UNL A   1      32.226  30.351  25.173  1.00  0.00    -0.352 N 
ATOM      3  C   UNL A   1      32.656  29.150  24.670  1.00  0.00     0.251 C 
ATOM      4  O   UNL A   1      33.300  29.163  23.621  1.00  0.00    -0.269 OA
ATOM      5  H   UNL A   1      32.537  31.130  24.659  1.00  0.00     0.163 HD
BRANCH   3   6
ATOM      6  C   UNL A   1      32.285  27.840  25.272  1.00  0.00     0.042 A 
ATOM      7  C   UNL A   1      31.806  25.172  25.986  1.00  0.00     0.103 A 
ATOM      8  C   UNL A   1      33.106  25.681  26.040  1.00  0.00     0.024 A 
ATOM      9  C   UNL A   1      30.749  26.041  25.774  1.00  0.00     0.142 A 
ATOM     10  C   UNL A   1      33.339  27.015  25.694  1.00  0.00     0.015 A 
ATOM     11  C   UNL A   1      30.980  27.369  25.407  1.00  0.00     0.054 A 
ATOM     12  F   UNL A   1      29.481  25.623  25.842  1.00  0.00    -0.206 F 
BRANCH   7  13
ATOM     13  S   UNL A   1      31.526  23.445  26.227  1.00  0.00     0.192 S 
ATOM     14  O   UNL A   1      30.899  22.976  25.004  1.00  0.00    -0.223 OA
ATOM     15  O   UNL A   1      30.787  23.337  27.475  1.00  0.00    -0.223 OA
BRANCH  13  16
ATOM     16  C   UNL A   1      33.039  22.561  26.441  1.00  0.00     0.199 C 
ATOM     17  C   UNL A   1      33.429  22.123  27.838  1.00  0.00     0.036 C 
BRANCH  16  18
ATOM     18  C   UNL A   1      33.355  21.557  25.359  1.00  0.00     0.239 C 
ATOM     19  N   UNL A   1      33.913  21.847  24.160  1.00  0.00    -0.344 N 
ATOM     20  H   UNL A   1      33.852  21.104  23.517  1.00  0.00     0.164 HD
ATOM     21  O   UNL A   1      32.989  20.381  25.490  1.00  0.00    -0.274 OA
BRANCH  19  22
ATOM     22  C   UNL A   1      34.574  23.007  23.620  1.00  0.00     0.206 C 
BRANCH  22  23
ATOM     23  C   UNL A   1      33.578  23.809  22.900  1.00  0.00    -0.085 C 
ATOM     24  C   UNL A   1      32.739  24.424  22.307  1.00  0.00     0.006 C 
ENDBRANCH  22  23
ENDBRANCH  19  22
ENDBRANCH  16  18
ENDBRANCH  13  16
ENDBRANCH   7  13
ENDBRANCH   3   6
ENDBRANCH   1   2
BRANCH   1  25
ATOM     25  C   UNL A   1      31.404  32.203  26.568  1.00  0.00     0.042 C 
BRANCH  25  26
ATOM     26  C   UNL A   1      32.697  32.710  27.196  1.00  0.00     0.118 C 
BRANCH  26  27
ATOM     27  N   UNL A   1      32.572  34.073  27.696  1.00  0.00    -0.352 N 
ATOM     28  C   UNL A   1      33.258  34.699  28.710  1.00  0.00     0.251 C 
ATOM     29  H   UNL A   1      31.897  34.627  27.241  1.00  0.00     0.163 HD
ATOM     30  O   UNL A   1      32.860  35.782  29.130  1.00  0.00    -0.269 OA
BRANCH  28  31
ATOM     31  C   UNL A   1      34.453  34.062  29.304  1.00  0.00     0.039 A 
ATOM     32  C   UNL A   1      35.721  34.423  28.840  1.00  0.00     0.014 A 
ATOM     33  C   UNL A   1      34.325  33.105  30.315  1.00  0.00     0.014 A 
ATOM     34  C   UNL A   1      36.860  33.882  29.443  1.00  0.00     0.010 A 
ATOM     35  C   UNL A   1      35.458  32.633  30.970  1.00  0.00     0.010 A 
ATOM     36  C   UNL A   1      36.738  33.016  30.543  1.00  0.00    -0.014 A 
BRANCH  36  37
ATOM     37  C   UNL A   1      37.928  32.500  31.269  1.00  0.00     0.031 A 
ATOM     38  C   UNL A   1      38.664  31.296  30.743  1.00  0.00     0.074 A 
ATOM     39  C   UNL A   1      38.290  33.058  32.442  1.00  0.00     0.049 A 
ATOM     40  N   UNL A   1      39.635  30.618  31.297  1.00  0.00    -0.248 NA
ATOM     41  C   UNL A   1      38.239  30.769  29.435  1.00  0.00     0.031 C 
ATOM     42  C   UNL A   1      37.631  34.205  33.072  1.00  0.00     0.029 A 
ATOM     43  N   UNL A   1      39.287  32.727  33.328  1.00  0.00    -0.354 N 
ATOM     44  C   UNL A   1      39.921  29.579  30.420  1.00  0.00     0.074 A 
ATOM     45  C   UNL A   1      38.996  29.687  29.315  1.00  0.00     0.031 C 
ATOM     46  C   UNL A   1      38.246  34.487  34.231  1.00  0.00     0.029 A 
ATOM     47  C   UNL A   1      39.308  33.511  34.460  1.00  0.00     0.049 A 
ATOM     48  H   UNL A   1      39.928  31.997  33.168  1.00  0.00     0.167 HD
ATOM     49  C   UNL A   1      40.884  28.634  30.520  1.00  0.00     0.037 A 
ATOM     50  C   UNL A   1      40.072  33.438  35.568  1.00  0.00     0.037 A 
ATOM     51  C   UNL A   1      41.825  28.559  31.607  1.00  0.00     0.049 A 
ATOM     52  C   UNL A   1      41.125  32.365  35.661  1.00  0.00     0.074 A 
ATOM     53  C   UNL A   1      42.881  27.678  31.760  1.00  0.00     0.029 A 
ATOM     54  N   UNL A   1      41.826  29.385  32.721  1.00  0.00    -0.354 N 
ATOM     55  N   UNL A   1      41.424  31.431  34.789  1.00  0.00    -0.248 NA
ATOM     56  C   UNL A   1      41.948  32.333  36.879  1.00  0.00     0.031 C 
ATOM     57  C   UNL A   1      43.479  27.928  32.997  1.00  0.00     0.029 A 
ATOM     58  C   UNL A   1      42.844  29.012  33.580  1.00  0.00     0.049 A 
ATOM     59  H   UNL A   1      41.197  30.126  32.875  1.00  0.00     0.167 HD
ATOM     60  C   UNL A   1      42.484  30.719  35.341  1.00  0.00     0.074 A 
ATOM     61  C   UNL A   1      42.784  31.337  36.615  1.00  0.00     0.031 C 
ATOM     62  C   UNL A   1      43.147  29.651  34.837  1.00  0.00     0.037 A 
BRANCH  49  63
ATOM     63  C   UNL A   1      41.001  27.603  29.432  1.00  0.00     0.058 A 
ATOM     64  C   UNL A   1      40.091  26.534  29.369  1.00  0.00     0.135 A 
ATOM     65  C   UNL A   1      42.084  27.595  28.539  1.00  0.00     0.135 A 
ATOM     66  F   UNL A   1      39.032  26.499  30.194  1.00  0.00    -0.206 F 
ATOM     67  C   UNL A   1      40.274  25.474  28.490  1.00  0.00     0.059 A 
ATOM     68  C   UNL A   1      42.271  26.558  27.630  1.00  0.00     0.059 A 
ATOM     69  F   UNL A   1      42.969  28.605  28.541  1.00  0.00    -0.206 F 
ATOM     70  C   UNL A   1      41.374  25.490  27.631  1.00  0.00     0.060 A 
BRANCH  70  71
ATOM     71  S   UNL A   1      41.614  24.089  26.518  1.00  0.00     0.124 S 
ATOM     72  O   UNL A   1      40.240  23.673  26.257  1.00  0.00    -0.237 OA
ATOM     73  O   UNL A   1      42.316  24.709  25.399  1.00  0.00    -0.237 OA
ATOM     74  O   UNL A   1      42.412  23.159  27.312  1.00  0.00    -0.744 OA
ENDBRANCH  70  71
ENDBRANCH  49  63
BRANCH  50  75
ATOM     75  C   UNL A   1      39.864  34.405  36.683  1.00  0.00     0.058 A 
ATOM     76  C   UNL A   1      38.971  34.127  37.730  1.00  0.00     0.135 A 
ATOM     77  C   UNL A   1      40.547  35.630  36.720  1.00  0.00     0.135 A 
ATOM     78  F   UNL A   1      38.281  32.975  37.740  1.00  0.00    -0.206 F 
ATOM     79  C   UNL A   1      38.749  35.032  38.761  1.00  0.00     0.059 A 
ATOM     80  C   UNL A   1      40.366  36.539  37.761  1.00  0.00     0.059 A 
ATOM     81  F   UNL A   1      41.419  35.941  35.749  1.00  0.00    -0.206 F 
ATOM     82  C   UNL A   1      39.455  36.235  38.770  1.00  0.00     0.060 A 
BRANCH  82  83
ATOM     83  S   UNL A   1      39.161  37.387  40.128  1.00  0.00     0.124 S 
ATOM     84  O   UNL A   1      40.502  37.914  40.358  1.00  0.00    -0.237 OA
ATOM     85  O   UNL A   1      38.204  38.317  39.536  1.00  0.00    -0.237 OA
ATOM     86  O   UNL A   1      38.631  36.534  41.187  1.00  0.00    -0.744 OA
ENDBRANCH  82  83
ENDBRANCH  50  75
BRANCH  62  87
ATOM     87  C   UNL A   1      44.293  29.083  35.630  1.00  0.00     0.058 A 
ATOM     88  C   UNL A   1      44.057  28.098  36.603  1.00  0.00     0.135 A 
ATOM     89  C   UNL A   1      45.593  29.599  35.519  1.00  0.00     0.135 A 
ATOM     90  F   UNL A   1      42.831  27.576  36.757  1.00  0.00    -0.206 F 
ATOM     91  C   UNL A   1      45.063  27.672  37.464  1.00  0.00     0.059 A 
ATOM     92  C   UNL A   1      46.623  29.162  36.348  1.00  0.00     0.059 A 
ATOM     93  F   UNL A   1      45.872  30.534  34.597  1.00  0.00    -0.206 F 
ATOM     94  C   UNL A   1      46.341  28.215  37.332  1.00  0.00     0.060 A 
BRANCH  94  95
ATOM     95  S   UNL A   1      47.626  27.664  38.474  1.00  0.00     0.124 S 
ATOM     96  O   UNL A   1      48.610  28.735  38.360  1.00  0.00    -0.237 OA
ATOM     97  O   UNL A   1      46.902  27.598  39.741  1.00  0.00    -0.237 OA
ATOM     98  O   UNL A   1      48.037  26.375  37.926  1.00  0.00    -0.744 OA
ENDBRANCH  94  95
ENDBRANCH  62  87
ENDBRANCH  36  37
ENDBRANCH  28  31
ENDBRANCH  26  27
ENDBRANCH  25  26
ENDBRANCH   1  25
TORSDOF 18
ENDMDL
MODEL 3
REMARK VINA RESULT:     -11.4      2.535      3.261
REMARK SMILES C#CCNC(=O)[C@H](C)S(=O)(=O)c1ccc(C(=O)NCCCNC(=O)c2ccc(-c3c4nc(c(-c5c(F)cc(S(=O)(=O)[O-])cc5F)c5ccc([nH]5)c(-c5c(F)cc(S(=O)(=O)[O-])cc5F)c5nc(c(-c6c(F)cc(S(=O)(=O)[O-])cc6F)c6ccc3[nH]6)C=C5)C=C4)cc2)cc1F
REMARK SMILES IDX 19 1 18 2 16 3 17 4 15 6 12 7 13 8 92 9 14 10 91 11 93 12
REMARK SMILES IDX 9 13 10 14 11 15 7 16 8 17 5 18 4 19 6 21 3 22 2 23 1 24
REMARK SMILES IDX 20 25 21 26 22 27 23 28 24 30 25 31 26 32 90 33 27 34 89 35
REMARK SMILES IDX 28 36 29 37 30 38 83 39 31 40 88 41 82 42 84 43 32 44 87 45
REMARK SMILES IDX 81 46 80 47 33 49 67 50 46 51 66 52 47 53 50 54 65 55 85 56
REMARK SMILES IDX 48 57 49 58 64 60 86 61 51 62 34 63 35 64 44 65 36 66 37 67
REMARK SMILES IDX 43 68 45 69 38 70 39 71 40 72 41 73 42 74 68 75 69 76 78 77
REMARK SMILES IDX 70 78 71 79 77 80 79 81 72 82 73 83 74 84 75 85 76 86 52 87
REMARK SMILES IDX 53 88 62 89 54 90 55 91 61 92 63 93 56 94 57 95 58 96 59 97
REMARK SMILES IDX 60 98
REMARK H PARENT 18 5 4 20 22 29 84 48 50 59
REMARK Flexibility Score: inf
ROOT
ATOM      1  C   UNL A   1      32.649  29.791  27.169  1.00  0.00     0.118 C 
ENDROOT
BRANCH   1   2
ATOM      2  N   UNL A   1      31.792  29.785  25.995  1.00  0.00    -0.352 N 
ATOM      3  C   UNL A   1      31.496  28.818  25.068  1.00  0.00     0.251 C 
ATOM      4  O   UNL A   1      30.660  29.085  24.205  1.00  0.00    -0.269 OA
ATOM      5  H   UNL A   1      31.336  30.641  25.833  1.00  0.00     0.163 HD
BRANCH   3   6
ATOM      6  C   UNL A   1      32.052  27.438  25.131  1.00  0.00     0.042 A 
ATOM      7  C   UNL A   1      32.804  24.754  24.835  1.00  0.00     0.103 A 
ATOM      8  C   UNL A   1      33.261  25.707  23.920  1.00  0.00     0.024 A 
ATOM      9  C   UNL A   1      32.154  25.178  25.982  1.00  0.00     0.142 A 
ATOM     10  C   UNL A   1      32.892  27.046  24.078  1.00  0.00     0.015 A 
ATOM     11  C   UNL A   1      31.766  26.511  26.132  1.00  0.00     0.054 A 
ATOM     12  F   UNL A   1      31.813  24.316  26.946  1.00  0.00    -0.206 F 
BRANCH   7  13
ATOM     13  S   UNL A   1      33.096  23.038  24.538  1.00  0.00     0.192 S 
ATOM     14  O   UNL A   1      33.670  22.964  23.206  1.00  0.00    -0.223 OA
ATOM     15  O   UNL A   1      31.826  22.374  24.787  1.00  0.00    -0.223 OA
BRANCH  13  16
ATOM     16  C   UNL A   1      34.265  22.366  25.677  1.00  0.00     0.199 C 
ATOM     17  C   UNL A   1      35.289  23.296  26.295  1.00  0.00     0.036 C 
BRANCH  16  18
ATOM     18  C   UNL A   1      33.717  21.322  26.620  1.00  0.00     0.239 C 
ATOM     19  N   UNL A   1      33.304  20.084  26.262  1.00  0.00    -0.344 N 
ATOM     20  H   UNL A   1      32.793  19.628  26.970  1.00  0.00     0.164 HD
ATOM     21  O   UNL A   1      33.504  21.619  27.803  1.00  0.00    -0.274 OA
BRANCH  19  22
ATOM     22  C   UNL A   1      33.449  19.287  25.071  1.00  0.00     0.206 C 
BRANCH  22  23
ATOM     23  C   UNL A   1      32.988  17.927  25.370  1.00  0.00    -0.085 C 
ATOM     24  C   UNL A   1      32.588  16.834  25.653  1.00  0.00     0.006 C 
ENDBRANCH  22  23
ENDBRANCH  19  22
ENDBRANCH  16  18
ENDBRANCH  13  16
ENDBRANCH   7  13
ENDBRANCH   3   6
ENDBRANCH   1   2
BRANCH   1  25
ATOM     25  C   UNL A   1      34.124  29.803  26.778  1.00  0.00     0.042 C 
BRANCH  25  26
ATOM     26  C   UNL A   1      35.056  29.386  27.910  1.00  0.00     0.118 C 
BRANCH  26  27
ATOM     27  N   UNL A   1      35.165  30.409  28.942  1.00  0.00    -0.352 N 
ATOM     28  C   UNL A   1      36.235  30.733  29.743  1.00  0.00     0.251 C 
ATOM     29  H   UNL A   1      34.353  30.946  29.088  1.00  0.00     0.163 HD
ATOM     30  O   UNL A   1      36.067  31.478  30.704  1.00  0.00    -0.269 OA
BRANCH  28  31
ATOM     31  C   UNL A   1      37.573  30.172  29.459  1.00  0.00     0.039 A 
ATOM     32  C   UNL A   1      37.981  30.014  28.132  1.00  0.00     0.014 A 
ATOM     33  C   UNL A   1      38.426  29.796  30.501  1.00  0.00     0.014 A 
ATOM     34  C   UNL A   1      39.270  29.553  27.852  1.00  0.00     0.010 A 
ATOM     35  C   UNL A   1      39.736  29.419  30.222  1.00  0.00     0.010 A 
ATOM     36  C   UNL A   1      40.174  29.294  28.896  1.00  0.00    -0.014 A 
BRANCH  36  37
ATOM     37  C   UNL A   1      41.582  28.897  28.632  1.00  0.00     0.031 A 
ATOM     38  C   UNL A   1      42.666  29.942  28.615  1.00  0.00     0.074 A 
ATOM     39  C   UNL A   1      41.869  27.616  28.323  1.00  0.00     0.049 A 
ATOM     40  N   UNL A   1      43.922  29.819  28.276  1.00  0.00    -0.248 NA
ATOM     41  C   UNL A   1      42.285  31.310  29.007  1.00  0.00     0.031 C 
ATOM     42  C   UNL A   1      40.897  26.520  28.270  1.00  0.00     0.029 A 
ATOM     43  N   UNL A   1      43.056  27.018  27.974  1.00  0.00    -0.354 N 
ATOM     44  C   UNL A   1      44.473  31.089  28.394  1.00  0.00     0.074 A 
ATOM     45  C   UNL A   1      43.408  31.981  28.794  1.00  0.00     0.031 C 
ATOM     46  C   UNL A   1      41.526  25.387  27.922  1.00  0.00     0.029 A 
ATOM     47  C   UNL A   1      42.935  25.680  27.671  1.00  0.00     0.049 A 
ATOM     48  H   UNL A   1      43.913  27.501  27.942  1.00  0.00     0.167 HD
ATOM     49  C   UNL A   1      45.758  31.470  28.204  1.00  0.00     0.037 A 
ATOM     50  C   UNL A   1      43.844  24.793  27.218  1.00  0.00     0.037 A 
ATOM     51  C   UNL A   1      46.818  30.567  27.842  1.00  0.00     0.049 A 
ATOM     52  C   UNL A   1      45.263  25.249  26.999  1.00  0.00     0.074 A 
ATOM     53  C   UNL A   1      48.165  30.849  27.696  1.00  0.00     0.029 A 
ATOM     54  N   UNL A   1      46.658  29.217  27.569  1.00  0.00    -0.354 N 
ATOM     55  N   UNL A   1      45.779  26.443  27.179  1.00  0.00    -0.248 NA
ATOM     56  C   UNL A   1      46.226  24.247  26.520  1.00  0.00     0.031 C 
ATOM     57  C   UNL A   1      48.808  29.686  27.268  1.00  0.00     0.029 A 
ATOM     58  C   UNL A   1      47.877  28.661  27.222  1.00  0.00     0.049 A 
ATOM     59  H   UNL A   1      45.806  28.728  27.616  1.00  0.00     0.167 HD
ATOM     60  C   UNL A   1      47.128  26.326  26.861  1.00  0.00     0.074 A 
ATOM     61  C   UNL A   1      47.354  24.945  26.491  1.00  0.00     0.031 C 
ATOM     62  C   UNL A   1      48.092  27.279  26.876  1.00  0.00     0.037 A 
BRANCH  49  63
ATOM     63  C   UNL A   1      46.117  32.918  28.393  1.00  0.00     0.058 A 
ATOM     64  C   UNL A   1      46.122  33.796  27.296  1.00  0.00     0.135 A 
ATOM     65  C   UNL A   1      46.584  33.405  29.624  1.00  0.00     0.135 A 
ATOM     66  F   UNL A   1      45.677  33.383  26.098  1.00  0.00    -0.206 F 
ATOM     67  C   UNL A   1      46.617  35.089  27.402  1.00  0.00     0.059 A 
ATOM     68  C   UNL A   1      47.057  34.707  29.760  1.00  0.00     0.059 A 
ATOM     69  F   UNL A   1      46.578  32.616  30.710  1.00  0.00    -0.206 F 
ATOM     70  C   UNL A   1      47.093  35.533  28.637  1.00  0.00     0.060 A 
BRANCH  70  71
ATOM     71  S   UNL A   1      47.761  37.206  28.748  1.00  0.00     0.124 S 
ATOM     72  O   UNL A   1      49.099  36.961  29.274  1.00  0.00    -0.237 OA
ATOM     73  O   UNL A   1      47.693  37.652  27.359  1.00  0.00    -0.237 OA
ATOM     74  O   UNL A   1      46.841  37.879  29.660  1.00  0.00    -0.744 OA
ENDBRANCH  70  71
ENDBRANCH  49  63
BRANCH  50  75
ATOM     75  C   UNL A   1      43.439  23.388  26.932  1.00  0.00     0.058 A 
ATOM     76  C   UNL A   1      43.251  22.938  25.615  1.00  0.00     0.135 A 
ATOM     77  C   UNL A   1      43.223  22.468  27.969  1.00  0.00     0.135 A 
ATOM     78  F   UNL A   1      43.431  23.779  24.583  1.00  0.00    -0.206 F 
ATOM     79  C   UNL A   1      42.847  21.638  25.338  1.00  0.00     0.059 A 
ATOM     80  C   UNL A   1      42.851  21.150  27.715  1.00  0.00     0.059 A 
ATOM     81  F   UNL A   1      43.399  22.844  29.246  1.00  0.00    -0.206 F 
ATOM     82  C   UNL A   1      42.653  20.749  26.395  1.00  0.00     0.060 A 
BRANCH  82  83
ATOM     83  S   UNL A   1      42.145  19.060  26.008  1.00  0.00     0.124 S 
ATOM     84  O   UNL A   1      40.707  19.225  25.820  1.00  0.00    -0.237 OA
ATOM     85  O   UNL A   1      42.917  18.780  24.802  1.00  0.00    -0.237 OA
ATOM     86  O   UNL A   1      42.541  18.307  27.195  1.00  0.00    -0.744 OA
ENDBRANCH  82  83
ENDBRANCH  50  75
BRANCH  62  87
ATOM     87  C   UNL A   1      49.497  26.877  26.518  1.00  0.00     0.058 A 
ATOM     88  C   UNL A   1      49.956  27.018  25.197  1.00  0.00     0.135 A 
ATOM     89  C   UNL A   1      50.341  26.241  27.442  1.00  0.00     0.135 A 
ATOM     90  F   UNL A   1      49.187  27.612  24.272  1.00  0.00    -0.206 F 
ATOM     91  C   UNL A   1      51.186  26.507  24.797  1.00  0.00     0.059 A 
ATOM     92  C   UNL A   1      51.590  25.752  27.071  1.00  0.00     0.059 A 
ATOM     93  F   UNL A   1      49.953  26.091  28.718  1.00  0.00    -0.206 F 
ATOM     94  C   UNL A   1      51.993  25.870  25.740  1.00  0.00     0.060 A 
BRANCH  94  95
ATOM     95  S   UNL A   1      53.576  25.196  25.194  1.00  0.00     0.124 S 
ATOM     96  O   UNL A   1      54.512  25.857  26.098  1.00  0.00    -0.237 OA
ATOM     97  O   UNL A   1      53.389  23.764  25.410  1.00  0.00    -0.237 OA
ATOM     98  O   UNL A   1      53.657  25.608  23.797  1.00  0.00    -0.744 OA
ENDBRANCH  94  95
ENDBRANCH  62  87
ENDBRANCH  36  37
ENDBRANCH  28  31
ENDBRANCH  26  27
ENDBRANCH  25  26
ENDBRANCH   1  25
TORSDOF 18
ENDMDL
