MODEL 1
REMARK VINA RESULT:     -13.5      0.000      0.000
REMARK SMILES COc1ccc2c(c1)c(Cc1nc(-c3ccc(C(=O)NCCCNC(=O)c4ccc(-c5c6nc(c(-c7c(F)cc(S(=O)(=O)[O-])cc7F)c7ccc([nH]7)c(-c7c(F)cc(S(=O)(=O)[O-])cc7F)c7nc(c(-c8c(F)cc(S(=O)(=O)[O-])cc8F)c8ccc5[nH]8)C=C7)C=C6)cc4)cc3)cs1)c(C)n2C(=O)c1ccc(Cl)cc1
REMARK SMILES IDX 21 1 20 2 18 3 19 4 17 6 14 7 15 8 94 9 16 10 93 11 13 12
REMARK SMILES IDX 11 13 12 14 96 15 95 16 10 17 9 18 3 19 4 20 8 21 5 22 7 23
REMARK SMILES IDX 6 24 99 25 97 26 98 27 2 28 1 29 100 30 101 31 102 32 103 33
REMARK SMILES IDX 108 34 104 35 107 36 105 37 106 38 22 39 23 40 24 41 25 42
REMARK SMILES IDX 26 44 27 45 28 46 92 47 29 48 91 49 30 50 31 51 32 52 85 53
REMARK SMILES IDX 33 54 90 55 84 56 86 57 34 58 89 59 83 60 82 61 35 63 69 64
REMARK SMILES IDX 48 65 68 66 49 67 52 68 67 69 87 70 50 71 51 72 66 74 88 75
REMARK SMILES IDX 53 76 36 77 37 78 46 79 38 80 39 81 45 82 47 83 40 84 41 85
REMARK SMILES IDX 42 86 43 87 44 88 70 89 71 90 80 91 72 92 73 93 79 94 81 95
REMARK SMILES IDX 74 96 75 97 76 98 77 99 78 100 54 101 55 102 64 103 56 104
REMARK SMILES IDX 57 105 63 106 65 107 58 108 59 109 60 110 61 111 62 112
REMARK H PARENT 20 5 24 43 86 62 52 73
REMARK Flexibility Score: inf
ROOT
ATOM      1  C   UNL A   1      39.058  22.263  26.197  1.00  0.00     0.118 C 
ENDROOT
BRANCH   1   2
ATOM      2  N   UNL A   1      38.741  20.912  25.762  1.00  0.00    -0.352 N 
ATOM      3  C   UNL A   1      37.715  20.389  25.013  1.00  0.00     0.251 C 
ATOM      4  O   UNL A   1      37.712  19.171  24.819  1.00  0.00    -0.269 OA
ATOM      5  H   UNL A   1      39.391  20.238  26.064  1.00  0.00     0.163 HD
BRANCH   3   6
ATOM      6  C   UNL A   1      36.584  21.202  24.490  1.00  0.00     0.039 A 
ATOM      7  C   UNL A   1      34.351  22.768  23.764  1.00  0.00     0.001 A 
ATOM      8  C   UNL A   1      34.176  21.600  24.509  1.00  0.00     0.011 A 
ATOM      9  C   UNL A   1      35.637  23.079  23.299  1.00  0.00     0.011 A 
ATOM     10  C   UNL A   1      35.287  20.829  24.875  1.00  0.00     0.014 A 
ATOM     11  C   UNL A   1      36.738  22.282  23.625  1.00  0.00     0.014 A 
BRANCH   7  12
ATOM     12  C   UNL A   1      33.252  23.659  23.428  1.00  0.00     0.081 A 
ATOM     13  C   UNL A   1      32.423  25.605  22.745  1.00  0.00     0.098 A 
ATOM     14  N   UNL A   1      33.525  24.932  22.988  1.00  0.00    -0.241 NA
ATOM     15  S   UNL A   1      30.973  24.743  23.070  1.00  0.00    -0.126 S 
ATOM     16  C   UNL A   1      31.906  23.380  23.560  1.00  0.00     0.095 A 
BRANCH  13  17
ATOM     17  C   UNL A   1      32.416  27.015  22.228  1.00  0.00     0.105 C 
BRANCH  17  18
ATOM     18  C   UNL A   1      31.938  27.997  23.275  1.00  0.00    -0.012 A 
ATOM     19  C   UNL A   1      29.067  30.243  22.112  1.00  0.00     0.119 A 
ATOM     20  C   UNL A   1      29.008  31.018  23.255  1.00  0.00     0.048 A 
ATOM     21  C   UNL A   1      30.014  29.226  22.022  1.00  0.00     0.057 A 
ATOM     22  C   UNL A   1      29.888  30.787  24.319  1.00  0.00     0.031 A 
ATOM     23  C   UNL A   1      30.888  28.944  23.099  1.00  0.00     0.008 A 
ATOM     24  C   UNL A   1      30.796  29.704  24.268  1.00  0.00     0.057 A 
ATOM     25  N   UNL A   1      31.700  29.170  25.206  1.00  0.00    -0.280 N 
ATOM     26  C   UNL A   1      32.438  28.163  24.562  1.00  0.00     0.028 A 
ATOM     27  C   UNL A   1      33.564  27.377  25.154  1.00  0.00     0.065 C 
BRANCH  19  28
ATOM     28  O   UNL A   1      28.205  30.366  21.058  1.00  0.00    -0.497 OA
ATOM     29  C   UNL A   1      27.899  31.714  20.716  1.00  0.00     0.278 C 
ENDBRANCH  19  28
BRANCH  25  30
ATOM     30  C   UNL A   1      31.836  29.580  26.570  1.00  0.00     0.262 C 
ATOM     31  O   UNL A   1      31.427  28.867  27.469  1.00  0.00    -0.268 OA
BRANCH  30  32
ATOM     32  C   UNL A   1      32.469  30.839  27.013  1.00  0.00     0.040 A 
ATOM     33  C   UNL A   1      31.761  32.046  26.992  1.00  0.00     0.015 A 
ATOM     34  C   UNL A   1      33.803  30.795  27.433  1.00  0.00     0.015 A 
ATOM     35  C   UNL A   1      32.426  33.230  27.317  1.00  0.00     0.021 A 
ATOM     36  C   UNL A   1      34.458  31.981  27.765  1.00  0.00     0.021 A 
ATOM     37  C   UNL A   1      33.772  33.195  27.689  1.00  0.00     0.041 A 
ATOM     38  Cl  UNL A   1      34.600  34.662  28.038  1.00  0.00    -0.084 Cl
ENDBRANCH  30  32
ENDBRANCH  25  30
ENDBRANCH  17  18
ENDBRANCH  13  17
ENDBRANCH   7  12
ENDBRANCH   3   6
ENDBRANCH   1   2
BRANCH   1  39
ATOM     39  C   UNL A   1      40.344  22.375  27.004  1.00  0.00     0.042 C 
BRANCH  39  40
ATOM     40  C   UNL A   1      41.578  21.694  26.419  1.00  0.00     0.118 C 
BRANCH  40  41
ATOM     41  N   UNL A   1      42.328  22.453  25.438  1.00  0.00    -0.352 N 
ATOM     42  C   UNL A   1      42.851  23.717  25.389  1.00  0.00     0.251 C 
ATOM     43  H   UNL A   1      42.504  21.941  24.617  1.00  0.00     0.163 HD
ATOM     44  O   UNL A   1      43.663  23.927  24.483  1.00  0.00    -0.269 OA
BRANCH  42  45
ATOM     45  C   UNL A   1      42.453  24.849  26.271  1.00  0.00     0.039 A 
ATOM     46  C   UNL A   1      41.576  25.873  25.924  1.00  0.00     0.014 A 
ATOM     47  C   UNL A   1      43.101  24.919  27.519  1.00  0.00     0.014 A 
ATOM     48  C   UNL A   1      41.477  27.014  26.715  1.00  0.00     0.010 A 
ATOM     49  C   UNL A   1      42.968  26.034  28.340  1.00  0.00     0.010 A 
ATOM     50  C   UNL A   1      42.209  27.114  27.901  1.00  0.00    -0.014 A 
BRANCH  50  51
ATOM     51  C   UNL A   1      42.092  28.353  28.670  1.00  0.00     0.031 A 
ATOM     52  C   UNL A   1      43.036  29.438  28.279  1.00  0.00     0.074 A 
ATOM     53  C   UNL A   1      41.145  28.556  29.610  1.00  0.00     0.049 A 
ATOM     54  N   UNL A   1      43.956  30.007  28.991  1.00  0.00    -0.248 NA
ATOM     55  C   UNL A   1      43.011  29.879  26.876  1.00  0.00     0.031 C 
ATOM     56  C   UNL A   1      39.981  27.712  29.901  1.00  0.00     0.029 A 
ATOM     57  N   UNL A   1      40.973  29.620  30.450  1.00  0.00    -0.354 N 
ATOM     58  C   UNL A   1      44.500  31.008  28.186  1.00  0.00     0.074 A 
ATOM     59  C   UNL A   1      43.978  30.795  26.861  1.00  0.00     0.031 C 
ATOM     60  C   UNL A   1      39.118  28.396  30.685  1.00  0.00     0.029 A 
ATOM     61  C   UNL A   1      39.735  29.651  31.078  1.00  0.00     0.049 A 
ATOM     62  H   UNL A   1      41.666  30.303  30.598  1.00  0.00     0.167 HD
ATOM     63  C   UNL A   1      45.179  32.067  28.705  1.00  0.00     0.037 A 
ATOM     64  C   UNL A   1      39.232  30.655  31.836  1.00  0.00     0.037 A 
ATOM     65  C   UNL A   1      45.558  31.842  30.071  1.00  0.00     0.049 A 
ATOM     66  C   UNL A   1      40.367  31.456  32.347  1.00  0.00     0.074 A 
ATOM     67  C   UNL A   1      46.548  31.147  30.731  1.00  0.00     0.029 A 
ATOM     68  N   UNL A   1      44.600  32.163  30.995  1.00  0.00    -0.354 N 
ATOM     69  N   UNL A   1      41.258  31.002  33.184  1.00  0.00    -0.248 NA
ATOM     70  C   UNL A   1      40.703  32.724  31.709  1.00  0.00     0.031 C 
ATOM     71  C   UNL A   1      46.034  30.862  32.031  1.00  0.00     0.029 A 
ATOM     72  C   UNL A   1      44.755  31.402  32.127  1.00  0.00     0.049 A 
ATOM     73  H   UNL A   1      43.899  32.841  30.865  1.00  0.00     0.167 HD
ATOM     74  C   UNL A   1      42.411  31.693  32.872  1.00  0.00     0.074 A 
ATOM     75  C   UNL A   1      41.973  32.846  32.100  1.00  0.00     0.031 C 
ATOM     76  C   UNL A   1      43.634  31.106  32.994  1.00  0.00     0.037 A 
BRANCH  63  77
ATOM     77  C   UNL A   1      45.174  33.460  28.112  1.00  0.00     0.058 A 
ATOM     78  C   UNL A   1      46.387  34.082  27.748  1.00  0.00     0.135 A 
ATOM     79  C   UNL A   1      44.046  34.309  28.152  1.00  0.00     0.135 A 
ATOM     80  F   UNL A   1      47.529  33.378  27.702  1.00  0.00    -0.206 F 
ATOM     81  C   UNL A   1      46.476  35.452  27.483  1.00  0.00     0.059 A 
ATOM     82  C   UNL A   1      44.102  35.663  27.840  1.00  0.00     0.059 A 
ATOM     83  F   UNL A   1      42.855  33.879  28.592  1.00  0.00    -0.206 F 
ATOM     84  C   UNL A   1      45.327  36.236  27.542  1.00  0.00     0.060 A 
BRANCH  84  85
ATOM     85  S   UNL A   1      45.450  38.017  27.286  1.00  0.00     0.124 S 
ATOM     86  O   UNL A   1      45.893  38.473  28.598  1.00  0.00    -0.237 OA
ATOM     87  O   UNL A   1      46.434  38.104  26.212  1.00  0.00    -0.237 OA
ATOM     88  O   UNL A   1      44.090  38.397  26.911  1.00  0.00    -0.744 OA
ENDBRANCH  84  85
ENDBRANCH  63  77
BRANCH  64  89
ATOM     89  C   UNL A   1      37.830  31.132  31.933  1.00  0.00     0.058 A 
ATOM     90  C   UNL A   1      37.227  31.342  33.187  1.00  0.00     0.135 A 
ATOM     91  C   UNL A   1      37.176  31.699  30.821  1.00  0.00     0.135 A 
ATOM     92  F   UNL A   1      37.787  30.837  34.297  1.00  0.00    -0.206 F 
ATOM     93  C   UNL A   1      36.094  32.142  33.341  1.00  0.00     0.059 A 
ATOM     94  C   UNL A   1      36.038  32.492  30.950  1.00  0.00     0.059 A 
ATOM     95  F   UNL A   1      37.687  31.583  29.586  1.00  0.00    -0.206 F 
ATOM     96  C   UNL A   1      35.527  32.742  32.218  1.00  0.00     0.060 A 
BRANCH  96  97
ATOM     97  S   UNL A   1      34.214  33.964  32.445  1.00  0.00     0.124 S 
ATOM     98  O   UNL A   1      34.935  35.067  33.070  1.00  0.00    -0.237 OA
ATOM     99  O   UNL A   1      33.768  34.189  31.074  1.00  0.00    -0.237 OA
ATOM    100  O   UNL A   1      33.256  33.275  33.305  1.00  0.00    -0.744 OA
ENDBRANCH  96  97
ENDBRANCH  64  89
BRANCH  76 101
ATOM    101  C   UNL A   1      43.752  29.960  33.953  1.00  0.00     0.058 A 
ATOM    102  C   UNL A   1      43.961  30.096  35.335  1.00  0.00     0.135 A 
ATOM    103  C   UNL A   1      43.581  28.661  33.452  1.00  0.00     0.135 A 
ATOM    104  F   UNL A   1      44.053  31.308  35.902  1.00  0.00    -0.206 F 
ATOM    105  C   UNL A   1      44.040  28.984  36.176  1.00  0.00     0.059 A 
ATOM    106  C   UNL A   1      43.624  27.540  34.275  1.00  0.00     0.059 A 
ATOM    107  F   UNL A   1      43.329  28.473  32.145  1.00  0.00    -0.206 F 
ATOM    108  C   UNL A   1      43.869  27.709  35.635  1.00  0.00     0.060 A 
BRANCH 108 109
ATOM    109  S   UNL A   1      43.902  26.278  36.736  1.00  0.00     0.124 S 
ATOM    110  O   UNL A   1      45.325  26.152  37.037  1.00  0.00    -0.237 OA
ATOM    111  O   UNL A   1      43.054  26.710  37.843  1.00  0.00    -0.237 OA
ATOM    112  O   UNL A   1      43.341  25.205  35.918  1.00  0.00    -0.744 OA
ENDBRANCH 108 109
ENDBRANCH  76 101
ENDBRANCH  50  51
ENDBRANCH  42  45
ENDBRANCH  40  41
ENDBRANCH  39  40
ENDBRANCH   1  39
TORSDOF 19
ENDMDL
MODEL 2
REMARK VINA RESULT:     -12.8      5.274     11.489
REMARK SMILES COc1ccc2c(c1)c(Cc1nc(-c3ccc(C(=O)NCCCNC(=O)c4ccc(-c5c6nc(c(-c7c(F)cc(S(=O)(=O)[O-])cc7F)c7ccc([nH]7)c(-c7c(F)cc(S(=O)(=O)[O-])cc7F)c7nc(c(-c8c(F)cc(S(=O)(=O)[O-])cc8F)c8ccc5[nH]8)C=C7)C=C6)cc4)cc3)cs1)c(C)n2C(=O)c1ccc(Cl)cc1
REMARK SMILES IDX 21 1 20 2 18 3 19 4 17 6 14 7 15 8 94 9 16 10 93 11 13 12
REMARK SMILES IDX 11 13 12 14 96 15 95 16 10 17 9 18 3 19 4 20 8 21 5 22 7 23
REMARK SMILES IDX 6 24 99 25 97 26 98 27 2 28 1 29 100 30 101 31 102 32 103 33
REMARK SMILES IDX 108 34 104 35 107 36 105 37 106 38 22 39 23 40 24 41 25 42
REMARK SMILES IDX 26 44 27 45 28 46 92 47 29 48 91 49 30 50 31 51 32 52 85 53
REMARK SMILES IDX 33 54 90 55 84 56 86 57 34 58 89 59 83 60 82 61 35 63 69 64
REMARK SMILES IDX 48 65 68 66 49 67 52 68 67 69 87 70 50 71 51 72 66 74 88 75
REMARK SMILES IDX 53 76 36 77 37 78 46 79 38 80 39 81 45 82 47 83 40 84 41 85
REMARK SMILES IDX 42 86 43 87 44 88 70 89 71 90 80 91 72 92 73 93 79 94 81 95
REMARK SMILES IDX 74 96 75 97 76 98 77 99 78 100 54 101 55 102 64 103 56 104
REMARK SMILES IDX 57 105 63 106 65 107 58 108 59 109 60 110 61 111 62 112
REMARK H PARENT 20 5 24 43 86 62 52 73
REMARK Flexibility Score: inf
ROOT
ATOM      1  C   UNL A   1      45.345  23.096  25.802  1.00  0.00     0.118 C 
ENDROOT
BRANCH   1   2
ATOM      2  N   UNL A   1      44.945  24.469  25.540  1.00  0.00    -0.352 N 
ATOM      3  C   UNL A   1      44.883  25.591  26.330  1.00  0.00     0.251 C 
ATOM      4  O   UNL A   1      44.480  26.634  25.811  1.00  0.00    -0.269 OA
ATOM      5  H   UNL A   1      44.662  24.626  24.611  1.00  0.00     0.163 HD
BRANCH   3   6
ATOM      6  C   UNL A   1      45.208  25.590  27.781  1.00  0.00     0.039 A 
ATOM      7  C   UNL A   1      45.634  25.788  30.565  1.00  0.00     0.001 A 
ATOM      8  C   UNL A   1      45.729  26.924  29.758  1.00  0.00     0.011 A 
ATOM      9  C   UNL A   1      45.433  24.544  29.949  1.00  0.00     0.011 A 
ATOM     10  C   UNL A   1      45.510  26.824  28.378  1.00  0.00     0.014 A 
ATOM     11  C   UNL A   1      45.261  24.440  28.566  1.00  0.00     0.014 A 
BRANCH   7  12
ATOM     12  C   UNL A   1      45.762  25.838  32.013  1.00  0.00     0.081 A 
ATOM     13  C   UNL A   1      46.829  25.425  33.918  1.00  0.00     0.098 A 
ATOM     14  N   UNL A   1      46.882  25.311  32.610  1.00  0.00    -0.241 NA
ATOM     15  S   UNL A   1      45.391  26.152  34.515  1.00  0.00    -0.126 S 
ATOM     16  C   UNL A   1      44.821  26.325  32.898  1.00  0.00     0.095 A 
BRANCH  13  17
ATOM     17  C   UNL A   1      47.927  24.959  34.830  1.00  0.00     0.105 C 
BRANCH  17  18
ATOM     18  C   UNL A   1      47.961  23.451  34.948  1.00  0.00    -0.012 A 
ATOM     19  C   UNL A   1      51.036  21.829  33.354  1.00  0.00     0.119 A 
ATOM     20  C   UNL A   1      50.648  20.520  33.571  1.00  0.00     0.048 A 
ATOM     21  C   UNL A   1      50.206  22.868  33.764  1.00  0.00     0.057 A 
ATOM     22  C   UNL A   1      49.432  20.233  34.200  1.00  0.00     0.031 A 
ATOM     23  C   UNL A   1      48.989  22.607  34.440  1.00  0.00     0.008 A 
ATOM     24  C   UNL A   1      48.622  21.282  34.694  1.00  0.00     0.057 A 
ATOM     25  N   UNL A   1      47.433  21.298  35.448  1.00  0.00    -0.280 N 
ATOM     26  C   UNL A   1      47.006  22.634  35.543  1.00  0.00     0.028 A 
ATOM     27  C   UNL A   1      45.746  23.114  36.191  1.00  0.00     0.065 C 
BRANCH  19  28
ATOM     28  O   UNL A   1      52.234  22.190  32.802  1.00  0.00    -0.497 OA
ATOM     29  C   UNL A   1      52.685  23.482  33.194  1.00  0.00     0.278 C 
ENDBRANCH  19  28
BRANCH  25  30
ATOM     30  C   UNL A   1      46.783  20.158  36.017  1.00  0.00     0.262 C 
ATOM     31  O   UNL A   1      45.924  19.563  35.390  1.00  0.00    -0.268 OA
BRANCH  30  32
ATOM     32  C   UNL A   1      47.080  19.597  37.351  1.00  0.00     0.040 A 
ATOM     33  C   UNL A   1      48.318  19.818  37.965  1.00  0.00     0.015 A 
ATOM     34  C   UNL A   1      46.096  18.820  37.974  1.00  0.00     0.015 A 
ATOM     35  C   UNL A   1      48.599  19.183  39.177  1.00  0.00     0.021 A 
ATOM     36  C   UNL A   1      46.382  18.195  39.189  1.00  0.00     0.021 A 
ATOM     37  C   UNL A   1      47.637  18.365  39.776  1.00  0.00     0.041 A 
ATOM     38  Cl  UNL A   1      48.007  17.545  41.241  1.00  0.00    -0.084 Cl
ENDBRANCH  30  32
ENDBRANCH  25  30
ENDBRANCH  17  18
ENDBRANCH  13  17
ENDBRANCH   7  12
ENDBRANCH   3   6
ENDBRANCH   1   2
BRANCH   1  39
ATOM     39  C   UNL A   1      44.196  22.098  25.806  1.00  0.00     0.042 C 
BRANCH  39  40
ATOM     40  C   UNL A   1      42.975  22.460  24.964  1.00  0.00     0.118 C 
BRANCH  40  41
ATOM     41  N   UNL A   1      41.681  22.244  25.580  1.00  0.00    -0.352 N 
ATOM     42  C   UNL A   1      40.790  23.032  26.259  1.00  0.00     0.251 C 
ATOM     43  H   UNL A   1      41.370  21.316  25.490  1.00  0.00     0.163 HD
ATOM     44  O   UNL A   1      39.661  22.558  26.409  1.00  0.00    -0.269 OA
BRANCH  42  45
ATOM     45  C   UNL A   1      41.106  24.345  26.887  1.00  0.00     0.039 A 
ATOM     46  C   UNL A   1      41.687  24.521  28.139  1.00  0.00     0.014 A 
ATOM     47  C   UNL A   1      40.688  25.488  26.178  1.00  0.00     0.014 A 
ATOM     48  C   UNL A   1      41.697  25.776  28.741  1.00  0.00     0.010 A 
ATOM     49  C   UNL A   1      40.742  26.753  26.752  1.00  0.00     0.010 A 
ATOM     50  C   UNL A   1      41.181  26.885  28.065  1.00  0.00    -0.014 A 
BRANCH  50  51
ATOM     51  C   UNL A   1      41.185  28.170  28.764  1.00  0.00     0.031 A 
ATOM     52  C   UNL A   1      42.322  29.074  28.433  1.00  0.00     0.074 A 
ATOM     53  C   UNL A   1      40.192  28.570  29.587  1.00  0.00     0.049 A 
ATOM     54  N   UNL A   1      43.244  29.537  29.215  1.00  0.00    -0.248 NA
ATOM     55  C   UNL A   1      42.507  29.431  27.017  1.00  0.00     0.031 C 
ATOM     56  C   UNL A   1      38.886  27.932  29.786  1.00  0.00     0.029 A 
ATOM     57  N   UNL A   1      40.107  29.695  30.359  1.00  0.00    -0.354 N 
ATOM     58  C   UNL A   1      44.017  30.394  28.432  1.00  0.00     0.074 A 
ATOM     59  C   UNL A   1      43.604  30.187  27.069  1.00  0.00     0.031 C 
ATOM     60  C   UNL A   1      38.068  28.783  30.443  1.00  0.00     0.029 A 
ATOM     61  C   UNL A   1      38.833  29.951  30.847  1.00  0.00     0.049 A 
ATOM     62  H   UNL A   1      40.881  30.272  30.551  1.00  0.00     0.167 HD
ATOM     63  C   UNL A   1      44.800  31.366  28.976  1.00  0.00     0.037 A 
ATOM     64  C   UNL A   1      38.421  31.062  31.504  1.00  0.00     0.037 A 
ATOM     65  C   UNL A   1      45.000  31.165  30.384  1.00  0.00     0.049 A 
ATOM     66  C   UNL A   1      39.612  31.709  32.100  1.00  0.00     0.074 A 
ATOM     67  C   UNL A   1      45.797  30.367  31.175  1.00  0.00     0.029 A 
ATOM     68  N   UNL A   1      44.016  31.682  31.185  1.00  0.00    -0.354 N 
ATOM     69  N   UNL A   1      40.331  31.174  33.047  1.00  0.00    -0.248 NA
ATOM     70  C   UNL A   1      40.206  32.872  31.449  1.00  0.00     0.031 C 
ATOM     71  C   UNL A   1      45.117  30.240  32.423  1.00  0.00     0.029 A 
ATOM     72  C   UNL A   1      43.935  30.974  32.357  1.00  0.00     0.049 A 
ATOM     73  H   UNL A   1      43.448  32.450  30.951  1.00  0.00     0.167 HD
ATOM     74  C   UNL A   1      41.604  31.661  32.832  1.00  0.00     0.074 A 
ATOM     75  C   UNL A   1      41.434  32.821  31.970  1.00  0.00     0.031 C 
ATOM     76  C   UNL A   1      42.701  30.903  33.110  1.00  0.00     0.037 A 
BRANCH  63  77
ATOM     77  C   UNL A   1      45.074  32.706  28.328  1.00  0.00     0.058 A 
ATOM     78  C   UNL A   1      46.383  33.047  27.927  1.00  0.00     0.135 A 
ATOM     79  C   UNL A   1      44.148  33.773  28.347  1.00  0.00     0.135 A 
ATOM     80  F   UNL A   1      47.352  32.119  27.896  1.00  0.00    -0.206 F 
ATOM     81  C   UNL A   1      46.751  34.358  27.606  1.00  0.00     0.059 A 
ATOM     82  C   UNL A   1      44.480  35.073  27.981  1.00  0.00     0.059 A 
ATOM     83  F   UNL A   1      42.903  33.618  28.816  1.00  0.00    -0.206 F 
ATOM     84  C   UNL A   1      45.791  35.366  27.647  1.00  0.00     0.060 A 
BRANCH  84  85
ATOM     85  S   UNL A   1      46.278  37.072  27.318  1.00  0.00     0.124 S 
ATOM     86  O   UNL A   1      47.127  36.914  26.144  1.00  0.00    -0.237 OA
ATOM     87  O   UNL A   1      44.989  37.719  27.094  1.00  0.00    -0.237 OA
ATOM     88  O   UNL A   1      46.964  37.467  28.546  1.00  0.00    -0.744 OA
ENDBRANCH  84  85
ENDBRANCH  63  77
BRANCH  64  89
ATOM     89  C   UNL A   1      37.110  31.753  31.428  1.00  0.00     0.058 A 
ATOM     90  C   UNL A   1      36.352  31.984  32.591  1.00  0.00     0.135 A 
ATOM     91  C   UNL A   1      36.735  32.479  30.281  1.00  0.00     0.135 A 
ATOM     92  F   UNL A   1      36.644  31.334  33.727  1.00  0.00    -0.206 F 
ATOM     93  C   UNL A   1      35.342  32.947  32.638  1.00  0.00     0.059 A 
ATOM     94  C   UNL A   1      35.723  33.436  30.303  1.00  0.00     0.059 A 
ATOM     95  F   UNL A   1      37.414  32.354  29.131  1.00  0.00    -0.206 F 
ATOM     96  C   UNL A   1      35.058  33.693  31.496  1.00  0.00     0.060 A 
BRANCH  96  97
ATOM     97  S   UNL A   1      33.925  35.095  31.623  1.00  0.00     0.124 S 
ATOM     98  O   UNL A   1      34.741  36.080  32.325  1.00  0.00    -0.237 OA
ATOM     99  O   UNL A   1      33.641  35.385  30.222  1.00  0.00    -0.237 OA
ATOM    100  O   UNL A   1      32.802  34.555  32.386  1.00  0.00    -0.744 OA
ENDBRANCH  96  97
ENDBRANCH  64  89
BRANCH  76 101
ATOM    101  C   UNL A   1      42.540  29.810  34.124  1.00  0.00     0.058 A 
ATOM    102  C   UNL A   1      42.675  29.983  35.511  1.00  0.00     0.135 A 
ATOM    103  C   UNL A   1      42.168  28.537  33.666  1.00  0.00     0.135 A 
ATOM    104  F   UNL A   1      42.949  31.189  36.030  1.00  0.00    -0.206 F 
ATOM    105  C   UNL A   1      42.490  28.925  36.402  1.00  0.00     0.059 A 
ATOM    106  C   UNL A   1      41.947  27.475  34.538  1.00  0.00     0.059 A 
ATOM    107  F   UNL A   1      41.976  28.325  32.354  1.00  0.00    -0.206 F 
ATOM    108  C   UNL A   1      42.125  27.673  35.904  1.00  0.00     0.060 A 
BRANCH 108 109
ATOM    109  S   UNL A   1      41.819  26.324  37.064  1.00  0.00     0.124 S 
ATOM    110  O   UNL A   1      41.816  25.157  36.187  1.00  0.00    -0.237 OA
ATOM    111  O   UNL A   1      42.952  26.428  37.978  1.00  0.00    -0.237 OA
ATOM    112  O   UNL A   1      40.525  26.664  37.651  1.00  0.00    -0.744 OA
ENDBRANCH 108 109
ENDBRANCH  76 101
ENDBRANCH  50  51
ENDBRANCH  42  45
ENDBRANCH  40  41
ENDBRANCH  39  40
ENDBRANCH   1  39
TORSDOF 19
ENDMDL
MODEL 3
REMARK VINA RESULT:     -12.8      3.096     10.518
REMARK SMILES COc1ccc2c(c1)c(Cc1nc(-c3ccc(C(=O)NCCCNC(=O)c4ccc(-c5c6nc(c(-c7c(F)cc(S(=O)(=O)[O-])cc7F)c7ccc([nH]7)c(-c7c(F)cc(S(=O)(=O)[O-])cc7F)c7nc(c(-c8c(F)cc(S(=O)(=O)[O-])cc8F)c8ccc5[nH]8)C=C7)C=C6)cc4)cc3)cs1)c(C)n2C(=O)c1ccc(Cl)cc1
REMARK SMILES IDX 21 1 20 2 18 3 19 4 17 6 14 7 15 8 94 9 16 10 93 11 13 12
REMARK SMILES IDX 11 13 12 14 96 15 95 16 10 17 9 18 3 19 4 20 8 21 5 22 7 23
REMARK SMILES IDX 6 24 99 25 97 26 98 27 2 28 1 29 100 30 101 31 102 32 103 33
REMARK SMILES IDX 108 34 104 35 107 36 105 37 106 38 22 39 23 40 24 41 25 42
REMARK SMILES IDX 26 44 27 45 28 46 92 47 29 48 91 49 30 50 31 51 32 52 85 53
REMARK SMILES IDX 33 54 90 55 84 56 86 57 34 58 89 59 83 60 82 61 35 63 69 64
REMARK SMILES IDX 48 65 68 66 49 67 52 68 67 69 87 70 50 71 51 72 66 74 88 75
REMARK SMILES IDX 53 76 36 77 37 78 46 79 38 80 39 81 45 82 47 83 40 84 41 85
REMARK SMILES IDX 42 86 43 87 44 88 70 89 71 90 80 91 72 92 73 93 79 94 81 95
REMARK SMILES IDX 74 96 75 97 76 98 77 99 78 100 54 101 55 102 64 103 56 104
REMARK SMILES IDX 57 105 63 106 65 107 58 108 59 109 60 110 61 111 62 112
REMARK H PARENT 20 5 24 43 86 62 52 73
REMARK Flexibility Score: inf
ROOT
ATOM      1  C   UNL A   1      31.162  31.443  26.262  1.00  0.00     0.118 C 
ENDROOT
BRANCH   1   2
ATOM      2  N   UNL A   1      30.472  31.585  24.990  1.00  0.00    -0.352 N 
ATOM      3  C   UNL A   1      30.015  30.674  24.068  1.00  0.00     0.251 C 
ATOM      4  O   UNL A   1      29.466  31.112  23.055  1.00  0.00    -0.269 OA
ATOM      5  H   UNL A   1      30.296  32.520  24.740  1.00  0.00     0.163 HD
BRANCH   3   6
ATOM      6  C   UNL A   1      30.213  29.206  24.200  1.00  0.00     0.039 A 
ATOM      7  C   UNL A   1      30.595  26.409  24.172  1.00  0.00     0.001 A 
ATOM      8  C   UNL A   1      29.540  26.980  23.456  1.00  0.00     0.011 A 
ATOM      9  C   UNL A   1      31.382  27.240  24.982  1.00  0.00     0.011 A 
ATOM     10  C   UNL A   1      29.357  28.369  23.466  1.00  0.00     0.014 A 
ATOM     11  C   UNL A   1      31.168  28.621  25.028  1.00  0.00     0.014 A 
BRANCH   7  12
ATOM     12  C   UNL A   1      30.893  24.986  24.133  1.00  0.00     0.081 A 
ATOM     13  C   UNL A   1      31.682  23.107  25.018  1.00  0.00     0.098 A 
ATOM     14  N   UNL A   1      31.467  24.386  25.228  1.00  0.00    -0.241 NA
ATOM     15  S   UNL A   1      31.233  22.552  23.455  1.00  0.00    -0.126 S 
ATOM     16  C   UNL A   1      30.711  24.144  23.054  1.00  0.00     0.095 A 
BRANCH  13  17
ATOM     17  C   UNL A   1      32.276  22.192  26.051  1.00  0.00     0.105 C 
BRANCH  17  18
ATOM     18  C   UNL A   1      33.574  21.575  25.578  1.00  0.00    -0.012 A 
ATOM     19  C   UNL A   1      33.331  17.838  24.796  1.00  0.00     0.119 A 
ATOM     20  C   UNL A   1      34.673  17.652  24.521  1.00  0.00     0.048 A 
ATOM     21  C   UNL A   1      32.875  19.100  25.167  1.00  0.00     0.057 A 
ATOM     22  C   UNL A   1      35.573  18.721  24.610  1.00  0.00     0.031 A 
ATOM     23  C   UNL A   1      33.756  20.207  25.225  1.00  0.00     0.008 A 
ATOM     24  C   UNL A   1      35.104  20.022  24.905  1.00  0.00     0.057 A 
ATOM     25  N   UNL A   1      35.738  21.279  24.951  1.00  0.00    -0.280 N 
ATOM     26  C   UNL A   1      34.800  22.212  25.426  1.00  0.00     0.028 A 
ATOM     27  C   UNL A   1      35.059  23.658  25.706  1.00  0.00     0.065 C 
BRANCH  19  28
ATOM     28  O   UNL A   1      32.382  16.861  24.672  1.00  0.00    -0.497 OA
ATOM     29  C   UNL A   1      32.780  15.599  25.196  1.00  0.00     0.278 C 
ENDBRANCH  19  28
BRANCH  25  30
ATOM     30  C   UNL A   1      37.091  21.552  24.576  1.00  0.00     0.262 C 
ATOM     31  O   UNL A   1      37.338  22.067  23.499  1.00  0.00    -0.268 OA
BRANCH  30  32
ATOM     32  C   UNL A   1      38.272  21.269  25.416  1.00  0.00     0.040 A 
ATOM     33  C   UNL A   1      38.809  22.250  26.256  1.00  0.00     0.015 A 
ATOM     34  C   UNL A   1      38.854  19.998  25.330  1.00  0.00     0.015 A 
ATOM     35  C   UNL A   1      39.989  21.979  26.953  1.00  0.00     0.021 A 
ATOM     36  C   UNL A   1      40.027  19.731  26.037  1.00  0.00     0.021 A 
ATOM     37  C   UNL A   1      40.599  20.727  26.830  1.00  0.00     0.041 A 
ATOM     38  Cl  UNL A   1      42.079  20.416  27.650  1.00  0.00    -0.084 Cl
ENDBRANCH  30  32
ENDBRANCH  25  30
ENDBRANCH  17  18
ENDBRANCH  13  17
ENDBRANCH   7  12
ENDBRANCH   3   6
ENDBRANCH   1   2
BRANCH   1  39
ATOM     39  C   UNL A   1      32.670  31.273  26.140  1.00  0.00     0.042 C 
BRANCH  39  40
ATOM     40  C   UNL A   1      33.372  30.561  27.293  1.00  0.00     0.118 C 
BRANCH  40  41
ATOM     41  N   UNL A   1      33.668  31.366  28.461  1.00  0.00    -0.352 N 
ATOM     42  C   UNL A   1      34.814  31.765  29.095  1.00  0.00     0.251 C 
ATOM     43  H   UNL A   1      32.857  31.705  28.902  1.00  0.00     0.163 HD
ATOM     44  O   UNL A   1      34.682  32.673  29.921  1.00  0.00    -0.269 OA
BRANCH  42  45
ATOM     45  C   UNL A   1      36.154  31.139  28.927  1.00  0.00     0.039 A 
ATOM     46  C   UNL A   1      36.386  29.804  28.609  1.00  0.00     0.014 A 
ATOM     47  C   UNL A   1      37.263  31.960  29.211  1.00  0.00     0.014 A 
ATOM     48  C   UNL A   1      37.662  29.261  28.735  1.00  0.00     0.010 A 
ATOM     49  C   UNL A   1      38.548  31.436  29.288  1.00  0.00     0.010 A 
ATOM     50  C   UNL A   1      38.736  30.068  29.120  1.00  0.00    -0.014 A 
BRANCH  50  51
ATOM     51  C   UNL A   1      40.045  29.432  29.272  1.00  0.00     0.031 A 
ATOM     52  C   UNL A   1      40.495  29.226  30.677  1.00  0.00     0.074 A 
ATOM     53  C   UNL A   1      40.771  28.972  28.231  1.00  0.00     0.049 A 
ATOM     54  N   UNL A   1      41.537  29.712  31.273  1.00  0.00    -0.248 NA
ATOM     55  C   UNL A   1      39.610  28.451  31.561  1.00  0.00     0.031 C 
ATOM     56  C   UNL A   1      40.343  28.837  26.835  1.00  0.00     0.029 A 
ATOM     57  N   UNL A   1      42.029  28.438  28.223  1.00  0.00    -0.354 N 
ATOM     58  C   UNL A   1      41.543  29.154  32.552  1.00  0.00     0.074 A 
ATOM     59  C   UNL A   1      40.272  28.498  32.717  1.00  0.00     0.031 C 
ATOM     60  C   UNL A   1      41.232  28.067  26.168  1.00  0.00     0.029 A 
ATOM     61  C   UNL A   1      42.361  27.790  27.040  1.00  0.00     0.049 A 
ATOM     62  H   UNL A   1      42.645  28.507  28.987  1.00  0.00     0.167 HD
ATOM     63  C   UNL A   1      42.671  29.091  33.311  1.00  0.00     0.037 A 
ATOM     64  C   UNL A   1      43.466  27.044  26.802  1.00  0.00     0.037 A 
ATOM     65  C   UNL A   1      43.703  29.952  32.806  1.00  0.00     0.049 A 
ATOM     66  C   UNL A   1      44.512  27.457  27.767  1.00  0.00     0.074 A 
ATOM     67  C   UNL A   1      43.993  31.298  32.855  1.00  0.00     0.029 A 
ATOM     68  N   UNL A   1      44.482  29.402  31.823  1.00  0.00    -0.354 N 
ATOM     69  N   UNL A   1      45.066  28.636  27.776  1.00  0.00    -0.248 NA
ATOM     70  C   UNL A   1      44.772  26.637  28.945  1.00  0.00     0.031 C 
ATOM     71  C   UNL A   1      44.799  31.572  31.710  1.00  0.00     0.029 A 
ATOM     72  C   UNL A   1      44.986  30.384  31.008  1.00  0.00     0.049 A 
ATOM     73  H   UNL A   1      44.655  28.439  31.717  1.00  0.00     0.167 HD
ATOM     74  C   UNL A   1      45.387  28.858  29.099  1.00  0.00     0.074 A 
ATOM     75  C   UNL A   1      45.355  27.547  29.730  1.00  0.00     0.031 C 
ATOM     76  C   UNL A   1      45.342  30.111  29.632  1.00  0.00     0.037 A 
BRANCH  63  77
ATOM     77  C   UNL A   1      42.986  27.975  34.283  1.00  0.00     0.058 A 
ATOM     78  C   UNL A   1      42.964  28.215  35.673  1.00  0.00     0.135 A 
ATOM     79  C   UNL A   1      43.583  26.756  33.888  1.00  0.00     0.135 A 
ATOM     80  F   UNL A   1      42.443  29.352  36.162  1.00  0.00    -0.206 F 
ATOM     81  C   UNL A   1      43.527  27.328  36.596  1.00  0.00     0.059 A 
ATOM     82  C   UNL A   1      44.102  25.836  34.793  1.00  0.00     0.059 A 
ATOM     83  F   UNL A   1      43.778  26.452  32.598  1.00  0.00    -0.206 F 
ATOM     84  C   UNL A   1      44.103  26.145  36.143  1.00  0.00     0.060 A 
BRANCH  84  85
ATOM     85  S   UNL A   1      44.908  25.039  37.319  1.00  0.00     0.124 S 
ATOM     86  O   UNL A   1      44.523  25.635  38.593  1.00  0.00    -0.237 OA
ATOM     87  O   UNL A   1      44.291  23.755  37.001  1.00  0.00    -0.237 OA
ATOM     88  O   UNL A   1      46.322  25.150  36.971  1.00  0.00    -0.744 OA
ENDBRANCH  84  85
ENDBRANCH  63  77
BRANCH  64  89
ATOM     89  C   UNL A   1      43.598  25.815  25.981  1.00  0.00     0.058 A 
ATOM     90  C   UNL A   1      44.704  25.636  25.130  1.00  0.00     0.135 A 
ATOM     91  C   UNL A   1      42.829  24.669  26.258  1.00  0.00     0.135 A 
ATOM     92  F   UNL A   1      45.491  26.677  24.817  1.00  0.00    -0.206 F 
ATOM     93  C   UNL A   1      45.079  24.378  24.656  1.00  0.00     0.059 A 
ATOM     94  C   UNL A   1      43.177  23.405  25.786  1.00  0.00     0.059 A 
ATOM     95  F   UNL A   1      41.772  24.728  27.084  1.00  0.00    -0.206 F 
ATOM     96  C   UNL A   1      44.326  23.262  25.020  1.00  0.00     0.060 A 
BRANCH  96  97
ATOM     97  S   UNL A   1      44.945  21.614  24.607  1.00  0.00     0.124 S 
ATOM     98  O   UNL A   1      46.367  21.743  24.907  1.00  0.00    -0.237 OA
ATOM     99  O   UNL A   1      44.177  20.765  25.511  1.00  0.00    -0.237 OA
ATOM    100  O   UNL A   1      44.615  21.474  23.191  1.00  0.00    -0.744 OA
ENDBRANCH  96  97
ENDBRANCH  64  89
BRANCH  76 101
ATOM    101  C   UNL A   1      45.480  31.264  28.683  1.00  0.00     0.058 A 
ATOM    102  C   UNL A   1      46.699  31.723  28.159  1.00  0.00     0.135 A 
ATOM    103  C   UNL A   1      44.309  31.894  28.237  1.00  0.00     0.135 A 
ATOM    104  F   UNL A   1      47.855  31.119  28.475  1.00  0.00    -0.206 F 
ATOM    105  C   UNL A   1      46.754  32.790  27.262  1.00  0.00     0.059 A 
ATOM    106  C   UNL A   1      44.336  32.939  27.319  1.00  0.00     0.059 A 
ATOM    107  F   UNL A   1      43.110  31.465  28.667  1.00  0.00    -0.206 F 
ATOM    108  C   UNL A   1      45.566  33.392  26.847  1.00  0.00     0.060 A 
BRANCH 108 109
ATOM    109  S   UNL A   1      45.635  34.727  25.633  1.00  0.00     0.124 S 
ATOM    110  O   UNL A   1      44.686  35.692  26.181  1.00  0.00    -0.237 OA
ATOM    111  O   UNL A   1      47.040  35.123  25.678  1.00  0.00    -0.237 OA
ATOM    112  O   UNL A   1      45.219  34.081  24.390  1.00  0.00    -0.744 OA
ENDBRANCH 108 109
ENDBRANCH  76 101
ENDBRANCH  50  51
ENDBRANCH  42  45
ENDBRANCH  40  41
ENDBRANCH  39  40
ENDBRANCH   1  39
TORSDOF 19
ENDMDL
