MODEL 1
REMARK VINA RESULT:     -12.1      0.000      0.000
REMARK SMILES CCn1cc(C)c(C(=O)NCCCNC(=O)c2ccc(-c3c4nc(c(-c5c(F)cc(S(=O)(=O)[O-])cc5F)c5ccc([nH]5)c(-c5c(F)cc(S(=O)(=O)[O-])cc5F)c5nc(c(-c6c(F)cc(S(=O)(=O)[O-])cc6F)c6ccc3[nH]6)C=C5)C=C4)cc2)c1CC(=O)N1CC[NH+](C)CC1
REMARK SMILES IDX 12 1 11 2 10 3 8 4 9 5 7 7 3 8 4 9 83 10 5 11 6 12 2 13 1 14
REMARK SMILES IDX 84 15 85 16 86 17 87 18 88 19 93 20 89 21 92 22 90 23 91 24
REMARK SMILES IDX 13 26 14 27 15 28 16 30 17 31 18 32 82 33 19 34 81 35 20 36
REMARK SMILES IDX 21 37 22 38 75 39 23 40 80 41 74 42 76 43 24 44 79 45 73 46
REMARK SMILES IDX 72 47 25 49 59 50 38 51 58 52 39 53 42 54 57 55 77 56 40 57
REMARK SMILES IDX 41 58 56 60 78 61 43 62 26 63 27 64 36 65 28 66 29 67 35 68
REMARK SMILES IDX 37 69 30 70 31 71 32 72 33 73 34 74 60 75 61 76 70 77 62 78
REMARK SMILES IDX 63 79 69 80 71 81 64 82 65 83 66 84 67 85 68 86 44 87 45 88
REMARK SMILES IDX 54 89 46 90 47 91 53 92 55 93 48 94 49 95 50 96 51 97 52 98
REMARK H PARENT 10 6 90 25 14 29 76 48 42 59
REMARK Flexibility Score: inf
ROOT
ATOM      1  C   UNL A   1      39.149  21.994  26.149  1.00  0.00     0.042 C 
ENDROOT
BRANCH   1   2
ATOM      2  C   UNL A   1      38.081  23.061  25.913  1.00  0.00     0.118 C 
BRANCH   2   3
ATOM      3  N   UNL A   1      37.637  23.065  24.536  1.00  0.00    -0.352 N 
ATOM      4  C   UNL A   1      36.411  22.983  23.935  1.00  0.00     0.253 C 
ATOM      5  O   UNL A   1      36.441  23.145  22.711  1.00  0.00    -0.269 OA
ATOM      6  H   UNL A   1      38.377  23.145  23.892  1.00  0.00     0.163 HD
BRANCH   4   7
ATOM      7  C   UNL A   1      35.124  22.751  24.629  1.00  0.00     0.064 A 
ATOM      8  N   UNL A   1      33.108  22.819  25.609  1.00  0.00    -0.350 N 
ATOM      9  C   UNL A   1      33.414  21.497  25.497  1.00  0.00     0.090 A 
ATOM     10  C   UNL A   1      34.237  23.586  25.344  1.00  0.00     0.040 A 
ATOM     11  C   UNL A   1      34.672  21.402  24.955  1.00  0.00    -0.020 A 
ATOM     12  C   UNL A   1      35.433  20.126  24.811  1.00  0.00     0.047 C 
BRANCH   8  13
ATOM     13  C   UNL A   1      31.795  23.275  26.045  1.00  0.00     0.118 C 
ATOM     14  C   UNL A   1      30.910  23.694  24.885  1.00  0.00     0.027 C 
ENDBRANCH   8  13
BRANCH  10  15
ATOM     15  C   UNL A   1      34.270  25.005  25.829  1.00  0.00     0.155 C 
BRANCH  15  16
ATOM     16  C   UNL A   1      33.685  26.186  25.040  1.00  0.00     0.228 C 
ATOM     17  O   UNL A   1      33.767  26.069  23.803  1.00  0.00    -0.274 OA
ATOM     18  N   UNL A   1      33.178  27.357  25.568  1.00  0.00    -0.331 N 
ATOM     19  C   UNL A   1      33.132  28.540  24.692  1.00  0.00     0.181 C 
ATOM     20  C   UNL A   1      32.912  27.639  26.975  1.00  0.00     0.181 C 
ATOM     21  C   UNL A   1      31.974  29.504  25.008  1.00  0.00     0.283 C 
ATOM     22  C   UNL A   1      31.781  28.643  27.235  1.00  0.00     0.283 C 
ATOM     23  N   UNL A   1      31.833  29.868  26.428  1.00  0.00    -0.334 N 
ATOM     24  C   UNL A   1      32.888  30.775  26.879  1.00  0.00     0.332 C 
ATOM     25  H   UNL A   1      30.961  30.383  26.545  1.00  0.00     0.347 HD
ENDBRANCH  15  16
ENDBRANCH  10  15
ENDBRANCH   4   7
ENDBRANCH   2   3
ENDBRANCH   1   2
BRANCH   1  26
ATOM     26  C   UNL A   1      40.365  22.486  26.885  1.00  0.00     0.118 C 
BRANCH  26  27
ATOM     27  N   UNL A   1      41.598  22.429  26.101  1.00  0.00    -0.352 N 
ATOM     28  C   UNL A   1      42.333  23.500  25.597  1.00  0.00     0.251 C 
ATOM     29  H   UNL A   1      41.950  21.531  25.909  1.00  0.00     0.163 HD
ATOM     30  O   UNL A   1      43.136  23.333  24.696  1.00  0.00    -0.269 OA
BRANCH  28  31
ATOM     31  C   UNL A   1      42.101  24.841  26.180  1.00  0.00     0.039 A 
ATOM     32  C   UNL A   1      41.086  25.704  25.765  1.00  0.00     0.014 A 
ATOM     33  C   UNL A   1      42.919  25.204  27.238  1.00  0.00     0.014 A 
ATOM     34  C   UNL A   1      40.926  26.906  26.456  1.00  0.00     0.010 A 
ATOM     35  C   UNL A   1      42.488  26.132  28.127  1.00  0.00     0.010 A 
ATOM     36  C   UNL A   1      41.650  27.107  27.643  1.00  0.00    -0.014 A 
BRANCH  36  37
ATOM     37  C   UNL A   1      41.530  28.283  28.486  1.00  0.00     0.031 A 
ATOM     38  C   UNL A   1      42.610  29.259  28.244  1.00  0.00     0.074 A 
ATOM     39  C   UNL A   1      40.420  28.571  29.208  1.00  0.00     0.049 A 
ATOM     40  N   UNL A   1      43.661  29.444  28.965  1.00  0.00    -0.248 NA
ATOM     41  C   UNL A   1      42.657  29.928  26.934  1.00  0.00     0.031 C 
ATOM     42  C   UNL A   1      39.130  27.864  29.256  1.00  0.00     0.029 A 
ATOM     43  N   UNL A   1      40.180  29.646  30.006  1.00  0.00    -0.354 N 
ATOM     44  C   UNL A   1      44.342  30.483  28.348  1.00  0.00     0.074 A 
ATOM     45  C   UNL A   1      43.847  30.531  26.998  1.00  0.00     0.031 C 
ATOM     46  C   UNL A   1      38.196  28.644  29.846  1.00  0.00     0.029 A 
ATOM     47  C   UNL A   1      38.847  29.829  30.373  1.00  0.00     0.049 A 
ATOM     48  H   UNL A   1      40.897  30.252  30.303  1.00  0.00     0.167 HD
ATOM     49  C   UNL A   1      45.007  31.408  29.094  1.00  0.00     0.037 A 
ATOM     50  C   UNL A   1      38.334  30.897  31.042  1.00  0.00     0.037 A 
ATOM     51  C   UNL A   1      45.165  30.946  30.457  1.00  0.00     0.049 A 
ATOM     52  C   UNL A   1      39.483  31.565  31.718  1.00  0.00     0.074 A 
ATOM     53  C   UNL A   1      45.710  29.815  31.037  1.00  0.00     0.029 A 
ATOM     54  N   UNL A   1      44.333  31.485  31.412  1.00  0.00    -0.354 N 
ATOM     55  N   UNL A   1      40.171  31.012  32.681  1.00  0.00    -0.248 NA
ATOM     56  C   UNL A   1      40.178  32.604  30.975  1.00  0.00     0.031 C 
ATOM     57  C   UNL A   1      44.803  29.463  32.082  1.00  0.00     0.029 A 
ATOM     58  C   UNL A   1      43.820  30.450  32.154  1.00  0.00     0.049 A 
ATOM     59  H   UNL A   1      44.140  32.443  31.539  1.00  0.00     0.167 HD
ATOM     60  C   UNL A   1      41.496  31.306  32.387  1.00  0.00     0.074 A 
ATOM     61  C   UNL A   1      41.431  32.343  31.357  1.00  0.00     0.031 C 
ATOM     62  C   UNL A   1      42.512  30.477  32.775  1.00  0.00     0.037 A 
BRANCH  49  63
ATOM     63  C   UNL A   1      45.144  32.863  28.715  1.00  0.00     0.058 A 
ATOM     64  C   UNL A   1      46.435  33.427  28.651  1.00  0.00     0.135 A 
ATOM     65  C   UNL A   1      44.076  33.790  28.672  1.00  0.00     0.135 A 
ATOM     66  F   UNL A   1      47.524  32.643  28.688  1.00  0.00    -0.206 F 
ATOM     67  C   UNL A   1      46.649  34.804  28.627  1.00  0.00     0.059 A 
ATOM     68  C   UNL A   1      44.267  35.163  28.590  1.00  0.00     0.059 A 
ATOM     69  F   UNL A   1      42.797  33.428  28.803  1.00  0.00    -0.206 F 
ATOM     70  C   UNL A   1      45.555  35.663  28.609  1.00  0.00     0.060 A 
BRANCH  70  71
ATOM     71  S   UNL A   1      45.827  37.441  28.663  1.00  0.00     0.124 S 
ATOM     72  O   UNL A   1      44.769  37.868  29.571  1.00  0.00    -0.237 OA
ATOM     73  O   UNL A   1      47.189  37.519  29.181  1.00  0.00    -0.237 OA
ATOM     74  O   UNL A   1      45.669  37.846  27.269  1.00  0.00    -0.744 OA
ENDBRANCH  70  71
ENDBRANCH  49  63
BRANCH  50  75
ATOM     75  C   UNL A   1      37.023  31.583  30.842  1.00  0.00     0.058 A 
ATOM     76  C   UNL A   1      36.101  31.726  31.896  1.00  0.00     0.135 A 
ATOM     77  C   UNL A   1      36.779  32.375  29.701  1.00  0.00     0.135 A 
ATOM     78  F   UNL A   1      36.259  31.024  33.029  1.00  0.00    -0.206 F 
ATOM     79  C   UNL A   1      35.038  32.641  31.849  1.00  0.00     0.059 A 
ATOM     80  C   UNL A   1      35.725  33.287  29.628  1.00  0.00     0.059 A 
ATOM     81  F   UNL A   1      37.619  32.354  28.656  1.00  0.00    -0.206 F 
ATOM     82  C   UNL A   1      34.875  33.437  30.716  1.00  0.00     0.060 A 
BRANCH  82  83
ATOM     83  S   UNL A   1      33.628  34.752  30.719  1.00  0.00     0.124 S 
ATOM     84  O   UNL A   1      32.821  34.408  29.553  1.00  0.00    -0.237 OA
ATOM     85  O   UNL A   1      32.986  34.567  32.016  1.00  0.00    -0.237 OA
ATOM     86  O   UNL A   1      34.423  35.971  30.589  1.00  0.00    -0.744 OA
ENDBRANCH  82  83
ENDBRANCH  50  75
BRANCH  62  87
ATOM     87  C   UNL A   1      42.212  29.394  33.785  1.00  0.00     0.058 A 
ATOM     88  C   UNL A   1      41.709  28.114  33.481  1.00  0.00     0.135 A 
ATOM     89  C   UNL A   1      42.577  29.629  35.120  1.00  0.00     0.135 A 
ATOM     90  F   UNL A   1      41.441  27.758  32.218  1.00  0.00    -0.206 F 
ATOM     91  C   UNL A   1      41.519  27.141  34.469  1.00  0.00     0.059 A 
ATOM     92  C   UNL A   1      42.430  28.665  36.113  1.00  0.00     0.059 A 
ATOM     93  F   UNL A   1      43.125  30.804  35.469  1.00  0.00    -0.206 F 
ATOM     94  C   UNL A   1      41.876  27.430  35.786  1.00  0.00     0.060 A 
BRANCH  94  95
ATOM     95  S   UNL A   1      41.650  26.174  37.065  1.00  0.00     0.124 S 
ATOM     96  O   UNL A   1      42.770  26.446  37.960  1.00  0.00    -0.237 OA
ATOM     97  O   UNL A   1      40.326  26.492  37.591  1.00  0.00    -0.237 OA
ATOM     98  O   UNL A   1      41.734  24.916  36.327  1.00  0.00    -0.744 OA
ENDBRANCH  94  95
ENDBRANCH  62  87
ENDBRANCH  36  37
ENDBRANCH  28  31
ENDBRANCH  26  27
ENDBRANCH   1  26
TORSDOF 16
ENDMDL
MODEL 2
REMARK VINA RESULT:     -11.8      3.551      7.134
REMARK SMILES CCn1cc(C)c(C(=O)NCCCNC(=O)c2ccc(-c3c4nc(c(-c5c(F)cc(S(=O)(=O)[O-])cc5F)c5ccc([nH]5)c(-c5c(F)cc(S(=O)(=O)[O-])cc5F)c5nc(c(-c6c(F)cc(S(=O)(=O)[O-])cc6F)c6ccc3[nH]6)C=C5)C=C4)cc2)c1CC(=O)N1CC[NH+](C)CC1
REMARK SMILES IDX 12 1 11 2 10 3 8 4 9 5 7 7 3 8 4 9 83 10 5 11 6 12 2 13 1 14
REMARK SMILES IDX 84 15 85 16 86 17 87 18 88 19 93 20 89 21 92 22 90 23 91 24
REMARK SMILES IDX 13 26 14 27 15 28 16 30 17 31 18 32 82 33 19 34 81 35 20 36
REMARK SMILES IDX 21 37 22 38 75 39 23 40 80 41 74 42 76 43 24 44 79 45 73 46
REMARK SMILES IDX 72 47 25 49 59 50 38 51 58 52 39 53 42 54 57 55 77 56 40 57
REMARK SMILES IDX 41 58 56 60 78 61 43 62 26 63 27 64 36 65 28 66 29 67 35 68
REMARK SMILES IDX 37 69 30 70 31 71 32 72 33 73 34 74 60 75 61 76 70 77 62 78
REMARK SMILES IDX 63 79 69 80 71 81 64 82 65 83 66 84 67 85 68 86 44 87 45 88
REMARK SMILES IDX 54 89 46 90 47 91 53 92 55 93 48 94 49 95 50 96 51 97 52 98
REMARK H PARENT 10 6 90 25 14 29 76 48 42 59
REMARK Flexibility Score: inf
ROOT
ATOM      1  C   UNL A   1      44.172  22.079  25.165  1.00  0.00     0.042 C 
ENDROOT
BRANCH   1   2
ATOM      2  C   UNL A   1      45.376  22.686  25.883  1.00  0.00     0.118 C 
BRANCH   2   3
ATOM      3  N   UNL A   1      45.096  22.903  27.286  1.00  0.00    -0.352 N 
ATOM      4  C   UNL A   1      45.334  23.934  28.152  1.00  0.00     0.253 C 
ATOM      5  O   UNL A   1      44.823  23.782  29.266  1.00  0.00    -0.269 OA
ATOM      6  H   UNL A   1      44.635  22.143  27.709  1.00  0.00     0.163 HD
BRANCH   4   7
ATOM      7  C   UNL A   1      46.100  25.163  27.840  1.00  0.00     0.064 A 
ATOM      8  N   UNL A   1      47.584  26.820  27.564  1.00  0.00    -0.350 N 
ATOM      9  C   UNL A   1      46.521  27.151  26.782  1.00  0.00     0.090 A 
ATOM     10  C   UNL A   1      47.238  25.775  28.412  1.00  0.00     0.040 A 
ATOM     11  C   UNL A   1      45.553  26.194  26.963  1.00  0.00    -0.020 A 
ATOM     12  C   UNL A   1      44.174  26.272  26.398  1.00  0.00     0.047 C 
BRANCH   8  13
ATOM     13  C   UNL A   1      48.834  27.568  27.526  1.00  0.00     0.118 C 
ATOM     14  C   UNL A   1      48.686  28.977  28.072  1.00  0.00     0.027 C 
ENDBRANCH   8  13
BRANCH  10  15
ATOM     15  C   UNL A   1      48.066  25.541  29.640  1.00  0.00     0.155 C 
BRANCH  15  16
ATOM     16  C   UNL A   1      47.909  26.350  30.936  1.00  0.00     0.228 C 
ATOM     17  O   UNL A   1      48.715  27.291  31.056  1.00  0.00    -0.274 OA
ATOM     18  N   UNL A   1      47.043  26.075  31.977  1.00  0.00    -0.331 N 
ATOM     19  C   UNL A   1      47.368  26.630  33.303  1.00  0.00     0.181 C 
ATOM     20  C   UNL A   1      45.969  25.088  31.984  1.00  0.00     0.181 C 
ATOM     21  C   UNL A   1      46.133  26.942  34.166  1.00  0.00     0.283 C 
ATOM     22  C   UNL A   1      44.782  25.423  32.899  1.00  0.00     0.283 C 
ATOM     23  N   UNL A   1      45.140  25.858  34.254  1.00  0.00    -0.334 N 
ATOM     24  C   UNL A   1      45.603  24.743  35.081  1.00  0.00     0.332 C 
ATOM     25  H   UNL A   1      44.308  26.217  34.721  1.00  0.00     0.347 HD
ENDBRANCH  15  16
ENDBRANCH  10  15
ENDBRANCH   4   7
ENDBRANCH   2   3
ENDBRANCH   1   2
BRANCH   1  26
ATOM     26  C   UNL A   1      42.968  22.979  25.105  1.00  0.00     0.118 C 
BRANCH  26  27
ATOM     27  N   UNL A   1      41.720  22.330  25.503  1.00  0.00    -0.352 N 
ATOM     28  C   UNL A   1      40.817  22.753  26.477  1.00  0.00     0.251 C 
ATOM     29  H   UNL A   1      41.490  21.500  25.027  1.00  0.00     0.163 HD
ATOM     30  O   UNL A   1      40.004  21.978  26.949  1.00  0.00    -0.269 OA
BRANCH  28  31
ATOM     31  C   UNL A   1      40.884  24.163  26.925  1.00  0.00     0.039 A 
ATOM     32  C   UNL A   1      40.121  25.191  26.370  1.00  0.00     0.014 A 
ATOM     33  C   UNL A   1      41.717  24.430  27.999  1.00  0.00     0.014 A 
ATOM     34  C   UNL A   1      40.221  26.461  26.943  1.00  0.00     0.010 A 
ATOM     35  C   UNL A   1      41.480  25.516  28.774  1.00  0.00     0.010 A 
ATOM     36  C   UNL A   1      40.919  26.606  28.153  1.00  0.00    -0.014 A 
BRANCH  36  37
ATOM     37  C   UNL A   1      41.044  27.855  28.881  1.00  0.00     0.031 A 
ATOM     38  C   UNL A   1      42.103  28.722  28.329  1.00  0.00     0.074 A 
ATOM     39  C   UNL A   1      40.127  28.288  29.781  1.00  0.00     0.049 A 
ATOM     40  N   UNL A   1      43.290  28.888  28.801  1.00  0.00    -0.248 NA
ATOM     41  C   UNL A   1      41.914  29.271  26.976  1.00  0.00     0.031 C 
ATOM     42  C   UNL A   1      38.838  27.687  30.158  1.00  0.00     0.029 A 
ATOM     43  N   UNL A   1      40.120  29.443  30.498  1.00  0.00    -0.354 N 
ATOM     44  C   UNL A   1      43.885  29.815  27.957  1.00  0.00     0.074 A 
ATOM     45  C   UNL A   1      43.123  29.785  26.738  1.00  0.00     0.031 C 
ATOM     46  C   UNL A   1      38.093  28.585  30.845  1.00  0.00     0.029 A 
ATOM     47  C   UNL A   1      38.905  29.757  31.108  1.00  0.00     0.049 A 
ATOM     48  H   UNL A   1      40.916  30.016  30.582  1.00  0.00     0.167 HD
ATOM     49  C   UNL A   1      44.743  30.748  28.458  1.00  0.00     0.037 A 
ATOM     50  C   UNL A   1      38.604  30.915  31.757  1.00  0.00     0.037 A 
ATOM     51  C   UNL A   1      45.155  30.395  29.800  1.00  0.00     0.049 A 
ATOM     52  C   UNL A   1      39.905  31.549  32.116  1.00  0.00     0.074 A 
ATOM     53  C   UNL A   1      45.743  29.279  30.367  1.00  0.00     0.029 A 
ATOM     54  N   UNL A   1      44.571  31.076  30.844  1.00  0.00    -0.354 N 
ATOM     55  N   UNL A   1      40.746  31.031  32.970  1.00  0.00    -0.248 NA
ATOM     56  C   UNL A   1      40.487  32.465  31.147  1.00  0.00     0.031 C 
ATOM     57  C   UNL A   1      45.056  29.089  31.604  1.00  0.00     0.029 A 
ATOM     58  C   UNL A   1      44.167  30.150  31.774  1.00  0.00     0.049 A 
ATOM     59  H   UNL A   1      44.464  32.052  30.912  1.00  0.00     0.167 HD
ATOM     60  C   UNL A   1      41.995  31.197  32.386  1.00  0.00     0.074 A 
ATOM     61  C   UNL A   1      41.776  32.144  31.292  1.00  0.00     0.031 C 
ATOM     62  C   UNL A   1      43.021  30.330  32.642  1.00  0.00     0.037 A 
BRANCH  49  63
ATOM     63  C   UNL A   1      44.879  32.151  27.915  1.00  0.00     0.058 A 
ATOM     64  C   UNL A   1      46.115  32.544  27.363  1.00  0.00     0.135 A 
ATOM     65  C   UNL A   1      43.959  33.200  28.148  1.00  0.00     0.135 A 
ATOM     66  F   UNL A   1      47.068  31.634  27.104  1.00  0.00    -0.206 F 
ATOM     67  C   UNL A   1      46.440  33.880  27.134  1.00  0.00     0.059 A 
ATOM     68  C   UNL A   1      44.241  34.530  27.873  1.00  0.00     0.059 A 
ATOM     69  F   UNL A   1      42.777  33.008  28.740  1.00  0.00    -0.206 F 
ATOM     70  C   UNL A   1      45.498  34.867  27.405  1.00  0.00     0.060 A 
BRANCH  70  71
ATOM     71  S   UNL A   1      45.943  36.597  27.190  1.00  0.00     0.124 S 
ATOM     72  O   UNL A   1      46.796  36.532  26.009  1.00  0.00    -0.237 OA
ATOM     73  O   UNL A   1      44.637  37.220  27.006  1.00  0.00    -0.237 OA
ATOM     74  O   UNL A   1      46.618  36.927  28.442  1.00  0.00    -0.744 OA
ENDBRANCH  70  71
ENDBRANCH  49  63
BRANCH  50  75
ATOM     75  C   UNL A   1      37.322  31.678  31.758  1.00  0.00     0.058 A 
ATOM     76  C   UNL A   1      36.631  31.952  32.954  1.00  0.00     0.135 A 
ATOM     77  C   UNL A   1      36.908  32.415  30.629  1.00  0.00     0.135 A 
ATOM     78  F   UNL A   1      36.964  31.311  34.086  1.00  0.00    -0.206 F 
ATOM     79  C   UNL A   1      35.634  32.935  33.042  1.00  0.00     0.059 A 
ATOM     80  C   UNL A   1      35.914  33.393  30.689  1.00  0.00     0.059 A 
ATOM     81  F   UNL A   1      37.526  32.271  29.448  1.00  0.00    -0.206 F 
ATOM     82  C   UNL A   1      35.300  33.670  31.905  1.00  0.00     0.060 A 
BRANCH  82  83
ATOM     83  S   UNL A   1      34.156  35.067  32.047  1.00  0.00     0.124 S 
ATOM     84  O   UNL A   1      34.933  36.016  32.838  1.00  0.00    -0.237 OA
ATOM     85  O   UNL A   1      33.935  35.431  30.652  1.00  0.00    -0.237 OA
ATOM     86  O   UNL A   1      32.999  34.489  32.727  1.00  0.00    -0.744 OA
ENDBRANCH  82  83
ENDBRANCH  50  75
BRANCH  62  87
ATOM     87  C   UNL A   1      42.878  29.363  33.794  1.00  0.00     0.058 A 
ATOM     88  C   UNL A   1      43.211  29.639  35.135  1.00  0.00     0.135 A 
ATOM     89  C   UNL A   1      42.251  28.134  33.539  1.00  0.00     0.135 A 
ATOM     90  F   UNL A   1      43.707  30.830  35.494  1.00  0.00    -0.206 F 
ATOM     91  C   UNL A   1      42.987  28.710  36.157  1.00  0.00     0.059 A 
ATOM     92  C   UNL A   1      41.987  27.209  34.544  1.00  0.00     0.059 A 
ATOM     93  F   UNL A   1      41.847  27.832  32.294  1.00  0.00    -0.206 F 
ATOM     94  C   UNL A   1      42.380  27.492  35.850  1.00  0.00     0.060 A 
BRANCH  94  95
ATOM     95  S   UNL A   1      42.073  26.294  37.166  1.00  0.00     0.124 S 
ATOM     96  O   UNL A   1      42.248  25.024  36.469  1.00  0.00    -0.237 OA
ATOM     97  O   UNL A   1      43.102  26.627  38.146  1.00  0.00    -0.237 OA
ATOM     98  O   UNL A   1      40.705  26.590  37.585  1.00  0.00    -0.744 OA
ENDBRANCH  94  95
ENDBRANCH  62  87
ENDBRANCH  36  37
ENDBRANCH  28  31
ENDBRANCH  26  27
ENDBRANCH   1  26
TORSDOF 16
ENDMDL
MODEL 3
REMARK VINA RESULT:     -11.6      2.822      9.508
REMARK SMILES CCn1cc(C)c(C(=O)NCCCNC(=O)c2ccc(-c3c4nc(c(-c5c(F)cc(S(=O)(=O)[O-])cc5F)c5ccc([nH]5)c(-c5c(F)cc(S(=O)(=O)[O-])cc5F)c5nc(c(-c6c(F)cc(S(=O)(=O)[O-])cc6F)c6ccc3[nH]6)C=C5)C=C4)cc2)c1CC(=O)N1CC[NH+](C)CC1
REMARK SMILES IDX 12 1 11 2 10 3 8 4 9 5 7 7 3 8 4 9 83 10 5 11 6 12 2 13 1 14
REMARK SMILES IDX 84 15 85 16 86 17 87 18 88 19 93 20 89 21 92 22 90 23 91 24
REMARK SMILES IDX 13 26 14 27 15 28 16 30 17 31 18 32 82 33 19 34 81 35 20 36
REMARK SMILES IDX 21 37 22 38 75 39 23 40 80 41 74 42 76 43 24 44 79 45 73 46
REMARK SMILES IDX 72 47 25 49 59 50 38 51 58 52 39 53 42 54 57 55 77 56 40 57
REMARK SMILES IDX 41 58 56 60 78 61 43 62 26 63 27 64 36 65 28 66 29 67 35 68
REMARK SMILES IDX 37 69 30 70 31 71 32 72 33 73 34 74 60 75 61 76 70 77 62 78
REMARK SMILES IDX 63 79 69 80 71 81 64 82 65 83 66 84 67 85 68 86 44 87 45 88
REMARK SMILES IDX 54 89 46 90 47 91 53 92 55 93 48 94 49 95 50 96 51 97 52 98
REMARK H PARENT 10 6 90 25 14 29 76 48 42 59
REMARK Flexibility Score: inf
ROOT
ATOM      1  C   UNL A   1      32.718  29.486  27.157  1.00  0.00     0.042 C 
ENDROOT
BRANCH   1   2
ATOM      2  C   UNL A   1      32.955  27.988  26.972  1.00  0.00     0.118 C 
BRANCH   2   3
ATOM      3  N   UNL A   1      31.707  27.254  26.978  1.00  0.00    -0.352 N 
ATOM      4  C   UNL A   1      31.030  26.529  26.037  1.00  0.00     0.253 C 
ATOM      5  O   UNL A   1      30.035  25.943  26.475  1.00  0.00    -0.269 OA
ATOM      6  H   UNL A   1      31.247  27.283  27.847  1.00  0.00     0.163 HD
BRANCH   4   7
ATOM      7  C   UNL A   1      31.414  26.391  24.613  1.00  0.00     0.064 A 
ATOM      8  N   UNL A   1      32.281  25.898  22.605  1.00  0.00    -0.350 N 
ATOM      9  C   UNL A   1      31.158  26.622  22.348  1.00  0.00     0.090 A 
ATOM     10  C   UNL A   1      32.596  25.982  23.956  1.00  0.00     0.040 A 
ATOM     11  C   UNL A   1      30.619  27.003  23.552  1.00  0.00    -0.020 A 
ATOM     12  C   UNL A   1      29.465  27.938  23.701  1.00  0.00     0.047 C 
BRANCH   8  13
ATOM     13  C   UNL A   1      33.038  25.242  21.547  1.00  0.00     0.118 C 
ATOM     14  C   UNL A   1      32.531  25.601  20.161  1.00  0.00     0.027 C 
ENDBRANCH   8  13
BRANCH  10  15
ATOM     15  C   UNL A   1      33.994  25.655  24.390  1.00  0.00     0.155 C 
BRANCH  15  16
ATOM     16  C   UNL A   1      34.362  24.394  25.186  1.00  0.00     0.228 C 
ATOM     17  O   UNL A   1      35.448  24.468  25.792  1.00  0.00    -0.274 OA
ATOM     18  N   UNL A   1      33.662  23.204  25.212  1.00  0.00    -0.331 N 
ATOM     19  C   UNL A   1      34.393  21.987  25.604  1.00  0.00     0.181 C 
ATOM     20  C   UNL A   1      32.337  22.957  24.653  1.00  0.00     0.181 C 
ATOM     21  C   UNL A   1      33.518  20.935  26.310  1.00  0.00     0.283 C 
ATOM     22  C   UNL A   1      31.524  21.865  25.363  1.00  0.00     0.283 C 
ATOM     23  N   UNL A   1      32.251  20.618  25.631  1.00  0.00    -0.334 N 
ATOM     24  C   UNL A   1      32.451  19.830  24.415  1.00  0.00     0.332 C 
ATOM     25  H   UNL A   1      31.691  20.031  26.248  1.00  0.00     0.347 HD
ENDBRANCH  15  16
ENDBRANCH  10  15
ENDBRANCH   4   7
ENDBRANCH   2   3
ENDBRANCH   1   2
BRANCH   1  26
ATOM     26  C   UNL A   1      33.919  30.343  26.866  1.00  0.00     0.118 C 
BRANCH  26  27
ATOM     27  N   UNL A   1      33.983  31.568  27.662  1.00  0.00    -0.352 N 
ATOM     28  C   UNL A   1      34.824  31.836  28.741  1.00  0.00     0.251 C 
ATOM     29  H   UNL A   1      33.362  32.287  27.405  1.00  0.00     0.163 HD
ATOM     30  O   UNL A   1      34.565  32.734  29.522  1.00  0.00    -0.269 OA
BRANCH  28  31
ATOM     31  C   UNL A   1      36.028  30.992  28.912  1.00  0.00     0.039 A 
ATOM     32  C   UNL A   1      36.157  29.706  28.388  1.00  0.00     0.014 A 
ATOM     33  C   UNL A   1      37.094  31.567  29.585  1.00  0.00     0.014 A 
ATOM     34  C   UNL A   1      37.379  29.051  28.553  1.00  0.00     0.010 A 
ATOM     35  C   UNL A   1      38.350  31.108  29.365  1.00  0.00     0.010 A 
ATOM     36  C   UNL A   1      38.473  29.775  29.056  1.00  0.00    -0.014 A 
BRANCH  36  37
ATOM     37  C   UNL A   1      39.809  29.231  29.218  1.00  0.00     0.031 A 
ATOM     38  C   UNL A   1      40.161  29.021  30.635  1.00  0.00     0.074 A 
ATOM     39  C   UNL A   1      40.537  28.726  28.192  1.00  0.00     0.049 A 
ATOM     40  N   UNL A   1      40.904  29.778  31.367  1.00  0.00    -0.248 NA
ATOM     41  C   UNL A   1      39.413  28.004  31.391  1.00  0.00     0.031 C 
ATOM     42  C   UNL A   1      40.157  28.544  26.782  1.00  0.00     0.029 A 
ATOM     43  N   UNL A   1      41.777  28.170  28.223  1.00  0.00    -0.354 N 
ATOM     44  C   UNL A   1      40.959  29.143  32.600  1.00  0.00     0.074 A 
ATOM     45  C   UNL A   1      39.828  28.254  32.635  1.00  0.00     0.031 C 
ATOM     46  C   UNL A   1      41.043  27.727  26.166  1.00  0.00     0.029 A 
ATOM     47  C   UNL A   1      42.142  27.464  27.076  1.00  0.00     0.049 A 
ATOM     48  H   UNL A   1      42.375  28.258  29.000  1.00  0.00     0.167 HD
ATOM     49  C   UNL A   1      42.105  29.168  33.335  1.00  0.00     0.037 A 
ATOM     50  C   UNL A   1      43.261  26.706  26.916  1.00  0.00     0.037 A 
ATOM     51  C   UNL A   1      43.015  30.173  32.827  1.00  0.00     0.049 A 
ATOM     52  C   UNL A   1      44.225  27.151  27.962  1.00  0.00     0.074 A 
ATOM     53  C   UNL A   1      42.918  31.532  32.588  1.00  0.00     0.029 A 
ATOM     54  N   UNL A   1      44.082  29.741  32.072  1.00  0.00    -0.354 N 
ATOM     55  N   UNL A   1      44.767  28.341  27.983  1.00  0.00    -0.248 NA
ATOM     56  C   UNL A   1      44.176  26.469  29.246  1.00  0.00     0.031 C 
ATOM     57  C   UNL A   1      43.584  31.736  31.343  1.00  0.00     0.029 A 
ATOM     58  C   UNL A   1      44.140  30.520  30.943  1.00  0.00     0.049 A 
ATOM     59  H   UNL A   1      44.695  29.006  32.302  1.00  0.00     0.167 HD
ATOM     60  C   UNL A   1      44.718  28.732  29.315  1.00  0.00     0.074 A 
ATOM     61  C   UNL A   1      44.400  27.510  30.053  1.00  0.00     0.031 C 
ATOM     62  C   UNL A   1      44.637  30.050  29.666  1.00  0.00     0.037 A 
BRANCH  49  63
ATOM     63  C   UNL A   1      42.567  28.038  34.224  1.00  0.00     0.058 A 
ATOM     64  C   UNL A   1      42.646  28.262  35.614  1.00  0.00     0.135 A 
ATOM     65  C   UNL A   1      43.182  26.850  33.767  1.00  0.00     0.135 A 
ATOM     66  F   UNL A   1      42.102  29.360  36.161  1.00  0.00    -0.206 F 
ATOM     67  C   UNL A   1      43.348  27.413  36.469  1.00  0.00     0.059 A 
ATOM     68  C   UNL A   1      43.837  25.962  34.608  1.00  0.00     0.059 A 
ATOM     69  F   UNL A   1      43.267  26.531  32.471  1.00  0.00    -0.206 F 
ATOM     70  C   UNL A   1      43.951  26.271  35.951  1.00  0.00     0.060 A 
BRANCH  70  71
ATOM     71  S   UNL A   1      44.928  25.219  37.035  1.00  0.00     0.124 S 
ATOM     72  O   UNL A   1      46.267  25.758  36.832  1.00  0.00    -0.237 OA
ATOM     73  O   UNL A   1      44.319  25.482  38.335  1.00  0.00    -0.237 OA
ATOM     74  O   UNL A   1      44.696  23.880  36.500  1.00  0.00    -0.744 OA
ENDBRANCH  70  71
ENDBRANCH  49  63
BRANCH  50  75
ATOM     75  C   UNL A   1      43.415  25.409  26.195  1.00  0.00     0.058 A 
ATOM     76  C   UNL A   1      44.461  25.201  25.275  1.00  0.00     0.135 A 
ATOM     77  C   UNL A   1      42.729  24.252  26.616  1.00  0.00     0.135 A 
ATOM     78  F   UNL A   1      45.182  26.241  24.828  1.00  0.00    -0.206 F 
ATOM     79  C   UNL A   1      44.842  23.921  24.845  1.00  0.00     0.059 A 
ATOM     80  C   UNL A   1      43.085  22.969  26.197  1.00  0.00     0.059 A 
ATOM     81  F   UNL A   1      41.746  24.326  27.525  1.00  0.00    -0.206 F 
ATOM     82  C   UNL A   1      44.162  22.807  25.334  1.00  0.00     0.060 A 
BRANCH  82  83
ATOM     83  S   UNL A   1      44.766  21.145  24.938  1.00  0.00     0.124 S 
ATOM     84  O   UNL A   1      43.825  20.299  25.666  1.00  0.00    -0.237 OA
ATOM     85  O   UNL A   1      44.658  21.114  23.484  1.00  0.00    -0.237 OA
ATOM     86  O   UNL A   1      46.131  21.149  25.459  1.00  0.00    -0.744 OA
ENDBRANCH  82  83
ENDBRANCH  50  75
BRANCH  62  87
ATOM     87  C   UNL A   1      44.901  31.097  28.608  1.00  0.00     0.058 A 
ATOM     88  C   UNL A   1      43.996  31.484  27.601  1.00  0.00     0.135 A 
ATOM     89  C   UNL A   1      46.092  31.832  28.704  1.00  0.00     0.135 A 
ATOM     90  F   UNL A   1      42.785  30.918  27.504  1.00  0.00    -0.206 F 
ATOM     91  C   UNL A   1      44.292  32.509  26.696  1.00  0.00     0.059 A 
ATOM     92  C   UNL A   1      46.393  32.879  27.837  1.00  0.00     0.059 A 
ATOM     93  F   UNL A   1      46.973  31.561  29.681  1.00  0.00    -0.206 F 
ATOM     94  C   UNL A   1      45.498  33.197  26.819  1.00  0.00     0.060 A 
BRANCH  94  95
ATOM     95  S   UNL A   1      45.881  34.533  25.665  1.00  0.00     0.124 S 
ATOM     96  O   UNL A   1      44.987  34.239  24.550  1.00  0.00    -0.237 OA
ATOM     97  O   UNL A   1      45.557  35.726  26.441  1.00  0.00    -0.237 OA
ATOM     98  O   UNL A   1      47.304  34.347  25.387  1.00  0.00    -0.744 OA
ENDBRANCH  94  95
ENDBRANCH  62  87
ENDBRANCH  36  37
ENDBRANCH  28  31
ENDBRANCH  26  27
ENDBRANCH   1  26
TORSDOF 16
ENDMDL
