MODEL 1
REMARK VINA RESULT:     -13.3      0.000      0.000
REMARK SMILES O=C(Cn1nc(C2CC2)c2c(C(F)F)cc(-c3ccc(Cl)cc3)nc21)NCCCNC(=O)c1ccc(-c2c3nc(c(-c4c(F)cc(S(=O)(=O)[O-])cc4F)c4ccc([nH]4)c(-c4c(F)cc(S(=O)(=O)[O-])cc4F)c4nc(c(-c5c(F)cc(S(=O)(=O)[O-])cc5F)c5ccc2[nH]5)C=C4)C=C3)cc1
REMARK SMILES IDX 28 1 27 2 26 3 1 4 2 5 3 7 4 8 5 9 25 10 6 11 10 12 24 13
REMARK SMILES IDX 11 14 16 15 15 16 7 17 8 18 9 19 12 20 13 21 14 22 17 23
REMARK SMILES IDX 18 24 23 25 19 26 22 27 20 28 21 29 29 30 30 31 31 32 32 34
REMARK SMILES IDX 33 35 34 36 98 37 35 38 97 39 36 40 37 41 38 42 91 43 39 44
REMARK SMILES IDX 96 45 90 46 92 47 40 48 95 49 89 50 88 51 41 53 75 54 54 55
REMARK SMILES IDX 74 56 55 57 58 58 73 59 93 60 56 61 57 62 72 64 94 65 59 66
REMARK SMILES IDX 42 67 43 68 52 69 44 70 45 71 51 72 53 73 46 74 47 75 48 76
REMARK SMILES IDX 49 77 50 78 76 79 77 80 86 81 78 82 79 83 85 84 87 85 80 86
REMARK SMILES IDX 81 87 82 88 83 89 84 90 60 91 61 92 70 93 62 94 63 95 69 96
REMARK SMILES IDX 71 97 64 98 65 99 66 100 67 101 68 102
REMARK H PARENT 26 6 30 33 92 52 58 63
REMARK Flexibility Score: inf
ROOT
ATOM      1  C   UNL A   1      41.806  20.170  27.142  1.00  0.00     0.042 C 
ENDROOT
BRANCH   1   2
ATOM      2  C   UNL A   1      40.713  21.239  27.213  1.00  0.00     0.117 C 
BRANCH   2   3
ATOM      3  N   UNL A   1      39.664  21.090  26.212  1.00  0.00    -0.354 N 
ATOM      4  O   UNL A   1      38.671  23.115  26.606  1.00  0.00    -0.273 OA
ATOM      5  C   UNL A   1      38.760  22.097  25.918  1.00  0.00     0.241 C 
ATOM      6  H   UNL A   1      39.595  20.237  25.723  1.00  0.00     0.163 HD
BRANCH   5   7
ATOM      7  C   UNL A   1      37.808  21.834  24.759  1.00  0.00     0.246 C 
BRANCH   7   8
ATOM      8  N   UNL A   1      36.488  22.414  24.943  1.00  0.00    -0.237 N 
ATOM      9  N   UNL A   1      36.352  23.726  25.161  1.00  0.00    -0.175 NA
ATOM     10  C   UNL A   1      35.294  21.743  24.949  1.00  0.00     0.159 A 
ATOM     11  C   UNL A   1      35.029  23.939  25.167  1.00  0.00     0.076 A 
ATOM     12  C   UNL A   1      34.286  22.714  25.066  1.00  0.00     0.051 A 
ATOM     13  N   UNL A   1      35.166  20.401  24.858  1.00  0.00    -0.228 NA
ATOM     14  C   UNL A   1      32.953  22.222  25.070  1.00  0.00     0.033 A 
ATOM     15  C   UNL A   1      33.894  19.965  24.870  1.00  0.00     0.073 A 
ATOM     16  C   UNL A   1      32.800  20.818  24.965  1.00  0.00     0.039 A 
BRANCH  11  17
ATOM     17  C   UNL A   1      34.652  25.415  25.242  1.00  0.00     0.041 C 
ATOM     18  C   UNL A   1      33.750  25.974  24.165  1.00  0.00     0.011 C 
ATOM     19  C   UNL A   1      33.327  26.017  25.597  1.00  0.00     0.011 C 
ENDBRANCH  11  17
BRANCH  14  20
ATOM     20  C   UNL A   1      31.683  23.008  25.251  1.00  0.00     0.373 C 
ATOM     21  F   UNL A   1      31.184  23.474  24.073  1.00  0.00    -0.205 F 
ATOM     22  F   UNL A   1      30.692  22.312  25.862  1.00  0.00    -0.205 F 
ENDBRANCH  14  20
BRANCH  15  23
ATOM     23  C   UNL A   1      33.671  18.510  24.855  1.00  0.00     0.000 A 
ATOM     24  C   UNL A   1      34.736  17.625  24.612  1.00  0.00     0.012 A 
ATOM     25  C   UNL A   1      32.422  17.966  25.209  1.00  0.00     0.012 A 
ATOM     26  C   UNL A   1      34.571  16.243  24.771  1.00  0.00     0.021 A 
ATOM     27  C   UNL A   1      32.255  16.586  25.364  1.00  0.00     0.021 A 
ATOM     28  C   UNL A   1      33.336  15.732  25.164  1.00  0.00     0.041 A 
ATOM     29  Cl  UNL A   1      33.161  14.048  25.452  1.00  0.00    -0.084 Cl
ENDBRANCH  15  23
ENDBRANCH   7   8
ENDBRANCH   5   7
ENDBRANCH   2   3
ENDBRANCH   1   2
BRANCH   1  30
ATOM     30  C   UNL A   1      41.967  19.577  25.752  1.00  0.00     0.118 C 
BRANCH  30  31
ATOM     31  N   UNL A   1      43.357  19.471  25.305  1.00  0.00    -0.352 N 
ATOM     32  C   UNL A   1      44.262  20.484  25.062  1.00  0.00     0.251 C 
ATOM     33  H   UNL A   1      43.690  18.556  25.158  1.00  0.00     0.163 HD
ATOM     34  O   UNL A   1      45.277  20.243  24.399  1.00  0.00    -0.269 OA
BRANCH  32  35
ATOM     35  C   UNL A   1      44.032  21.843  25.593  1.00  0.00     0.039 A 
ATOM     36  C   UNL A   1      43.205  22.754  24.924  1.00  0.00     0.014 A 
ATOM     37  C   UNL A   1      44.694  22.236  26.755  1.00  0.00     0.014 A 
ATOM     38  C   UNL A   1      43.031  24.031  25.455  1.00  0.00     0.010 A 
ATOM     39  C   UNL A   1      44.404  23.430  27.362  1.00  0.00     0.010 A 
ATOM     40  C   UNL A   1      43.637  24.357  26.677  1.00  0.00    -0.014 A 
BRANCH  40  41
ATOM     41  C   UNL A   1      43.410  25.637  27.329  1.00  0.00     0.031 A 
ATOM     42  C   UNL A   1      44.408  26.665  26.953  1.00  0.00     0.074 A 
ATOM     43  C   UNL A   1      42.278  25.920  28.011  1.00  0.00     0.049 A 
ATOM     44  N   UNL A   1      45.395  27.089  27.668  1.00  0.00    -0.248 NA
ATOM     45  C   UNL A   1      44.442  27.140  25.559  1.00  0.00     0.031 C 
ATOM     46  C   UNL A   1      41.079  25.081  28.157  1.00  0.00     0.029 A 
ATOM     47  N   UNL A   1      41.915  27.067  28.650  1.00  0.00    -0.354 N 
ATOM     48  C   UNL A   1      45.994  28.093  26.916  1.00  0.00     0.074 A 
ATOM     49  C   UNL A   1      45.535  27.910  25.565  1.00  0.00     0.031 C 
ATOM     50  C   UNL A   1      40.057  25.826  28.638  1.00  0.00     0.029 A 
ATOM     51  C   UNL A   1      40.566  27.137  28.995  1.00  0.00     0.049 A 
ATOM     52  H   UNL A   1      42.553  27.788  28.850  1.00  0.00     0.167 HD
ATOM     53  C   UNL A   1      46.552  29.173  27.528  1.00  0.00     0.037 A 
ATOM     54  C   UNL A   1      39.926  28.204  29.540  1.00  0.00     0.037 A 
ATOM     55  C   UNL A   1      46.628  28.959  28.952  1.00  0.00     0.049 A 
ATOM     56  C   UNL A   1      40.972  29.019  30.205  1.00  0.00     0.074 A 
ATOM     57  C   UNL A   1      47.377  28.185  29.809  1.00  0.00     0.029 A 
ATOM     58  N   UNL A   1      45.492  29.337  29.622  1.00  0.00    -0.354 N 
ATOM     59  N   UNL A   1      41.668  28.602  31.227  1.00  0.00    -0.248 NA
ATOM     60  C   UNL A   1      41.518  30.178  29.509  1.00  0.00     0.031 C 
ATOM     61  C   UNL A   1      46.544  27.935  30.940  1.00  0.00     0.029 A 
ATOM     62  C   UNL A   1      45.334  28.607  30.769  1.00  0.00     0.049 A 
ATOM     63  H   UNL A   1      44.873  30.039  29.319  1.00  0.00     0.167 HD
ATOM     64  C   UNL A   1      42.921  29.152  31.037  1.00  0.00     0.074 A 
ATOM     65  C   UNL A   1      42.723  30.235  30.080  1.00  0.00     0.031 C 
ATOM     66  C   UNL A   1      44.044  28.479  31.419  1.00  0.00     0.037 A 
BRANCH  53  67
ATOM     67  C   UNL A   1      46.581  30.578  26.965  1.00  0.00     0.058 A 
ATOM     68  C   UNL A   1      47.796  31.296  26.973  1.00  0.00     0.135 A 
ATOM     69  C   UNL A   1      45.426  31.345  26.693  1.00  0.00     0.135 A 
ATOM     70  F   UNL A   1      48.954  30.675  27.247  1.00  0.00    -0.206 F 
ATOM     71  C   UNL A   1      47.852  32.676  26.766  1.00  0.00     0.059 A 
ATOM     72  C   UNL A   1      45.466  32.710  26.431  1.00  0.00     0.059 A 
ATOM     73  F   UNL A   1      44.193  30.830  26.767  1.00  0.00    -0.206 F 
ATOM     74  C   UNL A   1      46.679  33.374  26.499  1.00  0.00     0.060 A 
BRANCH  74  75
ATOM     75  S   UNL A   1      46.741  35.163  26.285  1.00  0.00     0.124 S 
ATOM     76  O   UNL A   1      47.776  35.301  25.266  1.00  0.00    -0.237 OA
ATOM     77  O   UNL A   1      45.379  35.460  25.858  1.00  0.00    -0.237 OA
ATOM     78  O   UNL A   1      47.094  35.647  27.616  1.00  0.00    -0.744 OA
ENDBRANCH  74  75
ENDBRANCH  53  67
BRANCH  54  79
ATOM     79  C   UNL A   1      38.577  28.757  29.226  1.00  0.00     0.058 A 
ATOM     80  C   UNL A   1      37.630  28.938  30.255  1.00  0.00     0.135 A 
ATOM     81  C   UNL A   1      38.318  29.435  28.020  1.00  0.00     0.135 A 
ATOM     82  F   UNL A   1      37.785  28.314  31.433  1.00  0.00    -0.206 F 
ATOM     83  C   UNL A   1      36.563  29.833  30.139  1.00  0.00     0.059 A 
ATOM     84  C   UNL A   1      37.256  30.329  27.880  1.00  0.00     0.059 A 
ATOM     85  F   UNL A   1      39.146  29.320  26.972  1.00  0.00    -0.206 F 
ATOM     86  C   UNL A   1      36.409  30.557  28.959  1.00  0.00     0.060 A 
BRANCH  86  87
ATOM     87  S   UNL A   1      35.200  31.905  28.905  1.00  0.00     0.124 S 
ATOM     88  O   UNL A   1      34.129  31.321  28.105  1.00  0.00    -0.237 OA
ATOM     89  O   UNL A   1      34.902  32.102  30.320  1.00  0.00    -0.237 OA
ATOM     90  O   UNL A   1      35.937  32.994  28.270  1.00  0.00    -0.744 OA
ENDBRANCH  86  87
ENDBRANCH  54  79
BRANCH  66  91
ATOM     91  C   UNL A   1      43.907  27.445  32.498  1.00  0.00     0.058 A 
ATOM     92  C   UNL A   1      43.936  26.055  32.305  1.00  0.00     0.135 A 
ATOM     93  C   UNL A   1      43.843  27.912  33.820  1.00  0.00     0.135 A 
ATOM     94  F   UNL A   1      44.066  25.529  31.079  1.00  0.00    -0.206 F 
ATOM     95  C   UNL A   1      43.881  25.167  33.384  1.00  0.00     0.059 A 
ATOM     96  C   UNL A   1      43.819  27.049  34.909  1.00  0.00     0.059 A 
ATOM     97  F   UNL A   1      43.853  29.233  34.067  1.00  0.00    -0.206 F 
ATOM     98  C   UNL A   1      43.828  25.676  34.683  1.00  0.00     0.060 A 
BRANCH  98  99
ATOM     99  S   UNL A   1      43.824  24.532  36.080  1.00  0.00     0.124 S 
ATOM    100  O   UNL A   1      42.643  24.959  36.824  1.00  0.00    -0.237 OA
ATOM    101  O   UNL A   1      43.724  23.233  35.422  1.00  0.00    -0.237 OA
ATOM    102  O   UNL A   1      45.102  24.792  36.739  1.00  0.00    -0.744 OA
ENDBRANCH  98  99
ENDBRANCH  66  91
ENDBRANCH  40  41
ENDBRANCH  32  35
ENDBRANCH  30  31
ENDBRANCH   1  30
TORSDOF 17
ENDMDL
MODEL 2
REMARK VINA RESULT:     -13.1      2.249      2.919
REMARK SMILES O=C(Cn1nc(C2CC2)c2c(C(F)F)cc(-c3ccc(Cl)cc3)nc21)NCCCNC(=O)c1ccc(-c2c3nc(c(-c4c(F)cc(S(=O)(=O)[O-])cc4F)c4ccc([nH]4)c(-c4c(F)cc(S(=O)(=O)[O-])cc4F)c4nc(c(-c5c(F)cc(S(=O)(=O)[O-])cc5F)c5ccc2[nH]5)C=C4)C=C3)cc1
REMARK SMILES IDX 28 1 27 2 26 3 1 4 2 5 3 7 4 8 5 9 25 10 6 11 10 12 24 13
REMARK SMILES IDX 11 14 16 15 15 16 7 17 8 18 9 19 12 20 13 21 14 22 17 23
REMARK SMILES IDX 18 24 23 25 19 26 22 27 20 28 21 29 29 30 30 31 31 32 32 34
REMARK SMILES IDX 33 35 34 36 98 37 35 38 97 39 36 40 37 41 38 42 91 43 39 44
REMARK SMILES IDX 96 45 90 46 92 47 40 48 95 49 89 50 88 51 41 53 75 54 54 55
REMARK SMILES IDX 74 56 55 57 58 58 73 59 93 60 56 61 57 62 72 64 94 65 59 66
REMARK SMILES IDX 42 67 43 68 52 69 44 70 45 71 51 72 53 73 46 74 47 75 48 76
REMARK SMILES IDX 49 77 50 78 76 79 77 80 86 81 78 82 79 83 85 84 87 85 80 86
REMARK SMILES IDX 81 87 82 88 83 89 84 90 60 91 61 92 70 93 62 94 63 95 69 96
REMARK SMILES IDX 71 97 64 98 65 99 66 100 67 101 68 102
REMARK H PARENT 26 6 30 33 92 52 58 63
REMARK Flexibility Score: inf
ROOT
ATOM      1  C   UNL A   1      40.352  21.609  26.745  1.00  0.00     0.042 C 
ENDROOT
BRANCH   1   2
ATOM      2  C   UNL A   1      39.349  22.759  26.871  1.00  0.00     0.117 C 
BRANCH   2   3
ATOM      3  N   UNL A   1      38.570  23.007  25.664  1.00  0.00    -0.354 N 
ATOM      4  O   UNL A   1      37.598  20.935  25.581  1.00  0.00    -0.273 OA
ATOM      5  C   UNL A   1      37.668  22.088  25.154  1.00  0.00     0.241 C 
ATOM      6  H   UNL A   1      38.688  23.864  25.193  1.00  0.00     0.163 HD
BRANCH   5   7
ATOM      7  C   UNL A   1      36.838  22.546  23.962  1.00  0.00     0.246 C 
BRANCH   7   8
ATOM      8  N   UNL A   1      35.509  23.015  24.320  1.00  0.00    -0.237 N 
ATOM      9  N   UNL A   1      35.285  24.318  24.517  1.00  0.00    -0.175 NA
ATOM     10  C   UNL A   1      34.396  22.243  24.521  1.00  0.00     0.159 A 
ATOM     11  C   UNL A   1      33.962  24.413  24.710  1.00  0.00     0.076 A 
ATOM     12  C   UNL A   1      33.329  23.125  24.755  1.00  0.00     0.051 A 
ATOM     13  N   UNL A   1      34.382  20.892  24.489  1.00  0.00    -0.228 NA
ATOM     14  C   UNL A   1      32.063  22.518  24.968  1.00  0.00     0.033 A 
ATOM     15  C   UNL A   1      33.171  20.346  24.700  1.00  0.00     0.073 A 
ATOM     16  C   UNL A   1      32.027  21.103  24.928  1.00  0.00     0.039 A 
BRANCH  11  17
ATOM     17  C   UNL A   1      33.463  25.853  24.797  1.00  0.00     0.041 C 
ATOM     18  C   UNL A   1      32.801  26.300  26.080  1.00  0.00     0.011 C 
ATOM     19  C   UNL A   1      34.034  26.986  25.592  1.00  0.00     0.011 C 
ENDBRANCH  11  17
BRANCH  14  20
ATOM     20  C   UNL A   1      30.764  23.197  25.310  1.00  0.00     0.373 C 
ATOM     21  F   UNL A   1      30.673  23.517  26.630  1.00  0.00    -0.205 F 
ATOM     22  F   UNL A   1      30.539  24.333  24.604  1.00  0.00    -0.205 F 
ENDBRANCH  14  20
BRANCH  15  23
ATOM     23  C   UNL A   1      33.085  18.878  24.760  1.00  0.00     0.000 A 
ATOM     24  C   UNL A   1      33.678  18.084  23.763  1.00  0.00     0.012 A 
ATOM     25  C   UNL A   1      32.524  18.232  25.877  1.00  0.00     0.012 A 
ATOM     26  C   UNL A   1      33.755  16.693  23.905  1.00  0.00     0.021 A 
ATOM     27  C   UNL A   1      32.596  16.842  26.018  1.00  0.00     0.021 A 
ATOM     28  C   UNL A   1      33.230  16.081  25.041  1.00  0.00     0.041 A 
ATOM     29  Cl  UNL A   1      33.410  14.387  25.259  1.00  0.00    -0.084 Cl
ENDBRANCH  15  23
ENDBRANCH   7   8
ENDBRANCH   5   7
ENDBRANCH   2   3
ENDBRANCH   1   2
BRANCH   1  30
ATOM     30  C   UNL A   1      41.728  21.959  27.287  1.00  0.00     0.118 C 
BRANCH  30  31
ATOM     31  N   UNL A   1      42.739  22.183  26.253  1.00  0.00    -0.352 N 
ATOM     32  C   UNL A   1      43.115  23.371  25.661  1.00  0.00     0.251 C 
ATOM     33  H   UNL A   1      43.213  21.380  25.937  1.00  0.00     0.163 HD
ATOM     34  O   UNL A   1      43.750  23.345  24.600  1.00  0.00    -0.269 OA
BRANCH  32  35
ATOM     35  C   UNL A   1      42.776  24.665  26.287  1.00  0.00     0.039 A 
ATOM     36  C   UNL A   1      41.785  25.495  25.748  1.00  0.00     0.014 A 
ATOM     37  C   UNL A   1      43.495  25.086  27.404  1.00  0.00     0.014 A 
ATOM     38  C   UNL A   1      41.510  26.715  26.364  1.00  0.00     0.010 A 
ATOM     39  C   UNL A   1      43.124  26.205  28.102  1.00  0.00     0.010 A 
ATOM     40  C   UNL A   1      42.189  27.059  27.543  1.00  0.00    -0.014 A 
BRANCH  40  41
ATOM     41  C   UNL A   1      41.873  28.269  28.284  1.00  0.00     0.031 A 
ATOM     42  C   UNL A   1      42.870  29.347  28.086  1.00  0.00     0.074 A 
ATOM     43  C   UNL A   1      40.682  28.466  28.891  1.00  0.00     0.049 A 
ATOM     44  N   UNL A   1      43.782  29.725  28.916  1.00  0.00    -0.248 NA
ATOM     45  C   UNL A   1      43.004  29.948  26.747  1.00  0.00     0.031 C 
ATOM     46  C   UNL A   1      39.498  27.593  28.861  1.00  0.00     0.029 A 
ATOM     47  N   UNL A   1      40.235  29.543  29.595  1.00  0.00    -0.354 N 
ATOM     48  C   UNL A   1      44.413  30.805  28.309  1.00  0.00     0.074 A 
ATOM     49  C   UNL A   1      44.071  30.736  26.913  1.00  0.00     0.031 C 
ATOM     50  C   UNL A   1      38.420  28.270  29.318  1.00  0.00     0.029 A 
ATOM     51  C   UNL A   1      38.862  29.554  29.831  1.00  0.00     0.049 A 
ATOM     52  H   UNL A   1      40.835  30.256  29.912  1.00  0.00     0.167 HD
ATOM     53  C   UNL A   1      44.888  31.837  29.059  1.00  0.00     0.037 A 
ATOM     54  C   UNL A   1      38.149  30.554  30.412  1.00  0.00     0.037 A 
ATOM     55  C   UNL A   1      44.853  31.496  30.460  1.00  0.00     0.049 A 
ATOM     56  C   UNL A   1      39.114  31.327  31.233  1.00  0.00     0.074 A 
ATOM     57  C   UNL A   1      45.551  30.663  31.305  1.00  0.00     0.029 A 
ATOM     58  N   UNL A   1      43.656  31.788  31.063  1.00  0.00    -0.354 N 
ATOM     59  N   UNL A   1      39.736  30.833  32.269  1.00  0.00    -0.248 NA
ATOM     60  C   UNL A   1      39.683  32.554  30.690  1.00  0.00     0.031 C 
ATOM     61  C   UNL A   1      44.635  30.295  32.336  1.00  0.00     0.029 A 
ATOM     62  C   UNL A   1      43.425  30.954  32.123  1.00  0.00     0.049 A 
ATOM     63  H   UNL A   1      43.044  32.502  30.772  1.00  0.00     0.167 HD
ATOM     64  C   UNL A   1      40.984  31.424  32.234  1.00  0.00     0.074 A 
ATOM     65  C   UNL A   1      40.834  32.585  31.364  1.00  0.00     0.031 C 
ATOM     66  C   UNL A   1      42.090  30.742  32.648  1.00  0.00     0.037 A 
BRANCH  53  67
ATOM     67  C   UNL A   1      44.924  33.287  28.627  1.00  0.00     0.058 A 
ATOM     68  C   UNL A   1      46.170  33.941  28.518  1.00  0.00     0.135 A 
ATOM     69  C   UNL A   1      43.793  34.133  28.600  1.00  0.00     0.135 A 
ATOM     70  F   UNL A   1      47.314  33.239  28.560  1.00  0.00    -0.206 F 
ATOM     71  C   UNL A   1      46.283  35.330  28.431  1.00  0.00     0.059 A 
ATOM     72  C   UNL A   1      43.880  35.513  28.460  1.00  0.00     0.059 A 
ATOM     73  F   UNL A   1      42.553  33.673  28.810  1.00  0.00    -0.206 F 
ATOM     74  C   UNL A   1      45.129  36.107  28.406  1.00  0.00     0.060 A 
BRANCH  74  75
ATOM     75  S   UNL A   1      45.272  37.903  28.347  1.00  0.00     0.124 S 
ATOM     76  O   UNL A   1      43.901  38.317  28.625  1.00  0.00    -0.237 OA
ATOM     77  O   UNL A   1      46.245  38.160  29.403  1.00  0.00    -0.237 OA
ATOM     78  O   UNL A   1      45.747  38.157  26.990  1.00  0.00    -0.744 OA
ENDBRANCH  74  75
ENDBRANCH  53  67
BRANCH  54  79
ATOM     79  C   UNL A   1      36.816  31.106  30.037  1.00  0.00     0.058 A 
ATOM     80  C   UNL A   1      35.996  31.702  31.016  1.00  0.00     0.135 A 
ATOM     81  C   UNL A   1      36.479  31.378  28.698  1.00  0.00     0.135 A 
ATOM     82  F   UNL A   1      36.230  31.481  32.319  1.00  0.00    -0.206 F 
ATOM     83  C   UNL A   1      34.985  32.612  30.692  1.00  0.00     0.059 A 
ATOM     84  C   UNL A   1      35.470  32.277  28.350  1.00  0.00     0.059 A 
ATOM     85  F   UNL A   1      37.183  30.848  27.686  1.00  0.00    -0.206 F 
ATOM     86  C   UNL A   1      34.758  32.926  29.353  1.00  0.00     0.060 A 
BRANCH  86  87
ATOM     87  S   UNL A   1      33.645  34.295  28.947  1.00  0.00     0.124 S 
ATOM     88  O   UNL A   1      33.111  34.652  30.257  1.00  0.00    -0.237 OA
ATOM     89  O   UNL A   1      34.559  35.262  28.349  1.00  0.00    -0.237 OA
ATOM     90  O   UNL A   1      32.690  33.691  28.022  1.00  0.00    -0.744 OA
ENDBRANCH  86  87
ENDBRANCH  54  79
BRANCH  66  91
ATOM     91  C   UNL A   1      41.894  29.612  33.616  1.00  0.00     0.058 A 
ATOM     92  C   UNL A   1      41.712  28.263  33.271  1.00  0.00     0.135 A 
ATOM     93  C   UNL A   1      41.999  29.919  34.982  1.00  0.00     0.135 A 
ATOM     94  F   UNL A   1      41.672  27.877  31.988  1.00  0.00    -0.206 F 
ATOM     95  C   UNL A   1      41.617  27.266  34.247  1.00  0.00     0.059 A 
ATOM     96  C   UNL A   1      41.939  28.942  35.967  1.00  0.00     0.059 A 
ATOM     97  F   UNL A   1      42.214  31.188  35.369  1.00  0.00    -0.206 F 
ATOM     98  C   UNL A   1      41.738  27.617  35.592  1.00  0.00     0.060 A 
BRANCH  98  99
ATOM     99  S   UNL A   1      41.682  26.323  36.851  1.00  0.00     0.124 S 
ATOM    100  O   UNL A   1      40.377  26.546  37.464  1.00  0.00    -0.237 OA
ATOM    101  O   UNL A   1      41.810  25.106  36.055  1.00  0.00    -0.237 OA
ATOM    102  O   UNL A   1      42.830  26.625  37.703  1.00  0.00    -0.744 OA
ENDBRANCH  98  99
ENDBRANCH  66  91
ENDBRANCH  40  41
ENDBRANCH  32  35
ENDBRANCH  30  31
ENDBRANCH   1  30
TORSDOF 17
ENDMDL
MODEL 3
REMARK VINA RESULT:     -12.7      5.655     12.413
REMARK SMILES O=C(Cn1nc(C2CC2)c2c(C(F)F)cc(-c3ccc(Cl)cc3)nc21)NCCCNC(=O)c1ccc(-c2c3nc(c(-c4c(F)cc(S(=O)(=O)[O-])cc4F)c4ccc([nH]4)c(-c4c(F)cc(S(=O)(=O)[O-])cc4F)c4nc(c(-c5c(F)cc(S(=O)(=O)[O-])cc5F)c5ccc2[nH]5)C=C4)C=C3)cc1
REMARK SMILES IDX 28 1 27 2 26 3 1 4 2 5 3 7 4 8 5 9 25 10 6 11 10 12 24 13
REMARK SMILES IDX 11 14 16 15 15 16 7 17 8 18 9 19 12 20 13 21 14 22 17 23
REMARK SMILES IDX 18 24 23 25 19 26 22 27 20 28 21 29 29 30 30 31 31 32 32 34
REMARK SMILES IDX 33 35 34 36 98 37 35 38 97 39 36 40 37 41 38 42 91 43 39 44
REMARK SMILES IDX 96 45 90 46 92 47 40 48 95 49 89 50 88 51 41 53 75 54 54 55
REMARK SMILES IDX 74 56 55 57 58 58 73 59 93 60 56 61 57 62 72 64 94 65 59 66
REMARK SMILES IDX 42 67 43 68 52 69 44 70 45 71 51 72 53 73 46 74 47 75 48 76
REMARK SMILES IDX 49 77 50 78 76 79 77 80 86 81 78 82 79 83 85 84 87 85 80 86
REMARK SMILES IDX 81 87 82 88 83 89 84 90 60 91 61 92 70 93 62 94 63 95 69 96
REMARK SMILES IDX 71 97 64 98 65 99 66 100 67 101 68 102
REMARK H PARENT 26 6 30 33 92 52 58 63
REMARK Flexibility Score: inf
ROOT
ATOM      1  C   UNL A   1      34.972  33.993  31.579  1.00  0.00     0.042 C 
ENDROOT
BRANCH   1   2
ATOM      2  C   UNL A   1      34.719  32.678  32.322  1.00  0.00     0.117 C 
BRANCH   2   3
ATOM      3  N   UNL A   1      35.897  32.128  32.981  1.00  0.00    -0.354 N 
ATOM      4  O   UNL A   1      35.912  30.151  31.824  1.00  0.00    -0.273 OA
ATOM      5  C   UNL A   1      36.466  30.921  32.610  1.00  0.00     0.241 C 
ATOM      6  H   UNL A   1      36.306  32.635  33.719  1.00  0.00     0.163 HD
BRANCH   5   7
ATOM      7  C   UNL A   1      37.768  30.545  33.307  1.00  0.00     0.246 C 
BRANCH   7   8
ATOM      8  N   UNL A   1      38.233  31.544  34.255  1.00  0.00    -0.237 N 
ATOM      9  N   UNL A   1      37.852  31.487  35.535  1.00  0.00    -0.175 NA
ATOM     10  C   UNL A   1      39.039  32.617  33.983  1.00  0.00     0.159 A 
ATOM     11  C   UNL A   1      38.541  32.463  36.143  1.00  0.00     0.076 A 
ATOM     12  C   UNL A   1      39.300  33.248  35.210  1.00  0.00     0.051 A 
ATOM     13  N   UNL A   1      39.472  32.960  32.749  1.00  0.00    -0.228 NA
ATOM     14  C   UNL A   1      40.147  34.387  35.150  1.00  0.00     0.033 A 
ATOM     15  C   UNL A   1      40.267  34.044  32.724  1.00  0.00     0.073 A 
ATOM     16  C   UNL A   1      40.619  34.755  33.867  1.00  0.00     0.039 A 
BRANCH  11  17
ATOM     17  C   UNL A   1      38.373  32.471  37.659  1.00  0.00     0.041 C 
ATOM     18  C   UNL A   1      37.880  33.742  38.313  1.00  0.00     0.011 C 
ATOM     19  C   UNL A   1      37.103  32.474  38.452  1.00  0.00     0.011 C 
ENDBRANCH  11  17
BRANCH  14  20
ATOM     20  C   UNL A   1      40.542  35.299  36.280  1.00  0.00     0.373 C 
ATOM     21  F   UNL A   1      39.530  36.124  36.664  1.00  0.00    -0.205 F 
ATOM     22  F   UNL A   1      40.969  34.643  37.388  1.00  0.00    -0.205 F 
ENDBRANCH  14  20
BRANCH  15  23
ATOM     23  C   UNL A   1      40.716  34.531  31.409  1.00  0.00     0.000 A 
ATOM     24  C   UNL A   1      42.086  34.658  31.122  1.00  0.00     0.012 A 
ATOM     25  C   UNL A   1      39.796  34.756  30.368  1.00  0.00     0.012 A 
ATOM     26  C   UNL A   1      42.524  34.947  29.824  1.00  0.00     0.021 A 
ATOM     27  C   UNL A   1      40.232  35.049  29.072  1.00  0.00     0.021 A 
ATOM     28  C   UNL A   1      41.595  35.124  28.801  1.00  0.00     0.041 A 
ATOM     29  Cl  UNL A   1      42.135  35.383  27.192  1.00  0.00    -0.084 Cl
ENDBRANCH  15  23
ENDBRANCH   7   8
ENDBRANCH   5   7
ENDBRANCH   2   3
ENDBRANCH   1   2
BRANCH   1  30
ATOM     30  C   UNL A   1      35.414  33.787  30.140  1.00  0.00     0.118 C 
BRANCH  30  31
ATOM     31  N   UNL A   1      34.595  32.831  29.394  1.00  0.00    -0.352 N 
ATOM     32  C   UNL A   1      35.009  31.766  28.619  1.00  0.00     0.251 C 
ATOM     33  H   UNL A   1      33.622  32.964  29.453  1.00  0.00     0.163 HD
ATOM     34  O   UNL A   1      34.216  31.258  27.816  1.00  0.00    -0.269 OA
BRANCH  32  35
ATOM     35  C   UNL A   1      36.378  31.227  28.747  1.00  0.00     0.039 A 
ATOM     36  C   UNL A   1      37.427  32.018  29.234  1.00  0.00     0.014 A 
ATOM     37  C   UNL A   1      36.634  29.924  28.324  1.00  0.00     0.014 A 
ATOM     38  C   UNL A   1      38.706  31.470  29.321  1.00  0.00     0.010 A 
ATOM     39  C   UNL A   1      37.850  29.334  28.554  1.00  0.00     0.010 A 
ATOM     40  C   UNL A   1      38.904  30.125  28.977  1.00  0.00    -0.014 A 
BRANCH  40  41
ATOM     41  C   UNL A   1      40.193  29.473  29.144  1.00  0.00     0.031 A 
ATOM     42  C   UNL A   1      40.499  29.146  30.557  1.00  0.00     0.074 A 
ATOM     43  C   UNL A   1      40.917  29.006  28.103  1.00  0.00     0.049 A 
ATOM     44  N   UNL A   1      41.320  29.764  31.337  1.00  0.00    -0.248 NA
ATOM     45  C   UNL A   1      39.665  28.146  31.247  1.00  0.00     0.031 C 
ATOM     46  C   UNL A   1      40.541  28.980  26.682  1.00  0.00     0.029 A 
ATOM     47  N   UNL A   1      42.117  28.360  28.102  1.00  0.00    -0.354 N 
ATOM     48  C   UNL A   1      41.312  29.045  32.528  1.00  0.00     0.074 A 
ATOM     49  C   UNL A   1      40.123  28.236  32.499  1.00  0.00     0.031 C 
ATOM     50  C   UNL A   1      41.379  28.163  26.002  1.00  0.00     0.029 A 
ATOM     51  C   UNL A   1      42.445  27.747  26.895  1.00  0.00     0.049 A 
ATOM     52  H   UNL A   1      42.704  28.330  28.891  1.00  0.00     0.167 HD
ATOM     53  C   UNL A   1      42.445  28.938  33.275  1.00  0.00     0.037 A 
ATOM     54  C   UNL A   1      43.523  26.957  26.657  1.00  0.00     0.037 A 
ATOM     55  C   UNL A   1      43.458  29.838  32.782  1.00  0.00     0.049 A 
ATOM     56  C   UNL A   1      44.538  27.321  27.677  1.00  0.00     0.074 A 
ATOM     57  C   UNL A   1      43.677  31.197  32.787  1.00  0.00     0.029 A 
ATOM     58  N   UNL A   1      44.229  29.299  31.784  1.00  0.00    -0.354 N 
ATOM     59  N   UNL A   1      45.103  28.496  27.743  1.00  0.00    -0.248 NA
ATOM     60  C   UNL A   1      44.668  26.498  28.873  1.00  0.00     0.031 C 
ATOM     61  C   UNL A   1      44.441  31.475  31.614  1.00  0.00     0.029 A 
ATOM     62  C   UNL A   1      44.713  30.276  30.956  1.00  0.00     0.049 A 
ATOM     63  H   UNL A   1      44.409  28.337  31.676  1.00  0.00     0.167 HD
ATOM     64  C   UNL A   1      45.270  28.721  29.096  1.00  0.00     0.074 A 
ATOM     65  C   UNL A   1      45.152  27.408  29.720  1.00  0.00     0.031 C 
ATOM     66  C   UNL A   1      45.166  29.979  29.612  1.00  0.00     0.037 A 
BRANCH  53  67
ATOM     67  C   UNL A   1      42.833  27.732  34.105  1.00  0.00     0.058 A 
ATOM     68  C   UNL A   1      42.944  27.870  35.505  1.00  0.00     0.135 A 
ATOM     69  C   UNL A   1      43.378  26.545  33.568  1.00  0.00     0.135 A 
ATOM     70  F   UNL A   1      42.485  28.971  36.121  1.00  0.00    -0.206 F 
ATOM     71  C   UNL A   1      43.583  26.919  36.303  1.00  0.00     0.059 A 
ATOM     72  C   UNL A   1      43.970  25.560  34.351  1.00  0.00     0.059 A 
ATOM     73  F   UNL A   1      43.455  26.326  32.250  1.00  0.00    -0.206 F 
ATOM     74  C   UNL A   1      44.096  25.768  35.714  1.00  0.00     0.060 A 
BRANCH  74  75
ATOM     75  S   UNL A   1      44.968  24.564  36.733  1.00  0.00     0.124 S 
ATOM     76  O   UNL A   1      44.617  23.311  36.074  1.00  0.00    -0.237 OA
ATOM     77  O   UNL A   1      46.353  24.998  36.589  1.00  0.00    -0.237 OA
ATOM     78  O   UNL A   1      44.389  24.766  38.058  1.00  0.00    -0.744 OA
ENDBRANCH  74  75
ENDBRANCH  53  67
BRANCH  54  79
ATOM     79  C   UNL A   1      43.613  25.689  25.876  1.00  0.00     0.058 A 
ATOM     80  C   UNL A   1      44.798  25.364  25.186  1.00  0.00     0.135 A 
ATOM     81  C   UNL A   1      42.704  24.633  26.076  1.00  0.00     0.135 A 
ATOM     82  F   UNL A   1      45.713  26.313  24.933  1.00  0.00    -0.206 F 
ATOM     83  C   UNL A   1      45.120  24.052  24.829  1.00  0.00     0.059 A 
ATOM     84  C   UNL A   1      43.000  23.316  25.722  1.00  0.00     0.059 A 
ATOM     85  F   UNL A   1      41.538  24.835  26.707  1.00  0.00    -0.206 F 
ATOM     86  C   UNL A   1      44.230  23.026  25.141  1.00  0.00     0.060 A 
BRANCH  86  87
ATOM     87  S   UNL A   1      44.759  21.307  24.927  1.00  0.00     0.124 S 
ATOM     88  O   UNL A   1      44.654  21.134  23.482  1.00  0.00    -0.237 OA
ATOM     89  O   UNL A   1      46.115  21.338  25.466  1.00  0.00    -0.237 OA
ATOM     90  O   UNL A   1      43.793  20.555  25.723  1.00  0.00    -0.744 OA
ENDBRANCH  86  87
ENDBRANCH  54  79
BRANCH  66  91
ATOM     91  C   UNL A   1      45.415  31.136  28.689  1.00  0.00     0.058 A 
ATOM     92  C   UNL A   1      46.671  31.545  28.213  1.00  0.00     0.135 A 
ATOM     93  C   UNL A   1      44.286  31.800  28.184  1.00  0.00     0.135 A 
ATOM     94  F   UNL A   1      47.792  30.917  28.591  1.00  0.00    -0.206 F 
ATOM     95  C   UNL A   1      46.797  32.587  27.289  1.00  0.00     0.059 A 
ATOM     96  C   UNL A   1      44.385  32.817  27.243  1.00  0.00     0.059 A 
ATOM     97  F   UNL A   1      43.056  31.425  28.573  1.00  0.00    -0.206 F 
ATOM     98  C   UNL A   1      45.646  33.213  26.807  1.00  0.00     0.060 A 
BRANCH  98  99
ATOM     99  S   UNL A   1      45.803  34.514  25.565  1.00  0.00     0.124 S 
ATOM    100  O   UNL A   1      47.228  34.473  25.253  1.00  0.00    -0.237 OA
ATOM    101  O   UNL A   1      44.908  34.050  24.509  1.00  0.00    -0.237 OA
ATOM    102  O   UNL A   1      45.354  35.714  26.268  1.00  0.00    -0.744 OA
ENDBRANCH  98  99
ENDBRANCH  66  91
ENDBRANCH  40  41
ENDBRANCH  32  35
ENDBRANCH  30  31
ENDBRANCH   1  30
TORSDOF 17
ENDMDL
