MODEL 1
REMARK VINA RESULT:     -10.5      0.000      0.000
REMARK SMILES O=C(COc1cccc(/C=C2\SC(=O)N(c3cccc(Cl)c3)C2=O)c1)NCCCNC(=O)c1ccc(-c2c3nc(c(-c4c(F)cc(S(=O)(=O)[O-])cc4F)c4ccc([nH]4)c(-c4c(F)cc(S(=O)(=O)[O-])cc4F)c4nc(c(-c5c(F)cc(S(=O)(=O)[O-])cc5F)c5ccc2[nH]5)C=C4)C=C3)cc1
REMARK SMILES IDX 27 1 26 2 1 3 2 4 3 6 4 7 5 8 6 9 25 10 7 11 9 12 8 13 10 14
REMARK SMILES IDX 11 15 12 16 23 17 13 18 15 19 24 20 14 21 16 22 17 23 22 24
REMARK SMILES IDX 18 25 20 26 19 27 21 28 28 29 29 30 30 31 31 32 32 34 33 35
REMARK SMILES IDX 34 36 98 37 35 38 97 39 36 40 37 41 38 42 91 43 39 44 96 45
REMARK SMILES IDX 90 46 92 47 40 48 95 49 89 50 88 51 41 53 75 54 54 55 74 56
REMARK SMILES IDX 55 57 58 58 73 59 93 60 56 61 57 62 72 64 94 65 59 66 42 67
REMARK SMILES IDX 43 68 52 69 44 70 45 71 51 72 53 73 46 74 47 75 48 76 49 77
REMARK SMILES IDX 50 78 76 79 77 80 86 81 78 82 79 83 85 84 87 85 80 86 81 87
REMARK SMILES IDX 82 88 83 89 84 90 60 91 61 92 70 93 62 94 63 95 69 96 71 97
REMARK SMILES IDX 64 98 65 99 66 100 67 101 68 102
REMARK H PARENT 26 5 30 33 92 52 58 63
REMARK Flexibility Score: inf
ROOT
ATOM      1  C   UNL A   1      42.716  20.610  26.005  1.00  0.00     0.117 C 
ENDROOT
BRANCH   1   2
ATOM      2  N   UNL A   1      43.387  21.893  25.943  1.00  0.00    -0.353 N 
ATOM      3  O   UNL A   1      44.465  21.498  23.952  1.00  0.00    -0.271 OA
ATOM      4  C   UNL A   1      44.122  22.276  24.838  1.00  0.00     0.257 C 
ATOM      5  H   UNL A   1      43.318  22.507  26.708  1.00  0.00     0.163 HD
BRANCH   4   6
ATOM      6  C   UNL A   1      44.423  23.781  24.756  1.00  0.00     0.329 C 
BRANCH   6   7
ATOM      7  O   UNL A   1      45.741  24.199  24.415  1.00  0.00    -0.484 OA
BRANCH   7   8
ATOM      8  C   UNL A   1      46.430  24.915  25.357  1.00  0.00     0.120 A 
ATOM      9  C   UNL A   1      46.814  24.226  26.507  1.00  0.00     0.046 A 
ATOM     10  C   UNL A   1      46.635  26.291  25.302  1.00  0.00     0.054 A 
ATOM     11  C   UNL A   1      47.397  24.908  27.582  1.00  0.00     0.004 A 
ATOM     12  C   UNL A   1      47.143  26.994  26.404  1.00  0.00    -0.021 A 
ATOM     13  C   UNL A   1      47.547  26.297  27.539  1.00  0.00     0.008 A 
BRANCH  12  14
ATOM     14  C   UNL A   1      47.121  28.461  26.339  1.00  0.00     0.029 C 
ATOM     15  C   UNL A   1      46.047  29.190  26.680  1.00  0.00     0.083 C 
ATOM     16  S   UNL A   1      44.602  28.625  27.415  1.00  0.00    -0.022 SA
ATOM     17  C   UNL A   1      45.942  30.651  26.397  1.00  0.00     0.272 C 
ATOM     18  C   UNL A   1      43.799  30.172  27.231  1.00  0.00     0.298 C 
ATOM     19  N   UNL A   1      44.674  31.112  26.723  1.00  0.00    -0.236 N 
ATOM     20  O   UNL A   1      46.892  31.289  25.964  1.00  0.00    -0.268 OA
ATOM     21  O   UNL A   1      42.610  30.284  27.473  1.00  0.00    -0.260 OA
BRANCH  19  22
ATOM     22  C   UNL A   1      44.274  32.471  26.525  1.00  0.00     0.054 A 
ATOM     23  C   UNL A   1      43.973  32.962  25.245  1.00  0.00     0.027 A 
ATOM     24  C   UNL A   1      44.179  33.358  27.610  1.00  0.00     0.047 A 
ATOM     25  C   UNL A   1      43.589  34.295  25.054  1.00  0.00     0.004 A 
ATOM     26  C   UNL A   1      43.829  34.695  27.411  1.00  0.00     0.043 A 
ATOM     27  C   UNL A   1      43.529  35.166  26.137  1.00  0.00     0.020 A 
ATOM     28  Cl  UNL A   1      43.802  35.779  28.748  1.00  0.00    -0.084 Cl
ENDBRANCH  19  22
ENDBRANCH  12  14
ENDBRANCH   7   8
ENDBRANCH   6   7
ENDBRANCH   4   6
ENDBRANCH   1   2
BRANCH   1  29
ATOM     29  C   UNL A   1      41.796  20.445  27.199  1.00  0.00     0.042 C 
BRANCH  29  30
ATOM     30  C   UNL A   1      40.907  21.650  27.476  1.00  0.00     0.118 C 
BRANCH  30  31
ATOM     31  N   UNL A   1      39.834  21.835  26.506  1.00  0.00    -0.352 N 
ATOM     32  C   UNL A   1      39.115  22.963  26.189  1.00  0.00     0.251 C 
ATOM     33  H   UNL A   1      39.588  21.027  26.000  1.00  0.00     0.163 HD
ATOM     34  O   UNL A   1      38.219  22.902  25.352  1.00  0.00    -0.269 OA
BRANCH  32  35
ATOM     35  C   UNL A   1      39.387  24.245  26.874  1.00  0.00     0.039 A 
ATOM     36  C   UNL A   1      38.827  24.461  28.137  1.00  0.00     0.014 A 
ATOM     37  C   UNL A   1      40.191  25.224  26.289  1.00  0.00     0.014 A 
ATOM     38  C   UNL A   1      39.143  25.622  28.847  1.00  0.00     0.010 A 
ATOM     39  C   UNL A   1      40.567  26.343  27.028  1.00  0.00     0.010 A 
ATOM     40  C   UNL A   1      40.052  26.550  28.317  1.00  0.00    -0.014 A 
BRANCH  40  41
ATOM     41  C   UNL A   1      40.492  27.739  29.093  1.00  0.00     0.031 A 
ATOM     42  C   UNL A   1      41.807  27.718  29.821  1.00  0.00     0.074 A 
ATOM     43  C   UNL A   1      39.669  28.799  29.213  1.00  0.00     0.049 A 
ATOM     44  N   UNL A   1      42.308  28.600  30.647  1.00  0.00    -0.248 NA
ATOM     45  C   UNL A   1      42.660  26.536  29.616  1.00  0.00     0.031 C 
ATOM     46  C   UNL A   1      38.348  28.922  28.591  1.00  0.00     0.029 A 
ATOM     47  N   UNL A   1      39.813  29.971  29.914  1.00  0.00    -0.354 N 
ATOM     48  C   UNL A   1      43.519  28.071  31.078  1.00  0.00     0.074 A 
ATOM     49  C   UNL A   1      43.658  26.773  30.455  1.00  0.00     0.031 C 
ATOM     50  C   UNL A   1      37.811  30.106  28.927  1.00  0.00     0.029 A 
ATOM     51  C   UNL A   1      38.728  30.810  29.820  1.00  0.00     0.049 A 
ATOM     52  H   UNL A   1      40.619  30.190  30.436  1.00  0.00     0.167 HD
ATOM     53  C   UNL A   1      44.440  28.625  31.903  1.00  0.00     0.037 A 
ATOM     54  C   UNL A   1      38.489  32.004  30.396  1.00  0.00     0.037 A 
ATOM     55  C   UNL A   1      44.312  29.933  32.491  1.00  0.00     0.049 A 
ATOM     56  C   UNL A   1      39.531  32.602  31.301  1.00  0.00     0.074 A 
ATOM     57  C   UNL A   1      45.218  30.607  33.291  1.00  0.00     0.029 A 
ATOM     58  N   UNL A   1      43.213  30.765  32.343  1.00  0.00    -0.354 N 
ATOM     59  N   UNL A   1      40.693  32.111  31.657  1.00  0.00    -0.248 NA
ATOM     60  C   UNL A   1      39.231  33.920  31.881  1.00  0.00     0.031 C 
ATOM     61  C   UNL A   1      44.653  31.834  33.652  1.00  0.00     0.029 A 
ATOM     62  C   UNL A   1      43.411  31.941  33.048  1.00  0.00     0.049 A 
ATOM     63  H   UNL A   1      42.410  30.551  31.815  1.00  0.00     0.167 HD
ATOM     64  C   UNL A   1      41.274  33.068  32.482  1.00  0.00     0.074 A 
ATOM     65  C   UNL A   1      40.339  34.171  32.566  1.00  0.00     0.031 C 
ATOM     66  C   UNL A   1      42.475  33.035  33.112  1.00  0.00     0.037 A 
BRANCH  53  67
ATOM     67  C   UNL A   1      45.670  27.819  32.213  1.00  0.00     0.058 A 
ATOM     68  C   UNL A   1      45.753  27.015  33.362  1.00  0.00     0.135 A 
ATOM     69  C   UNL A   1      46.767  27.826  31.338  1.00  0.00     0.135 A 
ATOM     70  F   UNL A   1      44.737  26.983  34.239  1.00  0.00    -0.206 F 
ATOM     71  C   UNL A   1      46.893  26.272  33.648  1.00  0.00     0.059 A 
ATOM     72  C   UNL A   1      47.908  27.070  31.591  1.00  0.00     0.059 A 
ATOM     73  F   UNL A   1      46.741  28.577  30.226  1.00  0.00    -0.206 F 
ATOM     74  C   UNL A   1      47.967  26.309  32.758  1.00  0.00     0.060 A 
BRANCH  74  75
ATOM     75  S   UNL A   1      49.441  25.339  33.143  1.00  0.00     0.124 S 
ATOM     76  O   UNL A   1      50.190  26.272  33.979  1.00  0.00    -0.237 OA
ATOM     77  O   UNL A   1      48.884  24.179  33.829  1.00  0.00    -0.237 OA
ATOM     78  O   UNL A   1      50.022  25.069  31.831  1.00  0.00    -0.744 OA
ENDBRANCH  74  75
ENDBRANCH  53  67
BRANCH  54  79
ATOM     79  C   UNL A   1      37.217  32.719  30.121  1.00  0.00     0.058 A 
ATOM     80  C   UNL A   1      36.064  32.448  30.872  1.00  0.00     0.135 A 
ATOM     81  C   UNL A   1      37.131  33.698  29.120  1.00  0.00     0.135 A 
ATOM     82  F   UNL A   1      36.096  31.516  31.837  1.00  0.00    -0.206 F 
ATOM     83  C   UNL A   1      34.865  33.112  30.632  1.00  0.00     0.059 A 
ATOM     84  C   UNL A   1      35.949  34.392  28.875  1.00  0.00     0.059 A 
ATOM     85  F   UNL A   1      38.210  34.006  28.384  1.00  0.00    -0.206 F 
ATOM     86  C   UNL A   1      34.819  34.085  29.632  1.00  0.00     0.060 A 
BRANCH  86  87
ATOM     87  S   UNL A   1      33.272  34.979  29.364  1.00  0.00     0.124 S 
ATOM     88  O   UNL A   1      32.704  34.993  30.707  1.00  0.00    -0.237 OA
ATOM     89  O   UNL A   1      33.741  36.264  28.856  1.00  0.00    -0.237 OA
ATOM     90  O   UNL A   1      32.570  34.148  28.390  1.00  0.00    -0.744 OA
ENDBRANCH  86  87
ENDBRANCH  54  79
BRANCH  66  91
ATOM     91  C   UNL A   1      42.866  34.238  33.921  1.00  0.00     0.058 A 
ATOM     92  C   UNL A   1      42.635  34.302  35.303  1.00  0.00     0.135 A 
ATOM     93  C   UNL A   1      43.539  35.312  33.316  1.00  0.00     0.135 A 
ATOM     94  F   UNL A   1      41.987  33.305  35.927  1.00  0.00    -0.206 F 
ATOM     95  C   UNL A   1      43.046  35.396  36.057  1.00  0.00     0.059 A 
ATOM     96  C   UNL A   1      43.980  36.405  34.054  1.00  0.00     0.059 A 
ATOM     97  F   UNL A   1      43.792  35.294  31.997  1.00  0.00    -0.206 F 
ATOM     98  C   UNL A   1      43.722  36.441  35.424  1.00  0.00     0.060 A 
BRANCH  98  99
ATOM     99  S   UNL A   1      44.297  37.832  36.422  1.00  0.00     0.124 S 
ATOM    100  O   UNL A   1      44.053  38.957  35.525  1.00  0.00    -0.237 OA
ATOM    101  O   UNL A   1      43.432  37.756  37.595  1.00  0.00    -0.237 OA
ATOM    102  O   UNL A   1      45.701  37.516  36.666  1.00  0.00    -0.744 OA
ENDBRANCH  98  99
ENDBRANCH  66  91
ENDBRANCH  40  41
ENDBRANCH  32  35
ENDBRANCH  30  31
ENDBRANCH  29  30
ENDBRANCH   1  29
TORSDOF 17
ENDMDL
MODEL 2
REMARK VINA RESULT:     -10.5      4.632     10.610
REMARK SMILES O=C(COc1cccc(/C=C2\SC(=O)N(c3cccc(Cl)c3)C2=O)c1)NCCCNC(=O)c1ccc(-c2c3nc(c(-c4c(F)cc(S(=O)(=O)[O-])cc4F)c4ccc([nH]4)c(-c4c(F)cc(S(=O)(=O)[O-])cc4F)c4nc(c(-c5c(F)cc(S(=O)(=O)[O-])cc5F)c5ccc2[nH]5)C=C4)C=C3)cc1
REMARK SMILES IDX 27 1 26 2 1 3 2 4 3 6 4 7 5 8 6 9 25 10 7 11 9 12 8 13 10 14
REMARK SMILES IDX 11 15 12 16 23 17 13 18 15 19 24 20 14 21 16 22 17 23 22 24
REMARK SMILES IDX 18 25 20 26 19 27 21 28 28 29 29 30 30 31 31 32 32 34 33 35
REMARK SMILES IDX 34 36 98 37 35 38 97 39 36 40 37 41 38 42 91 43 39 44 96 45
REMARK SMILES IDX 90 46 92 47 40 48 95 49 89 50 88 51 41 53 75 54 54 55 74 56
REMARK SMILES IDX 55 57 58 58 73 59 93 60 56 61 57 62 72 64 94 65 59 66 42 67
REMARK SMILES IDX 43 68 52 69 44 70 45 71 51 72 53 73 46 74 47 75 48 76 49 77
REMARK SMILES IDX 50 78 76 79 77 80 86 81 78 82 79 83 85 84 87 85 80 86 81 87
REMARK SMILES IDX 82 88 83 89 84 90 60 91 61 92 70 93 62 94 63 95 69 96 71 97
REMARK SMILES IDX 64 98 65 99 66 100 67 101 68 102
REMARK H PARENT 26 5 30 33 92 52 58 63
REMARK Flexibility Score: inf
ROOT
ATOM      1  C   UNL A   1      42.991  21.453  26.476  1.00  0.00     0.117 C 
ENDROOT
BRANCH   1   2
ATOM      2  N   UNL A   1      41.708  21.202  25.850  1.00  0.00    -0.353 N 
ATOM      3  O   UNL A   1      40.803  20.052  27.622  1.00  0.00    -0.271 OA
ATOM      4  C   UNL A   1      40.665  20.616  26.540  1.00  0.00     0.257 C 
ATOM      5  H   UNL A   1      41.577  21.455  24.908  1.00  0.00     0.163 HD
BRANCH   4   6
ATOM      6  C   UNL A   1      39.285  20.785  25.884  1.00  0.00     0.329 C 
BRANCH   6   7
ATOM      7  O   UNL A   1      38.690  22.078  25.861  1.00  0.00    -0.484 OA
BRANCH   7   8
ATOM      8  C   UNL A   1      37.372  22.151  25.498  1.00  0.00     0.120 A 
ATOM      9  C   UNL A   1      36.706  20.939  25.321  1.00  0.00     0.046 A 
ATOM     10  C   UNL A   1      36.716  23.331  25.160  1.00  0.00     0.054 A 
ATOM     11  C   UNL A   1      35.401  20.914  24.815  1.00  0.00     0.004 A 
ATOM     12  C   UNL A   1      35.440  23.311  24.577  1.00  0.00    -0.021 A 
ATOM     13  C   UNL A   1      34.771  22.100  24.426  1.00  0.00     0.008 A 
BRANCH  12  14
ATOM     14  C   UNL A   1      34.915  24.578  24.053  1.00  0.00     0.029 C 
ATOM     15  C   UNL A   1      33.946  25.276  24.667  1.00  0.00     0.083 C 
ATOM     16  S   UNL A   1      33.272  24.971  26.216  1.00  0.00    -0.022 SA
ATOM     17  C   UNL A   1      33.254  26.430  24.025  1.00  0.00     0.272 C 
ATOM     18  C   UNL A   1      32.021  26.179  26.007  1.00  0.00     0.298 C 
ATOM     19  N   UNL A   1      32.205  26.865  24.822  1.00  0.00    -0.236 N 
ATOM     20  O   UNL A   1      33.633  26.889  22.955  1.00  0.00    -0.268 OA
ATOM     21  O   UNL A   1      31.113  26.274  26.815  1.00  0.00    -0.260 OA
BRANCH  19  22
ATOM     22  C   UNL A   1      31.341  27.939  24.442  1.00  0.00     0.054 A 
ATOM     23  C   UNL A   1      31.659  29.272  24.750  1.00  0.00     0.027 A 
ATOM     24  C   UNL A   1      30.141  27.690  23.756  1.00  0.00     0.047 A 
ATOM     25  C   UNL A   1      30.808  30.320  24.384  1.00  0.00     0.004 A 
ATOM     26  C   UNL A   1      29.279  28.736  23.422  1.00  0.00     0.043 A 
ATOM     27  C   UNL A   1      29.610  30.052  23.729  1.00  0.00     0.020 A 
ATOM     28  Cl  UNL A   1      27.776  28.392  22.655  1.00  0.00    -0.084 Cl
ENDBRANCH  19  22
ENDBRANCH  12  14
ENDBRANCH   7   8
ENDBRANCH   6   7
ENDBRANCH   4   6
ENDBRANCH   1   2
BRANCH   1  29
ATOM     29  C   UNL A   1      42.997  22.627  27.437  1.00  0.00     0.042 C 
BRANCH  29  30
ATOM     30  C   UNL A   1      43.637  23.891  26.878  1.00  0.00     0.118 C 
BRANCH  30  31
ATOM     31  N   UNL A   1      42.828  24.577  25.878  1.00  0.00    -0.352 N 
ATOM     32  C   UNL A   1      42.026  25.687  26.001  1.00  0.00     0.251 C 
ATOM     33  H   UNL A   1      42.861  24.185  24.975  1.00  0.00     0.163 HD
ATOM     34  O   UNL A   1      41.394  26.096  25.031  1.00  0.00    -0.269 OA
BRANCH  32  35
ATOM     35  C   UNL A   1      41.890  26.375  27.303  1.00  0.00     0.039 A 
ATOM     36  C   UNL A   1      42.715  27.473  27.569  1.00  0.00     0.014 A 
ATOM     37  C   UNL A   1      40.957  25.956  28.252  1.00  0.00     0.014 A 
ATOM     38  C   UNL A   1      42.545  28.200  28.750  1.00  0.00     0.010 A 
ATOM     39  C   UNL A   1      40.736  26.725  29.391  1.00  0.00     0.010 A 
ATOM     40  C   UNL A   1      41.522  27.859  29.649  1.00  0.00    -0.014 A 
BRANCH  40  41
ATOM     41  C   UNL A   1      41.245  28.676  30.858  1.00  0.00     0.031 A 
ATOM     42  C   UNL A   1      40.132  29.686  30.846  1.00  0.00     0.074 A 
ATOM     43  C   UNL A   1      42.050  28.570  31.934  1.00  0.00     0.049 A 
ATOM     44  N   UNL A   1      39.814  30.577  31.750  1.00  0.00    -0.248 NA
ATOM     45  C   UNL A   1      39.281  29.720  29.645  1.00  0.00     0.031 C 
ATOM     46  C   UNL A   1      43.191  27.658  32.053  1.00  0.00     0.029 A 
ATOM     47  N   UNL A   1      42.044  29.248  33.129  1.00  0.00    -0.354 N 
ATOM     48  C   UNL A   1      38.746  31.290  31.220  1.00  0.00     0.074 A 
ATOM     49  C   UNL A   1      38.497  30.758  29.898  1.00  0.00     0.031 C 
ATOM     50  C   UNL A   1      43.764  27.824  33.256  1.00  0.00     0.029 A 
ATOM     51  C   UNL A   1      43.060  28.879  33.979  1.00  0.00     0.049 A 
ATOM     52  H   UNL A   1      41.374  29.933  33.355  1.00  0.00     0.167 HD
ATOM     53  C   UNL A   1      38.026  32.287  31.790  1.00  0.00     0.037 A 
ATOM     54  C   UNL A   1      43.398  29.347  35.196  1.00  0.00     0.037 A 
ATOM     55  C   UNL A   1      38.256  32.788  33.121  1.00  0.00     0.049 A 
ATOM     56  C   UNL A   1      42.578  30.447  35.813  1.00  0.00     0.074 A 
ATOM     57  C   UNL A   1      37.542  33.752  33.811  1.00  0.00     0.029 A 
ATOM     58  N   UNL A   1      39.273  32.364  33.962  1.00  0.00    -0.354 N 
ATOM     59  N   UNL A   1      41.539  31.076  35.318  1.00  0.00    -0.248 NA
ATOM     60  C   UNL A   1      42.973  30.900  37.154  1.00  0.00     0.031 C 
ATOM     61  C   UNL A   1      38.147  33.934  35.058  1.00  0.00     0.029 A 
ATOM     62  C   UNL A   1      39.216  33.058  35.160  1.00  0.00     0.049 A 
ATOM     63  H   UNL A   1      39.939  31.673  33.741  1.00  0.00     0.167 HD
ATOM     64  C   UNL A   1      41.141  31.981  36.296  1.00  0.00     0.074 A 
ATOM     65  C   UNL A   1      42.046  31.813  37.414  1.00  0.00     0.031 C 
ATOM     66  C   UNL A   1      40.117  32.870  36.269  1.00  0.00     0.037 A 
BRANCH  53  67
ATOM     67  C   UNL A   1      36.918  32.896  30.979  1.00  0.00     0.058 A 
ATOM     68  C   UNL A   1      37.180  33.812  29.947  1.00  0.00     0.135 A 
ATOM     69  C   UNL A   1      35.581  32.540  31.215  1.00  0.00     0.135 A 
ATOM     70  F   UNL A   1      38.439  34.198  29.689  1.00  0.00    -0.206 F 
ATOM     71  C   UNL A   1      36.152  34.377  29.199  1.00  0.00     0.059 A 
ATOM     72  C   UNL A   1      34.538  33.073  30.461  1.00  0.00     0.059 A 
ATOM     73  F   UNL A   1      35.275  31.669  32.189  1.00  0.00    -0.206 F 
ATOM     74  C   UNL A   1      34.834  34.003  29.466  1.00  0.00     0.060 A 
BRANCH  74  75
ATOM     75  S   UNL A   1      33.511  34.745  28.487  1.00  0.00     0.124 S 
ATOM     76  O   UNL A   1      33.066  33.605  27.691  1.00  0.00    -0.237 OA
ATOM     77  O   UNL A   1      32.580  35.203  29.514  1.00  0.00    -0.237 OA
ATOM     78  O   UNL A   1      34.190  35.802  27.744  1.00  0.00    -0.744 OA
ENDBRANCH  74  75
ENDBRANCH  53  67
BRANCH  54  79
ATOM     79  C   UNL A   1      44.558  28.765  35.919  1.00  0.00     0.058 A 
ATOM     80  C   UNL A   1      45.848  29.285  35.744  1.00  0.00     0.135 A 
ATOM     81  C   UNL A   1      44.400  27.693  36.811  1.00  0.00     0.135 A 
ATOM     82  F   UNL A   1      46.050  30.306  34.897  1.00  0.00    -0.206 F 
ATOM     83  C   UNL A   1      46.945  28.756  36.417  1.00  0.00     0.059 A 
ATOM     84  C   UNL A   1      45.478  27.161  37.513  1.00  0.00     0.059 A 
ATOM     85  F   UNL A   1      43.183  27.170  37.026  1.00  0.00    -0.206 F 
ATOM     86  C   UNL A   1      46.748  27.694  37.302  1.00  0.00     0.060 A 
BRANCH  86  87
ATOM     87  S   UNL A   1      48.170  27.049  38.210  1.00  0.00     0.124 S 
ATOM     88  O   UNL A   1      49.273  27.761  37.574  1.00  0.00    -0.237 OA
ATOM     89  O   UNL A   1      47.864  27.441  39.582  1.00  0.00    -0.237 OA
ATOM     90  O   UNL A   1      48.110  25.614  37.948  1.00  0.00    -0.744 OA
ENDBRANCH  86  87
ENDBRANCH  54  79
BRANCH  66  91
ATOM     91  C   UNL A   1      39.895  33.708  37.495  1.00  0.00     0.058 A 
ATOM     92  C   UNL A   1      40.564  34.927  37.685  1.00  0.00     0.135 A 
ATOM     93  C   UNL A   1      38.953  33.317  38.460  1.00  0.00     0.135 A 
ATOM     94  F   UNL A   1      41.480  35.339  36.795  1.00  0.00    -0.206 F 
ATOM     95  C   UNL A   1      40.315  35.725  38.796  1.00  0.00     0.059 A 
ATOM     96  C   UNL A   1      38.671  34.111  39.567  1.00  0.00     0.059 A 
ATOM     97  F   UNL A   1      38.280  32.164  38.320  1.00  0.00    -0.206 F 
ATOM     98  C   UNL A   1      39.364  35.310  39.730  1.00  0.00     0.060 A 
BRANCH  98  99
ATOM     99  S   UNL A   1      39.013  36.379  41.143  1.00  0.00     0.124 S 
ATOM    100  O   UNL A   1      37.916  35.663  41.787  1.00  0.00    -0.237 OA
ATOM    101  O   UNL A   1      40.282  36.376  41.863  1.00  0.00    -0.237 OA
ATOM    102  O   UNL A   1      38.654  37.652  40.524  1.00  0.00    -0.744 OA
ENDBRANCH  98  99
ENDBRANCH  66  91
ENDBRANCH  40  41
ENDBRANCH  32  35
ENDBRANCH  30  31
ENDBRANCH  29  30
ENDBRANCH   1  29
TORSDOF 17
ENDMDL
MODEL 3
REMARK VINA RESULT:     -10.4      5.226     12.854
REMARK SMILES O=C(COc1cccc(/C=C2\SC(=O)N(c3cccc(Cl)c3)C2=O)c1)NCCCNC(=O)c1ccc(-c2c3nc(c(-c4c(F)cc(S(=O)(=O)[O-])cc4F)c4ccc([nH]4)c(-c4c(F)cc(S(=O)(=O)[O-])cc4F)c4nc(c(-c5c(F)cc(S(=O)(=O)[O-])cc5F)c5ccc2[nH]5)C=C4)C=C3)cc1
REMARK SMILES IDX 27 1 26 2 1 3 2 4 3 6 4 7 5 8 6 9 25 10 7 11 9 12 8 13 10 14
REMARK SMILES IDX 11 15 12 16 23 17 13 18 15 19 24 20 14 21 16 22 17 23 22 24
REMARK SMILES IDX 18 25 20 26 19 27 21 28 28 29 29 30 30 31 31 32 32 34 33 35
REMARK SMILES IDX 34 36 98 37 35 38 97 39 36 40 37 41 38 42 91 43 39 44 96 45
REMARK SMILES IDX 90 46 92 47 40 48 95 49 89 50 88 51 41 53 75 54 54 55 74 56
REMARK SMILES IDX 55 57 58 58 73 59 93 60 56 61 57 62 72 64 94 65 59 66 42 67
REMARK SMILES IDX 43 68 52 69 44 70 45 71 51 72 53 73 46 74 47 75 48 76 49 77
REMARK SMILES IDX 50 78 76 79 77 80 86 81 78 82 79 83 85 84 87 85 80 86 81 87
REMARK SMILES IDX 82 88 83 89 84 90 60 91 61 92 70 93 62 94 63 95 69 96 71 97
REMARK SMILES IDX 64 98 65 99 66 100 67 101 68 102
REMARK H PARENT 26 5 30 33 92 52 58 63
REMARK Flexibility Score: inf
ROOT
ATOM      1  C   UNL A   1      34.900  34.227  28.366  1.00  0.00     0.117 C 
ENDROOT
BRANCH   1   2
ATOM      2  N   UNL A   1      34.096  33.050  28.108  1.00  0.00    -0.353 N 
ATOM      3  O   UNL A   1      32.140  34.186  27.702  1.00  0.00    -0.271 OA
ATOM      4  C   UNL A   1      32.789  33.144  27.672  1.00  0.00     0.257 C 
ATOM      5  H   UNL A   1      34.491  32.159  28.248  1.00  0.00     0.163 HD
BRANCH   4   6
ATOM      6  C   UNL A   1      32.217  31.851  27.069  1.00  0.00     0.329 C 
BRANCH   6   7
ATOM      7  O   UNL A   1      33.010  30.668  27.106  1.00  0.00    -0.484 OA
BRANCH   7   8
ATOM      8  C   UNL A   1      32.593  29.615  26.336  1.00  0.00     0.120 A 
ATOM      9  C   UNL A   1      31.563  29.872  25.432  1.00  0.00     0.046 A 
ATOM     10  C   UNL A   1      33.024  28.302  26.504  1.00  0.00     0.054 A 
ATOM     11  C   UNL A   1      30.979  28.828  24.706  1.00  0.00     0.004 A 
ATOM     12  C   UNL A   1      32.390  27.240  25.842  1.00  0.00    -0.021 A 
ATOM     13  C   UNL A   1      31.380  27.507  24.922  1.00  0.00     0.008 A 
BRANCH  12  14
ATOM     14  C   UNL A   1      32.761  25.876  26.240  1.00  0.00     0.029 C 
ATOM     15  C   UNL A   1      33.370  25.014  25.410  1.00  0.00     0.083 C 
ATOM     16  S   UNL A   1      33.998  25.348  23.848  1.00  0.00    -0.022 SA
ATOM     17  C   UNL A   1      33.536  23.568  25.732  1.00  0.00     0.272 C 
ATOM     18  C   UNL A   1      34.329  23.658  23.523  1.00  0.00     0.298 C 
ATOM     19  N   UNL A   1      34.064  22.891  24.640  1.00  0.00    -0.236 N 
ATOM     20  O   UNL A   1      33.249  23.120  26.834  1.00  0.00    -0.268 OA
ATOM     21  O   UNL A   1      34.669  23.298  22.410  1.00  0.00    -0.260 OA
BRANCH  19  22
ATOM     22  C   UNL A   1      34.301  21.481  24.649  1.00  0.00     0.054 A 
ATOM     23  C   UNL A   1      35.569  20.958  24.947  1.00  0.00     0.027 A 
ATOM     24  C   UNL A   1      33.269  20.576  24.348  1.00  0.00     0.047 A 
ATOM     25  C   UNL A   1      35.799  19.577  24.946  1.00  0.00     0.004 A 
ATOM     26  C   UNL A   1      33.512  19.202  24.316  1.00  0.00     0.043 A 
ATOM     27  C   UNL A   1      34.772  18.698  24.619  1.00  0.00     0.020 A 
ATOM     28  Cl  UNL A   1      32.249  18.122  23.863  1.00  0.00    -0.084 Cl
ENDBRANCH  19  22
ENDBRANCH  12  14
ENDBRANCH   7   8
ENDBRANCH   6   7
ENDBRANCH   4   6
ENDBRANCH   1   2
BRANCH   1  29
ATOM     29  C   UNL A   1      36.176  33.953  29.140  1.00  0.00     0.042 C 
BRANCH  29  30
ATOM     30  C   UNL A   1      36.601  32.491  29.149  1.00  0.00     0.118 C 
BRANCH  30  31
ATOM     31  N   UNL A   1      36.129  31.739  30.305  1.00  0.00    -0.352 N 
ATOM     32  C   UNL A   1      36.685  30.654  30.941  1.00  0.00     0.251 C 
ATOM     33  H   UNL A   1      35.281  32.058  30.690  1.00  0.00     0.163 HD
ATOM     34  O   UNL A   1      36.106  30.140  31.893  1.00  0.00    -0.269 OA
BRANCH  32  35
ATOM     35  C   UNL A   1      37.961  30.077  30.465  1.00  0.00     0.039 A 
ATOM     36  C   UNL A   1      38.181  29.985  29.087  1.00  0.00     0.014 A 
ATOM     37  C   UNL A   1      38.938  29.638  31.359  1.00  0.00     0.014 A 
ATOM     38  C   UNL A   1      39.413  29.532  28.609  1.00  0.00     0.010 A 
ATOM     39  C   UNL A   1      40.191  29.261  30.885  1.00  0.00     0.010 A 
ATOM     40  C   UNL A   1      40.444  29.210  29.505  1.00  0.00    -0.014 A 
BRANCH  40  41
ATOM     41  C   UNL A   1      41.799  28.831  29.029  1.00  0.00     0.031 A 
ATOM     42  C   UNL A   1      42.878  29.872  28.919  1.00  0.00     0.074 A 
ATOM     43  C   UNL A   1      42.031  27.570  28.613  1.00  0.00     0.049 A 
ATOM     44  N   UNL A   1      44.079  29.767  28.411  1.00  0.00    -0.248 NA
ATOM     45  C   UNL A   1      42.554  31.217  29.420  1.00  0.00     0.031 C 
ATOM     46  C   UNL A   1      41.054  26.478  28.628  1.00  0.00     0.029 A 
ATOM     47  N   UNL A   1      43.158  26.995  28.079  1.00  0.00    -0.354 N 
ATOM     48  C   UNL A   1      44.644  31.033  28.509  1.00  0.00     0.074 A 
ATOM     49  C   UNL A   1      43.640  31.900  29.086  1.00  0.00     0.031 C 
ATOM     50  C   UNL A   1      41.627  25.366  28.140  1.00  0.00     0.029 A 
ATOM     51  C   UNL A   1      42.997  25.672  27.740  1.00  0.00     0.049 A 
ATOM     52  H   UNL A   1      44.003  27.485  27.951  1.00  0.00     0.167 HD
ATOM     53  C   UNL A   1      45.892  31.432  28.165  1.00  0.00     0.037 A 
ATOM     54  C   UNL A   1      43.850  24.805  27.160  1.00  0.00     0.037 A 
ATOM     55  C   UNL A   1      46.899  30.556  27.625  1.00  0.00     0.049 A 
ATOM     56  C   UNL A   1      45.234  25.270  26.797  1.00  0.00     0.074 A 
ATOM     57  C   UNL A   1      48.212  30.852  27.304  1.00  0.00     0.029 A 
ATOM     58  N   UNL A   1      46.707  29.215  27.329  1.00  0.00    -0.354 N 
ATOM     59  N   UNL A   1      45.769  26.458  26.943  1.00  0.00    -0.248 NA
ATOM     60  C   UNL A   1      46.133  24.276  26.193  1.00  0.00     0.031 C 
ATOM     61  C   UNL A   1      48.805  29.697  26.783  1.00  0.00     0.029 A 
ATOM     62  C   UNL A   1      47.873  28.672  26.815  1.00  0.00     0.049 A 
ATOM     63  H   UNL A   1      45.866  28.722  27.464  1.00  0.00     0.167 HD
ATOM     64  C   UNL A   1      47.073  26.349  26.473  1.00  0.00     0.074 A 
ATOM     65  C   UNL A   1      47.249  24.977  26.044  1.00  0.00     0.031 C 
ATOM     66  C   UNL A   1      48.036  27.300  26.404  1.00  0.00     0.037 A 
BRANCH  53  67
ATOM     67  C   UNL A   1      46.240  32.880  28.371  1.00  0.00     0.058 A 
ATOM     68  C   UNL A   1      46.793  33.339  29.576  1.00  0.00     0.135 A 
ATOM     69  C   UNL A   1      46.045  33.814  27.341  1.00  0.00     0.135 A 
ATOM     70  F   UNL A   1      46.987  32.491  30.598  1.00  0.00    -0.206 F 
ATOM     71  C   UNL A   1      47.112  34.680  29.765  1.00  0.00     0.059 A 
ATOM     72  C   UNL A   1      46.381  35.156  27.498  1.00  0.00     0.059 A 
ATOM     73  F   UNL A   1      45.519  33.428  26.168  1.00  0.00    -0.206 F 
ATOM     74  C   UNL A   1      46.899  35.581  28.721  1.00  0.00     0.060 A 
BRANCH  74  75
ATOM     75  S   UNL A   1      47.316  37.319  28.981  1.00  0.00     0.124 S 
ATOM     76  O   UNL A   1      45.991  37.930  29.033  1.00  0.00    -0.237 OA
ATOM     77  O   UNL A   1      48.046  37.281  30.243  1.00  0.00    -0.237 OA
ATOM     78  O   UNL A   1      48.116  37.655  27.807  1.00  0.00    -0.744 OA
ENDBRANCH  74  75
ENDBRANCH  53  67
BRANCH  54  79
ATOM     79  C   UNL A   1      43.424  23.406  26.902  1.00  0.00     0.058 A 
ATOM     80  C   UNL A   1      43.194  22.955  25.594  1.00  0.00     0.135 A 
ATOM     81  C   UNL A   1      43.257  22.488  27.950  1.00  0.00     0.135 A 
ATOM     82  F   UNL A   1      43.336  23.798  24.560  1.00  0.00    -0.206 F 
ATOM     83  C   UNL A   1      42.800  21.647  25.333  1.00  0.00     0.059 A 
ATOM     84  C   UNL A   1      42.884  21.168  27.713  1.00  0.00     0.059 A 
ATOM     85  F   UNL A   1      43.480  22.865  29.218  1.00  0.00    -0.206 F 
ATOM     86  C   UNL A   1      42.650  20.759  26.400  1.00  0.00     0.060 A 
BRANCH  86  87
ATOM     87  S   UNL A   1      42.189  19.049  26.047  1.00  0.00     0.124 S 
ATOM     88  O   UNL A   1      42.999  18.764  24.868  1.00  0.00    -0.237 OA
ATOM     89  O   UNL A   1      42.583  18.362  27.273  1.00  0.00    -0.237 OA
ATOM     90  O   UNL A   1      40.749  19.131  25.820  1.00  0.00    -0.744 OA
ENDBRANCH  86  87
ENDBRANCH  54  79
BRANCH  66  91
ATOM     91  C   UNL A   1      49.381  26.888  25.877  1.00  0.00     0.058 A 
ATOM     92  C   UNL A   1      49.723  27.050  24.526  1.00  0.00     0.135 A 
ATOM     93  C   UNL A   1      50.360  26.385  26.748  1.00  0.00     0.135 A 
ATOM     94  F   UNL A   1      48.818  27.518  23.651  1.00  0.00    -0.206 F 
ATOM     95  C   UNL A   1      50.987  26.715  24.053  1.00  0.00     0.059 A 
ATOM     96  C   UNL A   1      51.639  26.066  26.302  1.00  0.00     0.059 A 
ATOM     97  F   UNL A   1      50.085  26.220  28.051  1.00  0.00    -0.206 F 
ATOM     98  C   UNL A   1      51.940  26.228  24.950  1.00  0.00     0.060 A 
BRANCH  98  99
ATOM     99  S   UNL A   1      53.594  25.845  24.334  1.00  0.00     0.124 S 
ATOM    100  O   UNL A   1      53.758  24.463  24.773  1.00  0.00    -0.237 OA
ATOM    101  O   UNL A   1      53.447  26.040  22.895  1.00  0.00    -0.237 OA
ATOM    102  O   UNL A   1      54.441  26.824  25.009  1.00  0.00    -0.744 OA
ENDBRANCH  98  99
ENDBRANCH  66  91
ENDBRANCH  40  41
ENDBRANCH  32  35
ENDBRANCH  30  31
ENDBRANCH  29  30
ENDBRANCH   1  29
TORSDOF 17
ENDMDL
