MODEL 1
REMARK VINA RESULT:     -12.0      0.000      0.000
REMARK SMILES O=C(CSCc1nnnn1-c1ccc([N+](=O)[O-])cc1)NCCCNC(=O)c1ccc(-c2c3nc(c(-c4c(F)cc(S(=O)(=O)[O-])cc4F)c4ccc([nH]4)c(-c4c(F)cc(S(=O)(=O)[O-])cc4F)c4nc(c(-c5c(F)cc(S(=O)(=O)[O-])cc5F)c5ccc2[nH]5)C=C4)C=C3)cc1
REMARK SMILES IDX 21 1 20 2 1 3 2 4 3 6 4 7 5 8 6 9 7 10 10 11 8 12 9 13 11 14
REMARK SMILES IDX 12 15 19 16 13 17 18 18 14 19 15 20 16 21 17 22 22 23 23 24
REMARK SMILES IDX 24 25 25 26 26 28 27 29 28 30 92 31 29 32 91 33 30 34 31 35
REMARK SMILES IDX 32 36 85 37 33 38 90 39 84 40 86 41 34 42 89 43 83 44 82 45
REMARK SMILES IDX 35 47 69 48 48 49 68 50 49 51 52 52 67 53 87 54 50 55 51 56
REMARK SMILES IDX 66 58 88 59 53 60 36 61 37 62 46 63 38 64 39 65 45 66 47 67
REMARK SMILES IDX 40 68 41 69 42 70 43 71 44 72 70 73 71 74 80 75 72 76 73 77
REMARK SMILES IDX 79 78 81 79 74 80 75 81 76 82 77 83 78 84 54 85 55 86 64 87
REMARK SMILES IDX 56 88 57 89 63 90 65 91 58 92 59 93 60 94 61 95 62 96
REMARK H PARENT 20 5 24 27 86 46 52 57
REMARK Flexibility Score: inf
ROOT
ATOM      1  C   UNL A   1      40.064  21.548  26.331  1.00  0.00     0.117 C 
ENDROOT
BRANCH   1   2
ATOM      2  N   UNL A   1      38.773  21.681  25.686  1.00  0.00    -0.355 N 
ATOM      3  O   UNL A   1      38.439  23.856  26.321  1.00  0.00    -0.274 OA
ATOM      4  C   UNL A   1      38.040  22.840  25.760  1.00  0.00     0.230 C 
ATOM      5  H   UNL A   1      38.411  20.918  25.180  1.00  0.00     0.163 HD
BRANCH   4   6
ATOM      6  C   UNL A   1      36.643  22.758  25.197  1.00  0.00     0.169 C 
BRANCH   6   7
ATOM      7  S   UNL A   1      36.565  22.823  23.386  1.00  0.00    -0.144 SA
BRANCH   7   8
ATOM      8  C   UNL A   1      34.802  23.107  23.133  1.00  0.00     0.149 C 
BRANCH   8   9
ATOM      9  C   UNL A   1      33.841  23.016  24.273  1.00  0.00     0.166 A 
ATOM     10  N   UNL A   1      33.336  24.090  24.862  1.00  0.00    -0.113 NA
ATOM     11  N   UNL A   1      33.055  21.935  24.652  1.00  0.00    -0.196 N 
ATOM     12  N   UNL A   1      32.187  23.693  25.486  1.00  0.00    -0.023 NA
ATOM     13  N   UNL A   1      31.963  22.404  25.293  1.00  0.00    -0.040 NA
BRANCH  11  14
ATOM     14  C   UNL A   1      33.269  20.550  24.538  1.00  0.00     0.069 A 
ATOM     15  C   UNL A   1      32.263  19.731  24.018  1.00  0.00     0.035 A 
ATOM     16  C   UNL A   1      34.478  19.998  24.975  1.00  0.00     0.035 A 
ATOM     17  C   UNL A   1      32.543  18.382  23.777  1.00  0.00     0.088 A 
ATOM     18  C   UNL A   1      34.770  18.660  24.721  1.00  0.00     0.088 A 
ATOM     19  C   UNL A   1      33.813  17.866  24.084  1.00  0.00     0.269 A 
BRANCH  19  20
ATOM     20  N   UNL A   1      34.158  16.494  23.702  1.00  0.00     0.062 N 
ATOM     21  O   UNL A   1      34.290  15.667  24.613  1.00  0.00    -0.258 OA
ATOM     22  O   UNL A   1      34.255  16.252  22.492  1.00  0.00    -0.258 OA
ENDBRANCH  19  20
ENDBRANCH  11  14
ENDBRANCH   8   9
ENDBRANCH   7   8
ENDBRANCH   6   7
ENDBRANCH   4   6
ENDBRANCH   1   2
BRANCH   1  23
ATOM     23  C   UNL A   1      40.592  20.112  26.286  1.00  0.00     0.042 C 
BRANCH  23  24
ATOM     24  C   UNL A   1      41.933  19.958  26.986  1.00  0.00     0.118 C 
BRANCH  24  25
ATOM     25  N   UNL A   1      43.023  19.631  26.068  1.00  0.00    -0.352 N 
ATOM     26  C   UNL A   1      43.822  20.500  25.345  1.00  0.00     0.251 C 
ATOM     27  H   UNL A   1      43.212  18.673  25.949  1.00  0.00     0.163 HD
ATOM     28  O   UNL A   1      44.476  20.095  24.401  1.00  0.00    -0.269 OA
BRANCH  26  29
ATOM     29  C   UNL A   1      43.848  21.924  25.733  1.00  0.00     0.039 A 
ATOM     30  C   UNL A   1      43.188  22.881  24.961  1.00  0.00     0.014 A 
ATOM     31  C   UNL A   1      44.500  22.288  26.908  1.00  0.00     0.014 A 
ATOM     32  C   UNL A   1      43.111  24.186  25.439  1.00  0.00     0.010 A 
ATOM     33  C   UNL A   1      44.293  23.536  27.450  1.00  0.00     0.010 A 
ATOM     34  C   UNL A   1      43.632  24.505  26.708  1.00  0.00    -0.014 A 
BRANCH  34  35
ATOM     35  C   UNL A   1      43.354  25.814  27.303  1.00  0.00     0.031 A 
ATOM     36  C   UNL A   1      44.360  26.851  26.948  1.00  0.00     0.074 A 
ATOM     37  C   UNL A   1      42.220  26.145  27.962  1.00  0.00     0.049 A 
ATOM     38  N   UNL A   1      45.311  27.300  27.697  1.00  0.00    -0.248 NA
ATOM     39  C   UNL A   1      44.445  27.307  25.550  1.00  0.00     0.031 C 
ATOM     40  C   UNL A   1      40.995  25.345  28.101  1.00  0.00     0.029 A 
ATOM     41  N   UNL A   1      41.878  27.316  28.578  1.00  0.00    -0.354 N 
ATOM     42  C   UNL A   1      45.915  28.316  26.961  1.00  0.00     0.074 A 
ATOM     43  C   UNL A   1      45.513  28.110  25.595  1.00  0.00     0.031 C 
ATOM     44  C   UNL A   1      39.981  26.132  28.524  1.00  0.00     0.029 A 
ATOM     45  C   UNL A   1      40.524  27.427  28.884  1.00  0.00     0.049 A 
ATOM     46  H   UNL A   1      42.533  28.021  28.787  1.00  0.00     0.167 HD
ATOM     47  C   UNL A   1      46.411  29.415  27.595  1.00  0.00     0.037 A 
ATOM     48  C   UNL A   1      39.883  28.493  29.424  1.00  0.00     0.037 A 
ATOM     49  C   UNL A   1      46.456  29.195  29.020  1.00  0.00     0.049 A 
ATOM     50  C   UNL A   1      40.892  29.281  30.168  1.00  0.00     0.074 A 
ATOM     51  C   UNL A   1      47.243  28.502  29.913  1.00  0.00     0.029 A 
ATOM     52  N   UNL A   1      45.272  29.473  29.647  1.00  0.00    -0.354 N 
ATOM     53  N   UNL A   1      41.527  28.828  31.216  1.00  0.00    -0.248 NA
ATOM     54  C   UNL A   1      41.472  30.468  29.552  1.00  0.00     0.031 C 
ATOM     55  C   UNL A   1      46.425  28.253  31.056  1.00  0.00     0.029 A 
ATOM     56  C   UNL A   1      45.179  28.839  30.856  1.00  0.00     0.049 A 
ATOM     57  H   UNL A   1      44.574  30.058  29.274  1.00  0.00     0.167 HD
ATOM     58  C   UNL A   1      42.783  29.389  31.121  1.00  0.00     0.074 A 
ATOM     59  C   UNL A   1      42.638  30.511  30.202  1.00  0.00     0.031 C 
ATOM     60  C   UNL A   1      43.893  28.697  31.508  1.00  0.00     0.037 A 
BRANCH  47  61
ATOM     61  C   UNL A   1      46.368  30.831  27.052  1.00  0.00     0.058 A 
ATOM     62  C   UNL A   1      47.543  31.615  27.090  1.00  0.00     0.135 A 
ATOM     63  C   UNL A   1      45.178  31.544  26.786  1.00  0.00     0.135 A 
ATOM     64  F   UNL A   1      48.733  31.048  27.348  1.00  0.00    -0.206 F 
ATOM     65  C   UNL A   1      47.528  33.003  26.936  1.00  0.00     0.059 A 
ATOM     66  C   UNL A   1      45.147  32.920  26.580  1.00  0.00     0.059 A 
ATOM     67  F   UNL A   1      43.974  30.963  26.810  1.00  0.00    -0.206 F 
ATOM     68  C   UNL A   1      46.320  33.647  26.689  1.00  0.00     0.060 A 
BRANCH  68  69
ATOM     69  S   UNL A   1      46.281  35.443  26.550  1.00  0.00     0.124 S 
ATOM     70  O   UNL A   1      47.256  35.837  27.560  1.00  0.00    -0.237 OA
ATOM     71  O   UNL A   1      46.679  35.646  25.161  1.00  0.00    -0.237 OA
ATOM     72  O   UNL A   1      44.891  35.772  26.851  1.00  0.00    -0.744 OA
ENDBRANCH  68  69
ENDBRANCH  47  61
BRANCH  48  73
ATOM     73  C   UNL A   1      38.521  29.009  29.126  1.00  0.00     0.058 A 
ATOM     74  C   UNL A   1      37.586  29.230  30.153  1.00  0.00     0.135 A 
ATOM     75  C   UNL A   1      38.221  29.584  27.876  1.00  0.00     0.135 A 
ATOM     76  F   UNL A   1      37.796  28.723  31.378  1.00  0.00    -0.206 F 
ATOM     77  C   UNL A   1      36.461  30.042  29.975  1.00  0.00     0.059 A 
ATOM     78  C   UNL A   1      37.099  30.388  27.671  1.00  0.00     0.059 A 
ATOM     79  F   UNL A   1      39.069  29.466  26.843  1.00  0.00    -0.206 F 
ATOM     80  C   UNL A   1      36.240  30.641  28.735  1.00  0.00     0.060 A 
BRANCH  80  81
ATOM     81  S   UNL A   1      34.915  31.861  28.564  1.00  0.00     0.124 S 
ATOM     82  O   UNL A   1      35.527  32.855  27.691  1.00  0.00    -0.237 OA
ATOM     83  O   UNL A   1      33.842  31.069  27.972  1.00  0.00    -0.237 OA
ATOM     84  O   UNL A   1      34.675  32.298  29.938  1.00  0.00    -0.744 OA
ENDBRANCH  80  81
ENDBRANCH  48  73
BRANCH  60  85
ATOM     85  C   UNL A   1      43.741  27.661  32.581  1.00  0.00     0.058 A 
ATOM     86  C   UNL A   1      43.749  26.271  32.384  1.00  0.00     0.135 A 
ATOM     87  C   UNL A   1      43.642  28.123  33.903  1.00  0.00     0.135 A 
ATOM     88  F   UNL A   1      43.914  25.748  31.160  1.00  0.00    -0.206 F 
ATOM     89  C   UNL A   1      43.630  25.382  33.455  1.00  0.00     0.059 A 
ATOM     90  C   UNL A   1      43.555  27.258  34.986  1.00  0.00     0.059 A 
ATOM     91  F   UNL A   1      43.669  29.442  34.158  1.00  0.00    -0.206 F 
ATOM     92  C   UNL A   1      43.534  25.886  34.753  1.00  0.00     0.060 A 
BRANCH  92  93
ATOM     93  S   UNL A   1      43.432  24.741  36.145  1.00  0.00     0.124 S 
ATOM     94  O   UNL A   1      42.096  25.010  36.668  1.00  0.00    -0.237 OA
ATOM     95  O   UNL A   1      43.613  23.443  35.502  1.00  0.00    -0.237 OA
ATOM     96  O   UNL A   1      44.533  25.155  37.011  1.00  0.00    -0.744 OA
ENDBRANCH  92  93
ENDBRANCH  60  85
ENDBRANCH  34  35
ENDBRANCH  26  29
ENDBRANCH  24  25
ENDBRANCH  23  24
ENDBRANCH   1  23
TORSDOF 18
ENDMDL
MODEL 2
REMARK VINA RESULT:     -11.9      1.677      2.364
REMARK SMILES O=C(CSCc1nnnn1-c1ccc([N+](=O)[O-])cc1)NCCCNC(=O)c1ccc(-c2c3nc(c(-c4c(F)cc(S(=O)(=O)[O-])cc4F)c4ccc([nH]4)c(-c4c(F)cc(S(=O)(=O)[O-])cc4F)c4nc(c(-c5c(F)cc(S(=O)(=O)[O-])cc5F)c5ccc2[nH]5)C=C4)C=C3)cc1
REMARK SMILES IDX 21 1 20 2 1 3 2 4 3 6 4 7 5 8 6 9 7 10 10 11 8 12 9 13 11 14
REMARK SMILES IDX 12 15 19 16 13 17 18 18 14 19 15 20 16 21 17 22 22 23 23 24
REMARK SMILES IDX 24 25 25 26 26 28 27 29 28 30 92 31 29 32 91 33 30 34 31 35
REMARK SMILES IDX 32 36 85 37 33 38 90 39 84 40 86 41 34 42 89 43 83 44 82 45
REMARK SMILES IDX 35 47 69 48 48 49 68 50 49 51 52 52 67 53 87 54 50 55 51 56
REMARK SMILES IDX 66 58 88 59 53 60 36 61 37 62 46 63 38 64 39 65 45 66 47 67
REMARK SMILES IDX 40 68 41 69 42 70 43 71 44 72 70 73 71 74 80 75 72 76 73 77
REMARK SMILES IDX 79 78 81 79 74 80 75 81 76 82 77 83 78 84 54 85 55 86 64 87
REMARK SMILES IDX 56 88 57 89 63 90 65 91 58 92 59 93 60 94 61 95 62 96
REMARK H PARENT 20 5 24 27 86 46 52 57
REMARK Flexibility Score: inf
ROOT
ATOM      1  C   UNL A   1      39.536  21.819  26.277  1.00  0.00     0.117 C 
ENDROOT
BRANCH   1   2
ATOM      2  N   UNL A   1      38.256  21.670  25.616  1.00  0.00    -0.355 N 
ATOM      3  O   UNL A   1      37.541  23.803  26.047  1.00  0.00    -0.274 OA
ATOM      4  C   UNL A   1      37.334  22.687  25.579  1.00  0.00     0.230 C 
ATOM      5  H   UNL A   1      38.041  20.813  25.181  1.00  0.00     0.163 HD
BRANCH   4   6
ATOM      6  C   UNL A   1      35.984  22.315  25.019  1.00  0.00     0.169 C 
BRANCH   6   7
ATOM      7  S   UNL A   1      34.773  23.665  25.036  1.00  0.00    -0.144 SA
BRANCH   7   8
ATOM      8  C   UNL A   1      34.028  23.430  26.661  1.00  0.00     0.149 C 
BRANCH   8   9
ATOM      9  C   UNL A   1      32.597  23.023  26.797  1.00  0.00     0.166 A 
ATOM     10  N   UNL A   1      31.742  23.678  27.568  1.00  0.00    -0.113 NA
ATOM     11  N   UNL A   1      31.846  22.221  25.946  1.00  0.00    -0.196 N 
ATOM     12  N   UNL A   1      30.489  23.380  27.111  1.00  0.00    -0.023 NA
ATOM     13  N   UNL A   1      30.546  22.563  26.072  1.00  0.00    -0.040 NA
BRANCH  11  14
ATOM     14  C   UNL A   1      32.219  21.151  25.115  1.00  0.00     0.069 A 
ATOM     15  C   UNL A   1      32.715  19.972  25.678  1.00  0.00     0.035 A 
ATOM     16  C   UNL A   1      32.120  21.285  23.726  1.00  0.00     0.035 A 
ATOM     17  C   UNL A   1      32.944  18.867  24.851  1.00  0.00     0.088 A 
ATOM     18  C   UNL A   1      32.328  20.184  22.897  1.00  0.00     0.088 A 
ATOM     19  C   UNL A   1      32.701  18.966  23.472  1.00  0.00     0.269 A 
BRANCH  19  20
ATOM     20  N   UNL A   1      32.800  17.775  22.623  1.00  0.00     0.062 N 
ATOM     21  O   UNL A   1      33.646  16.926  22.933  1.00  0.00    -0.258 OA
ATOM     22  O   UNL A   1      32.003  17.684  21.681  1.00  0.00    -0.258 OA
ENDBRANCH  19  20
ENDBRANCH  11  14
ENDBRANCH   8   9
ENDBRANCH   7   8
ENDBRANCH   6   7
ENDBRANCH   4   6
ENDBRANCH   1   2
BRANCH   1  23
ATOM     23  C   UNL A   1      40.327  20.510  26.319  1.00  0.00     0.042 C 
BRANCH  23  24
ATOM     24  C   UNL A   1      41.444  20.530  27.351  1.00  0.00     0.118 C 
BRANCH  24  25
ATOM     25  N   UNL A   1      42.767  20.720  26.758  1.00  0.00    -0.352 N 
ATOM     26  C   UNL A   1      43.427  21.910  26.501  1.00  0.00     0.251 C 
ATOM     27  H   UNL A   1      43.249  19.899  26.511  1.00  0.00     0.163 HD
ATOM     28  O   UNL A   1      44.374  21.936  25.736  1.00  0.00    -0.269 OA
BRANCH  26  29
ATOM     29  C   UNL A   1      42.945  23.141  27.157  1.00  0.00     0.039 A 
ATOM     30  C   UNL A   1      43.340  23.453  28.458  1.00  0.00     0.014 A 
ATOM     31  C   UNL A   1      42.129  24.010  26.436  1.00  0.00     0.014 A 
ATOM     32  C   UNL A   1      42.985  24.692  28.985  1.00  0.00     0.010 A 
ATOM     33  C   UNL A   1      41.910  25.288  26.898  1.00  0.00     0.010 A 
ATOM     34  C   UNL A   1      42.300  25.628  28.186  1.00  0.00    -0.014 A 
BRANCH  34  35
ATOM     35  C   UNL A   1      42.127  27.003  28.659  1.00  0.00     0.031 A 
ATOM     36  C   UNL A   1      43.218  27.918  28.230  1.00  0.00     0.074 A 
ATOM     37  C   UNL A   1      41.018  27.483  29.269  1.00  0.00     0.049 A 
ATOM     38  N   UNL A   1      44.197  28.352  28.952  1.00  0.00    -0.248 NA
ATOM     39  C   UNL A   1      43.354  28.239  26.799  1.00  0.00     0.031 C 
ATOM     40  C   UNL A   1      39.730  26.803  29.458  1.00  0.00     0.029 A 
ATOM     41  N   UNL A   1      40.770  28.729  29.773  1.00  0.00    -0.354 N 
ATOM     42  C   UNL A   1      44.890  29.245  28.139  1.00  0.00     0.074 A 
ATOM     43  C   UNL A   1      44.484  28.953  26.790  1.00  0.00     0.031 C 
ATOM     44  C   UNL A   1      38.782  27.704  29.793  1.00  0.00     0.029 A 
ATOM     45  C   UNL A   1      39.427  28.978  30.047  1.00  0.00     0.049 A 
ATOM     46  H   UNL A   1      41.479  29.393  29.930  1.00  0.00     0.167 HD
ATOM     47  C   UNL A   1      45.470  30.352  28.681  1.00  0.00     0.037 A 
ATOM     48  C   UNL A   1      38.872  30.136  30.481  1.00  0.00     0.037 A 
ATOM     49  C   UNL A   1      45.485  30.257  30.120  1.00  0.00     0.049 A 
ATOM     50  C   UNL A   1      39.937  30.902  31.168  1.00  0.00     0.074 A 
ATOM     51  C   UNL A   1      46.203  29.584  31.083  1.00  0.00     0.029 A 
ATOM     52  N   UNL A   1      44.323  30.686  30.702  1.00  0.00    -0.354 N 
ATOM     53  N   UNL A   1      40.523  30.493  32.262  1.00  0.00    -0.248 NA
ATOM     54  C   UNL A   1      40.619  31.978  30.459  1.00  0.00     0.031 C 
ATOM     55  C   UNL A   1      45.358  29.506  32.231  1.00  0.00     0.029 A 
ATOM     56  C   UNL A   1      44.166  30.172  31.961  1.00  0.00     0.049 A 
ATOM     57  H   UNL A   1      43.679  31.291  30.268  1.00  0.00     0.167 HD
ATOM     58  C   UNL A   1      41.823  30.938  32.137  1.00  0.00     0.074 A 
ATOM     59  C   UNL A   1      41.779  31.982  31.122  1.00  0.00     0.031 C 
ATOM     60  C   UNL A   1      42.867  30.195  32.602  1.00  0.00     0.037 A 
BRANCH  47  61
ATOM     61  C   UNL A   1      45.550  31.713  28.015  1.00  0.00     0.058 A 
ATOM     62  C   UNL A   1      46.812  32.330  27.868  1.00  0.00     0.135 A 
ATOM     63  C   UNL A   1      44.438  32.558  27.799  1.00  0.00     0.135 A 
ATOM     64  F   UNL A   1      47.942  31.630  28.063  1.00  0.00    -0.206 F 
ATOM     65  C   UNL A   1      46.957  33.691  27.587  1.00  0.00     0.059 A 
ATOM     66  C   UNL A   1      44.561  33.905  27.468  1.00  0.00     0.059 A 
ATOM     67  F   UNL A   1      43.180  32.149  27.991  1.00  0.00    -0.206 F 
ATOM     68  C   UNL A   1      45.821  34.472  27.398  1.00  0.00     0.060 A 
BRANCH  68  69
ATOM     69  S   UNL A   1      45.997  36.239  27.096  1.00  0.00     0.124 S 
ATOM     70  O   UNL A   1      46.722  36.670  28.285  1.00  0.00    -0.237 OA
ATOM     71  O   UNL A   1      46.748  36.258  25.845  1.00  0.00    -0.237 OA
ATOM     72  O   UNL A   1      44.615  36.700  26.996  1.00  0.00    -0.744 OA
ENDBRANCH  68  69
ENDBRANCH  47  61
BRANCH  48  73
ATOM     73  C   UNL A   1      37.561  30.733  30.117  1.00  0.00     0.058 A 
ATOM     74  C   UNL A   1      36.703  31.258  31.099  1.00  0.00     0.135 A 
ATOM     75  C   UNL A   1      37.267  31.080  28.783  1.00  0.00     0.135 A 
ATOM     76  F   UNL A   1      36.913  30.983  32.396  1.00  0.00    -0.206 F 
ATOM     77  C   UNL A   1      35.663  32.140  30.788  1.00  0.00     0.059 A 
ATOM     78  C   UNL A   1      36.228  31.950  28.447  1.00  0.00     0.059 A 
ATOM     79  F   UNL A   1      38.050  30.665  27.776  1.00  0.00    -0.206 F 
ATOM     80  C   UNL A   1      35.451  32.503  29.458  1.00  0.00     0.060 A 
BRANCH  80  81
ATOM     81  S   UNL A   1      34.256  33.807  29.076  1.00  0.00     0.124 S 
ATOM     82  O   UNL A   1      33.661  34.067  30.382  1.00  0.00    -0.237 OA
ATOM     83  O   UNL A   1      35.111  34.864  28.546  1.00  0.00    -0.237 OA
ATOM     84  O   UNL A   1      33.369  33.180  28.098  1.00  0.00    -0.744 OA
ENDBRANCH  80  81
ENDBRANCH  48  73
BRANCH  60  85
ATOM     85  C   UNL A   1      42.620  29.275  33.760  1.00  0.00     0.058 A 
ATOM     86  C   UNL A   1      42.431  29.670  35.093  1.00  0.00     0.135 A 
ATOM     87  C   UNL A   1      42.510  27.906  33.472  1.00  0.00     0.135 A 
ATOM     88  F   UNL A   1      42.446  30.966  35.439  1.00  0.00    -0.206 F 
ATOM     89  C   UNL A   1      42.176  28.737  36.101  1.00  0.00     0.059 A 
ATOM     90  C   UNL A   1      42.225  26.963  34.452  1.00  0.00     0.059 A 
ATOM     91  F   UNL A   1      42.643  27.471  32.207  1.00  0.00    -0.206 F 
ATOM     92  C   UNL A   1      42.075  27.385  35.770  1.00  0.00     0.060 A 
BRANCH  92  93
ATOM     93  S   UNL A   1      41.694  26.179  37.059  1.00  0.00     0.124 S 
ATOM     94  O   UNL A   1      41.587  24.939  36.299  1.00  0.00    -0.237 OA
ATOM     95  O   UNL A   1      42.852  26.285  37.943  1.00  0.00    -0.237 OA
ATOM     96  O   UNL A   1      40.441  26.670  37.628  1.00  0.00    -0.744 OA
ENDBRANCH  92  93
ENDBRANCH  60  85
ENDBRANCH  34  35
ENDBRANCH  26  29
ENDBRANCH  24  25
ENDBRANCH  23  24
ENDBRANCH   1  23
TORSDOF 18
ENDMDL
MODEL 3
REMARK VINA RESULT:     -11.8      2.422      3.277
REMARK SMILES O=C(CSCc1nnnn1-c1ccc([N+](=O)[O-])cc1)NCCCNC(=O)c1ccc(-c2c3nc(c(-c4c(F)cc(S(=O)(=O)[O-])cc4F)c4ccc([nH]4)c(-c4c(F)cc(S(=O)(=O)[O-])cc4F)c4nc(c(-c5c(F)cc(S(=O)(=O)[O-])cc5F)c5ccc2[nH]5)C=C4)C=C3)cc1
REMARK SMILES IDX 21 1 20 2 1 3 2 4 3 6 4 7 5 8 6 9 7 10 10 11 8 12 9 13 11 14
REMARK SMILES IDX 12 15 19 16 13 17 18 18 14 19 15 20 16 21 17 22 22 23 23 24
REMARK SMILES IDX 24 25 25 26 26 28 27 29 28 30 92 31 29 32 91 33 30 34 31 35
REMARK SMILES IDX 32 36 85 37 33 38 90 39 84 40 86 41 34 42 89 43 83 44 82 45
REMARK SMILES IDX 35 47 69 48 48 49 68 50 49 51 52 52 67 53 87 54 50 55 51 56
REMARK SMILES IDX 66 58 88 59 53 60 36 61 37 62 46 63 38 64 39 65 45 66 47 67
REMARK SMILES IDX 40 68 41 69 42 70 43 71 44 72 70 73 71 74 80 75 72 76 73 77
REMARK SMILES IDX 79 78 81 79 74 80 75 81 76 82 77 83 78 84 54 85 55 86 64 87
REMARK SMILES IDX 56 88 57 89 63 90 65 91 58 92 59 93 60 94 61 95 62 96
REMARK H PARENT 20 5 24 27 86 46 52 57
REMARK Flexibility Score: inf
ROOT
ATOM      1  C   UNL A   1      36.153  21.274  25.722  1.00  0.00     0.117 C 
ENDROOT
BRANCH   1   2
ATOM      2  N   UNL A   1      35.298  22.438  25.621  1.00  0.00    -0.355 N 
ATOM      3  O   UNL A   1      34.300  22.150  27.662  1.00  0.00    -0.274 OA
ATOM      4  C   UNL A   1      34.403  22.771  26.609  1.00  0.00     0.230 C 
ATOM      5  H   UNL A   1      35.359  23.008  24.820  1.00  0.00     0.163 HD
BRANCH   4   6
ATOM      6  C   UNL A   1      33.459  23.899  26.273  1.00  0.00     0.169 C 
BRANCH   6   7
ATOM      7  S   UNL A   1      31.774  23.671  26.902  1.00  0.00    -0.144 SA
BRANCH   7   8
ATOM      8  C   UNL A   1      30.969  22.946  25.460  1.00  0.00     0.149 C 
BRANCH   8   9
ATOM      9  C   UNL A   1      31.673  22.876  24.145  1.00  0.00     0.166 A 
ATOM     10  N   UNL A   1      31.894  23.949  23.400  1.00  0.00    -0.113 NA
ATOM     11  N   UNL A   1      32.498  21.867  23.663  1.00  0.00    -0.196 N 
ATOM     12  N   UNL A   1      32.930  23.641  22.563  1.00  0.00    -0.023 NA
ATOM     13  N   UNL A   1      33.358  22.408  22.773  1.00  0.00    -0.040 NA
BRANCH  11  14
ATOM     14  C   UNL A   1      32.499  20.481  23.897  1.00  0.00     0.069 A 
ATOM     15  C   UNL A   1      32.296  19.596  22.835  1.00  0.00     0.035 A 
ATOM     16  C   UNL A   1      32.673  19.999  25.199  1.00  0.00     0.035 A 
ATOM     17  C   UNL A   1      32.444  18.223  23.058  1.00  0.00     0.088 A 
ATOM     18  C   UNL A   1      32.840  18.634  25.425  1.00  0.00     0.088 A 
ATOM     19  C   UNL A   1      32.764  17.754  24.342  1.00  0.00     0.269 A 
BRANCH  19  20
ATOM     20  N   UNL A   1      33.062  16.335  24.550  1.00  0.00     0.062 N 
ATOM     21  O   UNL A   1      33.990  15.847  23.893  1.00  0.00    -0.258 OA
ATOM     22  O   UNL A   1      32.389  15.735  25.398  1.00  0.00    -0.258 OA
ENDBRANCH  19  20
ENDBRANCH  11  14
ENDBRANCH   8   9
ENDBRANCH   7   8
ENDBRANCH   6   7
ENDBRANCH   4   6
ENDBRANCH   1   2
BRANCH   1  23
ATOM     23  C   UNL A   1      37.527  21.503  25.087  1.00  0.00     0.042 C 
BRANCH  23  24
ATOM     24  C   UNL A   1      38.456  22.315  25.977  1.00  0.00     0.118 C 
BRANCH  24  25
ATOM     25  N   UNL A   1      39.857  21.921  25.851  1.00  0.00    -0.352 N 
ATOM     26  C   UNL A   1      40.986  22.660  26.162  1.00  0.00     0.251 C 
ATOM     27  H   UNL A   1      40.019  21.016  25.501  1.00  0.00     0.163 HD
ATOM     28  O   UNL A   1      42.076  22.333  25.727  1.00  0.00    -0.269 OA
BRANCH  26  29
ATOM     29  C   UNL A   1      40.834  23.857  27.011  1.00  0.00     0.039 A 
ATOM     30  C   UNL A   1      41.592  24.003  28.174  1.00  0.00     0.014 A 
ATOM     31  C   UNL A   1      39.958  24.861  26.606  1.00  0.00     0.014 A 
ATOM     32  C   UNL A   1      41.528  25.209  28.866  1.00  0.00     0.010 A 
ATOM     33  C   UNL A   1      40.012  26.101  27.201  1.00  0.00     0.010 A 
ATOM     34  C   UNL A   1      40.764  26.276  28.354  1.00  0.00    -0.014 A 
BRANCH  34  35
ATOM     35  C   UNL A   1      40.875  27.607  28.955  1.00  0.00     0.031 A 
ATOM     36  C   UNL A   1      41.959  28.435  28.361  1.00  0.00     0.074 A 
ATOM     37  C   UNL A   1      39.994  28.143  29.831  1.00  0.00     0.049 A 
ATOM     38  N   UNL A   1      43.118  28.684  28.875  1.00  0.00    -0.248 NA
ATOM     39  C   UNL A   1      41.827  28.882  26.964  1.00  0.00     0.031 C 
ATOM     40  C   UNL A   1      38.699  27.593  30.253  1.00  0.00     0.029 A 
ATOM     41  N   UNL A   1      40.023  29.351  30.469  1.00  0.00    -0.354 N 
ATOM     42  C   UNL A   1      43.731  29.573  27.996  1.00  0.00     0.074 A 
ATOM     43  C   UNL A   1      43.012  29.464  26.755  1.00  0.00     0.031 C 
ATOM     44  C   UNL A   1      37.969  28.555  30.858  1.00  0.00     0.029 A 
ATOM     45  C   UNL A   1      38.814  29.718  31.054  1.00  0.00     0.049 A 
ATOM     46  H   UNL A   1      40.829  29.914  30.511  1.00  0.00     0.167 HD
ATOM     47  C   UNL A   1      44.552  30.549  28.475  1.00  0.00     0.037 A 
ATOM     48  C   UNL A   1      38.519  30.881  31.686  1.00  0.00     0.037 A 
ATOM     49  C   UNL A   1      44.861  30.308  29.863  1.00  0.00     0.049 A 
ATOM     50  C   UNL A   1      39.796  31.451  32.172  1.00  0.00     0.074 A 
ATOM     51  C   UNL A   1      45.675  29.466  30.588  1.00  0.00     0.029 A 
ATOM     52  N   UNL A   1      43.915  30.802  30.720  1.00  0.00    -0.354 N 
ATOM     53  N   UNL A   1      40.544  30.872  33.073  1.00  0.00    -0.248 NA
ATOM     54  C   UNL A   1      40.444  32.512  31.410  1.00  0.00     0.031 C 
ATOM     55  C   UNL A   1      45.091  29.367  31.887  1.00  0.00     0.029 A 
ATOM     56  C   UNL A   1      43.966  30.184  31.940  1.00  0.00     0.049 A 
ATOM     57  H   UNL A   1      43.277  31.515  30.487  1.00  0.00     0.167 HD
ATOM     58  C   UNL A   1      41.833  31.182  32.694  1.00  0.00     0.074 A 
ATOM     59  C   UNL A   1      41.710  32.321  31.794  1.00  0.00     0.031 C 
ATOM     60  C   UNL A   1      42.848  30.285  32.857  1.00  0.00     0.037 A 
BRANCH  47  61
ATOM     61  C   UNL A   1      44.663  31.953  27.910  1.00  0.00     0.058 A 
ATOM     62  C   UNL A   1      45.871  32.348  27.293  1.00  0.00     0.135 A 
ATOM     63  C   UNL A   1      43.771  33.005  28.215  1.00  0.00     0.135 A 
ATOM     64  F   UNL A   1      46.803  31.437  26.969  1.00  0.00    -0.206 F 
ATOM     65  C   UNL A   1      46.191  33.686  27.052  1.00  0.00     0.059 A 
ATOM     66  C   UNL A   1      44.048  34.340  27.938  1.00  0.00     0.059 A 
ATOM     67  F   UNL A   1      42.630  32.805  28.884  1.00  0.00    -0.206 F 
ATOM     68  C   UNL A   1      45.273  34.677  27.388  1.00  0.00     0.060 A 
BRANCH  68  69
ATOM     69  S   UNL A   1      45.702  36.408  27.139  1.00  0.00     0.124 S 
ATOM     70  O   UNL A   1      46.442  36.707  28.359  1.00  0.00    -0.237 OA
ATOM     71  O   UNL A   1      46.487  36.350  25.910  1.00  0.00    -0.237 OA
ATOM     72  O   UNL A   1      44.401  37.060  27.012  1.00  0.00    -0.744 OA
ENDBRANCH  68  69
ENDBRANCH  47  61
BRANCH  48  73
ATOM     73  C   UNL A   1      37.249  31.652  31.670  1.00  0.00     0.058 A 
ATOM     74  C   UNL A   1      36.535  31.902  32.855  1.00  0.00     0.135 A 
ATOM     75  C   UNL A   1      36.879  32.419  30.547  1.00  0.00     0.135 A 
ATOM     76  F   UNL A   1      36.825  31.221  33.975  1.00  0.00    -0.206 F 
ATOM     77  C   UNL A   1      35.567  32.908  32.946  1.00  0.00     0.059 A 
ATOM     78  C   UNL A   1      35.909  33.420  30.610  1.00  0.00     0.059 A 
ATOM     79  F   UNL A   1      37.528  32.286  29.380  1.00  0.00    -0.206 F 
ATOM     80  C   UNL A   1      35.281  33.683  31.822  1.00  0.00     0.060 A 
BRANCH  80  81
ATOM     81  S   UNL A   1      34.196  35.122  31.991  1.00  0.00     0.124 S 
ATOM     82  O   UNL A   1      35.012  36.025  32.795  1.00  0.00    -0.237 OA
ATOM     83  O   UNL A   1      33.990  35.517  30.601  1.00  0.00    -0.237 OA
ATOM     84  O   UNL A   1      33.016  34.581  32.661  1.00  0.00    -0.744 OA
ENDBRANCH  80  81
ENDBRANCH  48  73
BRANCH  60  85
ATOM     85  C   UNL A   1      42.736  29.286  33.969  1.00  0.00     0.058 A 
ATOM     86  C   UNL A   1      43.137  29.493  35.298  1.00  0.00     0.135 A 
ATOM     87  C   UNL A   1      42.123  28.061  33.665  1.00  0.00     0.135 A 
ATOM     88  F   UNL A   1      43.663  30.664  35.687  1.00  0.00    -0.206 F 
ATOM     89  C   UNL A   1      42.964  28.508  36.274  1.00  0.00     0.059 A 
ATOM     90  C   UNL A   1      41.911  27.079  34.624  1.00  0.00     0.059 A 
ATOM     91  F   UNL A   1      41.683  27.820  32.418  1.00  0.00    -0.206 F 
ATOM     92  C   UNL A   1      42.350  27.304  35.926  1.00  0.00     0.060 A 
BRANCH  92  93
ATOM     93  S   UNL A   1      42.077  26.047  37.194  1.00  0.00     0.124 S 
ATOM     94  O   UNL A   1      40.653  26.196  37.473  1.00  0.00    -0.237 OA
ATOM     95  O   UNL A   1      42.465  24.817  36.509  1.00  0.00    -0.237 OA
ATOM     96  O   UNL A   1      42.969  26.454  38.277  1.00  0.00    -0.744 OA
ENDBRANCH  92  93
ENDBRANCH  60  85
ENDBRANCH  34  35
ENDBRANCH  26  29
ENDBRANCH  24  25
ENDBRANCH  23  24
ENDBRANCH   1  23
TORSDOF 18
ENDMDL
