MODEL 1
REMARK VINA RESULT:     -13.3      0.000      0.000
REMARK SMILES Cc1ccc(SCC[N@H+]2CC[C@@H](C(=O)NCCCNC(=O)c3ccc(-c4c5nc(c(-c6c(F)cc(S(=O)(=O)[O-])cc6F)c6ccc([nH]6)c(-c6c(F)cc(S(=O)(=O)[O-])cc6F)c6nc(c(-c7c(F)cc(S(=O)(=O)[O-])cc7F)c7ccc4[nH]7)C=C6)C=C5)cc3)[C@@H]2C)cc1
REMARK SMILES IDX 16 1 15 2 13 3 14 4 12 6 9 7 10 8 88 9 11 11 89 12 8 13 7 14
REMARK SMILES IDX 6 15 5 16 1 17 2 18 3 19 91 20 4 21 90 22 17 23 18 24 19 25
REMARK SMILES IDX 20 26 21 28 22 29 23 30 87 31 24 32 86 33 25 34 26 35 27 36
REMARK SMILES IDX 80 37 28 38 85 39 79 40 81 41 29 42 84 43 78 44 77 45 30 47
REMARK SMILES IDX 64 48 43 49 63 50 44 51 47 52 62 53 82 54 45 55 46 56 61 58
REMARK SMILES IDX 83 59 48 60 31 61 32 62 41 63 33 64 34 65 40 66 42 67 35 68
REMARK SMILES IDX 36 69 37 70 38 71 39 72 65 73 66 74 75 75 67 76 68 77 74 78
REMARK SMILES IDX 76 79 69 80 70 81 71 82 72 83 73 84 49 85 50 86 59 87 51 88
REMARK SMILES IDX 52 89 58 90 60 91 53 92 54 93 55 94 56 95 57 96
REMARK H PARENT 15 5 9 10 19 27 81 46 47 57
REMARK Flexibility Score: inf
ROOT
ATOM      1  C   UNL A   1      32.165  30.325  25.810  1.00  0.00     0.117 C 
ENDROOT
BRANCH   1   2
ATOM      2  N   UNL A   1      32.794  29.328  24.956  1.00  0.00    -0.356 N 
ATOM      3  C   UNL A   1      32.393  28.098  24.535  1.00  0.00     0.229 C 
ATOM      4  O   UNL A   1      33.119  27.522  23.715  1.00  0.00    -0.275 OA
ATOM      5  H   UNL A   1      33.679  29.596  24.617  1.00  0.00     0.163 HD
BRANCH   3   6
ATOM      6  C   UNL A   1      31.145  27.381  25.044  1.00  0.00     0.142 C 
ATOM      7  N   UNL A   1      30.176  25.212  24.537  1.00  0.00    -0.331 N 
ATOM      8  C   UNL A   1      30.659  25.166  25.920  1.00  0.00     0.263 C 
ATOM      9  C   UNL A   1      30.481  26.534  23.963  1.00  0.00     0.193 C 
ATOM     10  H   UNL A   1      29.165  25.080  24.551  1.00  0.00     0.348 HD
ATOM     11  C   UNL A   1      31.307  26.500  26.265  1.00  0.00     0.081 C 
ATOM     12  C   UNL A   1      29.163  27.167  23.506  1.00  0.00     0.076 C 
BRANCH   7  13
ATOM     13  C   UNL A   1      30.678  24.105  23.705  1.00  0.00     0.273 C 
BRANCH  13  14
ATOM     14  C   UNL A   1      32.204  23.936  23.633  1.00  0.00     0.136 C 
BRANCH  14  15
ATOM     15  S   UNL A   1      32.774  22.254  23.173  1.00  0.00    -0.120 SA
BRANCH  15  16
ATOM     16  C   UNL A   1      34.417  22.210  23.856  1.00  0.00     0.007 A 
ATOM     17  C   UNL A   1      38.295  22.128  25.737  1.00  0.00     0.044 C 
ATOM     18  C   UNL A   1      36.954  22.139  25.070  1.00  0.00    -0.051 A 
ATOM     19  C   UNL A   1      35.981  21.193  25.410  1.00  0.00     0.004 A 
ATOM     20  C   UNL A   1      36.671  23.075  24.073  1.00  0.00     0.004 A 
ATOM     21  C   UNL A   1      34.720  21.232  24.809  1.00  0.00     0.015 A 
ATOM     22  C   UNL A   1      35.417  23.100  23.463  1.00  0.00     0.015 A 
ENDBRANCH  15  16
ENDBRANCH  14  15
ENDBRANCH  13  14
ENDBRANCH   7  13
ENDBRANCH   3   6
ENDBRANCH   1   2
BRANCH   1  23
ATOM     23  C   UNL A   1      32.799  30.443  27.188  1.00  0.00     0.042 C 
BRANCH  23  24
ATOM     24  C   UNL A   1      34.262  30.038  27.257  1.00  0.00     0.118 C 
BRANCH  24  25
ATOM     25  N   UNL A   1      35.093  31.187  27.638  1.00  0.00    -0.352 N 
ATOM     26  C   UNL A   1      36.410  31.208  28.051  1.00  0.00     0.251 C 
ATOM     27  H   UNL A   1      34.649  32.065  27.593  1.00  0.00     0.163 HD
ATOM     28  O   UNL A   1      36.969  32.223  28.427  1.00  0.00    -0.269 OA
BRANCH  26  29
ATOM     29  C   UNL A   1      37.134  29.933  27.942  1.00  0.00     0.039 A 
ATOM     30  C   UNL A   1      37.159  29.127  29.084  1.00  0.00     0.014 A 
ATOM     31  C   UNL A   1      38.068  29.797  26.920  1.00  0.00     0.014 A 
ATOM     32  C   UNL A   1      38.259  28.308  29.305  1.00  0.00     0.010 A 
ATOM     33  C   UNL A   1      39.199  29.051  27.187  1.00  0.00     0.010 A 
ATOM     34  C   UNL A   1      39.322  28.356  28.405  1.00  0.00    -0.014 A 
BRANCH  34  35
ATOM     35  C   UNL A   1      40.645  27.813  28.697  1.00  0.00     0.031 A 
ATOM     36  C   UNL A   1      40.945  26.398  28.368  1.00  0.00     0.074 A 
ATOM     37  C   UNL A   1      41.624  28.598  29.198  1.00  0.00     0.049 A 
ATOM     38  N   UNL A   1      41.968  25.740  28.798  1.00  0.00    -0.248 NA
ATOM     39  C   UNL A   1      40.034  25.575  27.582  1.00  0.00     0.031 C 
ATOM     40  C   UNL A   1      43.058  28.325  29.176  1.00  0.00     0.029 A 
ATOM     41  N   UNL A   1      41.507  29.721  30.013  1.00  0.00    -0.354 N 
ATOM     42  C   UNL A   1      42.011  24.532  28.136  1.00  0.00     0.074 A 
ATOM     43  C   UNL A   1      40.732  24.444  27.479  1.00  0.00     0.031 C 
ATOM     44  C   UNL A   1      43.667  29.090  30.094  1.00  0.00     0.029 A 
ATOM     45  C   UNL A   1      42.633  29.773  30.850  1.00  0.00     0.049 A 
ATOM     46  H   UNL A   1      40.763  30.367  30.003  1.00  0.00     0.167 HD
ATOM     47  C   UNL A   1      43.182  23.828  28.125  1.00  0.00     0.037 A 
ATOM     48  C   UNL A   1      42.520  29.725  32.211  1.00  0.00     0.037 A 
ATOM     49  C   UNL A   1      44.125  24.383  29.102  1.00  0.00     0.049 A 
ATOM     50  C   UNL A   1      43.174  28.520  32.852  1.00  0.00     0.074 A 
ATOM     51  C   UNL A   1      45.233  25.210  28.994  1.00  0.00     0.029 A 
ATOM     52  N   UNL A   1      43.815  24.324  30.458  1.00  0.00    -0.354 N 
ATOM     53  N   UNL A   1      43.600  27.483  32.186  1.00  0.00    -0.248 NA
ATOM     54  C   UNL A   1      43.372  28.371  34.292  1.00  0.00     0.031 C 
ATOM     55  C   UNL A   1      45.539  25.707  30.288  1.00  0.00     0.029 A 
ATOM     56  C   UNL A   1      44.636  25.164  31.187  1.00  0.00     0.049 A 
ATOM     57  H   UNL A   1      43.107  23.761  30.846  1.00  0.00     0.167 HD
ATOM     58  C   UNL A   1      44.054  26.527  33.058  1.00  0.00     0.074 A 
ATOM     59  C   UNL A   1      43.930  27.148  34.363  1.00  0.00     0.031 C 
ATOM     60  C   UNL A   1      44.469  25.298  32.629  1.00  0.00     0.037 A 
BRANCH  47  61
ATOM     61  C   UNL A   1      43.586  22.824  27.045  1.00  0.00     0.058 A 
ATOM     62  C   UNL A   1      42.887  21.599  26.910  1.00  0.00     0.135 A 
ATOM     63  C   UNL A   1      44.701  22.934  26.188  1.00  0.00     0.135 A 
ATOM     64  F   UNL A   1      41.750  21.363  27.580  1.00  0.00    -0.206 F 
ATOM     65  C   UNL A   1      43.321  20.549  26.089  1.00  0.00     0.059 A 
ATOM     66  C   UNL A   1      45.172  21.892  25.384  1.00  0.00     0.059 A 
ATOM     67  F   UNL A   1      45.383  24.069  26.040  1.00  0.00    -0.206 F 
ATOM     68  C   UNL A   1      44.488  20.691  25.354  1.00  0.00     0.060 A 
BRANCH  68  69
ATOM     69  S   UNL A   1      45.093  19.317  24.361  1.00  0.00     0.124 S 
ATOM     70  O   UNL A   1      44.572  19.644  23.038  1.00  0.00    -0.237 OA
ATOM     71  O   UNL A   1      46.538  19.432  24.524  1.00  0.00    -0.237 OA
ATOM     72  O   UNL A   1      44.486  18.147  24.992  1.00  0.00    -0.744 OA
ENDBRANCH  68  69
ENDBRANCH  47  61
BRANCH  48  73
ATOM     73  C   UNL A   1      41.326  30.443  32.726  1.00  0.00     0.058 A 
ATOM     74  C   UNL A   1      40.190  29.665  33.013  1.00  0.00     0.135 A 
ATOM     75  C   UNL A   1      41.445  31.686  33.365  1.00  0.00     0.135 A 
ATOM     76  F   UNL A   1      40.017  28.479  32.407  1.00  0.00    -0.206 F 
ATOM     77  C   UNL A   1      39.313  30.008  34.035  1.00  0.00     0.059 A 
ATOM     78  C   UNL A   1      40.572  32.054  34.390  1.00  0.00     0.059 A 
ATOM     79  F   UNL A   1      42.503  32.473  33.120  1.00  0.00    -0.206 F 
ATOM     80  C   UNL A   1      39.564  31.165  34.770  1.00  0.00     0.060 A 
BRANCH  80  81
ATOM     81  S   UNL A   1      38.704  31.351  36.349  1.00  0.00     0.124 S 
ATOM     82  O   UNL A   1      38.381  29.969  36.687  1.00  0.00    -0.237 OA
ATOM     83  O   UNL A   1      39.739  31.978  37.169  1.00  0.00    -0.237 OA
ATOM     84  O   UNL A   1      37.569  32.202  36.014  1.00  0.00    -0.744 OA
ENDBRANCH  80  81
ENDBRANCH  48  73
BRANCH  60  85
ATOM     85  C   UNL A   1      44.816  24.125  33.515  1.00  0.00     0.058 A 
ATOM     86  C   UNL A   1      43.949  23.050  33.778  1.00  0.00     0.135 A 
ATOM     87  C   UNL A   1      46.131  23.985  34.022  1.00  0.00     0.135 A 
ATOM     88  F   UNL A   1      42.709  23.015  33.266  1.00  0.00    -0.206 F 
ATOM     89  C   UNL A   1      44.336  21.943  34.538  1.00  0.00     0.059 A 
ATOM     90  C   UNL A   1      46.555  22.867  34.736  1.00  0.00     0.059 A 
ATOM     91  F   UNL A   1      47.057  24.937  33.827  1.00  0.00    -0.206 F 
ATOM     92  C   UNL A   1      45.642  21.859  35.012  1.00  0.00     0.060 A 
BRANCH  92  93
ATOM     93  S   UNL A   1      46.181  20.404  35.933  1.00  0.00     0.124 S 
ATOM     94  O   UNL A   1      47.606  20.376  35.624  1.00  0.00    -0.237 OA
ATOM     95  O   UNL A   1      45.844  20.745  37.312  1.00  0.00    -0.237 OA
ATOM     96  O   UNL A   1      45.383  19.331  35.349  1.00  0.00    -0.744 OA
ENDBRANCH  92  93
ENDBRANCH  60  85
ENDBRANCH  34  35
ENDBRANCH  26  29
ENDBRANCH  24  25
ENDBRANCH  23  24
ENDBRANCH   1  23
TORSDOF 17
ENDMDL
MODEL 2
REMARK VINA RESULT:     -13.0      5.063     11.526
REMARK SMILES Cc1ccc(SCC[N@H+]2CC[C@@H](C(=O)NCCCNC(=O)c3ccc(-c4c5nc(c(-c6c(F)cc(S(=O)(=O)[O-])cc6F)c6ccc([nH]6)c(-c6c(F)cc(S(=O)(=O)[O-])cc6F)c6nc(c(-c7c(F)cc(S(=O)(=O)[O-])cc7F)c7ccc4[nH]7)C=C6)C=C5)cc3)[C@@H]2C)cc1
REMARK SMILES IDX 16 1 15 2 13 3 14 4 12 6 9 7 10 8 88 9 11 11 89 12 8 13 7 14
REMARK SMILES IDX 6 15 5 16 1 17 2 18 3 19 91 20 4 21 90 22 17 23 18 24 19 25
REMARK SMILES IDX 20 26 21 28 22 29 23 30 87 31 24 32 86 33 25 34 26 35 27 36
REMARK SMILES IDX 80 37 28 38 85 39 79 40 81 41 29 42 84 43 78 44 77 45 30 47
REMARK SMILES IDX 64 48 43 49 63 50 44 51 47 52 62 53 82 54 45 55 46 56 61 58
REMARK SMILES IDX 83 59 48 60 31 61 32 62 41 63 33 64 34 65 40 66 42 67 35 68
REMARK SMILES IDX 36 69 37 70 38 71 39 72 65 73 66 74 75 75 67 76 68 77 74 78
REMARK SMILES IDX 76 79 69 80 70 81 71 82 72 83 73 84 49 85 50 86 59 87 51 88
REMARK SMILES IDX 52 89 58 90 60 91 53 92 54 93 55 94 56 95 57 96
REMARK H PARENT 15 5 9 10 19 27 81 46 47 57
REMARK Flexibility Score: inf
ROOT
ATOM      1  C   UNL A   1      37.039  21.808  24.402  1.00  0.00     0.117 C 
ENDROOT
BRANCH   1   2
ATOM      2  N   UNL A   1      35.910  20.913  24.609  1.00  0.00    -0.356 N 
ATOM      3  C   UNL A   1      34.765  21.035  25.335  1.00  0.00     0.229 C 
ATOM      4  O   UNL A   1      33.935  20.124  25.229  1.00  0.00    -0.275 OA
ATOM      5  H   UNL A   1      35.989  20.056  24.132  1.00  0.00     0.163 HD
BRANCH   3   6
ATOM      6  C   UNL A   1      34.474  22.187  26.293  1.00  0.00     0.142 C 
ATOM      7  N   UNL A   1      32.548  23.639  26.577  1.00  0.00    -0.331 N 
ATOM      8  C   UNL A   1      32.639  22.790  27.767  1.00  0.00     0.263 C 
ATOM      9  C   UNL A   1      33.631  23.281  25.645  1.00  0.00     0.193 C 
ATOM     10  H   UNL A   1      32.668  24.608  26.870  1.00  0.00     0.348 HD
ATOM     11  C   UNL A   1      33.817  21.839  27.611  1.00  0.00     0.081 C 
ATOM     12  C   UNL A   1      34.470  24.537  25.388  1.00  0.00     0.076 C 
BRANCH   7  13
ATOM     13  C   UNL A   1      31.221  23.613  25.939  1.00  0.00     0.273 C 
BRANCH  13  14
ATOM     14  C   UNL A   1      30.342  24.858  26.128  1.00  0.00     0.136 C 
BRANCH  14  15
ATOM     15  S   UNL A   1      30.380  26.051  24.735  1.00  0.00    -0.120 SA
BRANCH  15  16
ATOM     16  C   UNL A   1      31.302  27.409  25.422  1.00  0.00     0.007 A 
ATOM     17  C   UNL A   1      33.395  30.683  27.290  1.00  0.00     0.044 C 
ATOM     18  C   UNL A   1      32.688  29.536  26.634  1.00  0.00    -0.051 A 
ATOM     19  C   UNL A   1      32.650  28.278  27.244  1.00  0.00     0.004 A 
ATOM     20  C   UNL A   1      32.086  29.703  25.385  1.00  0.00     0.004 A 
ATOM     21  C   UNL A   1      31.958  27.223  26.643  1.00  0.00     0.015 A 
ATOM     22  C   UNL A   1      31.410  28.643  24.779  1.00  0.00     0.015 A 
ENDBRANCH  15  16
ENDBRANCH  14  15
ENDBRANCH  13  14
ENDBRANCH   7  13
ENDBRANCH   3   6
ENDBRANCH   1   2
BRANCH   1  23
ATOM     23  C   UNL A   1      38.107  21.713  25.482  1.00  0.00     0.042 C 
BRANCH  23  24
ATOM     24  C   UNL A   1      38.434  23.026  26.174  1.00  0.00     0.118 C 
BRANCH  24  25
ATOM     25  N   UNL A   1      39.751  22.950  26.818  1.00  0.00    -0.352 N 
ATOM     26  C   UNL A   1      40.481  23.952  27.426  1.00  0.00     0.251 C 
ATOM     27  H   UNL A   1      40.173  22.059  26.817  1.00  0.00     0.163 HD
ATOM     28  O   UNL A   1      41.610  23.783  27.850  1.00  0.00    -0.269 OA
BRANCH  26  29
ATOM     29  C   UNL A   1      39.784  25.234  27.598  1.00  0.00     0.039 A 
ATOM     30  C   UNL A   1      40.191  26.286  26.772  1.00  0.00     0.014 A 
ATOM     31  C   UNL A   1      39.105  25.453  28.793  1.00  0.00     0.014 A 
ATOM     32  C   UNL A   1      40.099  27.588  27.246  1.00  0.00     0.010 A 
ATOM     33  C   UNL A   1      39.099  26.739  29.296  1.00  0.00     0.010 A 
ATOM     34  C   UNL A   1      39.651  27.797  28.550  1.00  0.00    -0.014 A 
BRANCH  34  35
ATOM     35  C   UNL A   1      39.826  29.058  29.265  1.00  0.00     0.031 A 
ATOM     36  C   UNL A   1      38.817  30.133  29.110  1.00  0.00     0.074 A 
ATOM     37  C   UNL A   1      40.856  29.233  30.122  1.00  0.00     0.049 A 
ATOM     38  N   UNL A   1      38.981  31.359  29.478  1.00  0.00    -0.248 NA
ATOM     39  C   UNL A   1      37.550  29.915  28.424  1.00  0.00     0.031 C 
ATOM     40  C   UNL A   1      40.951  30.240  31.175  1.00  0.00     0.029 A 
ATOM     41  N   UNL A   1      42.123  28.659  30.088  1.00  0.00    -0.354 N 
ATOM     42  C   UNL A   1      37.774  32.011  29.350  1.00  0.00     0.074 A 
ATOM     43  C   UNL A   1      36.957  31.098  28.593  1.00  0.00     0.031 C 
ATOM     44  C   UNL A   1      42.235  30.379  31.537  1.00  0.00     0.029 A 
ATOM     45  C   UNL A   1      43.035  29.580  30.626  1.00  0.00     0.049 A 
ATOM     46  H   UNL A   1      42.341  27.761  29.747  1.00  0.00     0.167 HD
ATOM     47  C   UNL A   1      37.586  33.187  30.021  1.00  0.00     0.037 A 
ATOM     48  C   UNL A   1      44.080  30.069  29.894  1.00  0.00     0.037 A 
ATOM     49  C   UNL A   1      38.861  33.692  30.542  1.00  0.00     0.049 A 
ATOM     50  C   UNL A   1      44.036  31.564  29.658  1.00  0.00     0.074 A 
ATOM     51  C   UNL A   1      39.449  33.679  31.797  1.00  0.00     0.029 A 
ATOM     52  N   UNL A   1      39.858  34.074  29.649  1.00  0.00    -0.354 N 
ATOM     53  N   UNL A   1      42.994  32.308  29.904  1.00  0.00    -0.248 NA
ATOM     54  C   UNL A   1      45.145  32.333  29.099  1.00  0.00     0.031 C 
ATOM     55  C   UNL A   1      40.827  33.984  31.641  1.00  0.00     0.029 A 
ATOM     56  C   UNL A   1      41.073  34.207  30.296  1.00  0.00     0.049 A 
ATOM     57  H   UNL A   1      39.719  34.229  28.687  1.00  0.00     0.167 HD
ATOM     58  C   UNL A   1      43.237  33.595  29.499  1.00  0.00     0.074 A 
ATOM     59  C   UNL A   1      44.614  33.569  29.041  1.00  0.00     0.031 C 
ATOM     60  C   UNL A   1      42.275  34.564  29.554  1.00  0.00     0.037 A 
BRANCH  47  61
ATOM     61  C   UNL A   1      36.226  33.737  30.451  1.00  0.00     0.058 A 
ATOM     62  C   UNL A   1      35.340  34.285  29.492  1.00  0.00     0.135 A 
ATOM     63  C   UNL A   1      35.768  33.866  31.779  1.00  0.00     0.135 A 
ATOM     64  F   UNL A   1      35.572  34.170  28.177  1.00  0.00    -0.206 F 
ATOM     65  C   UNL A   1      34.175  34.988  29.830  1.00  0.00     0.059 A 
ATOM     66  C   UNL A   1      34.629  34.588  32.145  1.00  0.00     0.059 A 
ATOM     67  F   UNL A   1      36.370  33.267  32.807  1.00  0.00    -0.206 F 
ATOM     68  C   UNL A   1      33.845  35.166  31.165  1.00  0.00     0.060 A 
BRANCH  68  69
ATOM     69  S   UNL A   1      32.394  36.136  31.605  1.00  0.00     0.124 S 
ATOM     70  O   UNL A   1      31.815  36.431  30.299  1.00  0.00    -0.237 OA
ATOM     71  O   UNL A   1      31.644  35.205  32.441  1.00  0.00    -0.237 OA
ATOM     72  O   UNL A   1      32.954  37.289  32.307  1.00  0.00    -0.744 OA
ENDBRANCH  68  69
ENDBRANCH  47  61
BRANCH  48  73
ATOM     73  C   UNL A   1      44.676  29.062  28.978  1.00  0.00     0.058 A 
ATOM     74  C   UNL A   1      44.222  29.064  27.647  1.00  0.00     0.135 A 
ATOM     75  C   UNL A   1      45.934  28.499  29.239  1.00  0.00     0.135 A 
ATOM     76  F   UNL A   1      43.014  29.569  27.350  1.00  0.00    -0.206 F 
ATOM     77  C   UNL A   1      45.056  28.708  26.594  1.00  0.00     0.059 A 
ATOM     78  C   UNL A   1      46.786  28.128  28.197  1.00  0.00     0.059 A 
ATOM     79  F   UNL A   1      46.411  28.462  30.492  1.00  0.00    -0.206 F 
ATOM     80  C   UNL A   1      46.363  28.319  26.880  1.00  0.00     0.060 A 
BRANCH  80  81
ATOM     81  S   UNL A   1      47.544  28.302  25.511  1.00  0.00     0.124 S 
ATOM     82  O   UNL A   1      46.771  28.906  24.432  1.00  0.00    -0.237 OA
ATOM     83  O   UNL A   1      48.625  29.125  26.052  1.00  0.00    -0.237 OA
ATOM     84  O   UNL A   1      47.853  26.886  25.352  1.00  0.00    -0.744 OA
ENDBRANCH  80  81
ENDBRANCH  48  73
BRANCH  60  85
ATOM     85  C   UNL A   1      42.387  35.954  28.973  1.00  0.00     0.058 A 
ATOM     86  C   UNL A   1      43.155  36.987  29.539  1.00  0.00     0.135 A 
ATOM     87  C   UNL A   1      41.815  36.242  27.710  1.00  0.00     0.135 A 
ATOM     88  F   UNL A   1      43.832  36.803  30.682  1.00  0.00    -0.206 F 
ATOM     89  C   UNL A   1      43.299  38.235  28.928  1.00  0.00     0.059 A 
ATOM     90  C   UNL A   1      41.988  37.460  27.058  1.00  0.00     0.059 A 
ATOM     91  F   UNL A   1      41.069  35.335  27.060  1.00  0.00    -0.206 F 
ATOM     92  C   UNL A   1      42.713  38.463  27.686  1.00  0.00     0.060 A 
BRANCH  92  93
ATOM     93  S   UNL A   1      42.948  40.043  26.849  1.00  0.00     0.124 S 
ATOM     94  O   UNL A   1      43.201  40.935  27.975  1.00  0.00    -0.237 OA
ATOM     95  O   UNL A   1      44.093  39.788  25.979  1.00  0.00    -0.237 OA
ATOM     96  O   UNL A   1      41.679  40.240  26.156  1.00  0.00    -0.744 OA
ENDBRANCH  92  93
ENDBRANCH  60  85
ENDBRANCH  34  35
ENDBRANCH  26  29
ENDBRANCH  24  25
ENDBRANCH  23  24
ENDBRANCH   1  23
TORSDOF 17
ENDMDL
MODEL 3
REMARK VINA RESULT:     -12.9      1.387      2.077
REMARK SMILES Cc1ccc(SCC[N@H+]2CC[C@@H](C(=O)NCCCNC(=O)c3ccc(-c4c5nc(c(-c6c(F)cc(S(=O)(=O)[O-])cc6F)c6ccc([nH]6)c(-c6c(F)cc(S(=O)(=O)[O-])cc6F)c6nc(c(-c7c(F)cc(S(=O)(=O)[O-])cc7F)c7ccc4[nH]7)C=C6)C=C5)cc3)[C@@H]2C)cc1
REMARK SMILES IDX 16 1 15 2 13 3 14 4 12 6 9 7 10 8 88 9 11 11 89 12 8 13 7 14
REMARK SMILES IDX 6 15 5 16 1 17 2 18 3 19 91 20 4 21 90 22 17 23 18 24 19 25
REMARK SMILES IDX 20 26 21 28 22 29 23 30 87 31 24 32 86 33 25 34 26 35 27 36
REMARK SMILES IDX 80 37 28 38 85 39 79 40 81 41 29 42 84 43 78 44 77 45 30 47
REMARK SMILES IDX 64 48 43 49 63 50 44 51 47 52 62 53 82 54 45 55 46 56 61 58
REMARK SMILES IDX 83 59 48 60 31 61 32 62 41 63 33 64 34 65 40 66 42 67 35 68
REMARK SMILES IDX 36 69 37 70 38 71 39 72 65 73 66 74 75 75 67 76 68 77 74 78
REMARK SMILES IDX 76 79 69 80 70 81 71 82 72 83 73 84 49 85 50 86 59 87 51 88
REMARK SMILES IDX 52 89 58 90 60 91 53 92 54 93 55 94 56 95 57 96
REMARK H PARENT 15 5 9 10 19 27 81 46 47 57
REMARK Flexibility Score: inf
ROOT
ATOM      1  C   UNL A   1      33.216  29.728  25.342  1.00  0.00     0.117 C 
ENDROOT
BRANCH   1   2
ATOM      2  N   UNL A   1      33.782  28.388  25.311  1.00  0.00    -0.356 N 
ATOM      3  C   UNL A   1      33.284  27.192  24.895  1.00  0.00     0.229 C 
ATOM      4  O   UNL A   1      34.060  26.229  24.901  1.00  0.00    -0.275 OA
ATOM      5  H   UNL A   1      34.703  28.337  25.656  1.00  0.00     0.163 HD
BRANCH   3   6
ATOM      6  C   UNL A   1      31.834  26.965  24.474  1.00  0.00     0.142 C 
ATOM      7  N   UNL A   1      30.568  24.957  23.962  1.00  0.00    -0.331 N 
ATOM      8  C   UNL A   1      30.028  25.513  25.205  1.00  0.00     0.263 C 
ATOM      9  C   UNL A   1      31.688  25.798  23.504  1.00  0.00     0.193 C 
ATOM     10  H   UNL A   1      29.829  24.975  23.259  1.00  0.00     0.348 HD
ATOM     11  C   UNL A   1      30.820  26.757  25.579  1.00  0.00     0.081 C 
ATOM     12  C   UNL A   1      31.358  26.298  22.093  1.00  0.00     0.076 C 
BRANCH   7  13
ATOM     13  C   UNL A   1      30.936  23.535  24.068  1.00  0.00     0.273 C 
BRANCH  13  14
ATOM     14  C   UNL A   1      32.359  23.158  23.628  1.00  0.00     0.136 C 
BRANCH  14  15
ATOM     15  S   UNL A   1      33.428  22.486  24.959  1.00  0.00    -0.120 SA
BRANCH  15  16
ATOM     16  C   UNL A   1      33.501  20.756  24.552  1.00  0.00     0.007 A 
ATOM     17  C   UNL A   1      33.890  16.608  23.441  1.00  0.00     0.044 C 
ATOM     18  C   UNL A   1      33.750  18.043  23.849  1.00  0.00    -0.051 A 
ATOM     19  C   UNL A   1      34.760  18.681  24.576  1.00  0.00     0.004 A 
ATOM     20  C   UNL A   1      32.588  18.753  23.536  1.00  0.00     0.004 A 
ATOM     21  C   UNL A   1      34.638  20.029  24.921  1.00  0.00     0.015 A 
ATOM     22  C   UNL A   1      32.462  20.095  23.897  1.00  0.00     0.015 A 
ENDBRANCH  15  16
ENDBRANCH  14  15
ENDBRANCH  13  14
ENDBRANCH   7  13
ENDBRANCH   3   6
ENDBRANCH   1   2
BRANCH   1  23
ATOM     23  C   UNL A   1      33.123  30.326  26.738  1.00  0.00     0.042 C 
BRANCH  23  24
ATOM     24  C   UNL A   1      34.248  29.928  27.680  1.00  0.00     0.118 C 
BRANCH  24  25
ATOM     25  N   UNL A   1      35.104  31.085  27.970  1.00  0.00    -0.352 N 
ATOM     26  C   UNL A   1      36.435  31.112  28.335  1.00  0.00     0.251 C 
ATOM     27  H   UNL A   1      34.668  31.965  27.894  1.00  0.00     0.163 HD
ATOM     28  O   UNL A   1      37.017  32.138  28.637  1.00  0.00    -0.269 OA
BRANCH  26  29
ATOM     29  C   UNL A   1      37.141  29.824  28.270  1.00  0.00     0.039 A 
ATOM     30  C   UNL A   1      37.218  29.090  29.458  1.00  0.00     0.014 A 
ATOM     31  C   UNL A   1      38.020  29.614  27.212  1.00  0.00     0.014 A 
ATOM     32  C   UNL A   1      38.321  28.273  29.673  1.00  0.00     0.010 A 
ATOM     33  C   UNL A   1      39.157  28.872  27.467  1.00  0.00     0.010 A 
ATOM     34  C   UNL A   1      39.336  28.253  28.718  1.00  0.00    -0.014 A 
BRANCH  34  35
ATOM     35  C   UNL A   1      40.668  27.712  28.976  1.00  0.00     0.031 A 
ATOM     36  C   UNL A   1      40.973  26.309  28.606  1.00  0.00     0.074 A 
ATOM     37  C   UNL A   1      41.648  28.493  29.482  1.00  0.00     0.049 A 
ATOM     38  N   UNL A   1      42.008  25.648  29.003  1.00  0.00    -0.248 NA
ATOM     39  C   UNL A   1      40.056  25.499  27.813  1.00  0.00     0.031 C 
ATOM     40  C   UNL A   1      43.084  28.231  29.430  1.00  0.00     0.029 A 
ATOM     41  N   UNL A   1      41.535  29.593  30.326  1.00  0.00    -0.354 N 
ATOM     42  C   UNL A   1      42.050  24.458  28.309  1.00  0.00     0.074 A 
ATOM     43  C   UNL A   1      40.760  24.376  27.670  1.00  0.00     0.031 C 
ATOM     44  C   UNL A   1      43.701  28.977  30.358  1.00  0.00     0.029 A 
ATOM     45  C   UNL A   1      42.674  29.633  31.147  1.00  0.00     0.049 A 
ATOM     46  H   UNL A   1      40.787  30.233  30.344  1.00  0.00     0.167 HD
ATOM     47  C   UNL A   1      43.226  23.764  28.262  1.00  0.00     0.037 A 
ATOM     48  C   UNL A   1      42.583  29.550  32.508  1.00  0.00     0.037 A 
ATOM     49  C   UNL A   1      44.180  24.301  29.239  1.00  0.00     0.049 A 
ATOM     50  C   UNL A   1      43.256  28.334  33.108  1.00  0.00     0.074 A 
ATOM     51  C   UNL A   1      45.279  25.139  29.135  1.00  0.00     0.029 A 
ATOM     52  N   UNL A   1      43.891  24.206  30.597  1.00  0.00    -0.354 N 
ATOM     53  N   UNL A   1      43.679  27.318  32.409  1.00  0.00    -0.248 NA
ATOM     54  C   UNL A   1      43.478  28.149  34.540  1.00  0.00     0.031 C 
ATOM     55  C   UNL A   1      45.602  25.605  30.436  1.00  0.00     0.029 A 
ATOM     56  C   UNL A   1      44.717  25.033  31.335  1.00  0.00     0.049 A 
ATOM     57  H   UNL A   1      43.193  23.627  30.981  1.00  0.00     0.167 HD
ATOM     58  C   UNL A   1      44.154  26.343  33.249  1.00  0.00     0.074 A 
ATOM     59  C   UNL A   1      44.046  26.930  34.571  1.00  0.00     0.031 C 
ATOM     60  C   UNL A   1      44.572  25.128  32.782  1.00  0.00     0.037 A 
BRANCH  47  61
ATOM     61  C   UNL A   1      43.620  22.791  27.151  1.00  0.00     0.058 A 
ATOM     62  C   UNL A   1      42.937  21.559  27.004  1.00  0.00     0.135 A 
ATOM     63  C   UNL A   1      44.713  22.938  26.272  1.00  0.00     0.135 A 
ATOM     64  F   UNL A   1      41.820  21.290  27.694  1.00  0.00    -0.206 F 
ATOM     65  C   UNL A   1      43.369  20.534  26.149  1.00  0.00     0.059 A 
ATOM     66  C   UNL A   1      45.182  21.922  25.434  1.00  0.00     0.059 A 
ATOM     67  F   UNL A   1      45.374  24.087  26.135  1.00  0.00    -0.206 F 
ATOM     68  C   UNL A   1      44.516  20.712  25.392  1.00  0.00     0.060 A 
BRANCH  68  69
ATOM     69  S   UNL A   1      45.119  19.370  24.354  1.00  0.00     0.124 S 
ATOM     70  O   UNL A   1      44.634  19.763  23.035  1.00  0.00    -0.237 OA
ATOM     71  O   UNL A   1      46.561  19.450  24.555  1.00  0.00    -0.237 OA
ATOM     72  O   UNL A   1      44.476  18.185  24.920  1.00  0.00    -0.744 OA
ENDBRANCH  68  69
ENDBRANCH  47  61
BRANCH  48  73
ATOM     73  C   UNL A   1      41.392  30.245  33.060  1.00  0.00     0.058 A 
ATOM     74  C   UNL A   1      41.474  31.643  33.192  1.00  0.00     0.135 A 
ATOM     75  C   UNL A   1      40.115  29.670  32.980  1.00  0.00     0.135 A 
ATOM     76  F   UNL A   1      42.673  32.238  33.297  1.00  0.00    -0.206 F 
ATOM     77  C   UNL A   1      40.355  32.453  33.051  1.00  0.00     0.059 A 
ATOM     78  C   UNL A   1      38.976  30.465  32.844  1.00  0.00     0.059 A 
ATOM     79  F   UNL A   1      39.978  28.341  32.864  1.00  0.00    -0.206 F 
ATOM     80  C   UNL A   1      39.123  31.853  32.796  1.00  0.00     0.060 A 
BRANCH  80  81
ATOM     81  S   UNL A   1      37.795  32.910  32.174  1.00  0.00     0.124 S 
ATOM     82  O   UNL A   1      38.462  33.642  31.103  1.00  0.00    -0.237 OA
ATOM     83  O   UNL A   1      36.812  31.916  31.745  1.00  0.00    -0.237 OA
ATOM     84  O   UNL A   1      37.420  33.698  33.342  1.00  0.00    -0.744 OA
ENDBRANCH  80  81
ENDBRANCH  48  73
BRANCH  60  85
ATOM     85  C   UNL A   1      44.942  23.936  33.632  1.00  0.00     0.058 A 
ATOM     86  C   UNL A   1      44.040  22.927  34.012  1.00  0.00     0.135 A 
ATOM     87  C   UNL A   1      46.296  23.704  33.976  1.00  0.00     0.135 A 
ATOM     88  F   UNL A   1      42.747  22.980  33.657  1.00  0.00    -0.206 F 
ATOM     89  C   UNL A   1      44.438  21.797  34.731  1.00  0.00     0.059 A 
ATOM     90  C   UNL A   1      46.724  22.560  34.645  1.00  0.00     0.059 A 
ATOM     91  F   UNL A   1      47.256  24.587  33.658  1.00  0.00    -0.206 F 
ATOM     92  C   UNL A   1      45.783  21.621  35.042  1.00  0.00     0.060 A 
BRANCH  92  93
ATOM     93  S   UNL A   1      46.327  20.134  35.907  1.00  0.00     0.124 S 
ATOM     94  O   UNL A   1      45.796  20.365  37.246  1.00  0.00    -0.237 OA
ATOM     95  O   UNL A   1      45.686  19.061  35.152  1.00  0.00    -0.237 OA
ATOM     96  O   UNL A   1      47.780  20.194  35.782  1.00  0.00    -0.744 OA
ENDBRANCH  92  93
ENDBRANCH  60  85
ENDBRANCH  34  35
ENDBRANCH  26  29
ENDBRANCH  24  25
ENDBRANCH  23  24
ENDBRANCH   1  23
TORSDOF 17
ENDMDL
