MODEL 1
REMARK VINA RESULT:     -15.1      0.000      0.000
REMARK SMILES Cc1ccccc1/C=C1\SC(=O)N(CC(=O)Nc2ccccc2C(=O)NCCCNC(=O)c2ccc(-c3c4nc(c(-c5c(F)cc(S(=O)(=O)[O-])cc5F)c5ccc([nH]5)c(-c5c(F)cc(S(=O)(=O)[O-])cc5F)c5nc(c(-c6c(F)cc(S(=O)(=O)[O-])cc6F)c6ccc3[nH]6)C=C5)C=C4)cc2)C1=O
REMARK SMILES IDX 27 1 26 2 24 3 25 4 23 6 18 7 19 8 20 9 22 10 21 11 17 12
REMARK SMILES IDX 15 13 16 14 14 16 13 17 8 18 9 19 10 20 99 21 11 22 100 23
REMARK SMILES IDX 12 24 7 25 1 26 2 27 3 28 4 29 6 30 5 31 28 32 29 33 30 34
REMARK SMILES IDX 31 35 32 37 33 38 34 39 98 40 35 41 97 42 36 43 37 44 38 45
REMARK SMILES IDX 91 46 39 47 96 48 90 49 92 50 40 51 95 52 89 53 88 54 41 56
REMARK SMILES IDX 75 57 54 58 74 59 55 60 58 61 73 62 93 63 56 64 57 65 72 67
REMARK SMILES IDX 94 68 59 69 42 70 43 71 52 72 44 73 45 74 51 75 53 76 46 77
REMARK SMILES IDX 47 78 48 79 49 80 50 81 76 82 77 83 86 84 78 85 79 86 85 87
REMARK SMILES IDX 87 88 80 89 81 90 82 91 83 92 84 93 60 94 61 95 70 96 62 97
REMARK SMILES IDX 63 98 69 99 71 100 64 101 65 102 66 103 67 104 68 105
REMARK H PARENT 26 5 17 15 30 36 92 55 58 66
REMARK Flexibility Score: inf
ROOT
ATOM      1  C   UNL A   1      32.234  29.715  26.409  1.00  0.00     0.118 C 
ENDROOT
BRANCH   1   2
ATOM      2  N   UNL A   1      31.349  30.091  25.297  1.00  0.00    -0.352 N 
ATOM      3  C   UNL A   1      30.955  29.593  24.073  1.00  0.00     0.253 C 
ATOM      4  O   UNL A   1      29.977  30.111  23.535  1.00  0.00    -0.269 OA
ATOM      5  H   UNL A   1      30.909  30.952  25.480  1.00  0.00     0.163 HD
BRANCH   3   6
ATOM      6  C   UNL A   1      31.604  28.476  23.350  1.00  0.00     0.063 A 
ATOM      7  C   UNL A   1      31.326  27.107  23.605  1.00  0.00     0.054 A 
ATOM      8  C   UNL A   1      32.180  26.133  23.035  1.00  0.00     0.027 A 
ATOM      9  C   UNL A   1      33.267  26.472  22.234  1.00  0.00     0.002 A 
ATOM     10  C   UNL A   1      32.754  28.785  22.599  1.00  0.00     0.016 A 
ATOM     11  C   UNL A   1      33.564  27.805  22.028  1.00  0.00     0.001 A 
BRANCH   7  12
ATOM     12  N   UNL A   1      30.468  26.535  24.571  1.00  0.00    -0.324 N 
ATOM     13  C   UNL A   1      30.563  25.887  25.760  1.00  0.00     0.244 C 
ATOM     14  O   UNL A   1      29.479  25.599  26.291  1.00  0.00    -0.273 OA
ATOM     15  H   UNL A   1      29.526  26.635  24.303  1.00  0.00     0.170 HD
BRANCH  13  16
ATOM     16  C   UNL A   1      31.841  25.706  26.554  1.00  0.00     0.230 C 
BRANCH  16  17
ATOM     17  N   UNL A   1      32.504  24.444  26.394  1.00  0.00    -0.259 N 
ATOM     18  C   UNL A   1      32.247  21.017  25.874  1.00  0.00     0.029 C 
ATOM     19  C   UNL A   1      32.859  22.133  26.323  1.00  0.00     0.083 C 
ATOM     20  S   UNL A   1      34.387  22.816  25.954  1.00  0.00    -0.022 SA
ATOM     21  C   UNL A   1      32.021  23.246  26.893  1.00  0.00     0.268 C 
ATOM     22  C   UNL A   1      33.767  24.430  25.874  1.00  0.00     0.294 C 
ATOM     23  O   UNL A   1      31.058  23.092  27.630  1.00  0.00    -0.268 OA
ATOM     24  O   UNL A   1      34.401  25.360  25.424  1.00  0.00    -0.261 OA
BRANCH  18  25
ATOM     25  C   UNL A   1      32.540  20.077  24.736  1.00  0.00    -0.021 A 
ATOM     26  C   UNL A   1      32.194  21.546  22.636  1.00  0.00     0.045 C 
ATOM     27  C   UNL A   1      32.349  20.267  23.362  1.00  0.00    -0.044 A 
ATOM     28  C   UNL A   1      32.314  19.171  22.478  1.00  0.00     0.004 A 
ATOM     29  C   UNL A   1      32.627  17.893  22.883  1.00  0.00     0.000 A 
ATOM     30  C   UNL A   1      32.907  18.765  25.118  1.00  0.00     0.008 A 
ATOM     31  C   UNL A   1      32.971  17.697  24.205  1.00  0.00     0.001 A 
ENDBRANCH  18  25
ENDBRANCH  16  17
ENDBRANCH  13  16
ENDBRANCH   7  12
ENDBRANCH   3   6
ENDBRANCH   1   2
BRANCH   1  32
ATOM     32  C   UNL A   1      33.663  29.302  26.059  1.00  0.00     0.042 C 
BRANCH  32  33
ATOM     33  C   UNL A   1      34.663  29.351  27.216  1.00  0.00     0.118 C 
BRANCH  33  34
ATOM     34  N   UNL A   1      35.500  30.550  27.292  1.00  0.00    -0.352 N 
ATOM     35  C   UNL A   1      36.708  30.767  27.944  1.00  0.00     0.251 C 
ATOM     36  H   UNL A   1      35.149  31.328  26.802  1.00  0.00     0.163 HD
ATOM     37  O   UNL A   1      37.026  31.913  28.248  1.00  0.00    -0.269 OA
BRANCH  35  38
ATOM     38  C   UNL A   1      37.662  29.652  28.160  1.00  0.00     0.039 A 
ATOM     39  C   UNL A   1      37.511  28.854  29.311  1.00  0.00     0.014 A 
ATOM     40  C   UNL A   1      38.806  29.539  27.384  1.00  0.00     0.014 A 
ATOM     41  C   UNL A   1      38.596  28.127  29.801  1.00  0.00     0.010 A 
ATOM     42  C   UNL A   1      39.911  28.932  27.932  1.00  0.00     0.010 A 
ATOM     43  C   UNL A   1      39.822  28.281  29.173  1.00  0.00    -0.014 A 
BRANCH  43  44
ATOM     44  C   UNL A   1      41.083  27.703  29.605  1.00  0.00     0.031 A 
ATOM     45  C   UNL A   1      41.313  26.326  29.120  1.00  0.00     0.074 A 
ATOM     46  C   UNL A   1      42.043  28.501  30.133  1.00  0.00     0.049 A 
ATOM     47  N   UNL A   1      42.361  25.635  29.357  1.00  0.00    -0.248 NA
ATOM     48  C   UNL A   1      40.319  25.593  28.326  1.00  0.00     0.031 C 
ATOM     49  C   UNL A   1      43.492  28.313  30.151  1.00  0.00     0.029 A 
ATOM     50  N   UNL A   1      41.861  29.620  30.960  1.00  0.00    -0.354 N 
ATOM     51  C   UNL A   1      42.313  24.504  28.567  1.00  0.00     0.074 A 
ATOM     52  C   UNL A   1      40.985  24.476  28.023  1.00  0.00     0.031 C 
ATOM     53  C   UNL A   1      44.018  29.055  31.147  1.00  0.00     0.029 A 
ATOM     54  C   UNL A   1      42.894  29.594  31.904  1.00  0.00     0.049 A 
ATOM     55  H   UNL A   1      41.146  30.292  30.891  1.00  0.00     0.167 HD
ATOM     56  C   UNL A   1      43.472  23.812  28.396  1.00  0.00     0.037 A 
ATOM     57  C   UNL A   1      42.605  29.363  33.215  1.00  0.00     0.037 A 
ATOM     58  C   UNL A   1      44.451  24.301  29.369  1.00  0.00     0.049 A 
ATOM     59  C   UNL A   1      43.312  28.110  33.647  1.00  0.00     0.074 A 
ATOM     60  C   UNL A   1      45.455  25.248  29.288  1.00  0.00     0.029 A 
ATOM     61  N   UNL A   1      44.185  24.112  30.723  1.00  0.00    -0.354 N 
ATOM     62  N   UNL A   1      43.514  27.084  32.863  1.00  0.00    -0.248 NA
ATOM     63  C   UNL A   1      43.956  27.983  34.946  1.00  0.00     0.031 C 
ATOM     64  C   UNL A   1      45.706  25.714  30.610  1.00  0.00     0.029 A 
ATOM     65  C   UNL A   1      44.888  25.020  31.491  1.00  0.00     0.049 A 
ATOM     66  H   UNL A   1      43.580  23.425  31.084  1.00  0.00     0.167 HD
ATOM     67  C   UNL A   1      44.327  26.194  33.507  1.00  0.00     0.074 A 
ATOM     68  C   UNL A   1      44.573  26.800  34.806  1.00  0.00     0.031 C 
ATOM     69  C   UNL A   1      44.749  25.028  32.942  1.00  0.00     0.037 A 
BRANCH  56  70
ATOM     70  C   UNL A   1      43.815  22.863  27.265  1.00  0.00     0.058 A 
ATOM     71  C   UNL A   1      43.050  21.686  27.099  1.00  0.00     0.135 A 
ATOM     72  C   UNL A   1      44.923  22.960  26.394  1.00  0.00     0.135 A 
ATOM     73  F   UNL A   1      41.964  21.450  27.849  1.00  0.00    -0.206 F 
ATOM     74  C   UNL A   1      43.374  20.682  26.182  1.00  0.00     0.059 A 
ATOM     75  C   UNL A   1      45.254  21.980  25.452  1.00  0.00     0.059 A 
ATOM     76  F   UNL A   1      45.772  23.990  26.420  1.00  0.00    -0.206 F 
ATOM     77  C   UNL A   1      44.485  20.833  25.365  1.00  0.00     0.060 A 
BRANCH  77  78
ATOM     78  S   UNL A   1      44.909  19.520  24.209  1.00  0.00     0.124 S 
ATOM     79  O   UNL A   1      44.135  18.397  24.730  1.00  0.00    -0.237 OA
ATOM     80  O   UNL A   1      44.453  20.071  22.936  1.00  0.00    -0.237 OA
ATOM     81  O   UNL A   1      46.357  19.395  24.349  1.00  0.00    -0.744 OA
ENDBRANCH  77  78
ENDBRANCH  56  70
BRANCH  57  82
ATOM     82  C   UNL A   1      41.213  29.778  33.586  1.00  0.00     0.058 A 
ATOM     83  C   UNL A   1      40.950  31.142  33.846  1.00  0.00     0.135 A 
ATOM     84  C   UNL A   1      40.105  28.972  33.286  1.00  0.00     0.135 A 
ATOM     85  F   UNL A   1      41.966  31.968  34.154  1.00  0.00    -0.206 F 
ATOM     86  C   UNL A   1      39.677  31.700  33.697  1.00  0.00     0.059 A 
ATOM     87  C   UNL A   1      38.822  29.511  33.139  1.00  0.00     0.059 A 
ATOM     88  F   UNL A   1      40.270  27.673  33.006  1.00  0.00    -0.206 F 
ATOM     89  C   UNL A   1      38.625  30.883  33.290  1.00  0.00     0.060 A 
BRANCH  89  90
ATOM     90  S   UNL A   1      37.019  31.628  32.894  1.00  0.00     0.124 S 
ATOM     91  O   UNL A   1      36.243  30.473  32.457  1.00  0.00    -0.237 OA
ATOM     92  O   UNL A   1      36.612  32.206  34.170  1.00  0.00    -0.237 OA
ATOM     93  O   UNL A   1      37.343  32.601  31.856  1.00  0.00    -0.744 OA
ENDBRANCH  89  90
ENDBRANCH  57  82
BRANCH  69  94
ATOM     94  C   UNL A   1      45.150  23.818  33.749  1.00  0.00     0.058 A 
ATOM     95  C   UNL A   1      44.283  22.738  34.001  1.00  0.00     0.135 A 
ATOM     96  C   UNL A   1      46.489  23.628  34.165  1.00  0.00     0.135 A 
ATOM     97  F   UNL A   1      43.036  22.697  33.512  1.00  0.00    -0.206 F 
ATOM     98  C   UNL A   1      44.671  21.622  34.732  1.00  0.00     0.059 A 
ATOM     99  C   UNL A   1      46.921  22.480  34.819  1.00  0.00     0.059 A 
ATOM    100  F   UNL A   1      47.441  24.543  33.931  1.00  0.00    -0.206 F 
ATOM    101  C   UNL A   1      45.991  21.504  35.144  1.00  0.00     0.060 A 
BRANCH 101 102
ATOM    102  S   UNL A   1      46.479  20.054  36.082  1.00  0.00     0.124 S 
ATOM    103  O   UNL A   1      45.935  18.983  35.253  1.00  0.00    -0.237 OA
ATOM    104  O   UNL A   1      47.935  20.163  36.099  1.00  0.00    -0.237 OA
ATOM    105  O   UNL A   1      45.826  20.250  37.372  1.00  0.00    -0.744 OA
ENDBRANCH 101 102
ENDBRANCH  69  94
ENDBRANCH  43  44
ENDBRANCH  35  38
ENDBRANCH  33  34
ENDBRANCH  32  33
ENDBRANCH   1  32
TORSDOF 17
ENDMDL
MODEL 2
REMARK VINA RESULT:     -14.5      1.255      2.148
REMARK SMILES Cc1ccccc1/C=C1\SC(=O)N(CC(=O)Nc2ccccc2C(=O)NCCCNC(=O)c2ccc(-c3c4nc(c(-c5c(F)cc(S(=O)(=O)[O-])cc5F)c5ccc([nH]5)c(-c5c(F)cc(S(=O)(=O)[O-])cc5F)c5nc(c(-c6c(F)cc(S(=O)(=O)[O-])cc6F)c6ccc3[nH]6)C=C5)C=C4)cc2)C1=O
REMARK SMILES IDX 27 1 26 2 24 3 25 4 23 6 18 7 19 8 20 9 22 10 21 11 17 12
REMARK SMILES IDX 15 13 16 14 14 16 13 17 8 18 9 19 10 20 99 21 11 22 100 23
REMARK SMILES IDX 12 24 7 25 1 26 2 27 3 28 4 29 6 30 5 31 28 32 29 33 30 34
REMARK SMILES IDX 31 35 32 37 33 38 34 39 98 40 35 41 97 42 36 43 37 44 38 45
REMARK SMILES IDX 91 46 39 47 96 48 90 49 92 50 40 51 95 52 89 53 88 54 41 56
REMARK SMILES IDX 75 57 54 58 74 59 55 60 58 61 73 62 93 63 56 64 57 65 72 67
REMARK SMILES IDX 94 68 59 69 42 70 43 71 52 72 44 73 45 74 51 75 53 76 46 77
REMARK SMILES IDX 47 78 48 79 49 80 50 81 76 82 77 83 86 84 78 85 79 86 85 87
REMARK SMILES IDX 87 88 80 89 81 90 82 91 83 92 84 93 60 94 61 95 70 96 62 97
REMARK SMILES IDX 63 98 69 99 71 100 64 101 65 102 66 103 67 104 68 105
REMARK H PARENT 26 5 17 15 30 36 92 55 58 66
REMARK Flexibility Score: inf
ROOT
ATOM      1  C   UNL A   1      32.431  29.957  25.970  1.00  0.00     0.118 C 
ENDROOT
BRANCH   1   2
ATOM      2  N   UNL A   1      32.753  29.294  24.699  1.00  0.00    -0.352 N 
ATOM      3  C   UNL A   1      32.482  28.106  24.053  1.00  0.00     0.253 C 
ATOM      4  O   UNL A   1      32.753  28.034  22.855  1.00  0.00    -0.269 OA
ATOM      5  H   UNL A   1      33.334  29.865  24.147  1.00  0.00     0.163 HD
BRANCH   3   6
ATOM      6  C   UNL A   1      31.880  26.906  24.676  1.00  0.00     0.063 A 
ATOM      7  C   UNL A   1      31.810  25.639  24.039  1.00  0.00     0.054 A 
ATOM      8  C   UNL A   1      30.998  24.639  24.623  1.00  0.00     0.027 A 
ATOM      9  C   UNL A   1      30.278  24.855  25.795  1.00  0.00     0.002 A 
ATOM     10  C   UNL A   1      31.081  27.113  25.816  1.00  0.00     0.016 A 
ATOM     11  C   UNL A   1      30.307  26.102  26.386  1.00  0.00     0.001 A 
BRANCH   7  12
ATOM     12  N   UNL A   1      32.224  25.269  22.739  1.00  0.00    -0.324 N 
ATOM     13  C   UNL A   1      33.223  24.560  22.154  1.00  0.00     0.244 C 
ATOM     14  O   UNL A   1      33.145  24.463  20.919  1.00  0.00    -0.273 OA
ATOM     15  H   UNL A   1      31.610  25.631  22.062  1.00  0.00     0.170 HD
BRANCH  13  16
ATOM     16  C   UNL A   1      34.250  23.726  22.893  1.00  0.00     0.230 C 
BRANCH  16  17
ATOM     17  N   UNL A   1      33.727  22.677  23.720  1.00  0.00    -0.259 N 
ATOM     18  C   UNL A   1      32.677  19.373  23.987  1.00  0.00     0.029 C 
ATOM     19  C   UNL A   1      32.697  20.673  24.351  1.00  0.00     0.083 C 
ATOM     20  S   UNL A   1      33.111  21.431  25.831  1.00  0.00    -0.022 SA
ATOM     21  C   UNL A   1      32.816  21.728  23.283  1.00  0.00     0.268 C 
ATOM     22  C   UNL A   1      33.998  22.700  25.058  1.00  0.00     0.294 C 
ATOM     23  O   UNL A   1      32.235  21.707  22.208  1.00  0.00    -0.268 OA
ATOM     24  O   UNL A   1      34.723  23.462  25.661  1.00  0.00    -0.261 OA
BRANCH  18  25
ATOM     25  C   UNL A   1      33.214  18.124  24.630  1.00  0.00    -0.021 A 
ATOM     26  C   UNL A   1      35.777  18.465  24.564  1.00  0.00     0.045 C 
ATOM     27  C   UNL A   1      34.537  17.672  24.715  1.00  0.00    -0.044 A 
ATOM     28  C   UNL A   1      34.824  16.324  25.005  1.00  0.00     0.004 A 
ATOM     29  C   UNL A   1      33.846  15.430  25.377  1.00  0.00     0.000 A 
ATOM     30  C   UNL A   1      32.233  17.200  25.063  1.00  0.00     0.008 A 
ATOM     31  C   UNL A   1      32.545  15.885  25.452  1.00  0.00     0.001 A 
ENDBRANCH  18  25
ENDBRANCH  16  17
ENDBRANCH  13  16
ENDBRANCH   7  12
ENDBRANCH   3   6
ENDBRANCH   1   2
BRANCH   1  32
ATOM     32  C   UNL A   1      33.221  29.525  27.206  1.00  0.00     0.042 C 
BRANCH  32  33
ATOM     33  C   UNL A   1      34.727  29.354  26.995  1.00  0.00     0.118 C 
BRANCH  33  34
ATOM     34  N   UNL A   1      35.543  30.554  27.184  1.00  0.00    -0.352 N 
ATOM     35  C   UNL A   1      36.711  30.746  27.912  1.00  0.00     0.251 C 
ATOM     36  H   UNL A   1      35.210  31.356  26.719  1.00  0.00     0.163 HD
ATOM     37  O   UNL A   1      36.997  31.876  28.296  1.00  0.00    -0.269 OA
BRANCH  35  38
ATOM     38  C   UNL A   1      37.666  29.630  28.118  1.00  0.00     0.039 A 
ATOM     39  C   UNL A   1      37.527  28.833  29.272  1.00  0.00     0.014 A 
ATOM     40  C   UNL A   1      38.801  29.515  27.330  1.00  0.00     0.014 A 
ATOM     41  C   UNL A   1      38.616  28.105  29.750  1.00  0.00     0.010 A 
ATOM     42  C   UNL A   1      39.911  28.907  27.865  1.00  0.00     0.010 A 
ATOM     43  C   UNL A   1      39.835  28.257  29.107  1.00  0.00    -0.014 A 
BRANCH  43  44
ATOM     44  C   UNL A   1      41.100  27.677  29.526  1.00  0.00     0.031 A 
ATOM     45  C   UNL A   1      41.320  26.298  29.045  1.00  0.00     0.074 A 
ATOM     46  C   UNL A   1      42.070  28.476  30.037  1.00  0.00     0.049 A 
ATOM     47  N   UNL A   1      42.370  25.605  29.271  1.00  0.00    -0.248 NA
ATOM     48  C   UNL A   1      40.314  25.563  28.268  1.00  0.00     0.031 C 
ATOM     49  C   UNL A   1      43.518  28.284  30.036  1.00  0.00     0.029 A 
ATOM     50  N   UNL A   1      41.902  29.600  30.861  1.00  0.00    -0.354 N 
ATOM     51  C   UNL A   1      42.308  24.470  28.488  1.00  0.00     0.074 A 
ATOM     52  C   UNL A   1      40.972  24.443  27.962  1.00  0.00     0.031 C 
ATOM     53  C   UNL A   1      44.059  29.029  31.022  1.00  0.00     0.029 A 
ATOM     54  C   UNL A   1      42.947  29.576  31.791  1.00  0.00     0.049 A 
ATOM     55  H   UNL A   1      41.187  30.273  30.797  1.00  0.00     0.167 HD
ATOM     56  C   UNL A   1      43.462  23.774  28.306  1.00  0.00     0.037 A 
ATOM     57  C   UNL A   1      42.675  29.352  33.107  1.00  0.00     0.037 A 
ATOM     58  C   UNL A   1      44.455  24.265  29.263  1.00  0.00     0.049 A 
ATOM     59  C   UNL A   1      43.384  28.099  33.536  1.00  0.00     0.074 A 
ATOM     60  C   UNL A   1      45.461  25.209  29.164  1.00  0.00     0.029 A 
ATOM     61  N   UNL A   1      44.207  24.084  30.620  1.00  0.00    -0.354 N 
ATOM     62  N   UNL A   1      43.573  27.068  32.754  1.00  0.00    -0.248 NA
ATOM     63  C   UNL A   1      44.045  27.977  34.827  1.00  0.00     0.031 C 
ATOM     64  C   UNL A   1      45.731  25.681  30.479  1.00  0.00     0.029 A 
ATOM     65  C   UNL A   1      44.923  24.993  31.375  1.00  0.00     0.049 A 
ATOM     66  H   UNL A   1      43.605  23.400  30.993  1.00  0.00     0.167 HD
ATOM     67  C   UNL A   1      44.392  26.180  33.392  1.00  0.00     0.074 A 
ATOM     68  C   UNL A   1      44.657  26.791  34.684  1.00  0.00     0.031 C 
ATOM     69  C   UNL A   1      44.804  25.009  32.827  1.00  0.00     0.037 A 
BRANCH  56  70
ATOM     70  C   UNL A   1      43.788  22.818  27.175  1.00  0.00     0.058 A 
ATOM     71  C   UNL A   1      43.082  21.597  27.082  1.00  0.00     0.135 A 
ATOM     72  C   UNL A   1      44.832  22.955  26.233  1.00  0.00     0.135 A 
ATOM     73  F   UNL A   1      42.059  21.320  27.904  1.00  0.00    -0.206 F 
ATOM     74  C   UNL A   1      43.405  20.591  26.167  1.00  0.00     0.059 A 
ATOM     75  C   UNL A   1      45.159  21.973  25.293  1.00  0.00     0.059 A 
ATOM     76  F   UNL A   1      45.622  24.031  26.185  1.00  0.00    -0.206 F 
ATOM     77  C   UNL A   1      44.452  20.783  25.278  1.00  0.00     0.060 A 
BRANCH  77  78
ATOM     78  S   UNL A   1      44.877  19.468  24.125  1.00  0.00     0.124 S 
ATOM     79  O   UNL A   1      44.115  18.342  24.656  1.00  0.00    -0.237 OA
ATOM     80  O   UNL A   1      44.410  20.010  22.853  1.00  0.00    -0.237 OA
ATOM     81  O   UNL A   1      46.328  19.353  24.256  1.00  0.00    -0.744 OA
ENDBRANCH  77  78
ENDBRANCH  56  70
BRANCH  57  82
ATOM     82  C   UNL A   1      41.289  29.773  33.494  1.00  0.00     0.058 A 
ATOM     83  C   UNL A   1      41.028  31.142  33.727  1.00  0.00     0.135 A 
ATOM     84  C   UNL A   1      40.177  28.958  33.234  1.00  0.00     0.135 A 
ATOM     85  F   UNL A   1      42.047  31.977  33.996  1.00  0.00    -0.206 F 
ATOM     86  C   UNL A   1      39.750  31.693  33.589  1.00  0.00     0.059 A 
ATOM     87  C   UNL A   1      38.890  29.490  33.100  1.00  0.00     0.059 A 
ATOM     88  F   UNL A   1      40.340  27.652  32.982  1.00  0.00    -0.206 F 
ATOM     89  C   UNL A   1      38.693  30.865  33.221  1.00  0.00     0.060 A 
BRANCH  89  90
ATOM     90  S   UNL A   1      37.078  31.597  32.838  1.00  0.00     0.124 S 
ATOM     91  O   UNL A   1      36.605  32.005  34.156  1.00  0.00    -0.237 OA
ATOM     92  O   UNL A   1      37.429  32.688  31.936  1.00  0.00    -0.237 OA
ATOM     93  O   UNL A   1      36.346  30.499  32.216  1.00  0.00    -0.744 OA
ENDBRANCH  89  90
ENDBRANCH  57  82
BRANCH  69  94
ATOM     94  C   UNL A   1      45.211  23.802  33.635  1.00  0.00     0.058 A 
ATOM     95  C   UNL A   1      46.497  23.642  34.186  1.00  0.00     0.135 A 
ATOM     96  C   UNL A   1      44.261  22.828  34.023  1.00  0.00     0.135 A 
ATOM     97  F   UNL A   1      47.449  24.575  34.054  1.00  0.00    -0.206 F 
ATOM     98  C   UNL A   1      46.853  22.532  34.943  1.00  0.00     0.059 A 
ATOM     99  C   UNL A   1      44.574  21.757  34.853  1.00  0.00     0.059 A 
ATOM    100  F   UNL A   1      42.981  22.890  33.630  1.00  0.00    -0.206 F 
ATOM    101  C   UNL A   1      45.886  21.590  35.265  1.00  0.00     0.060 A 
BRANCH 101 102
ATOM    102  S   UNL A   1      46.360  20.165  36.248  1.00  0.00     0.124 S 
ATOM    103  O   UNL A   1      45.733  19.081  35.499  1.00  0.00    -0.237 OA
ATOM    104  O   UNL A   1      47.819  20.212  36.191  1.00  0.00    -0.237 OA
ATOM    105  O   UNL A   1      45.781  20.449  37.557  1.00  0.00    -0.744 OA
ENDBRANCH 101 102
ENDBRANCH  69  94
ENDBRANCH  43  44
ENDBRANCH  35  38
ENDBRANCH  33  34
ENDBRANCH  32  33
ENDBRANCH   1  32
TORSDOF 17
ENDMDL
MODEL 3
REMARK VINA RESULT:     -14.2      1.559      2.054
REMARK SMILES Cc1ccccc1/C=C1\SC(=O)N(CC(=O)Nc2ccccc2C(=O)NCCCNC(=O)c2ccc(-c3c4nc(c(-c5c(F)cc(S(=O)(=O)[O-])cc5F)c5ccc([nH]5)c(-c5c(F)cc(S(=O)(=O)[O-])cc5F)c5nc(c(-c6c(F)cc(S(=O)(=O)[O-])cc6F)c6ccc3[nH]6)C=C5)C=C4)cc2)C1=O
REMARK SMILES IDX 27 1 26 2 24 3 25 4 23 6 18 7 19 8 20 9 22 10 21 11 17 12
REMARK SMILES IDX 15 13 16 14 14 16 13 17 8 18 9 19 10 20 99 21 11 22 100 23
REMARK SMILES IDX 12 24 7 25 1 26 2 27 3 28 4 29 6 30 5 31 28 32 29 33 30 34
REMARK SMILES IDX 31 35 32 37 33 38 34 39 98 40 35 41 97 42 36 43 37 44 38 45
REMARK SMILES IDX 91 46 39 47 96 48 90 49 92 50 40 51 95 52 89 53 88 54 41 56
REMARK SMILES IDX 75 57 54 58 74 59 55 60 58 61 73 62 93 63 56 64 57 65 72 67
REMARK SMILES IDX 94 68 59 69 42 70 43 71 52 72 44 73 45 74 51 75 53 76 46 77
REMARK SMILES IDX 47 78 48 79 49 80 50 81 76 82 77 83 86 84 78 85 79 86 85 87
REMARK SMILES IDX 87 88 80 89 81 90 82 91 83 92 84 93 60 94 61 95 70 96 62 97
REMARK SMILES IDX 63 98 69 99 71 100 64 101 65 102 66 103 67 104 68 105
REMARK H PARENT 26 5 17 15 30 36 92 55 58 66
REMARK Flexibility Score: inf
ROOT
ATOM      1  C   UNL A   1      31.437  29.030  25.171  1.00  0.00     0.118 C 
ENDROOT
BRANCH   1   2
ATOM      2  N   UNL A   1      30.757  29.184  23.877  1.00  0.00    -0.352 N 
ATOM      3  C   UNL A   1      30.453  28.420  22.769  1.00  0.00     0.253 C 
ATOM      4  O   UNL A   1      29.630  28.871  21.974  1.00  0.00    -0.269 OA
ATOM      5  H   UNL A   1      30.419  30.102  23.769  1.00  0.00     0.163 HD
BRANCH   3   6
ATOM      6  C   UNL A   1      31.027  27.092  22.457  1.00  0.00     0.063 A 
ATOM      7  C   UNL A   1      30.802  25.932  23.245  1.00  0.00     0.054 A 
ATOM      8  C   UNL A   1      31.595  24.788  22.995  1.00  0.00     0.027 A 
ATOM      9  C   UNL A   1      32.574  24.762  22.005  1.00  0.00     0.002 A 
ATOM     10  C   UNL A   1      32.075  27.055  21.518  1.00  0.00     0.016 A 
ATOM     11  C   UNL A   1      32.826  25.906  21.274  1.00  0.00     0.001 A 
BRANCH   7  12
ATOM     12  N   UNL A   1      30.072  25.797  24.447  1.00  0.00    -0.324 N 
ATOM     13  C   UNL A   1      30.315  25.586  25.766  1.00  0.00     0.244 C 
ATOM     14  O   UNL A   1      29.310  25.590  26.494  1.00  0.00    -0.273 OA
ATOM     15  H   UNL A   1      29.106  25.881  24.280  1.00  0.00     0.170 HD
BRANCH  13  16
ATOM     16  C   UNL A   1      31.687  25.576  26.409  1.00  0.00     0.230 C 
BRANCH  16  17
ATOM     17  N   UNL A   1      32.425  24.352  26.292  1.00  0.00    -0.259 N 
ATOM     18  C   UNL A   1      32.373  20.891  25.965  1.00  0.00     0.029 C 
ATOM     19  C   UNL A   1      32.926  22.067  26.332  1.00  0.00     0.083 C 
ATOM     20  S   UNL A   1      34.393  22.823  25.871  1.00  0.00    -0.022 SA
ATOM     21  C   UNL A   1      32.037  23.155  26.872  1.00  0.00     0.268 C 
ATOM     22  C   UNL A   1      33.668  24.388  25.728  1.00  0.00     0.294 C 
ATOM     23  O   UNL A   1      31.111  22.982  27.651  1.00  0.00    -0.268 OA
ATOM     24  O   UNL A   1      34.226  25.330  25.206  1.00  0.00    -0.261 OA
BRANCH  18  25
ATOM     25  C   UNL A   1      32.688  19.911  24.869  1.00  0.00    -0.021 A 
ATOM     26  C   UNL A   1      32.120  21.215  22.710  1.00  0.00     0.045 C 
ATOM     27  C   UNL A   1      32.416  19.999  23.499  1.00  0.00    -0.044 A 
ATOM     28  C   UNL A   1      32.430  18.852  22.682  1.00  0.00     0.004 A 
ATOM     29  C   UNL A   1      32.868  17.631  23.142  1.00  0.00     0.000 A 
ATOM     30  C   UNL A   1      33.181  18.658  25.305  1.00  0.00     0.008 A 
ATOM     31  C   UNL A   1      33.290  17.544  24.453  1.00  0.00     0.001 A 
ENDBRANCH  18  25
ENDBRANCH  16  17
ENDBRANCH  13  16
ENDBRANCH   7  12
ENDBRANCH   3   6
ENDBRANCH   1   2
BRANCH   1  32
ATOM     32  C   UNL A   1      32.916  29.409  25.234  1.00  0.00     0.042 C 
BRANCH  32  33
ATOM     33  C   UNL A   1      33.490  29.584  26.643  1.00  0.00     0.118 C 
BRANCH  33  34
ATOM     34  N   UNL A   1      34.077  30.891  26.939  1.00  0.00    -0.352 N 
ATOM     35  C   UNL A   1      35.107  31.242  27.805  1.00  0.00     0.251 C 
ATOM     36  H   UNL A   1      33.679  31.644  26.445  1.00  0.00     0.163 HD
ATOM     37  O   UNL A   1      35.163  32.392  28.231  1.00  0.00    -0.269 OA
BRANCH  35  38
ATOM     38  C   UNL A   1      36.195  30.283  28.115  1.00  0.00     0.039 A 
ATOM     39  C   UNL A   1      36.268  29.751  29.417  1.00  0.00     0.014 A 
ATOM     40  C   UNL A   1      37.245  30.094  27.229  1.00  0.00     0.014 A 
ATOM     41  C   UNL A   1      37.476  29.240  29.893  1.00  0.00     0.010 A 
ATOM     42  C   UNL A   1      38.466  29.713  27.732  1.00  0.00     0.010 A 
ATOM     43  C   UNL A   1      38.595  29.349  29.082  1.00  0.00    -0.014 A 
BRANCH  43  44
ATOM     44  C   UNL A   1      39.953  28.984  29.447  1.00  0.00     0.031 A 
ATOM     45  C   UNL A   1      40.327  27.603  29.076  1.00  0.00     0.074 A 
ATOM     46  C   UNL A   1      40.837  29.949  29.802  1.00  0.00     0.049 A 
ATOM     47  N   UNL A   1      41.475  27.079  29.277  1.00  0.00    -0.248 NA
ATOM     48  C   UNL A   1      39.380  26.670  28.453  1.00  0.00     0.031 C 
ATOM     49  C   UNL A   1      42.294  29.948  29.700  1.00  0.00     0.029 A 
ATOM     50  N   UNL A   1      40.573  31.119  30.532  1.00  0.00    -0.354 N 
ATOM     51  C   UNL A   1      41.516  25.873  28.608  1.00  0.00     0.074 A 
ATOM     52  C   UNL A   1      40.164  25.620  28.197  1.00  0.00     0.031 C 
ATOM     53  C   UNL A   1      42.795  30.853  30.567  1.00  0.00     0.029 A 
ATOM     54  C   UNL A   1      41.674  31.325  31.372  1.00  0.00     0.049 A 
ATOM     55  H   UNL A   1      39.770  31.684  30.466  1.00  0.00     0.167 HD
ATOM     56  C   UNL A   1      42.740  25.318  28.395  1.00  0.00     0.037 A 
ATOM     57  C   UNL A   1      41.526  31.201  32.720  1.00  0.00     0.037 A 
ATOM     58  C   UNL A   1      43.720  26.028  29.219  1.00  0.00     0.049 A 
ATOM     59  C   UNL A   1      42.428  30.100  33.201  1.00  0.00     0.074 A 
ATOM     60  C   UNL A   1      44.577  27.080  28.953  1.00  0.00     0.029 A 
ATOM     61  N   UNL A   1      43.593  25.954  30.604  1.00  0.00    -0.354 N 
ATOM     62  N   UNL A   1      42.703  29.030  32.503  1.00  0.00    -0.248 NA
ATOM     63  C   UNL A   1      43.187  30.197  34.440  1.00  0.00     0.031 C 
ATOM     64  C   UNL A   1      44.870  27.714  30.194  1.00  0.00     0.029 A 
ATOM     65  C   UNL A   1      44.227  27.020  31.211  1.00  0.00     0.049 A 
ATOM     66  H   UNL A   1      43.117  25.239  31.085  1.00  0.00     0.167 HD
ATOM     67  C   UNL A   1      43.678  28.324  33.150  1.00  0.00     0.074 A 
ATOM     68  C   UNL A   1      43.945  29.092  34.355  1.00  0.00     0.031 C 
ATOM     69  C   UNL A   1      44.207  27.167  32.662  1.00  0.00     0.037 A 
BRANCH  56  70
ATOM     70  C   UNL A   1      43.115  24.304  27.333  1.00  0.00     0.058 A 
ATOM     71  C   UNL A   1      43.893  23.182  27.698  1.00  0.00     0.135 A 
ATOM     72  C   UNL A   1      42.868  24.410  25.945  1.00  0.00     0.135 A 
ATOM     73  F   UNL A   1      44.208  22.941  28.978  1.00  0.00    -0.206 F 
ATOM     74  C   UNL A   1      44.410  22.271  26.772  1.00  0.00     0.059 A 
ATOM     75  C   UNL A   1      43.355  23.499  25.002  1.00  0.00     0.059 A 
ATOM     76  F   UNL A   1      42.172  25.416  25.412  1.00  0.00    -0.206 F 
ATOM     77  C   UNL A   1      44.142  22.441  25.421  1.00  0.00     0.060 A 
BRANCH  77  78
ATOM     78  S   UNL A   1      44.837  21.278  24.236  1.00  0.00     0.124 S 
ATOM     79  O   UNL A   1      44.114  20.051  24.556  1.00  0.00    -0.237 OA
ATOM     80  O   UNL A   1      44.501  21.901  22.960  1.00  0.00    -0.237 OA
ATOM     81  O   UNL A   1      46.261  21.264  24.565  1.00  0.00    -0.744 OA
ENDBRANCH  77  78
ENDBRANCH  56  70
BRANCH  57  82
ATOM     82  C   UNL A   1      40.125  31.475  33.180  1.00  0.00     0.058 A 
ATOM     83  C   UNL A   1      39.724  32.812  33.397  1.00  0.00     0.135 A 
ATOM     84  C   UNL A   1      39.101  30.533  33.005  1.00  0.00     0.135 A 
ATOM     85  F   UNL A   1      40.655  33.764  33.586  1.00  0.00    -0.206 F 
ATOM     86  C   UNL A   1      38.386  33.212  33.323  1.00  0.00     0.059 A 
ATOM     87  C   UNL A   1      37.756  30.913  32.935  1.00  0.00     0.059 A 
ATOM     88  F   UNL A   1      39.397  29.247  32.773  1.00  0.00    -0.206 F 
ATOM     89  C   UNL A   1      37.410  32.260  33.038  1.00  0.00     0.060 A 
BRANCH  89  90
ATOM     90  S   UNL A   1      35.704  32.795  32.735  1.00  0.00     0.124 S 
ATOM     91  O   UNL A   1      35.145  31.653  32.021  1.00  0.00    -0.237 OA
ATOM     92  O   UNL A   1      35.190  32.999  34.085  1.00  0.00    -0.237 OA
ATOM     93  O   UNL A   1      35.865  34.015  31.950  1.00  0.00    -0.744 OA
ENDBRANCH  89  90
ENDBRANCH  57  82
BRANCH  69  94
ATOM     94  C   UNL A   1      44.832  26.111  33.539  1.00  0.00     0.058 A 
ATOM     95  C   UNL A   1      46.215  25.855  33.572  1.00  0.00     0.135 A 
ATOM     96  C   UNL A   1      44.066  25.420  34.509  1.00  0.00     0.135 A 
ATOM     97  F   UNL A   1      47.087  26.561  32.839  1.00  0.00    -0.206 F 
ATOM     98  C   UNL A   1      46.778  24.891  34.399  1.00  0.00     0.059 A 
ATOM     99  C   UNL A   1      44.623  24.516  35.406  1.00  0.00     0.059 A 
ATOM    100  F   UNL A   1      42.746  25.615  34.640  1.00  0.00    -0.206 F 
ATOM    101  C   UNL A   1      45.973  24.219  35.308  1.00  0.00     0.060 A 
BRANCH 101 102
ATOM    102  S   UNL A   1      46.716  22.981  36.373  1.00  0.00     0.124 S 
ATOM    103  O   UNL A   1      45.576  22.108  36.633  1.00  0.00    -0.237 OA
ATOM    104  O   UNL A   1      47.762  22.418  35.523  1.00  0.00    -0.237 OA
ATOM    105  O   UNL A   1      47.193  23.757  37.513  1.00  0.00    -0.744 OA
ENDBRANCH 101 102
ENDBRANCH  69  94
ENDBRANCH  43  44
ENDBRANCH  35  38
ENDBRANCH  33  34
ENDBRANCH  32  33
ENDBRANCH   1  32
TORSDOF 17
ENDMDL
