MODEL 1
REMARK VINA RESULT:     -12.0      0.000      0.000
REMARK SMILES C[N@H+]1CCO[C@H](CNC(=O)N2CC[C@@](C)(C(=O)NCCCNC(=O)c3ccc(-c4c5nc(c(-c6c(F)cc(S(=O)(=O)[O-])cc6F)c6ccc([nH]6)c(-c6c(F)cc(S(=O)(=O)[O-])cc6F)c6nc(c(-c7c(F)cc(S(=O)(=O)[O-])cc7F)c7ccc4[nH]7)C=C6)C=C5)cc3)C2)C1
REMARK SMILES IDX 20 1 19 2 18 3 16 4 17 5 14 7 11 8 12 9 91 10 13 11 15 12
REMARK SMILES IDX 9 13 8 14 10 16 7 17 6 18 1 19 2 20 3 21 92 22 4 24 5 25
REMARK SMILES IDX 21 26 22 27 23 28 24 30 25 31 26 32 90 33 27 34 89 35 28 36
REMARK SMILES IDX 29 37 30 38 83 39 31 40 88 41 82 42 84 43 32 44 87 45 81 46
REMARK SMILES IDX 80 47 33 49 67 50 46 51 66 52 47 53 50 54 65 55 85 56 48 57
REMARK SMILES IDX 49 58 64 60 86 61 51 62 34 63 35 64 44 65 36 66 37 67 43 68
REMARK SMILES IDX 45 69 38 70 39 71 40 72 41 73 42 74 68 75 69 76 78 77 70 78
REMARK SMILES IDX 71 79 77 80 79 81 72 82 73 83 74 84 75 85 76 86 52 87 53 88
REMARK SMILES IDX 62 89 54 90 55 91 61 92 63 93 56 94 57 95 58 96 59 97 60 98
REMARK H PARENT 18 6 8 15 2 23 22 29 84 48 50 59
REMARK Flexibility Score: inf
ROOT
ATOM      1  C   UNL A   1      37.283  23.119  26.125  1.00  0.00     0.042 C 
ENDROOT
BRANCH   1   2
ATOM      2  C   UNL A   1      37.286  22.404  24.776  1.00  0.00     0.117 C 
BRANCH   2   3
ATOM      3  N   UNL A   1      36.354  23.018  23.847  1.00  0.00    -0.356 N 
ATOM      4  C   UNL A   1      35.022  22.907  23.638  1.00  0.00     0.227 C 
ATOM      5  O   UNL A   1      34.621  23.419  22.584  1.00  0.00    -0.274 OA
ATOM      6  H   UNL A   1      36.787  23.657  23.235  1.00  0.00     0.163 HD
BRANCH   4   7
ATOM      7  C   UNL A   1      34.004  22.350  24.648  1.00  0.00     0.066 C 
ATOM      8  N   UNL A   1      32.319  23.766  25.612  1.00  0.00    -0.324 N 
ATOM      9  C   UNL A   1      31.793  23.360  24.326  1.00  0.00     0.122 C 
ATOM     10  C   UNL A   1      33.742  23.480  25.674  1.00  0.00     0.138 C 
ATOM     11  C   UNL A   1      32.639  22.166  23.922  1.00  0.00     0.040 C 
ATOM     12  C   UNL A   1      34.328  21.044  25.371  1.00  0.00     0.024 C 
BRANCH   8  13
ATOM     13  C   UNL A   1      31.493  24.099  26.639  1.00  0.00     0.317 C 
ATOM     14  N   UNL A   1      31.097  25.381  26.803  1.00  0.00    -0.335 N 
ATOM     15  H   UNL A   1      30.973  25.657  27.740  1.00  0.00     0.165 HD
ATOM     16  O   UNL A   1      31.079  23.278  27.458  1.00  0.00    -0.249 OA
BRANCH  14  17
ATOM     17  C   UNL A   1      30.821  26.420  25.819  1.00  0.00     0.155 C 
BRANCH  17  18
ATOM     18  C   UNL A   1      31.797  27.608  25.950  1.00  0.00     0.192 C 
ATOM     19  C   UNL A   1      34.198  29.013  27.454  1.00  0.00     0.332 C 
ATOM     20  N   UNL A   1      32.771  29.291  27.595  1.00  0.00    -0.333 N 
ATOM     21  C   UNL A   1      32.310  30.322  26.646  1.00  0.00     0.290 C 
ATOM     22  C   UNL A   1      31.951  28.068  27.421  1.00  0.00     0.296 C 
ATOM     23  H   UNL A   1      32.646  29.640  28.544  1.00  0.00     0.348 HD
ATOM     24  C   UNL A   1      32.161  29.823  25.201  1.00  0.00     0.222 C 
ATOM     25  O   UNL A   1      31.291  28.686  25.134  1.00  0.00    -0.365 OA
ENDBRANCH  17  18
ENDBRANCH  14  17
ENDBRANCH   8  13
ENDBRANCH   4   7
ENDBRANCH   2   3
ENDBRANCH   1   2
BRANCH   1  26
ATOM     26  C   UNL A   1      38.221  24.326  26.169  1.00  0.00     0.118 C 
BRANCH  26  27
ATOM     27  N   UNL A   1      39.622  23.933  26.077  1.00  0.00    -0.352 N 
ATOM     28  C   UNL A   1      40.748  24.543  26.569  1.00  0.00     0.251 C 
ATOM     29  H   UNL A   1      39.787  23.097  25.584  1.00  0.00     0.163 HD
ATOM     30  O   UNL A   1      41.851  24.185  26.156  1.00  0.00    -0.269 OA
BRANCH  28  31
ATOM     31  C   UNL A   1      40.650  25.618  27.579  1.00  0.00     0.039 A 
ATOM     32  C   UNL A   1      39.648  25.548  28.550  1.00  0.00     0.014 A 
ATOM     33  C   UNL A   1      41.509  26.720  27.542  1.00  0.00     0.014 A 
ATOM     34  C   UNL A   1      39.544  26.552  29.517  1.00  0.00     0.010 A 
ATOM     35  C   UNL A   1      41.456  27.678  28.551  1.00  0.00     0.010 A 
ATOM     36  C   UNL A   1      40.468  27.610  29.545  1.00  0.00    -0.014 A 
BRANCH  36  37
ATOM     37  C   UNL A   1      40.417  28.658  30.596  1.00  0.00     0.031 A 
ATOM     38  C   UNL A   1      41.321  28.569  31.797  1.00  0.00     0.074 A 
ATOM     39  C   UNL A   1      39.504  29.646  30.508  1.00  0.00     0.049 A 
ATOM     40  N   UNL A   1      41.356  29.326  32.863  1.00  0.00    -0.248 NA
ATOM     41  C   UNL A   1      42.295  27.465  31.813  1.00  0.00     0.031 C 
ATOM     42  C   UNL A   1      38.538  29.810  29.419  1.00  0.00     0.029 A 
ATOM     43  N   UNL A   1      39.227  30.689  31.355  1.00  0.00    -0.354 N 
ATOM     44  C   UNL A   1      42.333  28.778  33.686  1.00  0.00     0.074 A 
ATOM     45  C   UNL A   1      42.835  27.597  33.017  1.00  0.00     0.031 C 
ATOM     46  C   UNL A   1      37.789  30.899  29.655  1.00  0.00     0.029 A 
ATOM     47  C   UNL A   1      38.193  31.488  30.927  1.00  0.00     0.049 A 
ATOM     48  H   UNL A   1      39.723  30.850  32.190  1.00  0.00     0.167 HD
ATOM     49  C   UNL A   1      42.787  29.229  34.880  1.00  0.00     0.037 A 
ATOM     50  C   UNL A   1      37.628  32.569  31.500  1.00  0.00     0.037 A 
ATOM     51  C   UNL A   1      42.308  30.425  35.523  1.00  0.00     0.049 A 
ATOM     52  C   UNL A   1      38.161  33.063  32.817  1.00  0.00     0.074 A 
ATOM     53  C   UNL A   1      42.746  31.004  36.701  1.00  0.00     0.029 A 
ATOM     54  N   UNL A   1      41.285  31.228  35.040  1.00  0.00    -0.354 N 
ATOM     55  N   UNL A   1      39.126  32.565  33.554  1.00  0.00    -0.248 NA
ATOM     56  C   UNL A   1      37.536  34.268  33.377  1.00  0.00     0.031 C 
ATOM     57  C   UNL A   1      41.964  32.137  36.949  1.00  0.00     0.029 A 
ATOM     58  C   UNL A   1      41.068  32.289  35.903  1.00  0.00     0.049 A 
ATOM     59  H   UNL A   1      40.787  31.067  34.206  1.00  0.00     0.167 HD
ATOM     60  C   UNL A   1      39.240  33.409  34.651  1.00  0.00     0.074 A 
ATOM     61  C   UNL A   1      38.253  34.456  34.477  1.00  0.00     0.031 C 
ATOM     62  C   UNL A   1      40.085  33.326  35.709  1.00  0.00     0.037 A 
BRANCH  49  63
ATOM     63  C   UNL A   1      43.862  28.429  35.565  1.00  0.00     0.058 A 
ATOM     64  C   UNL A   1      45.224  28.658  35.314  1.00  0.00     0.135 A 
ATOM     65  C   UNL A   1      43.528  27.437  36.501  1.00  0.00     0.135 A 
ATOM     66  F   UNL A   1      45.600  29.584  34.418  1.00  0.00    -0.206 F 
ATOM     67  C   UNL A   1      46.216  27.910  35.940  1.00  0.00     0.059 A 
ATOM     68  C   UNL A   1      44.504  26.696  37.161  1.00  0.00     0.059 A 
ATOM     69  F   UNL A   1      42.241  27.177  36.782  1.00  0.00    -0.206 F 
ATOM     70  C   UNL A   1      45.846  26.928  36.860  1.00  0.00     0.060 A 
BRANCH  70  71
ATOM     71  S   UNL A   1      47.145  25.963  37.661  1.00  0.00     0.124 S 
ATOM     72  O   UNL A   1      47.013  26.394  39.050  1.00  0.00    -0.237 OA
ATOM     73  O   UNL A   1      46.731  24.591  37.382  1.00  0.00    -0.237 OA
ATOM     74  O   UNL A   1      48.361  26.398  36.981  1.00  0.00    -0.744 OA
ENDBRANCH  70  71
ENDBRANCH  49  63
BRANCH  50  75
ATOM     75  C   UNL A   1      36.510  33.270  30.816  1.00  0.00     0.058 A 
ATOM     76  C   UNL A   1      35.190  33.133  31.271  1.00  0.00     0.135 A 
ATOM     77  C   UNL A   1      36.738  34.109  29.714  1.00  0.00     0.135 A 
ATOM     78  F   UNL A   1      34.922  32.338  32.318  1.00  0.00    -0.206 F 
ATOM     79  C   UNL A   1      34.133  33.791  30.651  1.00  0.00     0.059 A 
ATOM     80  C   UNL A   1      35.701  34.797  29.093  1.00  0.00     0.059 A 
ATOM     81  F   UNL A   1      37.986  34.288  29.253  1.00  0.00    -0.206 F 
ATOM     82  C   UNL A   1      34.399  34.624  29.563  1.00  0.00     0.060 A 
BRANCH  82  83
ATOM     83  S   UNL A   1      33.028  35.519  28.801  1.00  0.00     0.124 S 
ATOM     84  O   UNL A   1      32.369  34.460  28.049  1.00  0.00    -0.237 OA
ATOM     85  O   UNL A   1      32.305  36.021  29.966  1.00  0.00    -0.237 OA
ATOM     86  O   UNL A   1      33.698  36.541  28.003  1.00  0.00    -0.744 OA
ENDBRANCH  82  83
ENDBRANCH  50  75
BRANCH  62  87
ATOM     87  C   UNL A   1      40.004  34.413  36.744  1.00  0.00     0.058 A 
ATOM     88  C   UNL A   1      39.178  34.297  37.871  1.00  0.00     0.135 A 
ATOM     89  C   UNL A   1      40.805  35.561  36.631  1.00  0.00     0.135 A 
ATOM     90  F   UNL A   1      38.388  33.222  38.023  1.00  0.00    -0.206 F 
ATOM     91  C   UNL A   1      39.132  35.291  38.842  1.00  0.00     0.059 A 
ATOM     92  C   UNL A   1      40.793  36.557  37.602  1.00  0.00     0.059 A 
ATOM     93  F   UNL A   1      41.620  35.716  35.575  1.00  0.00    -0.206 F 
ATOM     94  C   UNL A   1      39.944  36.418  38.699  1.00  0.00     0.060 A 
BRANCH  94  95
ATOM     95  S   UNL A   1      39.902  37.686  39.984  1.00  0.00     0.124 S 
ATOM     96  O   UNL A   1      39.761  36.877  41.190  1.00  0.00    -0.237 OA
ATOM     97  O   UNL A   1      41.191  38.349  39.812  1.00  0.00    -0.237 OA
ATOM     98  O   UNL A   1      38.738  38.491  39.627  1.00  0.00    -0.744 OA
ENDBRANCH  94  95
ENDBRANCH  62  87
ENDBRANCH  36  37
ENDBRANCH  28  31
ENDBRANCH  26  27
ENDBRANCH   1  26
TORSDOF 16
ENDMDL
MODEL 2
REMARK VINA RESULT:     -11.9      1.948      3.966
REMARK SMILES C[N@H+]1CCO[C@H](CNC(=O)N2CC[C@@](C)(C(=O)NCCCNC(=O)c3ccc(-c4c5nc(c(-c6c(F)cc(S(=O)(=O)[O-])cc6F)c6ccc([nH]6)c(-c6c(F)cc(S(=O)(=O)[O-])cc6F)c6nc(c(-c7c(F)cc(S(=O)(=O)[O-])cc7F)c7ccc4[nH]7)C=C6)C=C5)cc3)C2)C1
REMARK SMILES IDX 20 1 19 2 18 3 16 4 17 5 14 7 11 8 12 9 91 10 13 11 15 12
REMARK SMILES IDX 9 13 8 14 10 16 7 17 6 18 1 19 2 20 3 21 92 22 4 24 5 25
REMARK SMILES IDX 21 26 22 27 23 28 24 30 25 31 26 32 90 33 27 34 89 35 28 36
REMARK SMILES IDX 29 37 30 38 83 39 31 40 88 41 82 42 84 43 32 44 87 45 81 46
REMARK SMILES IDX 80 47 33 49 67 50 46 51 66 52 47 53 50 54 65 55 85 56 48 57
REMARK SMILES IDX 49 58 64 60 86 61 51 62 34 63 35 64 44 65 36 66 37 67 43 68
REMARK SMILES IDX 45 69 38 70 39 71 40 72 41 73 42 74 68 75 69 76 78 77 70 78
REMARK SMILES IDX 71 79 77 80 79 81 72 82 73 83 74 84 75 85 76 86 52 87 53 88
REMARK SMILES IDX 62 89 54 90 55 91 61 92 63 93 56 94 57 95 58 96 59 97 60 98
REMARK H PARENT 18 6 8 15 2 23 22 29 84 48 50 59
REMARK Flexibility Score: inf
ROOT
ATOM      1  C   UNL A   1      39.148  22.656  26.505  1.00  0.00     0.042 C 
ENDROOT
BRANCH   1   2
ATOM      2  C   UNL A   1      38.219  23.805  26.119  1.00  0.00     0.117 C 
BRANCH   2   3
ATOM      3  N   UNL A   1      37.747  23.670  24.753  1.00  0.00    -0.356 N 
ATOM      4  C   UNL A   1      36.564  23.326  24.196  1.00  0.00     0.227 C 
ATOM      5  O   UNL A   1      36.615  23.088  22.981  1.00  0.00    -0.274 OA
ATOM      6  H   UNL A   1      38.442  23.874  24.085  1.00  0.00     0.163 HD
BRANCH   4   7
ATOM      7  C   UNL A   1      35.200  23.360  24.906  1.00  0.00     0.066 C 
ATOM      8  N   UNL A   1      33.655  21.530  24.705  1.00  0.00    -0.324 N 
ATOM      9  C   UNL A   1      34.582  21.141  25.746  1.00  0.00     0.122 C 
ATOM     10  C   UNL A   1      34.195  22.656  23.961  1.00  0.00     0.138 C 
ATOM     11  C   UNL A   1      35.270  22.431  26.154  1.00  0.00     0.040 C 
ATOM     12  C   UNL A   1      34.644  24.709  25.359  1.00  0.00     0.024 C 
BRANCH   8  13
ATOM     13  C   UNL A   1      32.385  21.046  24.672  1.00  0.00     0.317 C 
ATOM     14  N   UNL A   1      32.035  20.120  23.752  1.00  0.00    -0.335 N 
ATOM     15  H   UNL A   1      31.107  20.188  23.432  1.00  0.00     0.165 HD
ATOM     16  O   UNL A   1      31.507  21.420  25.449  1.00  0.00    -0.249 OA
BRANCH  14  17
ATOM     17  C   UNL A   1      32.808  19.035  23.160  1.00  0.00     0.155 C 
BRANCH  17  18
ATOM     18  C   UNL A   1      33.212  17.978  24.210  1.00  0.00     0.192 C 
ATOM     19  C   UNL A   1      35.319  15.890  25.306  1.00  0.00     0.332 C 
ATOM     20  N   UNL A   1      34.133  15.621  24.498  1.00  0.00    -0.333 N 
ATOM     21  C   UNL A   1      32.939  15.373  25.329  1.00  0.00     0.290 C 
ATOM     22  C   UNL A   1      33.846  16.727  23.553  1.00  0.00     0.296 C 
ATOM     23  H   UNL A   1      34.342  14.777  23.966  1.00  0.00     0.348 HD
ATOM     24  C   UNL A   1      32.336  16.641  25.953  1.00  0.00     0.222 C 
ATOM     25  O   UNL A   1      32.027  17.615  24.949  1.00  0.00    -0.365 OA
ENDBRANCH  17  18
ENDBRANCH  14  17
ENDBRANCH   8  13
ENDBRANCH   4   7
ENDBRANCH   2   3
ENDBRANCH   1   2
BRANCH   1  26
ATOM     26  C   UNL A   1      40.477  23.127  27.095  1.00  0.00     0.118 C 
BRANCH  26  27
ATOM     27  N   UNL A   1      41.303  23.811  26.107  1.00  0.00    -0.352 N 
ATOM     28  C   UNL A   1      41.686  25.126  26.030  1.00  0.00     0.251 C 
ATOM     29  H   UNL A   1      41.638  23.240  25.379  1.00  0.00     0.163 HD
ATOM     30  O   UNL A   1      42.164  25.549  24.977  1.00  0.00    -0.269 OA
BRANCH  28  31
ATOM     31  C   UNL A   1      41.531  26.033  27.188  1.00  0.00     0.039 A 
ATOM     32  C   UNL A   1      42.460  27.059  27.377  1.00  0.00     0.014 A 
ATOM     33  C   UNL A   1      40.503  25.843  28.115  1.00  0.00     0.014 A 
ATOM     34  C   UNL A   1      42.325  27.929  28.462  1.00  0.00     0.010 A 
ATOM     35  C   UNL A   1      40.323  26.757  29.151  1.00  0.00     0.010 A 
ATOM     36  C   UNL A   1      41.236  27.805  29.341  1.00  0.00    -0.014 A 
BRANCH  36  37
ATOM     37  C   UNL A   1      41.036  28.752  30.467  1.00  0.00     0.031 A 
ATOM     38  C   UNL A   1      41.867  28.626  31.717  1.00  0.00     0.074 A 
ATOM     39  C   UNL A   1      40.055  29.673  30.397  1.00  0.00     0.049 A 
ATOM     40  N   UNL A   1      41.774  29.288  32.841  1.00  0.00    -0.248 NA
ATOM     41  C   UNL A   1      42.922  27.600  31.711  1.00  0.00     0.031 C 
ATOM     42  C   UNL A   1      39.149  29.860  29.261  1.00  0.00     0.029 A 
ATOM     43  N   UNL A   1      39.643  30.616  31.305  1.00  0.00    -0.354 N 
ATOM     44  C   UNL A   1      42.738  28.744  33.683  1.00  0.00     0.074 A 
ATOM     45  C   UNL A   1      43.373  27.666  32.956  1.00  0.00     0.031 C 
ATOM     46  C   UNL A   1      38.304  30.866  29.532  1.00  0.00     0.029 A 
ATOM     47  C   UNL A   1      38.579  31.370  30.873  1.00  0.00     0.049 A 
ATOM     48  H   UNL A   1      40.071  30.740  32.183  1.00  0.00     0.167 HD
ATOM     49  C   UNL A   1      43.078  29.123  34.939  1.00  0.00     0.037 A 
ATOM     50  C   UNL A   1      37.894  32.353  31.491  1.00  0.00     0.037 A 
ATOM     51  C   UNL A   1      42.466  30.220  35.642  1.00  0.00     0.049 A 
ATOM     52  C   UNL A   1      38.302  32.769  32.878  1.00  0.00     0.074 A 
ATOM     53  C   UNL A   1      42.782  30.725  36.891  1.00  0.00     0.029 A 
ATOM     54  N   UNL A   1      41.416  30.984  35.156  1.00  0.00    -0.354 N 
ATOM     55  N   UNL A   1      39.255  32.282  33.637  1.00  0.00    -0.248 NA
ATOM     56  C   UNL A   1      37.549  33.872  33.490  1.00  0.00     0.031 C 
ATOM     57  C   UNL A   1      41.899  31.772  37.175  1.00  0.00     0.029 A 
ATOM     58  C   UNL A   1      41.060  31.947  36.086  1.00  0.00     0.049 A 
ATOM     59  H   UNL A   1      40.985  30.860  34.279  1.00  0.00     0.167 HD
ATOM     60  C   UNL A   1      39.232  33.034  34.805  1.00  0.00     0.074 A 
ATOM     61  C   UNL A   1      38.178  34.016  34.648  1.00  0.00     0.031 C 
ATOM     62  C   UNL A   1      40.013  32.922  35.909  1.00  0.00     0.037 A 
BRANCH  49  63
ATOM     63  C   UNL A   1      44.168  28.347  35.629  1.00  0.00     0.058 A 
ATOM     64  C   UNL A   1      45.522  28.688  35.482  1.00  0.00     0.135 A 
ATOM     65  C   UNL A   1      43.854  27.266  36.468  1.00  0.00     0.135 A 
ATOM     66  F   UNL A   1      45.880  29.705  34.681  1.00  0.00    -0.206 F 
ATOM     67  C   UNL A   1      46.528  27.964  36.112  1.00  0.00     0.059 A 
ATOM     68  C   UNL A   1      44.843  26.544  37.131  1.00  0.00     0.059 A 
ATOM     69  F   UNL A   1      42.576  26.897  36.647  1.00  0.00    -0.206 F 
ATOM     70  C   UNL A   1      46.179  26.891  36.933  1.00  0.00     0.060 A 
BRANCH  70  71
ATOM     71  S   UNL A   1      47.497  25.958  37.741  1.00  0.00     0.124 S 
ATOM     72  O   UNL A   1      48.587  26.105  36.781  1.00  0.00    -0.237 OA
ATOM     73  O   UNL A   1      47.661  26.675  39.001  1.00  0.00    -0.237 OA
ATOM     74  O   UNL A   1      46.939  24.613  37.857  1.00  0.00    -0.744 OA
ENDBRANCH  70  71
ENDBRANCH  49  63
BRANCH  50  75
ATOM     75  C   UNL A   1      36.770  33.027  30.790  1.00  0.00     0.058 A 
ATOM     76  C   UNL A   1      35.440  32.666  31.054  1.00  0.00     0.135 A 
ATOM     77  C   UNL A   1      36.997  34.058  29.867  1.00  0.00     0.135 A 
ATOM     78  F   UNL A   1      35.173  31.681  31.926  1.00  0.00    -0.206 F 
ATOM     79  C   UNL A   1      34.374  33.293  30.416  1.00  0.00     0.059 A 
ATOM     80  C   UNL A   1      35.947  34.718  29.235  1.00  0.00     0.059 A 
ATOM     81  F   UNL A   1      38.250  34.454  29.595  1.00  0.00    -0.206 F 
ATOM     82  C   UNL A   1      34.638  34.322  29.510  1.00  0.00     0.060 A 
BRANCH  82  83
ATOM     83  S   UNL A   1      33.246  35.169  28.732  1.00  0.00     0.124 S 
ATOM     84  O   UNL A   1      33.930  36.154  27.903  1.00  0.00    -0.237 OA
ATOM     85  O   UNL A   1      32.585  34.081  28.018  1.00  0.00    -0.237 OA
ATOM     86  O   UNL A   1      32.503  35.703  29.869  1.00  0.00    -0.744 OA
ENDBRANCH  82  83
ENDBRANCH  50  75
BRANCH  62  87
ATOM     87  C   UNL A   1      39.781  33.906  37.021  1.00  0.00     0.058 A 
ATOM     88  C   UNL A   1      38.986  33.589  38.131  1.00  0.00     0.135 A 
ATOM     89  C   UNL A   1      40.407  35.163  36.998  1.00  0.00     0.135 A 
ATOM     90  F   UNL A   1      38.359  32.403  38.198  1.00  0.00    -0.206 F 
ATOM     91  C   UNL A   1      38.801  34.492  39.173  1.00  0.00     0.059 A 
ATOM     92  C   UNL A   1      40.256  36.072  38.040  1.00  0.00     0.059 A 
ATOM     93  F   UNL A   1      41.187  35.512  35.961  1.00  0.00    -0.206 F 
ATOM     94  C   UNL A   1      39.442  35.731  39.118  1.00  0.00     0.060 A 
BRANCH  94  95
ATOM     95  S   UNL A   1      39.223  36.881  40.493  1.00  0.00     0.124 S 
ATOM     96  O   UNL A   1      38.387  36.101  41.398  1.00  0.00    -0.237 OA
ATOM     97  O   UNL A   1      40.596  37.107  40.934  1.00  0.00    -0.237 OA
ATOM     98  O   UNL A   1      38.574  38.032  39.872  1.00  0.00    -0.744 OA
ENDBRANCH  94  95
ENDBRANCH  62  87
ENDBRANCH  36  37
ENDBRANCH  28  31
ENDBRANCH  26  27
ENDBRANCH   1  26
TORSDOF 16
ENDMDL
MODEL 3
REMARK VINA RESULT:     -11.8      4.766     11.947
REMARK SMILES C[N@H+]1CCO[C@H](CNC(=O)N2CC[C@@](C)(C(=O)NCCCNC(=O)c3ccc(-c4c5nc(c(-c6c(F)cc(S(=O)(=O)[O-])cc6F)c6ccc([nH]6)c(-c6c(F)cc(S(=O)(=O)[O-])cc6F)c6nc(c(-c7c(F)cc(S(=O)(=O)[O-])cc7F)c7ccc4[nH]7)C=C6)C=C5)cc3)C2)C1
REMARK SMILES IDX 20 1 19 2 18 3 16 4 17 5 14 7 11 8 12 9 91 10 13 11 15 12
REMARK SMILES IDX 9 13 8 14 10 16 7 17 6 18 1 19 2 20 3 21 92 22 4 24 5 25
REMARK SMILES IDX 21 26 22 27 23 28 24 30 25 31 26 32 90 33 27 34 89 35 28 36
REMARK SMILES IDX 29 37 30 38 83 39 31 40 88 41 82 42 84 43 32 44 87 45 81 46
REMARK SMILES IDX 80 47 33 49 67 50 46 51 66 52 47 53 50 54 65 55 85 56 48 57
REMARK SMILES IDX 49 58 64 60 86 61 51 62 34 63 35 64 44 65 36 66 37 67 43 68
REMARK SMILES IDX 45 69 38 70 39 71 40 72 41 73 42 74 68 75 69 76 78 77 70 78
REMARK SMILES IDX 71 79 77 80 79 81 72 82 73 83 74 84 75 85 76 86 52 87 53 88
REMARK SMILES IDX 62 89 54 90 55 91 61 92 63 93 56 94 57 95 58 96 59 97 60 98
REMARK H PARENT 18 6 8 15 2 23 22 29 84 48 50 59
REMARK Flexibility Score: inf
ROOT
ATOM      1  C   UNL A   1      34.891  32.889  29.773  1.00  0.00     0.042 C 
ENDROOT
BRANCH   1   2
ATOM      2  C   UNL A   1      36.085  33.817  29.988  1.00  0.00     0.117 C 
BRANCH   2   3
ATOM      3  N   UNL A   1      35.940  34.595  31.204  1.00  0.00    -0.356 N 
ATOM      4  C   UNL A   1      36.418  34.472  32.463  1.00  0.00     0.227 C 
ATOM      5  O   UNL A   1      35.875  35.210  33.296  1.00  0.00    -0.274 OA
ATOM      6  H   UNL A   1      35.367  35.388  31.087  1.00  0.00     0.163 HD
BRANCH   4   7
ATOM      7  C   UNL A   1      37.637  33.630  32.876  1.00  0.00     0.066 C 
ATOM      8  N   UNL A   1      37.472  31.987  34.622  1.00  0.00    -0.324 N 
ATOM      9  C   UNL A   1      36.982  31.332  33.428  1.00  0.00     0.122 C 
ATOM     10  C   UNL A   1      37.530  33.423  34.406  1.00  0.00     0.138 C 
ATOM     11  C   UNL A   1      37.472  32.199  32.282  1.00  0.00     0.040 C 
ATOM     12  C   UNL A   1      39.032  34.130  32.505  1.00  0.00     0.024 C 
BRANCH   8  13
ATOM     13  C   UNL A   1      38.024  31.278  35.641  1.00  0.00     0.317 C 
ATOM     14  N   UNL A   1      39.046  30.426  35.400  1.00  0.00    -0.335 N 
ATOM     15  H   UNL A   1      39.057  29.623  35.969  1.00  0.00     0.165 HD
ATOM     16  O   UNL A   1      37.632  31.361  36.805  1.00  0.00    -0.249 OA
BRANCH  14  17
ATOM     17  C   UNL A   1      40.136  30.505  34.435  1.00  0.00     0.155 C 
BRANCH  17  18
ATOM     18  C   UNL A   1      41.244  29.474  34.734  1.00  0.00     0.192 C 
ATOM     19  C   UNL A   1      43.811  27.881  33.799  1.00  0.00     0.332 C 
ATOM     20  N   UNL A   1      42.428  27.412  33.821  1.00  0.00    -0.333 N 
ATOM     21  C   UNL A   1      42.078  26.776  35.106  1.00  0.00     0.290 C 
ATOM     22  C   UNL A   1      41.469  28.509  33.544  1.00  0.00     0.296 C 
ATOM     23  H   UNL A   1      42.357  26.715  33.081  1.00  0.00     0.348 HD
ATOM     24  C   UNL A   1      41.854  27.769  36.256  1.00  0.00     0.222 C 
ATOM     25  O   UNL A   1      40.857  28.740  35.914  1.00  0.00    -0.365 OA
ENDBRANCH  17  18
ENDBRANCH  14  17
ENDBRANCH   8  13
ENDBRANCH   4   7
ENDBRANCH   2   3
ENDBRANCH   1   2
BRANCH   1  26
ATOM     26  C   UNL A   1      34.614  32.594  28.298  1.00  0.00     0.118 C 
BRANCH  26  27
ATOM     27  N   UNL A   1      33.949  31.310  28.113  1.00  0.00    -0.352 N 
ATOM     28  C   UNL A   1      34.475  30.052  27.962  1.00  0.00     0.251 C 
ATOM     29  H   UNL A   1      32.965  31.352  28.093  1.00  0.00     0.163 HD
ATOM     30  O   UNL A   1      33.749  29.144  27.559  1.00  0.00    -0.269 OA
BRANCH  28  31
ATOM     31  C   UNL A   1      35.894  29.780  28.276  1.00  0.00     0.039 A 
ATOM     32  C   UNL A   1      36.237  29.363  29.565  1.00  0.00     0.014 A 
ATOM     33  C   UNL A   1      36.893  29.983  27.320  1.00  0.00     0.014 A 
ATOM     34  C   UNL A   1      37.573  29.095  29.877  1.00  0.00     0.010 A 
ATOM     35  C   UNL A   1      38.212  29.641  27.608  1.00  0.00     0.010 A 
ATOM     36  C   UNL A   1      38.568  29.201  28.891  1.00  0.00    -0.014 A 
BRANCH  36  37
ATOM     37  C   UNL A   1      39.986  28.865  29.180  1.00  0.00     0.031 A 
ATOM     38  C   UNL A   1      40.895  29.894  29.798  1.00  0.00     0.074 A 
ATOM     39  C   UNL A   1      40.474  27.663  28.815  1.00  0.00     0.049 A 
ATOM     40  N   UNL A   1      42.180  29.827  30.033  1.00  0.00    -0.248 NA
ATOM     41  C   UNL A   1      40.284  31.179  30.175  1.00  0.00     0.031 C 
ATOM     42  C   UNL A   1      39.705  26.601  28.161  1.00  0.00     0.029 A 
ATOM     43  N   UNL A   1      41.736  27.136  28.925  1.00  0.00    -0.354 N 
ATOM     44  C   UNL A   1      42.535  31.064  30.559  1.00  0.00     0.074 A 
ATOM     45  C   UNL A   1      41.340  31.878  30.567  1.00  0.00     0.031 C 
ATOM     46  C   UNL A   1      40.506  25.546  27.947  1.00  0.00     0.029 A 
ATOM     47  C   UNL A   1      41.851  25.867  28.411  1.00  0.00     0.049 A 
ATOM     48  H   UNL A   1      42.487  27.622  29.335  1.00  0.00     0.167 HD
ATOM     49  C   UNL A   1      43.743  31.476  31.016  1.00  0.00     0.037 A 
ATOM     50  C   UNL A   1      42.923  25.055  28.314  1.00  0.00     0.037 A 
ATOM     51  C   UNL A   1      44.919  30.647  31.039  1.00  0.00     0.049 A 
ATOM     52  C   UNL A   1      44.249  25.527  28.846  1.00  0.00     0.074 A 
ATOM     53  C   UNL A   1      46.175  30.948  31.541  1.00  0.00     0.029 A 
ATOM     54  N   UNL A   1      44.987  29.354  30.543  1.00  0.00    -0.354 N 
ATOM     55  N   UNL A   1      44.553  26.680  29.394  1.00  0.00    -0.248 NA
ATOM     56  C   UNL A   1      45.374  24.588  28.753  1.00  0.00     0.031 C 
ATOM     57  C   UNL A   1      47.010  29.849  31.315  1.00  0.00     0.029 A 
ATOM     58  C   UNL A   1      46.265  28.847  30.712  1.00  0.00     0.049 A 
ATOM     59  H   UNL A   1      44.237  28.867  30.131  1.00  0.00     0.167 HD
ATOM     60  C   UNL A   1      45.897  26.595  29.734  1.00  0.00     0.074 A 
ATOM     61  C   UNL A   1      46.345  25.275  29.339  1.00  0.00     0.031 C 
ATOM     62  C   UNL A   1      46.691  27.527  30.320  1.00  0.00     0.037 A 
BRANCH  49  63
ATOM     63  C   UNL A   1      43.847  32.885  31.535  1.00  0.00     0.058 A 
ATOM     64  C   UNL A   1      44.238  33.948  30.706  1.00  0.00     0.135 A 
ATOM     65  C   UNL A   1      43.529  33.180  32.871  1.00  0.00     0.135 A 
ATOM     66  F   UNL A   1      44.567  33.720  29.424  1.00  0.00    -0.206 F 
ATOM     67  C   UNL A   1      44.344  35.248  31.190  1.00  0.00     0.059 A 
ATOM     68  C   UNL A   1      43.600  34.478  33.369  1.00  0.00     0.059 A 
ATOM     69  F   UNL A   1      43.147  32.202  33.708  1.00  0.00    -0.206 F 
ATOM     70  C   UNL A   1      44.026  35.503  32.524  1.00  0.00     0.060 A 
BRANCH  70  71
ATOM     71  S   UNL A   1      44.173  37.195  33.139  1.00  0.00     0.124 S 
ATOM     72  O   UNL A   1      44.015  37.965  31.909  1.00  0.00    -0.237 OA
ATOM     73  O   UNL A   1      43.067  37.280  34.086  1.00  0.00    -0.237 OA
ATOM     74  O   UNL A   1      45.507  37.226  33.733  1.00  0.00    -0.744 OA
ENDBRANCH  70  71
ENDBRANCH  49  63
BRANCH  50  75
ATOM     75  C   UNL A   1      42.777  23.704  27.713  1.00  0.00     0.058 A 
ATOM     76  C   UNL A   1      42.943  23.509  26.334  1.00  0.00     0.135 A 
ATOM     77  C   UNL A   1      42.496  22.578  28.504  1.00  0.00     0.135 A 
ATOM     78  F   UNL A   1      43.208  24.556  25.537  1.00  0.00    -0.206 F 
ATOM     79  C   UNL A   1      42.822  22.249  25.756  1.00  0.00     0.059 A 
ATOM     80  C   UNL A   1      42.395  21.305  27.952  1.00  0.00     0.059 A 
ATOM     81  F   UNL A   1      42.347  22.709  29.831  1.00  0.00    -0.206 F 
ATOM     82  C   UNL A   1      42.550  21.152  26.575  1.00  0.00     0.060 A 
BRANCH  82  83
ATOM     83  S   UNL A   1      42.453  19.513  25.822  1.00  0.00     0.124 S 
ATOM     84  O   UNL A   1      41.053  19.457  25.422  1.00  0.00    -0.237 OA
ATOM     85  O   UNL A   1      43.425  19.615  24.738  1.00  0.00    -0.237 OA
ATOM     86  O   UNL A   1      42.837  18.622  26.913  1.00  0.00    -0.744 OA
ENDBRANCH  82  83
ENDBRANCH  50  75
BRANCH  62  87
ATOM     87  C   UNL A   1      48.116  27.141  30.601  1.00  0.00     0.058 A 
ATOM     88  C   UNL A   1      49.146  27.410  29.687  1.00  0.00     0.135 A 
ATOM     89  C   UNL A   1      48.461  26.542  31.824  1.00  0.00     0.135 A 
ATOM     90  F   UNL A   1      48.868  27.974  28.501  1.00  0.00    -0.206 F 
ATOM     91  C   UNL A   1      50.468  27.080  29.967  1.00  0.00     0.059 A 
ATOM     92  C   UNL A   1      49.779  26.226  32.134  1.00  0.00     0.059 A 
ATOM     93  F   UNL A   1      47.513  26.273  32.736  1.00  0.00    -0.206 F 
ATOM     94  C   UNL A   1      50.775  26.489  31.194  1.00  0.00     0.060 A 
BRANCH  94  95
ATOM     95  S   UNL A   1      52.499  26.098  31.561  1.00  0.00     0.124 S 
ATOM     96  O   UNL A   1      52.844  27.153  32.508  1.00  0.00    -0.237 OA
ATOM     97  O   UNL A   1      52.404  24.753  32.117  1.00  0.00    -0.237 OA
ATOM     98  O   UNL A   1      53.150  26.186  30.257  1.00  0.00    -0.744 OA
ENDBRANCH  94  95
ENDBRANCH  62  87
ENDBRANCH  36  37
ENDBRANCH  28  31
ENDBRANCH  26  27
ENDBRANCH   1  26
TORSDOF 16
ENDMDL
