MODEL 1
REMARK VINA RESULT:     -13.1      0.000      0.000
REMARK SMILES C=CCn1nc(C(=O)NCCCNC(=O)c2ccc(-c3c4nc(c(-c5c(F)cc(S(=O)(=O)[O-])cc5F)c5ccc([nH]5)c(-c5c(F)cc(S(=O)(=O)[O-])cc5F)c5nc(c(-c6c(F)cc(S(=O)(=O)[O-])cc6F)c6ccc3[nH]6)C=C5)C=C4)cc2)c2c1CC[C@@H]([NH2+]Cc1nc(C)cc(=O)[nH]1)C2
REMARK SMILES IDX 11 1 10 2 9 3 7 4 8 5 6 7 4 8 5 9 83 10 82 11 84 12 97 13
REMARK SMILES IDX 85 14 86 15 3 16 2 17 1 18 87 19 88 22 89 23 90 24 96 25
REMARK SMILES IDX 91 26 94 27 92 29 93 30 95 31 12 32 13 33 14 34 15 36 16 37
REMARK SMILES IDX 17 38 81 39 18 40 80 41 19 42 20 43 21 44 74 45 22 46 79 47
REMARK SMILES IDX 73 48 75 49 23 50 78 51 72 52 71 53 24 55 58 56 37 57 57 58
REMARK SMILES IDX 38 59 41 60 56 61 76 62 39 63 40 64 55 66 77 67 42 68 25 69
REMARK SMILES IDX 26 70 35 71 27 72 28 73 34 74 36 75 29 76 30 77 31 78 32 79
REMARK SMILES IDX 33 80 59 81 60 82 69 83 61 84 62 85 68 86 70 87 63 88 64 89
REMARK SMILES IDX 65 90 66 91 67 92 43 93 44 94 53 95 45 96 46 97 52 98 54 99
REMARK SMILES IDX 47 100 48 101 49 102 50 103 51 104
REMARK H PARENT 9 6 87 20 87 21 96 28 13 35 75 54 41 65
REMARK Flexibility Score: inf
ROOT
ATOM      1  C   UNL A   1      39.267  21.299  25.905  1.00  0.00     0.042 C 
ENDROOT
BRANCH   1   2
ATOM      2  C   UNL A   1      38.257  22.441  25.729  1.00  0.00     0.118 C 
BRANCH   2   3
ATOM      3  N   UNL A   1      37.760  22.544  24.367  1.00  0.00    -0.351 N 
ATOM      4  C   UNL A   1      36.604  23.018  23.781  1.00  0.00     0.272 C 
ATOM      5  O   UNL A   1      36.669  23.085  22.547  1.00  0.00    -0.267 OA
ATOM      6  H   UNL A   1      38.400  22.194  23.706  1.00  0.00     0.163 HD
BRANCH   4   7
ATOM      7  C   UNL A   1      35.368  23.437  24.508  1.00  0.00     0.153 A 
ATOM      8  N   UNL A   1      33.525  24.547  24.728  1.00  0.00    -0.265 N 
ATOM      9  N   UNL A   1      34.619  24.419  23.959  1.00  0.00    -0.167 NA
ATOM     10  C   UNL A   1      33.570  23.755  25.834  1.00  0.00     0.043 A 
ATOM     11  C   UNL A   1      34.693  22.974  25.680  1.00  0.00     0.012 A 
ATOM     12  C   UNL A   1      32.552  23.642  26.913  1.00  0.00     0.062 C 
ATOM     13  C   UNL A   1      34.955  21.851  26.589  1.00  0.00     0.105 C 
ATOM     14  C   UNL A   1      32.991  22.609  27.975  1.00  0.00     0.072 C 
ATOM     15  C   UNL A   1      33.775  21.379  27.448  1.00  0.00     0.187 C 
BRANCH   8  16
ATOM     16  C   UNL A   1      32.411  25.367  24.257  1.00  0.00     0.171 C 
BRANCH  16  17
ATOM     17  C   UNL A   1      31.563  24.663  23.237  1.00  0.00    -0.011 C 
ATOM     18  C   UNL A   1      30.828  23.571  23.493  1.00  0.00     0.006 C 
ENDBRANCH  16  17
ENDBRANCH   8  16
BRANCH  15  19
ATOM     19  N   UNL A   1      33.102  20.271  26.723  1.00  0.00    -0.337 N 
ATOM     20  H   UNL A   1      32.174  20.139  27.125  1.00  0.00     0.346 HD
ATOM     21  H   UNL A   1      33.689  19.443  26.828  1.00  0.00     0.346 HD
BRANCH  19  22
ATOM     22  C   UNL A   1      32.958  20.519  25.301  1.00  0.00     0.337 C 
BRANCH  22  23
ATOM     23  C   UNL A   1      33.240  19.306  24.449  1.00  0.00     0.164 A 
ATOM     24  N   UNL A   1      34.069  18.433  24.916  1.00  0.00    -0.234 NA
ATOM     25  N   UNL A   1      32.522  19.133  23.305  1.00  0.00    -0.306 N 
ATOM     26  C   UNL A   1      34.185  17.247  24.247  1.00  0.00     0.045 A 
ATOM     27  C   UNL A   1      32.616  17.989  22.568  1.00  0.00     0.251 A 
ATOM     28  H   UNL A   1      31.920  19.851  23.002  1.00  0.00     0.171 HD
ATOM     29  C   UNL A   1      35.065  16.239  24.924  1.00  0.00     0.067 C 
ATOM     30  C   UNL A   1      33.514  16.961  23.123  1.00  0.00     0.095 A 
ATOM     31  O   UNL A   1      31.995  17.799  21.531  1.00  0.00    -0.270 OA
ENDBRANCH  22  23
ENDBRANCH  19  22
ENDBRANCH  15  19
ENDBRANCH   4   7
ENDBRANCH   2   3
ENDBRANCH   1   2
BRANCH   1  32
ATOM     32  C   UNL A   1      40.444  21.571  26.793  1.00  0.00     0.118 C 
BRANCH  32  33
ATOM     33  N   UNL A   1      41.653  21.902  26.033  1.00  0.00    -0.352 N 
ATOM     34  C   UNL A   1      42.200  23.161  25.863  1.00  0.00     0.251 C 
ATOM     35  H   UNL A   1      42.122  21.153  25.599  1.00  0.00     0.163 HD
ATOM     36  O   UNL A   1      42.920  23.413  24.898  1.00  0.00    -0.269 OA
BRANCH  34  37
ATOM     37  C   UNL A   1      41.866  24.181  26.868  1.00  0.00     0.039 A 
ATOM     38  C   UNL A   1      42.627  24.378  28.017  1.00  0.00     0.014 A 
ATOM     39  C   UNL A   1      40.855  25.065  26.518  1.00  0.00     0.014 A 
ATOM     40  C   UNL A   1      42.421  25.551  28.738  1.00  0.00     0.010 A 
ATOM     41  C   UNL A   1      40.889  26.326  27.038  1.00  0.00     0.010 A 
ATOM     42  C   UNL A   1      41.582  26.551  28.209  1.00  0.00    -0.014 A 
BRANCH  42  43
ATOM     43  C   UNL A   1      41.479  27.874  28.814  1.00  0.00     0.031 A 
ATOM     44  C   UNL A   1      42.518  28.825  28.358  1.00  0.00     0.074 A 
ATOM     45  C   UNL A   1      40.474  28.269  29.628  1.00  0.00     0.049 A 
ATOM     46  N   UNL A   1      43.618  29.093  28.976  1.00  0.00    -0.248 NA
ATOM     47  C   UNL A   1      42.451  29.371  26.995  1.00  0.00     0.031 C 
ATOM     48  C   UNL A   1      39.226  27.576  29.980  1.00  0.00     0.029 A 
ATOM     49  N   UNL A   1      40.340  29.449  30.290  1.00  0.00    -0.354 N 
ATOM     50  C   UNL A   1      44.249  30.064  28.213  1.00  0.00     0.074 A 
ATOM     51  C   UNL A   1      43.619  30.019  26.919  1.00  0.00     0.031 C 
ATOM     52  C   UNL A   1      38.379  28.431  30.593  1.00  0.00     0.029 A 
ATOM     53  C   UNL A   1      39.088  29.667  30.856  1.00  0.00     0.049 A 
ATOM     54  H   UNL A   1      41.074  30.101  30.362  1.00  0.00     0.167 HD
ATOM     55  C   UNL A   1      45.032  31.001  28.815  1.00  0.00     0.037 A 
ATOM     56  C   UNL A   1      38.671  30.773  31.523  1.00  0.00     0.037 A 
ATOM     57  C   UNL A   1      45.352  30.615  30.173  1.00  0.00     0.049 A 
ATOM     58  C   UNL A   1      39.895  31.448  32.027  1.00  0.00     0.074 A 
ATOM     59  C   UNL A   1      45.941  29.504  30.750  1.00  0.00     0.029 A 
ATOM     60  N   UNL A   1      44.664  31.236  31.190  1.00  0.00    -0.354 N 
ATOM     61  N   UNL A   1      40.669  30.937  32.944  1.00  0.00    -0.248 NA
ATOM     62  C   UNL A   1      40.520  32.443  31.170  1.00  0.00     0.031 C 
ATOM     63  C   UNL A   1      45.175  29.247  31.927  1.00  0.00     0.029 A 
ATOM     64  C   UNL A   1      44.224  30.261  32.054  1.00  0.00     0.049 A 
ATOM     65  H   UNL A   1      44.513  32.204  31.284  1.00  0.00     0.167 HD
ATOM     66  C   UNL A   1      41.959  31.187  32.497  1.00  0.00     0.074 A 
ATOM     67  C   UNL A   1      41.804  32.195  31.447  1.00  0.00     0.031 C 
ATOM     68  C   UNL A   1      42.995  30.352  32.814  1.00  0.00     0.037 A 
BRANCH  55  69
ATOM     69  C   UNL A   1      45.169  32.423  28.330  1.00  0.00     0.058 A 
ATOM     70  C   UNL A   1      46.452  32.921  28.026  1.00  0.00     0.135 A 
ATOM     71  C   UNL A   1      44.143  33.391  28.415  1.00  0.00     0.135 A 
ATOM     72  F   UNL A   1      47.502  32.091  27.933  1.00  0.00    -0.206 F 
ATOM     73  C   UNL A   1      46.709  34.285  27.889  1.00  0.00     0.059 A 
ATOM     74  C   UNL A   1      44.366  34.748  28.227  1.00  0.00     0.059 A 
ATOM     75  F   UNL A   1      42.894  33.085  28.783  1.00  0.00    -0.206 F 
ATOM     76  C   UNL A   1      45.658  35.191  28.003  1.00  0.00     0.060 A 
BRANCH  76  77
ATOM     77  S   UNL A   1      46.001  36.955  27.911  1.00  0.00     0.124 S 
ATOM     78  O   UNL A   1      44.829  37.513  28.573  1.00  0.00    -0.237 OA
ATOM     79  O   UNL A   1      47.259  37.054  28.644  1.00  0.00    -0.237 OA
ATOM     80  O   UNL A   1      46.097  37.203  26.476  1.00  0.00    -0.744 OA
ENDBRANCH  76  77
ENDBRANCH  55  69
BRANCH  56  81
ATOM     81  C   UNL A   1      37.350  31.454  31.434  1.00  0.00     0.058 A 
ATOM     82  C   UNL A   1      36.484  31.497  32.542  1.00  0.00     0.135 A 
ATOM     83  C   UNL A   1      37.043  32.335  30.376  1.00  0.00     0.135 A 
ATOM     84  F   UNL A   1      36.700  30.696  33.597  1.00  0.00    -0.206 F 
ATOM     85  C   UNL A   1      35.430  32.413  32.635  1.00  0.00     0.059 A 
ATOM     86  C   UNL A   1      35.994  33.250  30.441  1.00  0.00     0.059 A 
ATOM     87  F   UNL A   1      37.817  32.399  29.282  1.00  0.00    -0.206 F 
ATOM     88  C   UNL A   1      35.212  33.308  31.589  1.00  0.00     0.060 A 
BRANCH  88  89
ATOM     89  S   UNL A   1      33.997  34.634  31.792  1.00  0.00     0.124 S 
ATOM     90  O   UNL A   1      34.841  35.764  32.164  1.00  0.00    -0.237 OA
ATOM     91  O   UNL A   1      33.390  34.703  30.466  1.00  0.00    -0.237 OA
ATOM     92  O   UNL A   1      33.121  34.133  32.847  1.00  0.00    -0.744 OA
ENDBRANCH  88  89
ENDBRANCH  56  81
BRANCH  68  93
ATOM     93  C   UNL A   1      42.776  29.330  33.907  1.00  0.00     0.058 A 
ATOM     94  C   UNL A   1      42.904  29.580  35.288  1.00  0.00     0.135 A 
ATOM     95  C   UNL A   1      42.317  28.057  33.537  1.00  0.00     0.135 A 
ATOM     96  F   UNL A   1      43.222  30.798  35.743  1.00  0.00    -0.206 F 
ATOM     97  C   UNL A   1      42.660  28.589  36.244  1.00  0.00     0.059 A 
ATOM     98  C   UNL A   1      42.034  27.066  34.474  1.00  0.00     0.059 A 
ATOM     99  F   UNL A   1      42.107  27.767  32.242  1.00  0.00    -0.206 F 
ATOM    100  C   UNL A   1      42.233  27.331  35.826  1.00  0.00     0.060 A 
BRANCH 100 101
ATOM    101  S   UNL A   1      41.904  26.053  37.060  1.00  0.00     0.124 S 
ATOM    102  O   UNL A   1      42.114  24.827  36.297  1.00  0.00    -0.237 OA
ATOM    103  O   UNL A   1      42.900  26.338  38.088  1.00  0.00    -0.237 OA
ATOM    104  O   UNL A   1      40.521  26.310  37.458  1.00  0.00    -0.744 OA
ENDBRANCH 100 101
ENDBRANCH  68  93
ENDBRANCH  42  43
ENDBRANCH  34  37
ENDBRANCH  32  33
ENDBRANCH   1  32
TORSDOF 18
ENDMDL
MODEL 2
REMARK VINA RESULT:     -12.6      3.205      9.421
REMARK SMILES C=CCn1nc(C(=O)NCCCNC(=O)c2ccc(-c3c4nc(c(-c5c(F)cc(S(=O)(=O)[O-])cc5F)c5ccc([nH]5)c(-c5c(F)cc(S(=O)(=O)[O-])cc5F)c5nc(c(-c6c(F)cc(S(=O)(=O)[O-])cc6F)c6ccc3[nH]6)C=C5)C=C4)cc2)c2c1CC[C@@H]([NH2+]Cc1nc(C)cc(=O)[nH]1)C2
REMARK SMILES IDX 11 1 10 2 9 3 7 4 8 5 6 7 4 8 5 9 83 10 82 11 84 12 97 13
REMARK SMILES IDX 85 14 86 15 3 16 2 17 1 18 87 19 88 22 89 23 90 24 96 25
REMARK SMILES IDX 91 26 94 27 92 29 93 30 95 31 12 32 13 33 14 34 15 36 16 37
REMARK SMILES IDX 17 38 81 39 18 40 80 41 19 42 20 43 21 44 74 45 22 46 79 47
REMARK SMILES IDX 73 48 75 49 23 50 78 51 72 52 71 53 24 55 58 56 37 57 57 58
REMARK SMILES IDX 38 59 41 60 56 61 76 62 39 63 40 64 55 66 77 67 42 68 25 69
REMARK SMILES IDX 26 70 35 71 27 72 28 73 34 74 36 75 29 76 30 77 31 78 32 79
REMARK SMILES IDX 33 80 59 81 60 82 69 83 61 84 62 85 68 86 70 87 63 88 64 89
REMARK SMILES IDX 65 90 66 91 67 92 43 93 44 94 53 95 45 96 46 97 52 98 54 99
REMARK SMILES IDX 47 100 48 101 49 102 50 103 51 104
REMARK H PARENT 9 6 87 20 87 21 96 28 13 35 75 54 41 65
REMARK Flexibility Score: inf
ROOT
ATOM      1  C   UNL A   1      35.080  30.032  27.454  1.00  0.00     0.042 C 
ENDROOT
BRANCH   1   2
ATOM      2  C   UNL A   1      33.653  30.235  26.926  1.00  0.00     0.118 C 
BRANCH   2   3
ATOM      3  N   UNL A   1      32.674  29.426  27.633  1.00  0.00    -0.351 N 
ATOM      4  C   UNL A   1      31.792  28.425  27.278  1.00  0.00     0.272 C 
ATOM      5  O   UNL A   1      31.261  27.870  28.248  1.00  0.00    -0.267 OA
ATOM      6  H   UNL A   1      32.631  29.642  28.593  1.00  0.00     0.163 HD
BRANCH   4   7
ATOM      7  C   UNL A   1      31.476  27.999  25.882  1.00  0.00     0.153 A 
ATOM      8  N   UNL A   1      30.965  28.353  23.811  1.00  0.00    -0.265 N 
ATOM      9  N   UNL A   1      31.093  28.954  25.005  1.00  0.00    -0.167 NA
ATOM     10  C   UNL A   1      31.146  27.006  23.882  1.00  0.00     0.043 A 
ATOM     11  C   UNL A   1      31.555  26.760  25.174  1.00  0.00     0.012 A 
ATOM     12  C   UNL A   1      31.066  26.018  22.774  1.00  0.00     0.062 C 
ATOM     13  C   UNL A   1      32.041  25.430  25.565  1.00  0.00     0.105 C 
ATOM     14  C   UNL A   1      31.358  24.590  23.289  1.00  0.00     0.072 C 
ATOM     15  C   UNL A   1      32.409  24.475  24.423  1.00  0.00     0.187 C 
BRANCH   8  16
ATOM     16  C   UNL A   1      30.793  29.172  22.613  1.00  0.00     0.171 C 
BRANCH  16  17
ATOM     17  C   UNL A   1      29.534  29.989  22.645  1.00  0.00    -0.011 C 
ATOM     18  C   UNL A   1      28.666  30.075  21.626  1.00  0.00     0.006 C 
ENDBRANCH  16  17
ENDBRANCH   8  16
BRANCH  15  19
ATOM     19  N   UNL A   1      33.863  24.622  24.162  1.00  0.00    -0.337 N 
ATOM     20  H   UNL A   1      34.013  25.490  23.648  1.00  0.00     0.346 HD
ATOM     21  H   UNL A   1      34.158  23.803  23.630  1.00  0.00     0.346 HD
BRANCH  19  22
ATOM     22  C   UNL A   1      34.664  24.660  25.371  1.00  0.00     0.337 C 
BRANCH  22  23
ATOM     23  C   UNL A   1      35.801  23.668  25.370  1.00  0.00     0.164 A 
ATOM     24  N   UNL A   1      36.952  24.086  25.781  1.00  0.00    -0.234 NA
ATOM     25  N   UNL A   1      35.532  22.369  25.062  1.00  0.00    -0.306 N 
ATOM     26  C   UNL A   1      37.936  23.155  25.966  1.00  0.00     0.045 A 
ATOM     27  C   UNL A   1      36.477  21.394  25.189  1.00  0.00     0.251 A 
ATOM     28  H   UNL A   1      34.634  22.128  24.740  1.00  0.00     0.171 HD
ATOM     29  C   UNL A   1      39.196  23.700  26.568  1.00  0.00     0.067 C 
ATOM     30  C   UNL A   1      37.778  21.849  25.714  1.00  0.00     0.095 A 
ATOM     31  O   UNL A   1      36.279  20.219  24.914  1.00  0.00    -0.270 OA
ENDBRANCH  22  23
ENDBRANCH  19  22
ENDBRANCH  15  19
ENDBRANCH   4   7
ENDBRANCH   2   3
ENDBRANCH   1   2
BRANCH   1  32
ATOM     32  C   UNL A   1      35.887  31.271  27.706  1.00  0.00     0.118 C 
BRANCH  32  33
ATOM     33  N   UNL A   1      35.332  32.090  28.787  1.00  0.00    -0.352 N 
ATOM     34  C   UNL A   1      35.498  31.883  30.146  1.00  0.00     0.251 C 
ATOM     35  H   UNL A   1      34.786  32.864  28.521  1.00  0.00     0.163 HD
ATOM     36  O   UNL A   1      34.683  32.320  30.956  1.00  0.00    -0.269 OA
BRANCH  34  37
ATOM     37  C   UNL A   1      36.670  31.105  30.569  1.00  0.00     0.039 A 
ATOM     38  C   UNL A   1      36.615  29.734  30.804  1.00  0.00     0.014 A 
ATOM     39  C   UNL A   1      37.885  31.777  30.541  1.00  0.00     0.014 A 
ATOM     40  C   UNL A   1      37.819  29.041  30.894  1.00  0.00     0.010 A 
ATOM     41  C   UNL A   1      39.020  31.056  30.314  1.00  0.00     0.010 A 
ATOM     42  C   UNL A   1      39.025  29.705  30.593  1.00  0.00    -0.014 A 
BRANCH  42  43
ATOM     43  C   UNL A   1      40.292  28.994  30.476  1.00  0.00     0.031 A 
ATOM     44  C   UNL A   1      40.981  28.781  31.769  1.00  0.00     0.074 A 
ATOM     45  C   UNL A   1      40.771  28.463  29.328  1.00  0.00     0.049 A 
ATOM     46  N   UNL A   1      41.923  29.517  32.253  1.00  0.00    -0.248 NA
ATOM     47  C   UNL A   1      40.443  27.798  32.721  1.00  0.00     0.031 C 
ATOM     48  C   UNL A   1      40.124  28.332  28.014  1.00  0.00     0.029 A 
ATOM     49  N   UNL A   1      41.969  27.855  29.116  1.00  0.00    -0.354 N 
ATOM     50  C   UNL A   1      42.293  28.916  33.446  1.00  0.00     0.074 A 
ATOM     51  C   UNL A   1      41.214  28.026  33.790  1.00  0.00     0.031 C 
ATOM     52  C   UNL A   1      40.838  27.497  27.228  1.00  0.00     0.029 A 
ATOM     53  C   UNL A   1      42.084  27.192  27.900  1.00  0.00     0.049 A 
ATOM     54  H   UNL A   1      42.700  27.883  29.776  1.00  0.00     0.167 HD
ATOM     55  C   UNL A   1      43.581  29.000  33.880  1.00  0.00     0.037 A 
ATOM     56  C   UNL A   1      43.144  26.467  27.458  1.00  0.00     0.037 A 
ATOM     57  C   UNL A   1      44.306  30.023  33.158  1.00  0.00     0.049 A 
ATOM     58  C   UNL A   1      44.330  26.953  28.209  1.00  0.00     0.074 A 
ATOM     59  C   UNL A   1      44.112  31.375  32.939  1.00  0.00     0.029 A 
ATOM     60  N   UNL A   1      45.174  29.613  32.172  1.00  0.00    -0.354 N 
ATOM     61  N   UNL A   1      44.829  28.151  28.065  1.00  0.00    -0.248 NA
ATOM     62  C   UNL A   1      44.653  26.293  29.464  1.00  0.00     0.031 C 
ATOM     63  C   UNL A   1      44.458  31.582  31.569  1.00  0.00     0.029 A 
ATOM     64  C   UNL A   1      44.929  30.374  31.054  1.00  0.00     0.049 A 
ATOM     65  H   UNL A   1      45.850  28.901  32.252  1.00  0.00     0.167 HD
ATOM     66  C   UNL A   1      45.123  28.568  29.356  1.00  0.00     0.074 A 
ATOM     67  C   UNL A   1      45.078  27.349  30.164  1.00  0.00     0.031 C 
ATOM     68  C   UNL A   1      45.091  29.891  29.698  1.00  0.00     0.037 A 
BRANCH  55  69
ATOM     69  C   UNL A   1      44.282  27.910  34.653  1.00  0.00     0.058 A 
ATOM     70  C   UNL A   1      44.405  26.632  34.073  1.00  0.00     0.135 A 
ATOM     71  C   UNL A   1      44.589  27.988  36.030  1.00  0.00     0.135 A 
ATOM     72  F   UNL A   1      44.127  26.441  32.774  1.00  0.00    -0.206 F 
ATOM     73  C   UNL A   1      44.737  25.503  34.822  1.00  0.00     0.059 A 
ATOM     74  C   UNL A   1      44.976  26.886  36.782  1.00  0.00     0.059 A 
ATOM     75  F   UNL A   1      44.434  29.111  36.740  1.00  0.00    -0.206 F 
ATOM     76  C   UNL A   1      45.009  25.641  36.180  1.00  0.00     0.060 A 
BRANCH  76  77
ATOM     77  S   UNL A   1      45.355  24.175  37.164  1.00  0.00     0.124 S 
ATOM     78  O   UNL A   1      44.726  24.523  38.432  1.00  0.00    -0.237 OA
ATOM     79  O   UNL A   1      44.695  23.131  36.387  1.00  0.00    -0.237 OA
ATOM     80  O   UNL A   1      46.813  24.114  37.175  1.00  0.00    -0.744 OA
ENDBRANCH  76  77
ENDBRANCH  55  69
BRANCH  56  81
ATOM     81  C   UNL A   1      43.127  25.172  26.723  1.00  0.00     0.058 A 
ATOM     82  C   UNL A   1      43.584  25.091  25.395  1.00  0.00     0.135 A 
ATOM     83  C   UNL A   1      42.959  23.944  27.395  1.00  0.00     0.135 A 
ATOM     84  F   UNL A   1      43.775  26.209  24.678  1.00  0.00    -0.206 F 
ATOM     85  C   UNL A   1      43.933  23.875  24.796  1.00  0.00     0.059 A 
ATOM     86  C   UNL A   1      43.293  22.720  26.817  1.00  0.00     0.059 A 
ATOM     87  F   UNL A   1      42.555  23.903  28.674  1.00  0.00    -0.206 F 
ATOM     88  C   UNL A   1      43.813  22.695  25.528  1.00  0.00     0.060 A 
BRANCH  88  89
ATOM     89  S   UNL A   1      44.465  21.152  24.844  1.00  0.00     0.124 S 
ATOM     90  O   UNL A   1      43.440  20.190  25.235  1.00  0.00    -0.237 OA
ATOM     91  O   UNL A   1      44.543  21.454  23.418  1.00  0.00    -0.237 OA
ATOM     92  O   UNL A   1      45.753  21.002  25.515  1.00  0.00    -0.744 OA
ENDBRANCH  88  89
ENDBRANCH  56  81
BRANCH  68  93
ATOM     93  C   UNL A   1      45.034  30.913  28.586  1.00  0.00     0.058 A 
ATOM     94  C   UNL A   1      46.155  31.470  27.938  1.00  0.00     0.135 A 
ATOM     95  C   UNL A   1      43.774  31.273  28.084  1.00  0.00     0.135 A 
ATOM     96  F   UNL A   1      47.399  31.099  28.268  1.00  0.00    -0.206 F 
ATOM     97  C   UNL A   1      46.024  32.393  26.896  1.00  0.00     0.059 A 
ATOM     98  C   UNL A   1      43.621  32.162  27.024  1.00  0.00     0.059 A 
ATOM     99  F   UNL A   1      42.662  30.730  28.607  1.00  0.00    -0.206 F 
ATOM    100  C   UNL A   1      44.750  32.741  26.452  1.00  0.00     0.060 A 
BRANCH 100 101
ATOM    101  S   UNL A   1      44.578  33.924  25.097  1.00  0.00     0.124 S 
ATOM    102  O   UNL A   1      45.925  34.475  24.997  1.00  0.00    -0.237 OA
ATOM    103  O   UNL A   1      44.155  33.077  23.986  1.00  0.00    -0.237 OA
ATOM    104  O   UNL A   1      43.560  34.853  25.582  1.00  0.00    -0.744 OA
ENDBRANCH 100 101
ENDBRANCH  68  93
ENDBRANCH  42  43
ENDBRANCH  34  37
ENDBRANCH  32  33
ENDBRANCH   1  32
TORSDOF 18
ENDMDL
MODEL 3
REMARK VINA RESULT:     -12.5      3.733      9.924
REMARK SMILES C=CCn1nc(C(=O)NCCCNC(=O)c2ccc(-c3c4nc(c(-c5c(F)cc(S(=O)(=O)[O-])cc5F)c5ccc([nH]5)c(-c5c(F)cc(S(=O)(=O)[O-])cc5F)c5nc(c(-c6c(F)cc(S(=O)(=O)[O-])cc6F)c6ccc3[nH]6)C=C5)C=C4)cc2)c2c1CC[C@@H]([NH2+]Cc1nc(C)cc(=O)[nH]1)C2
REMARK SMILES IDX 11 1 10 2 9 3 7 4 8 5 6 7 4 8 5 9 83 10 82 11 84 12 97 13
REMARK SMILES IDX 85 14 86 15 3 16 2 17 1 18 87 19 88 22 89 23 90 24 96 25
REMARK SMILES IDX 91 26 94 27 92 29 93 30 95 31 12 32 13 33 14 34 15 36 16 37
REMARK SMILES IDX 17 38 81 39 18 40 80 41 19 42 20 43 21 44 74 45 22 46 79 47
REMARK SMILES IDX 73 48 75 49 23 50 78 51 72 52 71 53 24 55 58 56 37 57 57 58
REMARK SMILES IDX 38 59 41 60 56 61 76 62 39 63 40 64 55 66 77 67 42 68 25 69
REMARK SMILES IDX 26 70 35 71 27 72 28 73 34 74 36 75 29 76 30 77 31 78 32 79
REMARK SMILES IDX 33 80 59 81 60 82 69 83 61 84 62 85 68 86 70 87 63 88 64 89
REMARK SMILES IDX 65 90 66 91 67 92 43 93 44 94 53 95 45 96 46 97 52 98 54 99
REMARK SMILES IDX 47 100 48 101 49 102 50 103 51 104
REMARK H PARENT 9 6 87 20 87 21 96 28 13 35 75 54 41 65
REMARK Flexibility Score: inf
ROOT
ATOM      1  C   UNL A   1      35.272  29.751  28.007  1.00  0.00     0.042 C 
ENDROOT
BRANCH   1   2
ATOM      2  C   UNL A   1      34.288  29.307  26.916  1.00  0.00     0.118 C 
BRANCH   2   3
ATOM      3  N   UNL A   1      32.955  29.049  27.436  1.00  0.00    -0.351 N 
ATOM      4  C   UNL A   1      32.029  28.036  27.293  1.00  0.00     0.272 C 
ATOM      5  O   UNL A   1      31.074  28.128  28.075  1.00  0.00    -0.267 OA
ATOM      6  H   UNL A   1      32.640  29.766  28.033  1.00  0.00     0.163 HD
BRANCH   4   7
ATOM      7  C   UNL A   1      32.117  26.907  26.320  1.00  0.00     0.153 A 
ATOM      8  N   UNL A   1      31.641  24.927  25.592  1.00  0.00    -0.265 N 
ATOM      9  N   UNL A   1      31.514  25.744  26.651  1.00  0.00    -0.167 NA
ATOM     10  C   UNL A   1      32.403  25.469  24.603  1.00  0.00     0.043 A 
ATOM     11  C   UNL A   1      32.652  26.764  25.002  1.00  0.00     0.012 A 
ATOM     12  C   UNL A   1      32.770  24.857  23.299  1.00  0.00     0.062 C 
ATOM     13  C   UNL A   1      33.281  27.722  24.084  1.00  0.00     0.105 C 
ATOM     14  C   UNL A   1      33.636  25.826  22.462  1.00  0.00     0.072 C 
ATOM     15  C   UNL A   1      33.302  27.333  22.600  1.00  0.00     0.187 C 
BRANCH   8  16
ATOM     16  C   UNL A   1      30.883  23.678  25.557  1.00  0.00     0.171 C 
BRANCH  16  17
ATOM     17  C   UNL A   1      31.417  22.648  26.510  1.00  0.00    -0.011 C 
ATOM     18  C   UNL A   1      32.715  22.334  26.629  1.00  0.00     0.006 C 
ENDBRANCH  16  17
ENDBRANCH   8  16
BRANCH  15  19
ATOM     19  N   UNL A   1      32.103  27.933  21.959  1.00  0.00    -0.337 N 
ATOM     20  H   UNL A   1      31.355  27.240  21.962  1.00  0.00     0.346 HD
ATOM     21  H   UNL A   1      32.372  28.206  21.014  1.00  0.00     0.346 HD
BRANCH  19  22
ATOM     22  C   UNL A   1      31.628  29.127  22.632  1.00  0.00     0.337 C 
BRANCH  22  23
ATOM     23  C   UNL A   1      30.194  29.468  22.309  1.00  0.00     0.164 A 
ATOM     24  N   UNL A   1      29.275  28.732  22.841  1.00  0.00    -0.234 NA
ATOM     25  N   UNL A   1      29.940  30.596  21.589  1.00  0.00    -0.306 N 
ATOM     26  C   UNL A   1      27.979  29.145  22.713  1.00  0.00     0.045 A 
ATOM     27  C   UNL A   1      28.667  31.045  21.392  1.00  0.00     0.251 A 
ATOM     28  H   UNL A   1      30.692  31.098  21.201  1.00  0.00     0.171 HD
ATOM     29  C   UNL A   1      26.988  28.310  23.468  1.00  0.00     0.067 C 
ATOM     30  C   UNL A   1      27.614  30.246  22.044  1.00  0.00     0.095 A 
ATOM     31  O   UNL A   1      28.397  32.047  20.744  1.00  0.00    -0.270 OA
ENDBRANCH  22  23
ENDBRANCH  19  22
ENDBRANCH  15  19
ENDBRANCH   4   7
ENDBRANCH   2   3
ENDBRANCH   1   2
BRANCH   1  32
ATOM     32  C   UNL A   1      35.821  31.143  27.894  1.00  0.00     0.118 C 
BRANCH  32  33
ATOM     33  N   UNL A   1      35.330  32.025  28.956  1.00  0.00    -0.352 N 
ATOM     34  C   UNL A   1      35.556  31.884  30.314  1.00  0.00     0.251 C 
ATOM     35  H   UNL A   1      34.784  32.795  28.676  1.00  0.00     0.163 HD
ATOM     36  O   UNL A   1      34.787  32.376  31.138  1.00  0.00    -0.269 OA
BRANCH  34  37
ATOM     37  C   UNL A   1      36.735  31.108  30.722  1.00  0.00     0.039 A 
ATOM     38  C   UNL A   1      36.678  29.742  30.988  1.00  0.00     0.014 A 
ATOM     39  C   UNL A   1      37.952  31.772  30.649  1.00  0.00     0.014 A 
ATOM     40  C   UNL A   1      37.880  29.044  31.060  1.00  0.00     0.010 A 
ATOM     41  C   UNL A   1      39.077  31.039  30.406  1.00  0.00     0.010 A 
ATOM     42  C   UNL A   1      39.081  29.694  30.713  1.00  0.00    -0.014 A 
BRANCH  42  43
ATOM     43  C   UNL A   1      40.341  28.973  30.578  1.00  0.00     0.031 A 
ATOM     44  C   UNL A   1      41.043  28.745  31.861  1.00  0.00     0.074 A 
ATOM     45  C   UNL A   1      40.802  28.444  29.421  1.00  0.00     0.049 A 
ATOM     46  N   UNL A   1      41.996  29.470  32.339  1.00  0.00    -0.248 NA
ATOM     47  C   UNL A   1      40.507  27.761  32.813  1.00  0.00     0.031 C 
ATOM     48  C   UNL A   1      40.139  28.328  28.114  1.00  0.00     0.029 A 
ATOM     49  N   UNL A   1      41.992  27.827  29.192  1.00  0.00    -0.354 N 
ATOM     50  C   UNL A   1      42.375  28.858  33.524  1.00  0.00     0.074 A 
ATOM     51  C   UNL A   1      41.291  27.976  33.875  1.00  0.00     0.031 C 
ATOM     52  C   UNL A   1      40.836  27.491  27.315  1.00  0.00     0.029 A 
ATOM     53  C   UNL A   1      42.088  27.170  27.970  1.00  0.00     0.049 A 
ATOM     54  H   UNL A   1      42.730  27.845  29.844  1.00  0.00     0.167 HD
ATOM     55  C   UNL A   1      43.667  28.928  33.945  1.00  0.00     0.037 A 
ATOM     56  C   UNL A   1      43.136  26.439  27.512  1.00  0.00     0.037 A 
ATOM     57  C   UNL A   1      44.393  29.949  33.220  1.00  0.00     0.049 A 
ATOM     58  C   UNL A   1      44.334  26.910  28.253  1.00  0.00     0.074 A 
ATOM     59  C   UNL A   1      44.209  31.305  33.012  1.00  0.00     0.029 A 
ATOM     60  N   UNL A   1      45.247  29.538  32.222  1.00  0.00    -0.354 N 
ATOM     61  N   UNL A   1      44.842  28.104  28.111  1.00  0.00    -0.248 NA
ATOM     62  C   UNL A   1      44.666  26.239  29.500  1.00  0.00     0.031 C 
ATOM     63  C   UNL A   1      44.541  31.517  31.639  1.00  0.00     0.029 A 
ATOM     64  C   UNL A   1      44.996  30.308  31.112  1.00  0.00     0.049 A 
ATOM     65  H   UNL A   1      45.917  28.820  32.290  1.00  0.00     0.167 HD
ATOM     66  C   UNL A   1      45.155  28.511  29.400  1.00  0.00     0.074 A 
ATOM     67  C   UNL A   1      45.108  27.287  30.201  1.00  0.00     0.031 C 
ATOM     68  C   UNL A   1      45.139  29.833  29.751  1.00  0.00     0.037 A 
BRANCH  55  69
ATOM     69  C   UNL A   1      44.368  27.828  34.702  1.00  0.00     0.058 A 
ATOM     70  C   UNL A   1      45.115  28.157  35.850  1.00  0.00     0.135 A 
ATOM     71  C   UNL A   1      44.566  26.522  34.199  1.00  0.00     0.135 A 
ATOM     72  F   UNL A   1      45.014  29.376  36.405  1.00  0.00    -0.206 F 
ATOM     73  C   UNL A   1      46.042  27.280  36.414  1.00  0.00     0.059 A 
ATOM     74  C   UNL A   1      45.442  25.613  34.779  1.00  0.00     0.059 A 
ATOM     75  F   UNL A   1      43.998  26.093  33.067  1.00  0.00    -0.206 F 
ATOM     76  C   UNL A   1      46.205  26.014  35.861  1.00  0.00     0.060 A 
BRANCH  76  77
ATOM     77  S   UNL A   1      47.460  24.913  36.533  1.00  0.00     0.124 S 
ATOM     78  O   UNL A   1      46.937  24.660  37.870  1.00  0.00    -0.237 OA
ATOM     79  O   UNL A   1      47.404  23.792  35.601  1.00  0.00    -0.237 OA
ATOM     80  O   UNL A   1      48.678  25.714  36.469  1.00  0.00    -0.744 OA
ENDBRANCH  76  77
ENDBRANCH  55  69
BRANCH  56  81
ATOM     81  C   UNL A   1      43.099  25.149  26.770  1.00  0.00     0.058 A 
ATOM     82  C   UNL A   1      43.678  25.035  25.493  1.00  0.00     0.135 A 
ATOM     83  C   UNL A   1      42.778  23.936  27.412  1.00  0.00     0.135 A 
ATOM     84  F   UNL A   1      44.020  26.137  24.806  1.00  0.00    -0.206 F 
ATOM     85  C   UNL A   1      43.998  23.798  24.922  1.00  0.00     0.059 A 
ATOM     86  C   UNL A   1      43.079  22.691  26.861  1.00  0.00     0.059 A 
ATOM     87  F   UNL A   1      42.247  23.924  28.645  1.00  0.00    -0.206 F 
ATOM     88  C   UNL A   1      43.721  22.630  25.630  1.00  0.00     0.060 A 
BRANCH  88  89
ATOM     89  S   UNL A   1      44.326  21.043  25.002  1.00  0.00     0.124 S 
ATOM     90  O   UNL A   1      44.434  21.306  23.571  1.00  0.00    -0.237 OA
ATOM     91  O   UNL A   1      45.587  20.888  25.718  1.00  0.00    -0.237 OA
ATOM     92  O   UNL A   1      43.276  20.104  25.388  1.00  0.00    -0.744 OA
ENDBRANCH  88  89
ENDBRANCH  56  81
BRANCH  68  93
ATOM     93  C   UNL A   1      45.078  30.861  28.646  1.00  0.00     0.058 A 
ATOM     94  C   UNL A   1      43.896  31.336  28.043  1.00  0.00     0.135 A 
ATOM     95  C   UNL A   1      46.277  31.469  28.244  1.00  0.00     0.135 A 
ATOM     96  F   UNL A   1      42.694  30.901  28.443  1.00  0.00    -0.206 F 
ATOM     97  C   UNL A   1      43.917  32.310  27.041  1.00  0.00     0.059 A 
ATOM     98  C   UNL A   1      46.318  32.467  27.273  1.00  0.00     0.059 A 
ATOM     99  F   UNL A   1      47.437  31.116  28.822  1.00  0.00    -0.206 F 
ATOM    100  C   UNL A   1      45.136  32.864  26.655  1.00  0.00     0.060 A 
BRANCH 100 101
ATOM    101  S   UNL A   1      45.164  34.133  25.370  1.00  0.00     0.124 S 
ATOM    102  O   UNL A   1      44.523  33.451  24.250  1.00  0.00    -0.237 OA
ATOM    103  O   UNL A   1      44.396  35.217  25.974  1.00  0.00    -0.237 OA
ATOM    104  O   UNL A   1      46.588  34.413  25.196  1.00  0.00    -0.744 OA
ENDBRANCH 100 101
ENDBRANCH  68  93
ENDBRANCH  42  43
ENDBRANCH  34  37
ENDBRANCH  32  33
ENDBRANCH   1  32
TORSDOF 18
ENDMDL
