MODEL 1
REMARK VINA RESULT:      -9.3      0.000      0.000
REMARK SMILES C=CC[N@@H+](CC(=O)NCCCNC(=O)c1ccc(-c2c3nc(c(-c4c(F)cc(S(=O)(=O)[O-])cc4F)c4ccc([nH]4)c(-c4c(F)cc(S(=O)(=O)[O-])cc4F)c4nc(c(-c5c(F)cc(S(=O)(=O)[O-])cc5F)c5ccc2[nH]5)C=C4)C=C3)cc1)C(C)C
REMARK SMILES IDX 10 1 9 2 8 3 6 4 7 5 5 7 4 8 3 10 2 11 1 12 81 13 82 14
REMARK SMILES IDX 83 15 11 16 12 17 13 18 14 20 15 21 16 22 80 23 17 24 79 25
REMARK SMILES IDX 18 26 19 27 20 28 73 29 21 30 78 31 72 32 74 33 22 34 77 35
REMARK SMILES IDX 71 36 70 37 23 39 57 40 36 41 56 42 37 43 40 44 55 45 75 46
REMARK SMILES IDX 38 47 39 48 54 50 76 51 41 52 24 53 25 54 34 55 26 56 27 57
REMARK SMILES IDX 33 58 35 59 28 60 29 61 30 62 31 63 32 64 58 65 59 66 68 67
REMARK SMILES IDX 60 68 61 69 67 70 69 71 62 72 63 73 64 74 65 75 66 76 42 77
REMARK SMILES IDX 43 78 52 79 44 80 45 81 51 82 53 83 46 84 47 85 48 86 49 87
REMARK SMILES IDX 50 88
REMARK H PARENT 8 6 4 9 12 19 74 38 40 49
REMARK Flexibility Score: inf
ROOT
ATOM      1  C   UNL A   1      33.099  34.131  28.186  1.00  0.00     0.042 C 
ENDROOT
BRANCH   1   2
ATOM      2  C   UNL A   1      33.409  35.301  29.125  1.00  0.00     0.118 C 
BRANCH   2   3
ATOM      3  N   UNL A   1      32.529  35.337  30.281  1.00  0.00    -0.351 N 
ATOM      4  C   UNL A   1      32.767  35.582  31.603  1.00  0.00     0.275 C 
ATOM      5  O   UNL A   1      31.771  35.649  32.334  1.00  0.00    -0.269 OA
ATOM      6  H   UNL A   1      31.585  35.149  30.073  1.00  0.00     0.163 HD
BRANCH   4   7
ATOM      7  C   UNL A   1      34.168  35.826  32.181  1.00  0.00     0.363 C 
BRANCH   7   8
ATOM      8  N   UNL A   1      34.957  34.638  32.611  1.00  0.00    -0.322 N 
ATOM      9  H   UNL A   1      34.326  33.933  32.993  1.00  0.00     0.349 HD
BRANCH   8  10
ATOM     10  C   UNL A   1      35.796  34.953  33.757  1.00  0.00     0.291 C 
BRANCH  10  11
ATOM     11  C   UNL A   1      35.992  33.934  34.830  1.00  0.00     0.025 C 
ATOM     12  C   UNL A   1      36.963  33.009  34.792  1.00  0.00     0.010 C 
ENDBRANCH  10  11
ENDBRANCH   8  10
BRANCH   8  13
ATOM     13  C   UNL A   1      35.493  33.815  31.505  1.00  0.00     0.178 C 
ATOM     14  C   UNL A   1      36.993  33.935  31.201  1.00  0.00     0.075 C 
ATOM     15  C   UNL A   1      35.154  32.321  31.653  1.00  0.00     0.075 C 
ENDBRANCH   8  13
ENDBRANCH   7   8
ENDBRANCH   4   7
ENDBRANCH   2   3
ENDBRANCH   1   2
BRANCH   1  16
ATOM     16  C   UNL A   1      34.141  33.023  28.158  1.00  0.00     0.118 C 
BRANCH  16  17
ATOM     17  N   UNL A   1      33.670  31.828  27.486  1.00  0.00    -0.352 N 
ATOM     18  C   UNL A   1      34.271  30.612  27.261  1.00  0.00     0.251 C 
ATOM     19  H   UNL A   1      32.756  31.900  27.126  1.00  0.00     0.163 HD
ATOM     20  O   UNL A   1      33.718  29.831  26.487  1.00  0.00    -0.269 OA
BRANCH  18  21
ATOM     21  C   UNL A   1      35.560  30.219  27.892  1.00  0.00     0.039 A 
ATOM     22  C   UNL A   1      35.526  29.668  29.180  1.00  0.00     0.014 A 
ATOM     23  C   UNL A   1      36.802  30.456  27.298  1.00  0.00     0.014 A 
ATOM     24  C   UNL A   1      36.713  29.325  29.840  1.00  0.00     0.010 A 
ATOM     25  C   UNL A   1      37.980  30.024  27.915  1.00  0.00     0.010 A 
ATOM     26  C   UNL A   1      37.954  29.475  29.205  1.00  0.00    -0.014 A 
BRANCH  26  27
ATOM     27  C   UNL A   1      39.226  29.108  29.888  1.00  0.00     0.031 A 
ATOM     28  C   UNL A   1      39.659  29.836  31.138  1.00  0.00     0.074 A 
ATOM     29  C   UNL A   1      40.019  28.149  29.370  1.00  0.00     0.049 A 
ATOM     30  N   UNL A   1      40.754  29.694  31.843  1.00  0.00    -0.248 NA
ATOM     31  C   UNL A   1      38.753  30.878  31.646  1.00  0.00     0.031 C 
ATOM     32  C   UNL A   1      39.743  27.392  28.147  1.00  0.00     0.029 A 
ATOM     33  N   UNL A   1      41.222  27.646  29.804  1.00  0.00    -0.354 N 
ATOM     34  C   UNL A   1      40.677  30.639  32.861  1.00  0.00     0.074 A 
ATOM     35  C   UNL A   1      39.456  31.385  32.650  1.00  0.00     0.031 C 
ATOM     36  C   UNL A   1      40.731  26.505  27.945  1.00  0.00     0.029 A 
ATOM     37  C   UNL A   1      41.728  26.652  29.001  1.00  0.00     0.049 A 
ATOM     38  H   UNL A   1      41.680  27.969  30.613  1.00  0.00     0.167 HD
ATOM     39  C   UNL A   1      41.530  30.854  33.893  1.00  0.00     0.037 A 
ATOM     40  C   UNL A   1      42.867  25.936  29.099  1.00  0.00     0.037 A 
ATOM     41  C   UNL A   1      42.730  30.090  34.123  1.00  0.00     0.049 A 
ATOM     42  C   UNL A   1      43.797  26.184  30.255  1.00  0.00     0.074 A 
ATOM     43  C   UNL A   1      43.628  30.191  35.170  1.00  0.00     0.029 A 
ATOM     44  N   UNL A   1      43.198  29.081  33.293  1.00  0.00    -0.354 N 
ATOM     45  N   UNL A   1      43.681  27.047  31.237  1.00  0.00    -0.248 NA
ATOM     46  C   UNL A   1      45.011  25.358  30.321  1.00  0.00     0.031 C 
ATOM     47  C   UNL A   1      44.660  29.271  34.954  1.00  0.00     0.029 A 
ATOM     48  C   UNL A   1      44.381  28.564  33.795  1.00  0.00     0.049 A 
ATOM     49  H   UNL A   1      42.754  28.777  32.468  1.00  0.00     0.167 HD
ATOM     50  C   UNL A   1      44.792  26.851  32.049  1.00  0.00     0.074 A 
ATOM     51  C   UNL A   1      45.564  25.781  31.451  1.00  0.00     0.031 C 
ATOM     52  C   UNL A   1      45.139  27.496  33.191  1.00  0.00     0.037 A 
BRANCH  39  53
ATOM     53  C   UNL A   1      41.191  31.962  34.854  1.00  0.00     0.058 A 
ATOM     54  C   UNL A   1      41.709  33.258  34.698  1.00  0.00     0.135 A 
ATOM     55  C   UNL A   1      40.332  31.729  35.940  1.00  0.00     0.135 A 
ATOM     56  F   UNL A   1      42.546  33.534  33.686  1.00  0.00    -0.206 F 
ATOM     57  C   UNL A   1      41.424  34.270  35.609  1.00  0.00     0.059 A 
ATOM     58  C   UNL A   1      40.008  32.735  36.846  1.00  0.00     0.059 A 
ATOM     59  F   UNL A   1      39.802  30.511  36.135  1.00  0.00    -0.206 F 
ATOM     60  C   UNL A   1      40.578  33.998  36.684  1.00  0.00     0.060 A 
BRANCH  60  61
ATOM     61  S   UNL A   1      40.235  35.312  37.873  1.00  0.00     0.124 S 
ATOM     62  O   UNL A   1      41.501  35.380  38.601  1.00  0.00    -0.237 OA
ATOM     63  O   UNL A   1      39.947  36.453  37.004  1.00  0.00    -0.237 OA
ATOM     64  O   UNL A   1      39.101  34.802  38.630  1.00  0.00    -0.744 OA
ENDBRANCH  60  61
ENDBRANCH  39  53
BRANCH  40  65
ATOM     65  C   UNL A   1      43.169  24.889  28.088  1.00  0.00     0.058 A 
ATOM     66  C   UNL A   1      43.800  25.218  26.880  1.00  0.00     0.135 A 
ATOM     67  C   UNL A   1      42.867  23.539  28.322  1.00  0.00     0.135 A 
ATOM     68  F   UNL A   1      44.101  26.497  26.608  1.00  0.00    -0.206 F 
ATOM     69  C   UNL A   1      44.117  24.247  25.935  1.00  0.00     0.059 A 
ATOM     70  C   UNL A   1      43.194  22.547  27.402  1.00  0.00     0.059 A 
ATOM     71  F   UNL A   1      42.276  23.170  29.470  1.00  0.00    -0.206 F 
ATOM     72  C   UNL A   1      43.816  22.913  26.209  1.00  0.00     0.060 A 
BRANCH  72  73
ATOM     73  S   UNL A   1      44.298  21.652  25.008  1.00  0.00     0.124 S 
ATOM     74  O   UNL A   1      44.152  22.373  23.749  1.00  0.00    -0.237 OA
ATOM     75  O   UNL A   1      45.666  21.348  25.416  1.00  0.00    -0.237 OA
ATOM     76  O   UNL A   1      43.332  20.583  25.239  1.00  0.00    -0.744 OA
ENDBRANCH  72  73
ENDBRANCH  40  65
BRANCH  52  77
ATOM     77  C   UNL A   1      46.393  27.047  33.887  1.00  0.00     0.058 A 
ATOM     78  C   UNL A   1      46.392  25.970  34.787  1.00  0.00     0.135 A 
ATOM     79  C   UNL A   1      47.621  27.671  33.611  1.00  0.00     0.135 A 
ATOM     80  F   UNL A   1      45.244  25.344  35.090  1.00  0.00    -0.206 F 
ATOM     81  C   UNL A   1      47.562  25.541  35.407  1.00  0.00     0.059 A 
ATOM     82  C   UNL A   1      48.806  27.242  34.201  1.00  0.00     0.059 A 
ATOM     83  F   UNL A   1      47.678  28.698  32.750  1.00  0.00    -0.206 F 
ATOM     84  C   UNL A   1      48.764  26.183  35.107  1.00  0.00     0.060 A 
BRANCH  84  85
ATOM     85  S   UNL A   1      50.280  25.596  35.891  1.00  0.00     0.124 S 
ATOM     86  O   UNL A   1      50.509  24.340  35.185  1.00  0.00    -0.237 OA
ATOM     87  O   UNL A   1      51.224  26.670  35.597  1.00  0.00    -0.237 OA
ATOM     88  O   UNL A   1      49.907  25.466  37.297  1.00  0.00    -0.744 OA
ENDBRANCH  84  85
ENDBRANCH  52  77
ENDBRANCH  26  27
ENDBRANCH  18  21
ENDBRANCH  16  17
ENDBRANCH   1  16
TORSDOF 17
ENDMDL
MODEL 2
REMARK VINA RESULT:      -9.1      5.495      7.650
REMARK SMILES C=CC[N@@H+](CC(=O)NCCCNC(=O)c1ccc(-c2c3nc(c(-c4c(F)cc(S(=O)(=O)[O-])cc4F)c4ccc([nH]4)c(-c4c(F)cc(S(=O)(=O)[O-])cc4F)c4nc(c(-c5c(F)cc(S(=O)(=O)[O-])cc5F)c5ccc2[nH]5)C=C4)C=C3)cc1)C(C)C
REMARK SMILES IDX 10 1 9 2 8 3 6 4 7 5 5 7 4 8 3 10 2 11 1 12 81 13 82 14
REMARK SMILES IDX 83 15 11 16 12 17 13 18 14 20 15 21 16 22 80 23 17 24 79 25
REMARK SMILES IDX 18 26 19 27 20 28 73 29 21 30 78 31 72 32 74 33 22 34 77 35
REMARK SMILES IDX 71 36 70 37 23 39 57 40 36 41 56 42 37 43 40 44 55 45 75 46
REMARK SMILES IDX 38 47 39 48 54 50 76 51 41 52 24 53 25 54 34 55 26 56 27 57
REMARK SMILES IDX 33 58 35 59 28 60 29 61 30 62 31 63 32 64 58 65 59 66 68 67
REMARK SMILES IDX 60 68 61 69 67 70 69 71 62 72 63 73 64 74 65 75 66 76 42 77
REMARK SMILES IDX 43 78 52 79 44 80 45 81 51 82 53 83 46 84 47 85 48 86 49 87
REMARK SMILES IDX 50 88
REMARK H PARENT 8 6 4 9 12 19 74 38 40 49
REMARK Flexibility Score: inf
ROOT
ATOM      1  C   UNL A   1      34.622  30.797  27.257  1.00  0.00     0.042 C 
ENDROOT
BRANCH   1   2
ATOM      2  C   UNL A   1      34.528  29.272  27.353  1.00  0.00     0.118 C 
BRANCH   2   3
ATOM      3  N   UNL A   1      33.222  28.820  27.805  1.00  0.00    -0.351 N 
ATOM      4  C   UNL A   1      32.140  28.335  27.129  1.00  0.00     0.275 C 
ATOM      5  O   UNL A   1      31.200  27.927  27.824  1.00  0.00    -0.269 OA
ATOM      6  H   UNL A   1      33.094  28.875  28.779  1.00  0.00     0.163 HD
BRANCH   4   7
ATOM      7  C   UNL A   1      32.072  28.227  25.599  1.00  0.00     0.363 C 
BRANCH   7   8
ATOM      8  N   UNL A   1      32.401  26.912  24.981  1.00  0.00    -0.322 N 
ATOM      9  H   UNL A   1      33.267  26.997  24.448  1.00  0.00     0.349 HD
BRANCH   8  10
ATOM     10  C   UNL A   1      31.438  26.563  23.949  1.00  0.00     0.291 C 
BRANCH  10  11
ATOM     11  C   UNL A   1      30.053  27.119  24.014  1.00  0.00     0.025 C 
ATOM     12  C   UNL A   1      28.970  26.360  24.243  1.00  0.00     0.010 C 
ENDBRANCH  10  11
ENDBRANCH   8  10
BRANCH   8  13
ATOM     13  C   UNL A   1      32.877  25.882  25.929  1.00  0.00     0.178 C 
ATOM     14  C   UNL A   1      31.905  24.747  26.281  1.00  0.00     0.075 C 
ATOM     15  C   UNL A   1      34.215  25.249  25.505  1.00  0.00     0.075 C 
ENDBRANCH   8  13
ENDBRANCH   7   8
ENDBRANCH   4   7
ENDBRANCH   2   3
ENDBRANCH   1   2
BRANCH   1  16
ATOM     16  C   UNL A   1      35.656  31.446  28.165  1.00  0.00     0.118 C 
BRANCH  16  17
ATOM     17  N   UNL A   1      35.532  31.024  29.547  1.00  0.00    -0.352 N 
ATOM     18  C   UNL A   1      36.367  30.288  30.353  1.00  0.00     0.251 C 
ATOM     19  H   UNL A   1      34.701  31.318  29.986  1.00  0.00     0.163 HD
ATOM     20  O   UNL A   1      35.929  29.904  31.438  1.00  0.00    -0.269 OA
BRANCH  18  21
ATOM     21  C   UNL A   1      37.755  29.923  29.959  1.00  0.00     0.039 A 
ATOM     22  C   UNL A   1      38.054  29.835  28.593  1.00  0.00     0.014 A 
ATOM     23  C   UNL A   1      38.743  29.579  30.885  1.00  0.00     0.014 A 
ATOM     24  C   UNL A   1      39.331  29.448  28.167  1.00  0.00     0.010 A 
ATOM     25  C   UNL A   1      40.044  29.290  30.462  1.00  0.00     0.010 A 
ATOM     26  C   UNL A   1      40.350  29.197  29.096  1.00  0.00    -0.014 A 
BRANCH  26  27
ATOM     27  C   UNL A   1      41.717  28.793  28.661  1.00  0.00     0.031 A 
ATOM     28  C   UNL A   1      42.832  29.809  28.607  1.00  0.00     0.074 A 
ATOM     29  C   UNL A   1      41.955  27.524  28.274  1.00  0.00     0.049 A 
ATOM     30  N   UNL A   1      44.070  29.659  28.207  1.00  0.00    -0.248 NA
ATOM     31  C   UNL A   1      42.504  31.178  29.032  1.00  0.00     0.031 C 
ATOM     32  C   UNL A   1      40.960  26.449  28.239  1.00  0.00     0.029 A 
ATOM     33  N   UNL A   1      43.108  26.920  27.832  1.00  0.00    -0.354 N 
ATOM     34  C   UNL A   1      44.660  30.915  28.314  1.00  0.00     0.074 A 
ATOM     35  C   UNL A   1      43.630  31.825  28.763  1.00  0.00     0.031 C 
ATOM     36  C   UNL A   1      41.551  25.316  27.829  1.00  0.00     0.029 A 
ATOM     37  C   UNL A   1      42.955  25.586  27.536  1.00  0.00     0.049 A 
ATOM     38  H   UNL A   1      43.962  27.398  27.736  1.00  0.00     0.167 HD
ATOM     39  C   UNL A   1      45.946  31.276  28.084  1.00  0.00     0.037 A 
ATOM     40  C   UNL A   1      43.843  24.680  27.079  1.00  0.00     0.037 A 
ATOM     41  C   UNL A   1      46.981  30.364  27.669  1.00  0.00     0.049 A 
ATOM     42  C   UNL A   1      45.268  25.099  26.837  1.00  0.00     0.074 A 
ATOM     43  C   UNL A   1      48.326  30.621  27.466  1.00  0.00     0.029 A 
ATOM     44  N   UNL A   1      46.787  29.019  27.394  1.00  0.00    -0.354 N 
ATOM     45  N   UNL A   1      45.818  26.280  26.994  1.00  0.00    -0.248 NA
ATOM     46  C   UNL A   1      46.193  24.062  26.361  1.00  0.00     0.031 C 
ATOM     47  C   UNL A   1      48.938  29.440  27.031  1.00  0.00     0.029 A 
ATOM     48  C   UNL A   1      47.983  28.436  27.007  1.00  0.00     0.049 A 
ATOM     49  H   UNL A   1      45.926  28.546  27.464  1.00  0.00     0.167 HD
ATOM     50  C   UNL A   1      47.158  26.122  26.660  1.00  0.00     0.074 A 
ATOM     51  C   UNL A   1      47.339  24.730  26.302  1.00  0.00     0.031 C 
ATOM     52  C   UNL A   1      48.151  27.047  26.655  1.00  0.00     0.037 A 
BRANCH  39  53
ATOM     53  C   UNL A   1      46.305  32.725  28.281  1.00  0.00     0.058 A 
ATOM     54  C   UNL A   1      46.173  33.666  27.246  1.00  0.00     0.135 A 
ATOM     55  C   UNL A   1      46.780  33.183  29.521  1.00  0.00     0.135 A 
ATOM     56  F   UNL A   1      45.737  33.282  26.036  1.00  0.00    -0.206 F 
ATOM     57  C   UNL A   1      46.541  34.996  27.420  1.00  0.00     0.059 A 
ATOM     58  C   UNL A   1      47.125  34.516  29.726  1.00  0.00     0.059 A 
ATOM     59  F   UNL A   1      46.920  32.330  30.548  1.00  0.00    -0.206 F 
ATOM     60  C   UNL A   1      47.022  35.411  28.661  1.00  0.00     0.060 A 
BRANCH  60  61
ATOM     61  S   UNL A   1      47.519  37.134  28.867  1.00  0.00     0.124 S 
ATOM     62  O   UNL A   1      48.600  37.241  27.889  1.00  0.00    -0.237 OA
ATOM     63  O   UNL A   1      46.293  37.856  28.531  1.00  0.00    -0.237 OA
ATOM     64  O   UNL A   1      47.924  37.209  30.263  1.00  0.00    -0.744 OA
ENDBRANCH  60  61
ENDBRANCH  39  53
BRANCH  40  65
ATOM     65  C   UNL A   1      43.413  23.274  26.857  1.00  0.00     0.058 A 
ATOM     66  C   UNL A   1      43.273  22.763  25.558  1.00  0.00     0.135 A 
ATOM     67  C   UNL A   1      43.168  22.407  27.931  1.00  0.00     0.135 A 
ATOM     68  F   UNL A   1      43.490  23.557  24.498  1.00  0.00    -0.206 F 
ATOM     69  C   UNL A   1      42.901  21.442  25.331  1.00  0.00     0.059 A 
ATOM     70  C   UNL A   1      42.816  21.075  27.730  1.00  0.00     0.059 A 
ATOM     71  F   UNL A   1      43.302  22.844  29.194  1.00  0.00    -0.206 F 
ATOM     72  C   UNL A   1      42.681  20.603  26.425  1.00  0.00     0.060 A 
BRANCH  72  73
ATOM     73  S   UNL A   1      42.270  18.871  26.119  1.00  0.00     0.124 S 
ATOM     74  O   UNL A   1      43.205  18.531  25.053  1.00  0.00    -0.237 OA
ATOM     75  O   UNL A   1      42.532  18.260  27.418  1.00  0.00    -0.237 OA
ATOM     76  O   UNL A   1      40.863  18.924  25.733  1.00  0.00    -0.744 OA
ENDBRANCH  72  73
ENDBRANCH  40  65
BRANCH  52  77
ATOM     77  C   UNL A   1      49.529  26.581  26.278  1.00  0.00     0.058 A 
ATOM     78  C   UNL A   1      50.031  26.739  24.977  1.00  0.00     0.135 A 
ATOM     79  C   UNL A   1      50.377  26.015  27.244  1.00  0.00     0.135 A 
ATOM     80  F   UNL A   1      49.260  27.270  24.015  1.00  0.00    -0.206 F 
ATOM     81  C   UNL A   1      51.319  26.332  24.642  1.00  0.00     0.059 A 
ATOM     82  C   UNL A   1      51.676  25.623  26.936  1.00  0.00     0.059 A 
ATOM     83  F   UNL A   1      49.949  25.850  28.506  1.00  0.00    -0.206 F 
ATOM     84  C   UNL A   1      52.134  25.775  25.628  1.00  0.00     0.060 A 
BRANCH  84  85
ATOM     85  S   UNL A   1      53.813  25.281  25.188  1.00  0.00     0.124 S 
ATOM     86  O   UNL A   1      53.702  23.826  25.194  1.00  0.00    -0.237 OA
ATOM     87  O   UNL A   1      53.990  25.898  23.878  1.00  0.00    -0.237 OA
ATOM     88  O   UNL A   1      54.626  25.852  26.257  1.00  0.00    -0.744 OA
ENDBRANCH  84  85
ENDBRANCH  52  77
ENDBRANCH  26  27
ENDBRANCH  18  21
ENDBRANCH  16  17
ENDBRANCH   1  16
TORSDOF 17
ENDMDL
MODEL 3
REMARK VINA RESULT:      -9.1      5.557      7.858
REMARK SMILES C=CC[N@@H+](CC(=O)NCCCNC(=O)c1ccc(-c2c3nc(c(-c4c(F)cc(S(=O)(=O)[O-])cc4F)c4ccc([nH]4)c(-c4c(F)cc(S(=O)(=O)[O-])cc4F)c4nc(c(-c5c(F)cc(S(=O)(=O)[O-])cc5F)c5ccc2[nH]5)C=C4)C=C3)cc1)C(C)C
REMARK SMILES IDX 10 1 9 2 8 3 6 4 7 5 5 7 4 8 3 10 2 11 1 12 81 13 82 14
REMARK SMILES IDX 83 15 11 16 12 17 13 18 14 20 15 21 16 22 80 23 17 24 79 25
REMARK SMILES IDX 18 26 19 27 20 28 73 29 21 30 78 31 72 32 74 33 22 34 77 35
REMARK SMILES IDX 71 36 70 37 23 39 57 40 36 41 56 42 37 43 40 44 55 45 75 46
REMARK SMILES IDX 38 47 39 48 54 50 76 51 41 52 24 53 25 54 34 55 26 56 27 57
REMARK SMILES IDX 33 58 35 59 28 60 29 61 30 62 31 63 32 64 58 65 59 66 68 67
REMARK SMILES IDX 60 68 61 69 67 70 69 71 62 72 63 73 64 74 65 75 66 76 42 77
REMARK SMILES IDX 43 78 52 79 44 80 45 81 51 82 53 83 46 84 47 85 48 86 49 87
REMARK SMILES IDX 50 88
REMARK H PARENT 8 6 4 9 12 19 74 38 40 49
REMARK Flexibility Score: inf
ROOT
ATOM      1  C   UNL A   1      34.601  29.455  27.401  1.00  0.00     0.042 C 
ENDROOT
BRANCH   1   2
ATOM      2  C   UNL A   1      33.393  29.784  26.519  1.00  0.00     0.118 C 
BRANCH   2   3
ATOM      3  N   UNL A   1      33.609  29.437  25.123  1.00  0.00    -0.351 N 
ATOM      4  C   UNL A   1      32.744  29.114  24.118  1.00  0.00     0.275 C 
ATOM      5  O   UNL A   1      33.241  28.975  22.994  1.00  0.00    -0.269 OA
ATOM      6  H   UNL A   1      34.555  29.435  24.853  1.00  0.00     0.163 HD
BRANCH   4   7
ATOM      7  C   UNL A   1      31.227  28.978  24.315  1.00  0.00     0.363 C 
BRANCH   7   8
ATOM      8  N   UNL A   1      30.506  27.983  23.473  1.00  0.00    -0.322 N 
ATOM      9  H   UNL A   1      31.183  27.426  22.952  1.00  0.00     0.349 HD
BRANCH   8  10
ATOM     10  C   UNL A   1      29.764  28.639  22.407  1.00  0.00     0.291 C 
BRANCH  10  11
ATOM     11  C   UNL A   1      28.827  29.754  22.739  1.00  0.00     0.025 C 
ATOM     12  C   UNL A   1      28.065  30.367  21.820  1.00  0.00     0.010 C 
ENDBRANCH  10  11
ENDBRANCH   8  10
BRANCH   8  13
ATOM     13  C   UNL A   1      29.893  26.864  24.220  1.00  0.00     0.178 C 
ATOM     14  C   UNL A   1      28.425  26.535  23.917  1.00  0.00     0.075 C 
ATOM     15  C   UNL A   1      30.705  25.560  24.118  1.00  0.00     0.075 C 
ENDBRANCH   8  13
ENDBRANCH   7   8
ENDBRANCH   4   7
ENDBRANCH   2   3
ENDBRANCH   1   2
BRANCH   1  16
ATOM     16  C   UNL A   1      35.353  30.656  27.954  1.00  0.00     0.118 C 
BRANCH  16  17
ATOM     17  N   UNL A   1      35.351  30.699  29.403  1.00  0.00    -0.352 N 
ATOM     18  C   UNL A   1      36.300  30.329  30.327  1.00  0.00     0.251 C 
ATOM     19  H   UNL A   1      34.522  31.057  29.796  1.00  0.00     0.163 HD
ATOM     20  O   UNL A   1      35.965  30.287  31.511  1.00  0.00    -0.269 OA
BRANCH  18  21
ATOM     21  C   UNL A   1      37.692  29.959  29.952  1.00  0.00     0.039 A 
ATOM     22  C   UNL A   1      38.040  29.984  28.594  1.00  0.00     0.014 A 
ATOM     23  C   UNL A   1      38.635  29.506  30.877  1.00  0.00     0.014 A 
ATOM     24  C   UNL A   1      39.321  29.599  28.181  1.00  0.00     0.010 A 
ATOM     25  C   UNL A   1      39.942  29.217  30.476  1.00  0.00     0.010 A 
ATOM     26  C   UNL A   1      40.297  29.236  29.120  1.00  0.00    -0.014 A 
BRANCH  26  27
ATOM     27  C   UNL A   1      41.669  28.832  28.698  1.00  0.00     0.031 A 
ATOM     28  C   UNL A   1      42.784  29.850  28.651  1.00  0.00     0.074 A 
ATOM     29  C   UNL A   1      41.912  27.562  28.318  1.00  0.00     0.049 A 
ATOM     30  N   UNL A   1      44.026  29.700  28.263  1.00  0.00    -0.248 NA
ATOM     31  C   UNL A   1      42.450  31.220  29.069  1.00  0.00     0.031 C 
ATOM     32  C   UNL A   1      40.919  26.486  28.278  1.00  0.00     0.029 A 
ATOM     33  N   UNL A   1      43.070  26.958  27.890  1.00  0.00    -0.354 N 
ATOM     34  C   UNL A   1      44.613  30.956  28.371  1.00  0.00     0.074 A 
ATOM     35  C   UNL A   1      43.577  31.867  28.807  1.00  0.00     0.031 C 
ATOM     36  C   UNL A   1      41.515  25.352  27.877  1.00  0.00     0.029 A 
ATOM     37  C   UNL A   1      42.922  25.624  27.597  1.00  0.00     0.049 A 
ATOM     38  H   UNL A   1      43.925  27.437  27.800  1.00  0.00     0.167 HD
ATOM     39  C   UNL A   1      45.901  31.319  28.152  1.00  0.00     0.037 A 
ATOM     40  C   UNL A   1      43.815  24.717  27.151  1.00  0.00     0.037 A 
ATOM     41  C   UNL A   1      46.940  30.407  27.750  1.00  0.00     0.049 A 
ATOM     42  C   UNL A   1      45.241  25.136  26.921  1.00  0.00     0.074 A 
ATOM     43  C   UNL A   1      48.287  30.664  27.559  1.00  0.00     0.029 A 
ATOM     44  N   UNL A   1      46.751  29.060  27.478  1.00  0.00    -0.354 N 
ATOM     45  N   UNL A   1      45.788  26.318  27.079  1.00  0.00    -0.248 NA
ATOM     46  C   UNL A   1      46.172  24.099  26.457  1.00  0.00     0.031 C 
ATOM     47  C   UNL A   1      48.904  29.482  27.134  1.00  0.00     0.029 A 
ATOM     48  C   UNL A   1      47.951  28.477  27.104  1.00  0.00     0.049 A 
ATOM     49  H   UNL A   1      45.889  28.587  27.541  1.00  0.00     0.167 HD
ATOM     50  C   UNL A   1      47.132  26.161  26.759  1.00  0.00     0.074 A 
ATOM     51  C   UNL A   1      47.317  24.768  26.407  1.00  0.00     0.031 C 
ATOM     52  C   UNL A   1      48.123  27.087  26.759  1.00  0.00     0.037 A 
BRANCH  39  53
ATOM     53  C   UNL A   1      46.256  32.769  28.347  1.00  0.00     0.058 A 
ATOM     54  C   UNL A   1      46.701  33.260  29.586  1.00  0.00     0.135 A 
ATOM     55  C   UNL A   1      46.160  33.679  27.282  1.00  0.00     0.135 A 
ATOM     56  F   UNL A   1      46.799  32.437  30.643  1.00  0.00    -0.206 F 
ATOM     57  C   UNL A   1      46.992  34.607  29.774  1.00  0.00     0.059 A 
ATOM     58  C   UNL A   1      46.476  35.026  27.440  1.00  0.00     0.059 A 
ATOM     59  F   UNL A   1      45.746  33.266  26.074  1.00  0.00    -0.206 F 
ATOM     60  C   UNL A   1      46.870  35.484  28.696  1.00  0.00     0.060 A 
BRANCH  60  61
ATOM     61  S   UNL A   1      47.228  37.234  28.958  1.00  0.00     0.124 S 
ATOM     62  O   UNL A   1      48.286  37.462  27.975  1.00  0.00    -0.237 OA
ATOM     63  O   UNL A   1      45.943  37.865  28.657  1.00  0.00    -0.237 OA
ATOM     64  O   UNL A   1      47.641  37.294  30.352  1.00  0.00    -0.744 OA
ENDBRANCH  60  61
ENDBRANCH  39  53
BRANCH  40  65
ATOM     65  C   UNL A   1      43.389  23.309  26.930  1.00  0.00     0.058 A 
ATOM     66  C   UNL A   1      43.234  22.802  25.632  1.00  0.00     0.135 A 
ATOM     67  C   UNL A   1      43.162  22.437  28.005  1.00  0.00     0.135 A 
ATOM     68  F   UNL A   1      43.432  23.600  24.572  1.00  0.00    -0.206 F 
ATOM     69  C   UNL A   1      42.865  21.479  25.406  1.00  0.00     0.059 A 
ATOM     70  C   UNL A   1      42.814  21.105  27.804  1.00  0.00     0.059 A 
ATOM     71  F   UNL A   1      43.311  22.871  29.267  1.00  0.00    -0.206 F 
ATOM     72  C   UNL A   1      42.664  20.637  26.499  1.00  0.00     0.060 A 
BRANCH  72  73
ATOM     73  S   UNL A   1      42.257  18.903  26.193  1.00  0.00     0.124 S 
ATOM     74  O   UNL A   1      42.531  18.303  27.493  1.00  0.00    -0.237 OA
ATOM     75  O   UNL A   1      40.851  18.982  25.809  1.00  0.00    -0.237 OA
ATOM     76  O   UNL A   1      43.172  18.529  25.119  1.00  0.00    -0.744 OA
ENDBRANCH  72  73
ENDBRANCH  40  65
BRANCH  52  77
ATOM     77  C   UNL A   1      49.506  26.622  26.397  1.00  0.00     0.058 A 
ATOM     78  C   UNL A   1      50.357  26.030  27.342  1.00  0.00     0.135 A 
ATOM     79  C   UNL A   1      49.966  26.725  25.074  1.00  0.00     0.135 A 
ATOM     80  F   UNL A   1      49.968  25.913  28.622  1.00  0.00    -0.206 F 
ATOM     81  C   UNL A   1      51.625  25.576  26.994  1.00  0.00     0.059 A 
ATOM     82  C   UNL A   1      51.220  26.255  24.698  1.00  0.00     0.059 A 
ATOM     83  F   UNL A   1      49.187  27.274  24.129  1.00  0.00    -0.206 F 
ATOM     84  C   UNL A   1      52.048  25.692  25.669  1.00  0.00     0.060 A 
BRANCH  84  85
ATOM     85  S   UNL A   1      53.682  25.069  25.222  1.00  0.00     0.124 S 
ATOM     86  O   UNL A   1      54.519  25.670  26.256  1.00  0.00    -0.237 OA
ATOM     87  O   UNL A   1      53.504  23.623  25.312  1.00  0.00    -0.237 OA
ATOM     88  O   UNL A   1      53.885  25.585  23.872  1.00  0.00    -0.744 OA
ENDBRANCH  84  85
ENDBRANCH  52  77
ENDBRANCH  26  27
ENDBRANCH  18  21
ENDBRANCH  16  17
ENDBRANCH   1  16
TORSDOF 17
ENDMDL
