MODEL 1
REMARK VINA RESULT:     -11.5      0.000      0.000
REMARK SMILES CC(C)(C)OC(=O)N[C@@H](CC(=O)NCCCNC(=O)c1ccc(-c2c3nc(c(-c4c(F)cc(S(=O)(=O)[O-])cc4F)c4ccc([nH]4)c(-c4c(F)cc(S(=O)(=O)[O-])cc4F)c4nc(c(-c5c(F)cc(S(=O)(=O)[O-])cc5F)c5ccc2[nH]5)C=C4)C=C3)cc1)c1cccnc1
REMARK SMILES IDX 14 1 13 2 11 3 12 4 10 6 9 7 8 8 6 9 7 10 5 12 2 13 1 14
REMARK SMILES IDX 3 15 4 16 86 17 87 18 91 19 88 20 90 21 89 22 15 23 16 24
REMARK SMILES IDX 17 25 18 26 19 28 20 29 21 30 85 31 22 32 84 33 23 34 24 35
REMARK SMILES IDX 25 36 78 37 26 38 83 39 77 40 79 41 27 42 82 43 76 44 75 45
REMARK SMILES IDX 28 47 62 48 41 49 61 50 42 51 45 52 60 53 80 54 43 55 44 56
REMARK SMILES IDX 59 58 81 59 46 60 29 61 30 62 39 63 31 64 32 65 38 66 40 67
REMARK SMILES IDX 33 68 34 69 35 70 36 71 37 72 63 73 64 74 73 75 65 76 66 77
REMARK SMILES IDX 72 78 74 79 67 80 68 81 69 82 70 83 71 84 47 85 48 86 57 87
REMARK SMILES IDX 49 88 50 89 56 90 58 91 51 92 52 93 53 94 54 95 55 96
REMARK H PARENT 13 5 8 11 17 27 79 46 45 57
REMARK Flexibility Score: inf
ROOT
ATOM      1  C   UNL A   1      33.388  29.785  26.322  1.00  0.00     0.117 C 
ENDROOT
BRANCH   1   2
ATOM      2  N   UNL A   1      33.686  29.641  24.906  1.00  0.00    -0.356 N 
ATOM      3  C   UNL A   1      33.109  28.863  23.949  1.00  0.00     0.222 C 
ATOM      4  O   UNL A   1      33.509  29.000  22.791  1.00  0.00    -0.275 OA
ATOM      5  H   UNL A   1      34.431  30.199  24.584  1.00  0.00     0.163 HD
BRANCH   3   6
ATOM      6  C   UNL A   1      32.011  27.871  24.271  1.00  0.00     0.130 C 
BRANCH   6   7
ATOM      7  C   UNL A   1      31.029  27.491  23.144  1.00  0.00     0.126 C 
BRANCH   7   8
ATOM      8  N   UNL A   1      31.705  27.085  21.927  1.00  0.00    -0.314 N 
ATOM      9  C   UNL A   1      32.219  25.882  21.573  1.00  0.00     0.408 C 
ATOM     10  O   UNL A   1      32.961  25.807  20.603  1.00  0.00    -0.225 OA
ATOM     11  H   UNL A   1      31.806  27.794  21.252  1.00  0.00     0.167 HD
BRANCH   9  12
ATOM     12  O   UNL A   1      31.807  24.850  22.344  1.00  0.00    -0.444 OA
BRANCH  12  13
ATOM     13  C   UNL A   1      32.796  24.143  23.147  1.00  0.00     0.106 C 
ATOM     14  C   UNL A   1      33.225  22.939  22.294  1.00  0.00     0.056 C 
ATOM     15  C   UNL A   1      32.159  23.633  24.444  1.00  0.00     0.056 C 
ATOM     16  C   UNL A   1      34.051  24.988  23.425  1.00  0.00     0.056 C 
ENDBRANCH  12  13
ENDBRANCH   9  12
ENDBRANCH   7   8
BRANCH   7  17
ATOM     17  C   UNL A   1      29.964  28.506  22.776  1.00  0.00    -0.007 A 
ATOM     18  C   UNL A   1      28.645  28.339  23.218  1.00  0.00     0.009 A 
ATOM     19  C   UNL A   1      30.185  29.543  21.868  1.00  0.00     0.116 A 
ATOM     20  C   UNL A   1      27.636  29.177  22.747  1.00  0.00     0.020 A 
ATOM     21  N   UNL A   1      29.226  30.375  21.398  1.00  0.00    -0.264 NA
ATOM     22  C   UNL A   1      27.972  30.167  21.842  1.00  0.00     0.111 A 
ENDBRANCH   7  17
ENDBRANCH   6   7
ENDBRANCH   3   6
ENDBRANCH   1   2
BRANCH   1  23
ATOM     23  C   UNL A   1      34.543  29.325  27.208  1.00  0.00     0.042 C 
BRANCH  23  24
ATOM     24  C   UNL A   1      35.379  30.444  27.812  1.00  0.00     0.118 C 
BRANCH  24  25
ATOM     25  N   UNL A   1      35.409  30.395  29.261  1.00  0.00    -0.352 N 
ATOM     26  C   UNL A   1      36.388  29.959  30.122  1.00  0.00     0.251 C 
ATOM     27  H   UNL A   1      34.593  30.729  29.701  1.00  0.00     0.163 HD
ATOM     28  O   UNL A   1      36.098  29.801  31.307  1.00  0.00    -0.269 OA
BRANCH  26  29
ATOM     29  C   UNL A   1      37.769  29.664  29.659  1.00  0.00     0.039 A 
ATOM     30  C   UNL A   1      38.733  29.318  30.613  1.00  0.00     0.014 A 
ATOM     31  C   UNL A   1      38.151  29.796  28.322  1.00  0.00     0.014 A 
ATOM     32  C   UNL A   1      40.052  29.061  30.221  1.00  0.00     0.010 A 
ATOM     33  C   UNL A   1      39.443  29.451  27.920  1.00  0.00     0.010 A 
ATOM     34  C   UNL A   1      40.415  29.097  28.865  1.00  0.00    -0.014 A 
BRANCH  34  35
ATOM     35  C   UNL A   1      41.808  28.804  28.426  1.00  0.00     0.031 A 
ATOM     36  C   UNL A   1      42.195  27.407  28.008  1.00  0.00     0.074 A 
ATOM     37  C   UNL A   1      42.741  29.777  28.450  1.00  0.00     0.049 A 
ATOM     38  N   UNL A   1      43.370  26.938  27.671  1.00  0.00    -0.248 NA
ATOM     39  C   UNL A   1      41.125  26.397  27.995  1.00  0.00     0.031 C 
ATOM     40  C   UNL A   1      42.512  31.158  28.878  1.00  0.00     0.029 A 
ATOM     41  N   UNL A   1      44.075  29.750  28.121  1.00  0.00    -0.354 N 
ATOM     42  C   UNL A   1      43.184  25.582  27.425  1.00  0.00     0.074 A 
ATOM     43  C   UNL A   1      41.795  25.292  27.705  1.00  0.00     0.031 C 
ATOM     44  C   UNL A   1      43.658  31.849  28.770  1.00  0.00     0.029 A 
ATOM     45  C   UNL A   1      44.713  30.955  28.302  1.00  0.00     0.049 A 
ATOM     46  H   UNL A   1      44.530  28.944  27.787  1.00  0.00     0.167 HD
ATOM     47  C   UNL A   1      44.080  24.666  26.982  1.00  0.00     0.037 A 
ATOM     48  C   UNL A   1      46.003  31.300  28.123  1.00  0.00     0.037 A 
ATOM     49  C   UNL A   1      45.455  24.963  26.677  1.00  0.00     0.049 A 
ATOM     50  C   UNL A   1      46.979  30.271  27.619  1.00  0.00     0.074 A 
ATOM     51  C   UNL A   1      46.428  24.116  26.176  1.00  0.00     0.029 A 
ATOM     52  N   UNL A   1      46.053  26.204  26.841  1.00  0.00    -0.354 N 
ATOM     53  N   UNL A   1      46.771  29.006  27.342  1.00  0.00    -0.248 NA
ATOM     54  C   UNL A   1      48.360  30.717  27.393  1.00  0.00     0.031 C 
ATOM     55  C   UNL A   1      47.624  24.836  26.071  1.00  0.00     0.029 A 
ATOM     56  C   UNL A   1      47.385  26.143  26.463  1.00  0.00     0.049 A 
ATOM     57  H   UNL A   1      45.598  27.010  27.176  1.00  0.00     0.167 HD
ATOM     58  C   UNL A   1      47.989  28.510  26.891  1.00  0.00     0.074 A 
ATOM     59  C   UNL A   1      48.925  29.615  26.919  1.00  0.00     0.031 C 
ATOM     60  C   UNL A   1      48.304  27.253  26.491  1.00  0.00     0.037 A 
BRANCH  47  61
ATOM     61  C   UNL A   1      43.592  23.254  26.793  1.00  0.00     0.058 A 
ATOM     62  C   UNL A   1      43.391  22.710  25.513  1.00  0.00     0.135 A 
ATOM     63  C   UNL A   1      43.346  22.426  27.900  1.00  0.00     0.135 A 
ATOM     64  F   UNL A   1      43.599  23.461  24.419  1.00  0.00    -0.206 F 
ATOM     65  C   UNL A   1      42.926  21.411  25.338  1.00  0.00     0.059 A 
ATOM     66  C   UNL A   1      42.908  21.112  27.747  1.00  0.00     0.059 A 
ATOM     67  F   UNL A   1      43.525  22.890  29.146  1.00  0.00    -0.206 F 
ATOM     68  C   UNL A   1      42.684  20.620  26.461  1.00  0.00     0.060 A 
BRANCH  68  69
ATOM     69  S   UNL A   1      42.072  18.939  26.218  1.00  0.00     0.124 S 
ATOM     70  O   UNL A   1      43.017  18.427  25.229  1.00  0.00    -0.237 OA
ATOM     71  O   UNL A   1      42.186  18.367  27.556  1.00  0.00    -0.237 OA
ATOM     72  O   UNL A   1      40.708  19.138  25.739  1.00  0.00    -0.744 OA
ENDBRANCH  68  69
ENDBRANCH  47  61
BRANCH  48  73
ATOM     73  C   UNL A   1      46.440  32.694  28.406  1.00  0.00     0.058 A 
ATOM     74  C   UNL A   1      46.872  33.072  29.685  1.00  0.00     0.135 A 
ATOM     75  C   UNL A   1      46.458  33.669  27.395  1.00  0.00     0.135 A 
ATOM     76  F   UNL A   1      46.865  32.178  30.686  1.00  0.00    -0.206 F 
ATOM     77  C   UNL A   1      47.300  34.367  29.957  1.00  0.00     0.059 A 
ATOM     78  C   UNL A   1      46.904  34.964  27.637  1.00  0.00     0.059 A 
ATOM     79  F   UNL A   1      46.068  33.353  26.150  1.00  0.00    -0.206 F 
ATOM     80  C   UNL A   1      47.316  35.307  28.924  1.00  0.00     0.060 A 
BRANCH  80  81
ATOM     81  S   UNL A   1      47.929  36.970  29.272  1.00  0.00     0.124 S 
ATOM     82  O   UNL A   1      48.509  36.797  30.599  1.00  0.00    -0.237 OA
ATOM     83  O   UNL A   1      48.877  37.182  28.184  1.00  0.00    -0.237 OA
ATOM     84  O   UNL A   1      46.723  37.791  29.212  1.00  0.00    -0.744 OA
ENDBRANCH  80  81
ENDBRANCH  48  73
BRANCH  60  85
ATOM     85  C   UNL A   1      49.712  27.007  26.021  1.00  0.00     0.058 A 
ATOM     86  C   UNL A   1      50.740  26.676  26.917  1.00  0.00     0.135 A 
ATOM     87  C   UNL A   1      50.022  27.052  24.652  1.00  0.00     0.135 A 
ATOM     88  F   UNL A   1      50.498  26.627  28.236  1.00  0.00    -0.206 F 
ATOM     89  C   UNL A   1      52.033  26.419  26.473  1.00  0.00     0.059 A 
ATOM     90  C   UNL A   1      51.302  26.772  24.184  1.00  0.00     0.059 A 
ATOM     91  F   UNL A   1      49.072  27.354  23.753  1.00  0.00    -0.206 F 
ATOM     92  C   UNL A   1      52.304  26.468  25.104  1.00  0.00     0.060 A 
BRANCH  92  93
ATOM     93  S   UNL A   1      53.978  26.097  24.538  1.00  0.00     0.124 S 
ATOM     94  O   UNL A   1      53.929  26.556  23.154  1.00  0.00    -0.237 OA
ATOM     95  O   UNL A   1      54.800  26.896  25.442  1.00  0.00    -0.237 OA
ATOM     96  O   UNL A   1      54.085  24.652  24.718  1.00  0.00    -0.744 OA
ENDBRANCH  92  93
ENDBRANCH  60  85
ENDBRANCH  34  35
ENDBRANCH  26  29
ENDBRANCH  24  25
ENDBRANCH  23  24
ENDBRANCH   1  23
TORSDOF 18
ENDMDL
MODEL 2
REMARK VINA RESULT:     -11.3      3.622      9.498
REMARK SMILES CC(C)(C)OC(=O)N[C@@H](CC(=O)NCCCNC(=O)c1ccc(-c2c3nc(c(-c4c(F)cc(S(=O)(=O)[O-])cc4F)c4ccc([nH]4)c(-c4c(F)cc(S(=O)(=O)[O-])cc4F)c4nc(c(-c5c(F)cc(S(=O)(=O)[O-])cc5F)c5ccc2[nH]5)C=C4)C=C3)cc1)c1cccnc1
REMARK SMILES IDX 14 1 13 2 11 3 12 4 10 6 9 7 8 8 6 9 7 10 5 12 2 13 1 14
REMARK SMILES IDX 3 15 4 16 86 17 87 18 91 19 88 20 90 21 89 22 15 23 16 24
REMARK SMILES IDX 17 25 18 26 19 28 20 29 21 30 85 31 22 32 84 33 23 34 24 35
REMARK SMILES IDX 25 36 78 37 26 38 83 39 77 40 79 41 27 42 82 43 76 44 75 45
REMARK SMILES IDX 28 47 62 48 41 49 61 50 42 51 45 52 60 53 80 54 43 55 44 56
REMARK SMILES IDX 59 58 81 59 46 60 29 61 30 62 39 63 31 64 32 65 38 66 40 67
REMARK SMILES IDX 33 68 34 69 35 70 36 71 37 72 63 73 64 74 73 75 65 76 66 77
REMARK SMILES IDX 72 78 74 79 67 80 68 81 69 82 70 83 71 84 47 85 48 86 57 87
REMARK SMILES IDX 49 88 50 89 56 90 58 91 51 92 52 93 53 94 54 95 55 96
REMARK H PARENT 13 5 8 11 17 27 79 46 45 57
REMARK Flexibility Score: inf
ROOT
ATOM      1  C   UNL A   1      32.080  26.108  26.183  1.00  0.00     0.117 C 
ENDROOT
BRANCH   1   2
ATOM      2  N   UNL A   1      31.494  24.995  26.915  1.00  0.00    -0.356 N 
ATOM      3  C   UNL A   1      31.194  23.728  26.520  1.00  0.00     0.222 C 
ATOM      4  O   UNL A   1      30.776  22.950  27.380  1.00  0.00    -0.275 OA
ATOM      5  H   UNL A   1      31.278  25.192  27.855  1.00  0.00     0.163 HD
BRANCH   3   6
ATOM      6  C   UNL A   1      31.368  23.268  25.087  1.00  0.00     0.130 C 
BRANCH   6   7
ATOM      7  C   UNL A   1      32.638  22.465  24.737  1.00  0.00     0.126 C 
BRANCH   7   8
ATOM      8  N   UNL A   1      33.405  23.073  23.667  1.00  0.00    -0.314 N 
ATOM      9  C   UNL A   1      34.496  23.876  23.721  1.00  0.00     0.408 C 
ATOM     10  O   UNL A   1      34.850  24.477  22.716  1.00  0.00    -0.225 OA
ATOM     11  H   UNL A   1      33.085  22.868  22.760  1.00  0.00     0.167 HD
BRANCH   9  12
ATOM     12  O   UNL A   1      35.116  23.895  24.923  1.00  0.00    -0.444 OA
BRANCH  12  13
ATOM     13  C   UNL A   1      36.303  23.070  25.106  1.00  0.00     0.106 C 
ATOM     14  C   UNL A   1      35.878  21.958  26.078  1.00  0.00     0.056 C 
ATOM     15  C   UNL A   1      37.425  23.892  25.750  1.00  0.00     0.056 C 
ATOM     16  C   UNL A   1      36.768  22.397  23.803  1.00  0.00     0.056 C 
ENDBRANCH  12  13
ENDBRANCH   9  12
ENDBRANCH   7   8
BRANCH   7  17
ATOM     17  C   UNL A   1      32.466  20.993  24.418  1.00  0.00    -0.007 A 
ATOM     18  C   UNL A   1      32.721  20.023  25.397  1.00  0.00     0.009 A 
ATOM     19  C   UNL A   1      32.216  20.520  23.129  1.00  0.00     0.116 A 
ATOM     20  C   UNL A   1      32.723  18.671  25.060  1.00  0.00     0.020 A 
ATOM     21  N   UNL A   1      32.207  19.213  22.775  1.00  0.00    -0.264 NA
ATOM     22  C   UNL A   1      32.469  18.319  23.747  1.00  0.00     0.111 A 
ENDBRANCH   7  17
ENDBRANCH   6   7
ENDBRANCH   3   6
ENDBRANCH   1   2
BRANCH   1  23
ATOM     23  C   UNL A   1      32.197  27.367  27.036  1.00  0.00     0.042 C 
BRANCH  23  24
ATOM     24  C   UNL A   1      33.521  28.108  26.916  1.00  0.00     0.118 C 
BRANCH  24  25
ATOM     25  N   UNL A   1      33.386  29.531  27.160  1.00  0.00    -0.352 N 
ATOM     26  C   UNL A   1      34.227  30.413  27.796  1.00  0.00     0.251 C 
ATOM     27  H   UNL A   1      32.555  29.931  26.813  1.00  0.00     0.163 HD
ATOM     28  O   UNL A   1      33.795  31.529  28.083  1.00  0.00    -0.269 OA
BRANCH  26  29
ATOM     29  C   UNL A   1      35.623  30.052  28.153  1.00  0.00     0.039 A 
ATOM     30  C   UNL A   1      36.609  30.137  27.163  1.00  0.00     0.014 A 
ATOM     31  C   UNL A   1      35.966  29.559  29.414  1.00  0.00     0.014 A 
ATOM     32  C   UNL A   1      37.931  29.778  27.451  1.00  0.00     0.010 A 
ATOM     33  C   UNL A   1      37.300  29.289  29.727  1.00  0.00     0.010 A 
ATOM     34  C   UNL A   1      38.297  29.376  28.745  1.00  0.00    -0.014 A 
BRANCH  34  35
ATOM     35  C   UNL A   1      39.702  29.012  29.078  1.00  0.00     0.031 A 
ATOM     36  C   UNL A   1      40.619  30.027  29.715  1.00  0.00     0.074 A 
ATOM     37  C   UNL A   1      40.174  27.789  28.763  1.00  0.00     0.049 A 
ATOM     38  N   UNL A   1      41.892  29.926  30.006  1.00  0.00    -0.248 NA
ATOM     39  C   UNL A   1      40.036  31.338  30.041  1.00  0.00     0.031 C 
ATOM     40  C   UNL A   1      39.408  26.732  28.102  1.00  0.00     0.029 A 
ATOM     41  N   UNL A   1      41.417  27.233  28.943  1.00  0.00    -0.354 N 
ATOM     42  C   UNL A   1      42.263  31.160  30.530  1.00  0.00     0.074 A 
ATOM     43  C   UNL A   1      41.095  32.011  30.466  1.00  0.00     0.031 C 
ATOM     44  C   UNL A   1      40.190  25.651  27.948  1.00  0.00     0.029 A 
ATOM     45  C   UNL A   1      41.524  25.949  28.462  1.00  0.00     0.049 A 
ATOM     46  H   UNL A   1      42.162  27.710  29.376  1.00  0.00     0.167 HD
ATOM     47  C   UNL A   1      43.458  31.543  31.042  1.00  0.00     0.037 A 
ATOM     48  C   UNL A   1      42.577  25.109  28.428  1.00  0.00     0.037 A 
ATOM     49  C   UNL A   1      44.611  30.686  31.131  1.00  0.00     0.049 A 
ATOM     50  C   UNL A   1      43.891  25.550  29.012  1.00  0.00     0.074 A 
ATOM     51  C   UNL A   1      45.852  30.965  31.677  1.00  0.00     0.029 A 
ATOM     52  N   UNL A   1      44.666  29.381  30.664  1.00  0.00    -0.354 N 
ATOM     53  N   UNL A   1      44.207  26.704  29.551  1.00  0.00    -0.248 NA
ATOM     54  C   UNL A   1      44.989  24.574  28.994  1.00  0.00     0.031 C 
ATOM     55  C   UNL A   1      46.668  29.841  31.508  1.00  0.00     0.029 A 
ATOM     56  C   UNL A   1      45.923  28.846  30.898  1.00  0.00     0.049 A 
ATOM     57  H   UNL A   1      43.922  28.904  30.230  1.00  0.00     0.167 HD
ATOM     58  C   UNL A   1      45.533  26.585  29.953  1.00  0.00     0.074 A 
ATOM     59  C   UNL A   1      45.955  25.243  29.609  1.00  0.00     0.031 C 
ATOM     60  C   UNL A   1      46.328  27.505  30.554  1.00  0.00     0.037 A 
BRANCH  47  61
ATOM     61  C   UNL A   1      43.573  32.955  31.554  1.00  0.00     0.058 A 
ATOM     62  C   UNL A   1      43.905  34.022  30.703  1.00  0.00     0.135 A 
ATOM     63  C   UNL A   1      43.326  33.250  32.904  1.00  0.00     0.135 A 
ATOM     64  F   UNL A   1      44.163  33.795  29.404  1.00  0.00    -0.206 F 
ATOM     65  C   UNL A   1      44.026  35.323  31.178  1.00  0.00     0.059 A 
ATOM     66  C   UNL A   1      43.413  34.551  33.396  1.00  0.00     0.059 A 
ATOM     67  F   UNL A   1      43.001  32.272  33.763  1.00  0.00    -0.206 F 
ATOM     68  C   UNL A   1      43.782  35.577  32.528  1.00  0.00     0.060 A 
BRANCH  68  69
ATOM     69  S   UNL A   1      43.952  37.270  33.132  1.00  0.00     0.124 S 
ATOM     70  O   UNL A   1      42.767  37.398  33.974  1.00  0.00    -0.237 OA
ATOM     71  O   UNL A   1      45.229  37.224  33.839  1.00  0.00    -0.237 OA
ATOM     72  O   UNL A   1      43.944  38.070  31.911  1.00  0.00    -0.744 OA
ENDBRANCH  68  69
ENDBRANCH  47  61
BRANCH  48  73
ATOM     73  C   UNL A   1      42.420  23.755  27.833  1.00  0.00     0.058 A 
ATOM     74  C   UNL A   1      42.431  23.568  26.443  1.00  0.00     0.135 A 
ATOM     75  C   UNL A   1      42.283  22.616  28.644  1.00  0.00     0.135 A 
ATOM     76  F   UNL A   1      42.551  24.626  25.626  1.00  0.00    -0.206 F 
ATOM     77  C   UNL A   1      42.304  22.304  25.876  1.00  0.00     0.059 A 
ATOM     78  C   UNL A   1      42.179  21.340  28.101  1.00  0.00     0.059 A 
ATOM     79  F   UNL A   1      42.282  22.740  29.980  1.00  0.00    -0.206 F 
ATOM     80  C   UNL A   1      42.182  21.194  26.714  1.00  0.00     0.060 A 
BRANCH  80  81
ATOM     81  S   UNL A   1      42.077  19.552  25.970  1.00  0.00     0.124 S 
ATOM     82  O   UNL A   1      40.657  19.463  25.652  1.00  0.00    -0.237 OA
ATOM     83  O   UNL A   1      42.980  19.672  24.830  1.00  0.00    -0.237 OA
ATOM     84  O   UNL A   1      42.543  18.670  27.037  1.00  0.00    -0.744 OA
ENDBRANCH  80  81
ENDBRANCH  48  73
BRANCH  60  85
ATOM     85  C   UNL A   1      47.729  27.087  30.905  1.00  0.00     0.058 A 
ATOM     86  C   UNL A   1      48.022  26.430  32.110  1.00  0.00     0.135 A 
ATOM     87  C   UNL A   1      48.782  27.302  30.000  1.00  0.00     0.135 A 
ATOM     88  F   UNL A   1      47.053  26.206  33.011  1.00  0.00    -0.206 F 
ATOM     89  C   UNL A   1      49.316  26.018  32.415  1.00  0.00     0.059 A 
ATOM     90  C   UNL A   1      50.078  26.874  30.274  1.00  0.00     0.059 A 
ATOM     91  F   UNL A   1      48.554  27.918  28.830  1.00  0.00    -0.206 F 
ATOM     92  C   UNL A   1      50.337  26.243  31.489  1.00  0.00     0.060 A 
BRANCH  92  93
ATOM     93  S   UNL A   1      52.004  25.672  31.883  1.00  0.00     0.124 S 
ATOM     94  O   UNL A   1      51.776  24.253  32.135  1.00  0.00    -0.237 OA
ATOM     95  O   UNL A   1      52.742  25.990  30.664  1.00  0.00    -0.237 OA
ATOM     96  O   UNL A   1      52.368  26.468  33.053  1.00  0.00    -0.744 OA
ENDBRANCH  92  93
ENDBRANCH  60  85
ENDBRANCH  34  35
ENDBRANCH  26  29
ENDBRANCH  24  25
ENDBRANCH  23  24
ENDBRANCH   1  23
TORSDOF 18
ENDMDL
MODEL 3
REMARK VINA RESULT:     -11.3      7.008     12.064
REMARK SMILES CC(C)(C)OC(=O)N[C@@H](CC(=O)NCCCNC(=O)c1ccc(-c2c3nc(c(-c4c(F)cc(S(=O)(=O)[O-])cc4F)c4ccc([nH]4)c(-c4c(F)cc(S(=O)(=O)[O-])cc4F)c4nc(c(-c5c(F)cc(S(=O)(=O)[O-])cc5F)c5ccc2[nH]5)C=C4)C=C3)cc1)c1cccnc1
REMARK SMILES IDX 14 1 13 2 11 3 12 4 10 6 9 7 8 8 6 9 7 10 5 12 2 13 1 14
REMARK SMILES IDX 3 15 4 16 86 17 87 18 91 19 88 20 90 21 89 22 15 23 16 24
REMARK SMILES IDX 17 25 18 26 19 28 20 29 21 30 85 31 22 32 84 33 23 34 24 35
REMARK SMILES IDX 25 36 78 37 26 38 83 39 77 40 79 41 27 42 82 43 76 44 75 45
REMARK SMILES IDX 28 47 62 48 41 49 61 50 42 51 45 52 60 53 80 54 43 55 44 56
REMARK SMILES IDX 59 58 81 59 46 60 29 61 30 62 39 63 31 64 32 65 38 66 40 67
REMARK SMILES IDX 33 68 34 69 35 70 36 71 37 72 63 73 64 74 73 75 65 76 66 77
REMARK SMILES IDX 72 78 74 79 67 80 68 81 69 82 70 83 71 84 47 85 48 86 57 87
REMARK SMILES IDX 49 88 50 89 56 90 58 91 51 92 52 93 53 94 54 95 55 96
REMARK H PARENT 13 5 8 11 17 27 79 46 45 57
REMARK Flexibility Score: inf
ROOT
ATOM      1  C   UNL A   1      38.647  21.868  25.701  1.00  0.00     0.117 C 
ENDROOT
BRANCH   1   2
ATOM      2  N   UNL A   1      37.660  22.219  24.692  1.00  0.00    -0.356 N 
ATOM      3  C   UNL A   1      36.318  21.998  24.643  1.00  0.00     0.222 C 
ATOM      4  O   UNL A   1      35.697  22.484  23.695  1.00  0.00    -0.275 OA
ATOM      5  H   UNL A   1      38.023  22.697  23.911  1.00  0.00     0.163 HD
BRANCH   3   6
ATOM      6  C   UNL A   1      35.594  21.198  25.707  1.00  0.00     0.130 C 
BRANCH   6   7
ATOM      7  C   UNL A   1      34.116  20.834  25.454  1.00  0.00     0.126 C 
BRANCH   7   8
ATOM      8  N   UNL A   1      33.246  21.248  26.538  1.00  0.00    -0.314 N 
ATOM      9  C   UNL A   1      32.928  22.490  26.977  1.00  0.00     0.408 C 
ATOM     10  O   UNL A   1      32.365  22.620  28.056  1.00  0.00    -0.225 OA
ATOM     11  H   UNL A   1      32.819  20.511  27.031  1.00  0.00     0.167 HD
BRANCH   9  12
ATOM     12  O   UNL A   1      33.250  23.485  26.120  1.00  0.00    -0.444 OA
BRANCH  12  13
ATOM     13  C   UNL A   1      32.177  24.161  25.403  1.00  0.00     0.106 C 
ATOM     14  C   UNL A   1      32.880  25.076  24.389  1.00  0.00     0.056 C 
ATOM     15  C   UNL A   1      31.356  25.023  26.369  1.00  0.00     0.056 C 
ATOM     16  C   UNL A   1      31.284  23.188  24.613  1.00  0.00     0.056 C 
ENDBRANCH  12  13
ENDBRANCH   9  12
ENDBRANCH   7   8
BRANCH   7  17
ATOM     17  C   UNL A   1      33.801  19.388  25.121  1.00  0.00    -0.007 A 
ATOM     18  C   UNL A   1      34.766  18.578  24.508  1.00  0.00     0.009 A 
ATOM     19  C   UNL A   1      32.523  18.842  25.246  1.00  0.00     0.116 A 
ATOM     20  C   UNL A   1      34.426  17.305  24.054  1.00  0.00     0.020 A 
ATOM     21  N   UNL A   1      32.167  17.607  24.820  1.00  0.00    -0.264 NA
ATOM     22  C   UNL A   1      33.124  16.871  24.225  1.00  0.00     0.111 A 
ENDBRANCH   7  17
ENDBRANCH   6   7
ENDBRANCH   3   6
ENDBRANCH   1   2
BRANCH   1  23
ATOM     23  C   UNL A   1      38.992  23.044  26.610  1.00  0.00     0.042 C 
BRANCH  23  24
ATOM     24  C   UNL A   1      40.446  23.112  27.054  1.00  0.00     0.118 C 
BRANCH  24  25
ATOM     25  N   UNL A   1      41.286  23.812  26.101  1.00  0.00    -0.352 N 
ATOM     26  C   UNL A   1      41.678  25.128  26.053  1.00  0.00     0.251 C 
ATOM     27  H   UNL A   1      41.631  23.252  25.367  1.00  0.00     0.163 HD
ATOM     28  O   UNL A   1      42.206  25.545  25.022  1.00  0.00    -0.269 OA
BRANCH  26  29
ATOM     29  C   UNL A   1      41.471  26.054  27.197  1.00  0.00     0.039 A 
ATOM     30  C   UNL A   1      42.331  27.151  27.331  1.00  0.00     0.014 A 
ATOM     31  C   UNL A   1      40.504  25.824  28.176  1.00  0.00     0.014 A 
ATOM     32  C   UNL A   1      42.188  28.030  28.412  1.00  0.00     0.010 A 
ATOM     33  C   UNL A   1      40.302  26.751  29.201  1.00  0.00     0.010 A 
ATOM     34  C   UNL A   1      41.153  27.855  29.344  1.00  0.00    -0.014 A 
BRANCH  34  35
ATOM     35  C   UNL A   1      40.969  28.793  30.486  1.00  0.00     0.031 A 
ATOM     36  C   UNL A   1      41.835  28.673  31.715  1.00  0.00     0.074 A 
ATOM     37  C   UNL A   1      39.991  29.721  30.446  1.00  0.00     0.049 A 
ATOM     38  N   UNL A   1      41.775  29.341  32.840  1.00  0.00    -0.248 NA
ATOM     39  C   UNL A   1      42.889  27.646  31.688  1.00  0.00     0.031 C 
ATOM     40  C   UNL A   1      39.053  29.912  29.338  1.00  0.00     0.029 A 
ATOM     41  N   UNL A   1      39.614  30.668  31.366  1.00  0.00    -0.354 N 
ATOM     42  C   UNL A   1      42.767  28.806  33.655  1.00  0.00     0.074 A 
ATOM     43  C   UNL A   1      43.376  27.720  32.917  1.00  0.00     0.031 C 
ATOM     44  C   UNL A   1      38.221  30.923  29.636  1.00  0.00     0.029 A 
ATOM     45  C   UNL A   1      38.539  31.428  30.968  1.00  0.00     0.049 A 
ATOM     46  H   UNL A   1      40.070  30.791  32.229  1.00  0.00     0.167 HD
ATOM     47  C   UNL A   1      43.153  29.196  34.894  1.00  0.00     0.037 A 
ATOM     48  C   UNL A   1      37.875  32.412  31.606  1.00  0.00     0.037 A 
ATOM     49  C   UNL A   1      42.565  30.294  35.615  1.00  0.00     0.049 A 
ATOM     50  C   UNL A   1      38.328  32.838  32.976  1.00  0.00     0.074 A 
ATOM     51  C   UNL A   1      42.918  30.799  36.855  1.00  0.00     0.029 A 
ATOM     52  N   UNL A   1      41.501  31.061  35.162  1.00  0.00    -0.354 N 
ATOM     53  N   UNL A   1      39.302  32.353  33.709  1.00  0.00    -0.248 NA
ATOM     54  C   UNL A   1      37.600  33.951  33.603  1.00  0.00     0.031 C 
ATOM     55  C   UNL A   1      42.045  31.847  37.166  1.00  0.00     0.029 A 
ATOM     56  C   UNL A   1      41.177  32.025  36.102  1.00  0.00     0.049 A 
ATOM     57  H   UNL A   1      41.043  30.937  34.299  1.00  0.00     0.167 HD
ATOM     58  C   UNL A   1      39.316  33.114  34.874  1.00  0.00     0.074 A 
ATOM     59  C   UNL A   1      38.264  34.100  34.741  1.00  0.00     0.031 C 
ATOM     60  C   UNL A   1      40.128  33.005  35.954  1.00  0.00     0.037 A 
BRANCH  47  61
ATOM     61  C   UNL A   1      44.275  28.431  35.545  1.00  0.00     0.058 A 
ATOM     62  C   UNL A   1      44.027  27.327  36.377  1.00  0.00     0.135 A 
ATOM     63  C   UNL A   1      45.614  28.788  35.317  1.00  0.00     0.135 A 
ATOM     64  F   UNL A   1      42.766  26.948  36.640  1.00  0.00    -0.206 F 
ATOM     65  C   UNL A   1      45.062  26.629  36.991  1.00  0.00     0.059 A 
ATOM     66  C   UNL A   1      46.668  28.085  35.897  1.00  0.00     0.059 A 
ATOM     67  F   UNL A   1      45.912  29.831  34.527  1.00  0.00    -0.206 F 
ATOM     68  C   UNL A   1      46.380  27.018  36.747  1.00  0.00     0.060 A 
BRANCH  68  69
ATOM     69  S   UNL A   1      47.712  26.108  37.557  1.00  0.00     0.124 S 
ATOM     70  O   UNL A   1      48.862  26.962  37.272  1.00  0.00    -0.237 OA
ATOM     71  O   UNL A   1      47.273  26.083  38.950  1.00  0.00    -0.237 OA
ATOM     72  O   UNL A   1      47.705  24.817  36.879  1.00  0.00    -0.744 OA
ENDBRANCH  68  69
ENDBRANCH  47  61
BRANCH  48  73
ATOM     73  C   UNL A   1      36.721  33.074  30.942  1.00  0.00     0.058 A 
ATOM     74  C   UNL A   1      35.405  32.826  31.357  1.00  0.00     0.135 A 
ATOM     75  C   UNL A   1      36.913  33.991  29.895  1.00  0.00     0.135 A 
ATOM     76  F   UNL A   1      35.170  31.952  32.348  1.00  0.00    -0.206 F 
ATOM     77  C   UNL A   1      34.319  33.452  30.756  1.00  0.00     0.059 A 
ATOM     78  C   UNL A   1      35.845  34.649  29.294  1.00  0.00     0.059 A 
ATOM     79  F   UNL A   1      38.154  34.275  29.470  1.00  0.00    -0.206 F 
ATOM     80  C   UNL A   1      34.550  34.367  29.726  1.00  0.00     0.060 A 
BRANCH  80  81
ATOM     81  S   UNL A   1      33.138  35.221  28.991  1.00  0.00     0.124 S 
ATOM     82  O   UNL A   1      32.266  35.395  30.146  1.00  0.00    -0.237 OA
ATOM     83  O   UNL A   1      33.753  36.436  28.467  1.00  0.00    -0.237 OA
ATOM     84  O   UNL A   1      32.667  34.280  27.979  1.00  0.00    -0.744 OA
ENDBRANCH  80  81
ENDBRANCH  48  73
BRANCH  60  85
ATOM     85  C   UNL A   1      39.933  33.993  37.071  1.00  0.00     0.058 A 
ATOM     86  C   UNL A   1      40.660  35.192  37.130  1.00  0.00     0.135 A 
ATOM     87  C   UNL A   1      38.969  33.760  38.066  1.00  0.00     0.135 A 
ATOM     88  F   UNL A   1      41.598  35.460  36.207  1.00  0.00    -0.206 F 
ATOM     89  C   UNL A   1      40.453  36.117  38.148  1.00  0.00     0.059 A 
ATOM     90  C   UNL A   1      38.727  34.683  39.078  1.00  0.00     0.059 A 
ATOM     91  F   UNL A   1      38.240  32.633  38.050  1.00  0.00    -0.206 F 
ATOM     92  C   UNL A   1      39.482  35.854  39.118  1.00  0.00     0.060 A 
BRANCH  92  93
ATOM     93  S   UNL A   1      39.199  37.078  40.414  1.00  0.00     0.124 S 
ATOM     94  O   UNL A   1      38.588  36.264  41.459  1.00  0.00    -0.237 OA
ATOM     95  O   UNL A   1      40.549  37.560  40.693  1.00  0.00    -0.237 OA
ATOM     96  O   UNL A   1      38.314  38.049  39.776  1.00  0.00    -0.744 OA
ENDBRANCH  92  93
ENDBRANCH  60  85
ENDBRANCH  34  35
ENDBRANCH  26  29
ENDBRANCH  24  25
ENDBRANCH  23  24
ENDBRANCH   1  23
TORSDOF 18
ENDMDL
