MODEL 1
REMARK VINA RESULT:      -8.9      0.000      0.000
REMARK SMILES C[C@@H](C(=O)NCCCNC(=O)c1ccc(-c2c3nc(c(-c4c(F)cc(S(=O)(=O)[O-])cc4F)c4ccc([nH]4)c(-c4c(F)cc(S(=O)(=O)[O-])cc4F)c4nc(c(-c5c(F)cc(S(=O)(=O)[O-])cc5F)c5ccc2[nH]5)C=C4)C=C3)cc1)c1ccc(C[C@H]2CCC[C@H]2O)cc1
REMARK SMILES IDX 6 1 5 2 3 3 4 4 2 6 1 7 78 8 79 9 90 10 80 11 89 12 81 13
REMARK SMILES IDX 82 14 83 15 84 16 87 17 85 18 86 19 88 20 7 22 8 23 9 24
REMARK SMILES IDX 10 25 11 27 12 28 13 29 77 30 14 31 76 32 15 33 16 34 17 35
REMARK SMILES IDX 70 36 18 37 75 38 69 39 71 40 19 41 74 42 68 43 67 44 20 46
REMARK SMILES IDX 54 47 33 48 53 49 34 50 37 51 52 52 72 53 35 54 36 55 51 57
REMARK SMILES IDX 73 58 38 59 21 60 22 61 31 62 23 63 24 64 30 65 32 66 25 67
REMARK SMILES IDX 26 68 27 69 28 70 29 71 55 72 56 73 65 74 57 75 58 76 64 77
REMARK SMILES IDX 66 78 59 79 60 80 61 81 62 82 63 83 39 84 40 85 49 86 41 87
REMARK SMILES IDX 42 88 48 89 50 90 43 91 44 92 45 93 46 94 47 95
REMARK H PARENT 5 5 88 21 9 26 71 45 37 56
REMARK Flexibility Score: inf
ROOT
ATOM      1  C   UNL A   1      43.683  22.096  25.994  1.00  0.00     0.117 C 
ENDROOT
BRANCH   1   2
ATOM      2  N   UNL A   1      44.079  22.600  27.296  1.00  0.00    -0.356 N 
ATOM      3  C   UNL A   1      45.002  23.548  27.633  1.00  0.00     0.227 C 
ATOM      4  O   UNL A   1      45.232  23.697  28.834  1.00  0.00    -0.274 OA
ATOM      5  H   UNL A   1      43.605  22.194  28.057  1.00  0.00     0.163 HD
BRANCH   3   6
ATOM      6  C   UNL A   1      45.670  24.382  26.536  1.00  0.00     0.105 C 
ATOM      7  C   UNL A   1      47.199  24.386  26.662  1.00  0.00     0.023 C 
BRANCH   6   8
ATOM      8  C   UNL A   1      45.130  25.806  26.487  1.00  0.00    -0.036 A 
ATOM      9  C   UNL A   1      45.768  26.818  27.216  1.00  0.00     0.005 A 
ATOM     10  C   UNL A   1      43.990  26.136  25.740  1.00  0.00     0.005 A 
ATOM     11  C   UNL A   1      45.219  28.099  27.278  1.00  0.00     0.004 A 
ATOM     12  C   UNL A   1      43.430  27.410  25.823  1.00  0.00     0.004 A 
ATOM     13  C   UNL A   1      44.006  28.386  26.644  1.00  0.00    -0.048 A 
BRANCH  13  14
ATOM     14  C   UNL A   1      43.300  29.696  26.882  1.00  0.00     0.041 C 
BRANCH  14  15
ATOM     15  C   UNL A   1      44.175  30.879  27.344  1.00  0.00     0.022 C 
ATOM     16  C   UNL A   1      44.074  32.173  26.516  1.00  0.00     0.007 C 
ATOM     17  C   UNL A   1      44.042  31.346  28.802  1.00  0.00     0.117 C 
ATOM     18  C   UNL A   1      44.375  33.324  27.482  1.00  0.00     0.003 C 
ATOM     19  C   UNL A   1      44.793  32.673  28.796  1.00  0.00     0.032 C 
BRANCH  17  20
ATOM     20  O   UNL A   1      42.714  31.581  29.238  1.00  0.00    -0.393 OA
ATOM     21  H   UNL A   1      42.703  31.670  30.204  1.00  0.00     0.210 HD
ENDBRANCH  17  20
ENDBRANCH  14  15
ENDBRANCH  13  14
ENDBRANCH   6   8
ENDBRANCH   3   6
ENDBRANCH   1   2
BRANCH   1  22
ATOM     22  C   UNL A   1      42.284  22.571  25.608  1.00  0.00     0.042 C 
BRANCH  22  23
ATOM     23  C   UNL A   1      41.163  22.005  26.476  1.00  0.00     0.118 C 
BRANCH  23  24
ATOM     24  N   UNL A   1      39.844  22.234  25.908  1.00  0.00    -0.352 N 
ATOM     25  C   UNL A   1      38.961  23.267  26.101  1.00  0.00     0.251 C 
ATOM     26  H   UNL A   1      39.534  21.536  25.288  1.00  0.00     0.163 HD
ATOM     27  O   UNL A   1      37.821  23.163  25.657  1.00  0.00    -0.269 OA
BRANCH  25  28
ATOM     28  C   UNL A   1      39.357  24.483  26.847  1.00  0.00     0.039 A 
ATOM     29  C   UNL A   1      38.952  24.603  28.179  1.00  0.00     0.014 A 
ATOM     30  C   UNL A   1      40.074  25.521  26.243  1.00  0.00     0.014 A 
ATOM     31  C   UNL A   1      39.310  25.734  28.918  1.00  0.00     0.010 A 
ATOM     32  C   UNL A   1      40.488  26.618  27.001  1.00  0.00     0.010 A 
ATOM     33  C   UNL A   1      40.109  26.737  28.345  1.00  0.00    -0.014 A 
BRANCH  33  34
ATOM     34  C   UNL A   1      40.563  27.895  29.158  1.00  0.00     0.031 A 
ATOM     35  C   UNL A   1      41.914  27.888  29.823  1.00  0.00     0.074 A 
ATOM     36  C   UNL A   1      39.737  28.947  29.323  1.00  0.00     0.049 A 
ATOM     37  N   UNL A   1      42.468  28.807  30.571  1.00  0.00    -0.248 NA
ATOM     38  C   UNL A   1      42.740  26.684  29.641  1.00  0.00     0.031 C 
ATOM     39  C   UNL A   1      38.379  29.047  28.781  1.00  0.00     0.029 A 
ATOM     40  N   UNL A   1      39.912  30.129  29.996  1.00  0.00    -0.354 N 
ATOM     41  C   UNL A   1      43.706  28.297  30.949  1.00  0.00     0.074 A 
ATOM     42  C   UNL A   1      43.797  26.964  30.391  1.00  0.00     0.031 C 
ATOM     43  C   UNL A   1      37.854  30.233  29.124  1.00  0.00     0.029 A 
ATOM     44  C   UNL A   1      38.824  30.967  29.932  1.00  0.00     0.049 A 
ATOM     45  H   UNL A   1      40.738  30.357  30.480  1.00  0.00     0.167 HD
ATOM     46  C   UNL A   1      44.684  28.894  31.671  1.00  0.00     0.037 A 
ATOM     47  C   UNL A   1      38.625  32.189  30.463  1.00  0.00     0.037 A 
ATOM     48  C   UNL A   1      44.595  30.226  32.213  1.00  0.00     0.049 A 
ATOM     49  C   UNL A   1      39.734  32.835  31.247  1.00  0.00     0.074 A 
ATOM     50  C   UNL A   1      45.550  30.934  32.922  1.00  0.00     0.029 A 
ATOM     51  N   UNL A   1      43.486  31.053  32.105  1.00  0.00    -0.354 N 
ATOM     52  N   UNL A   1      40.919  32.360  31.542  1.00  0.00    -0.248 NA
ATOM     53  C   UNL A   1      39.481  34.190  31.758  1.00  0.00     0.031 C 
ATOM     54  C   UNL A   1      45.007  32.175  33.272  1.00  0.00     0.029 A 
ATOM     55  C   UNL A   1      43.728  32.258  32.746  1.00  0.00     0.049 A 
ATOM     56  H   UNL A   1      42.650  30.818  31.642  1.00  0.00     0.167 HD
ATOM     57  C   UNL A   1      41.560  33.361  32.263  1.00  0.00     0.074 A 
ATOM     58  C   UNL A   1      40.640  34.477  32.336  1.00  0.00     0.031 C 
ATOM     59  C   UNL A   1      42.798  33.356  32.819  1.00  0.00     0.037 A 
BRANCH  46  60
ATOM     60  C   UNL A   1      45.950  28.114  31.907  1.00  0.00     0.058 A 
ATOM     61  C   UNL A   1      46.089  27.265  33.017  1.00  0.00     0.135 A 
ATOM     62  C   UNL A   1      47.015  28.180  30.995  1.00  0.00     0.135 A 
ATOM     63  F   UNL A   1      45.108  27.176  33.928  1.00  0.00    -0.206 F 
ATOM     64  C   UNL A   1      47.249  26.527  33.227  1.00  0.00     0.059 A 
ATOM     65  C   UNL A   1      48.175  27.430  31.172  1.00  0.00     0.059 A 
ATOM     66  F   UNL A   1      46.935  28.975  29.917  1.00  0.00    -0.206 F 
ATOM     67  C   UNL A   1      48.288  26.616  32.298  1.00  0.00     0.060 A 
BRANCH  67  68
ATOM     68  S   UNL A   1      49.781  25.640  32.579  1.00  0.00     0.124 S 
ATOM     69  O   UNL A   1      49.336  24.723  33.624  1.00  0.00    -0.237 OA
ATOM     70  O   UNL A   1      50.015  25.041  31.269  1.00  0.00    -0.237 OA
ATOM     71  O   UNL A   1      50.764  26.634  32.995  1.00  0.00    -0.744 OA
ENDBRANCH  67  68
ENDBRANCH  46  60
BRANCH  47  72
ATOM     72  C   UNL A   1      37.329  32.885  30.256  1.00  0.00     0.058 A 
ATOM     73  C   UNL A   1      36.347  32.900  31.258  1.00  0.00     0.135 A 
ATOM     74  C   UNL A   1      37.053  33.562  29.058  1.00  0.00     0.135 A 
ATOM     75  F   UNL A   1      36.563  32.263  32.418  1.00  0.00    -0.206 F 
ATOM     76  C   UNL A   1      35.129  33.546  31.073  1.00  0.00     0.059 A 
ATOM     77  C   UNL A   1      35.852  34.236  28.860  1.00  0.00     0.059 A 
ATOM     78  F   UNL A   1      37.968  33.594  28.078  1.00  0.00    -0.206 F 
ATOM     79  C   UNL A   1      34.891  34.212  29.869  1.00  0.00     0.060 A 
BRANCH  79  80
ATOM     80  S   UNL A   1      33.328  35.091  29.656  1.00  0.00     0.124 S 
ATOM     81  O   UNL A   1      32.694  34.879  30.952  1.00  0.00    -0.237 OA
ATOM     82  O   UNL A   1      33.775  36.452  29.379  1.00  0.00    -0.237 OA
ATOM     83  O   UNL A   1      32.710  34.402  28.527  1.00  0.00    -0.744 OA
ENDBRANCH  79  80
ENDBRANCH  47  72
BRANCH  59  84
ATOM     84  C   UNL A   1      43.225  34.601  33.544  1.00  0.00     0.058 A 
ATOM     85  C   UNL A   1      43.965  35.607  32.903  1.00  0.00     0.135 A 
ATOM     86  C   UNL A   1      42.879  34.798  34.891  1.00  0.00     0.135 A 
ATOM     87  F   UNL A   1      44.326  35.465  31.618  1.00  0.00    -0.206 F 
ATOM     88  C   UNL A   1      44.379  36.749  33.581  1.00  0.00     0.059 A 
ATOM     89  C   UNL A   1      43.261  35.944  35.582  1.00  0.00     0.059 A 
ATOM     90  F   UNL A   1      42.163  33.871  35.547  1.00  0.00    -0.206 F 
ATOM     91  C   UNL A   1      44.026  36.905  34.923  1.00  0.00     0.060 A 
BRANCH  91  92
ATOM     92  S   UNL A   1      44.567  38.391  35.794  1.00  0.00     0.124 S 
ATOM     93  O   UNL A   1      43.895  39.438  35.033  1.00  0.00    -0.237 OA
ATOM     94  O   UNL A   1      44.061  38.165  37.146  1.00  0.00    -0.237 OA
ATOM     95  O   UNL A   1      46.020  38.351  35.662  1.00  0.00    -0.744 OA
ENDBRANCH  91  92
ENDBRANCH  59  84
ENDBRANCH  33  34
ENDBRANCH  25  28
ENDBRANCH  23  24
ENDBRANCH  22  23
ENDBRANCH   1  22
TORSDOF 17
ENDMDL
MODEL 2
REMARK VINA RESULT:      -8.8      4.251      6.788
REMARK SMILES C[C@@H](C(=O)NCCCNC(=O)c1ccc(-c2c3nc(c(-c4c(F)cc(S(=O)(=O)[O-])cc4F)c4ccc([nH]4)c(-c4c(F)cc(S(=O)(=O)[O-])cc4F)c4nc(c(-c5c(F)cc(S(=O)(=O)[O-])cc5F)c5ccc2[nH]5)C=C4)C=C3)cc1)c1ccc(C[C@H]2CCC[C@H]2O)cc1
REMARK SMILES IDX 6 1 5 2 3 3 4 4 2 6 1 7 78 8 79 9 90 10 80 11 89 12 81 13
REMARK SMILES IDX 82 14 83 15 84 16 87 17 85 18 86 19 88 20 7 22 8 23 9 24
REMARK SMILES IDX 10 25 11 27 12 28 13 29 77 30 14 31 76 32 15 33 16 34 17 35
REMARK SMILES IDX 70 36 18 37 75 38 69 39 71 40 19 41 74 42 68 43 67 44 20 46
REMARK SMILES IDX 54 47 33 48 53 49 34 50 37 51 52 52 72 53 35 54 36 55 51 57
REMARK SMILES IDX 73 58 38 59 21 60 22 61 31 62 23 63 24 64 30 65 32 66 25 67
REMARK SMILES IDX 26 68 27 69 28 70 29 71 55 72 56 73 65 74 57 75 58 76 64 77
REMARK SMILES IDX 66 78 59 79 60 80 61 81 62 82 63 83 39 84 40 85 49 86 41 87
REMARK SMILES IDX 42 88 48 89 50 90 43 91 44 92 45 93 46 94 47 95
REMARK H PARENT 5 5 88 21 9 26 71 45 37 56
REMARK Flexibility Score: inf
ROOT
ATOM      1  C   UNL A   1      37.631  23.206  25.855  1.00  0.00     0.117 C 
ENDROOT
BRANCH   1   2
ATOM      2  N   UNL A   1      37.405  23.195  24.422  1.00  0.00    -0.356 N 
ATOM      3  C   UNL A   1      36.249  23.051  23.711  1.00  0.00     0.227 C 
ATOM      4  O   UNL A   1      36.357  22.953  22.487  1.00  0.00    -0.274 OA
ATOM      5  H   UNL A   1      38.215  23.312  23.876  1.00  0.00     0.163 HD
BRANCH   3   6
ATOM      6  C   UNL A   1      34.902  23.047  24.441  1.00  0.00     0.105 C 
ATOM      7  C   UNL A   1      33.968  21.945  23.927  1.00  0.00     0.023 C 
BRANCH   6   8
ATOM      8  C   UNL A   1      34.214  24.406  24.387  1.00  0.00    -0.036 A 
ATOM      9  C   UNL A   1      33.671  24.863  23.179  1.00  0.00     0.005 A 
ATOM     10  C   UNL A   1      34.124  25.231  25.517  1.00  0.00     0.005 A 
ATOM     11  C   UNL A   1      33.145  26.151  23.083  1.00  0.00     0.004 A 
ATOM     12  C   UNL A   1      33.621  26.527  25.412  1.00  0.00     0.004 A 
ATOM     13  C   UNL A   1      33.184  27.021  24.178  1.00  0.00    -0.048 A 
BRANCH  13  14
ATOM     14  C   UNL A   1      32.819  28.474  24.023  1.00  0.00     0.041 C 
BRANCH  14  15
ATOM     15  C   UNL A   1      31.316  28.804  23.921  1.00  0.00     0.022 C 
ATOM     16  C   UNL A   1      30.836  30.067  24.658  1.00  0.00     0.007 C 
ATOM     17  C   UNL A   1      30.700  28.922  22.517  1.00  0.00     0.117 C 
ATOM     18  C   UNL A   1      29.626  30.586  23.875  1.00  0.00     0.003 C 
ATOM     19  C   UNL A   1      29.335  29.539  22.805  1.00  0.00     0.032 C 
BRANCH  17  20
ATOM     20  O   UNL A   1      31.400  29.771  21.624  1.00  0.00    -0.393 OA
ATOM     21  H   UNL A   1      31.544  29.307  20.785  1.00  0.00     0.210 HD
ENDBRANCH  17  20
ENDBRANCH  14  15
ENDBRANCH  13  14
ENDBRANCH   6   8
ENDBRANCH   3   6
ENDBRANCH   1   2
BRANCH   1  22
ATOM     22  C   UNL A   1      38.914  22.465  26.229  1.00  0.00     0.042 C 
BRANCH  22  23
ATOM     23  C   UNL A   1      39.963  23.331  26.921  1.00  0.00     0.118 C 
BRANCH  23  24
ATOM     24  N   UNL A   1      40.798  24.059  25.980  1.00  0.00    -0.352 N 
ATOM     25  C   UNL A   1      41.262  25.350  26.018  1.00  0.00     0.251 C 
ATOM     26  H   UNL A   1      41.073  23.544  25.187  1.00  0.00     0.163 HD
ATOM     27  O   UNL A   1      41.804  25.815  25.019  1.00  0.00    -0.269 OA
BRANCH  25  28
ATOM     28  C   UNL A   1      41.101  26.186  27.230  1.00  0.00     0.039 A 
ATOM     29  C   UNL A   1      42.035  27.198  27.464  1.00  0.00     0.014 A 
ATOM     30  C   UNL A   1      40.079  25.956  28.157  1.00  0.00     0.014 A 
ATOM     31  C   UNL A   1      41.914  28.012  28.594  1.00  0.00     0.010 A 
ATOM     32  C   UNL A   1      39.920  26.811  29.249  1.00  0.00     0.010 A 
ATOM     33  C   UNL A   1      40.837  27.846  29.479  1.00  0.00    -0.014 A 
BRANCH  33  34
ATOM     34  C   UNL A   1      40.659  28.768  30.631  1.00  0.00     0.031 A 
ATOM     35  C   UNL A   1      41.496  28.621  31.874  1.00  0.00     0.074 A 
ATOM     36  C   UNL A   1      39.712  29.725  30.567  1.00  0.00     0.049 A 
ATOM     37  N   UNL A   1      41.472  29.332  32.972  1.00  0.00    -0.248 NA
ATOM     38  C   UNL A   1      42.474  27.522  31.892  1.00  0.00     0.031 C 
ATOM     39  C   UNL A   1      38.795  29.931  29.442  1.00  0.00     0.029 A 
ATOM     40  N   UNL A   1      39.359  30.701  31.464  1.00  0.00    -0.354 N 
ATOM     41  C   UNL A   1      42.426  28.769  33.812  1.00  0.00     0.074 A 
ATOM     42  C   UNL A   1      42.975  27.624  33.116  1.00  0.00     0.031 C 
ATOM     43  C   UNL A   1      38.001  30.980  29.708  1.00  0.00     0.029 A 
ATOM     44  C   UNL A   1      38.331  31.504  31.030  1.00  0.00     0.049 A 
ATOM     45  H   UNL A   1      39.799  30.816  32.337  1.00  0.00     0.167 HD
ATOM     46  C   UNL A   1      42.826  29.182  35.039  1.00  0.00     0.037 A 
ATOM     47  C   UNL A   1      37.720  32.546  31.627  1.00  0.00     0.037 A 
ATOM     48  C   UNL A   1      42.288  30.330  35.723  1.00  0.00     0.049 A 
ATOM     49  C   UNL A   1      38.195  32.995  32.981  1.00  0.00     0.074 A 
ATOM     50  C   UNL A   1      42.658  30.855  36.949  1.00  0.00     0.029 A 
ATOM     51  N   UNL A   1      41.265  31.134  35.240  1.00  0.00    -0.354 N 
ATOM     52  N   UNL A   1      39.140  32.486  33.733  1.00  0.00    -0.248 NA
ATOM     53  C   UNL A   1      37.527  34.169  33.561  1.00  0.00     0.031 C 
ATOM     54  C   UNL A   1      41.836  31.954  37.224  1.00  0.00     0.029 A 
ATOM     55  C   UNL A   1      40.982  32.140  36.149  1.00  0.00     0.049 A 
ATOM     56  H   UNL A   1      40.807  31.007  34.378  1.00  0.00     0.167 HD
ATOM     57  C   UNL A   1      39.190  33.283  34.871  1.00  0.00     0.074 A 
ATOM     58  C   UNL A   1      38.199  34.324  34.694  1.00  0.00     0.031 C 
ATOM     59  C   UNL A   1      39.984  33.163  35.965  1.00  0.00     0.037 A 
BRANCH  46  60
ATOM     60  C   UNL A   1      43.915  28.396  35.718  1.00  0.00     0.058 A 
ATOM     61  C   UNL A   1      45.271  28.692  35.507  1.00  0.00     0.135 A 
ATOM     62  C   UNL A   1      43.602  27.367  36.622  1.00  0.00     0.135 A 
ATOM     63  F   UNL A   1      45.627  29.655  34.643  1.00  0.00    -0.206 F 
ATOM     64  C   UNL A   1      46.280  27.981  36.149  1.00  0.00     0.059 A 
ATOM     65  C   UNL A   1      44.595  26.660  37.294  1.00  0.00     0.059 A 
ATOM     66  F   UNL A   1      42.322  27.042  36.860  1.00  0.00    -0.206 F 
ATOM     67  C   UNL A   1      45.932  26.966  37.042  1.00  0.00     0.060 A 
BRANCH  67  68
ATOM     68  S   UNL A   1      47.253  26.063  37.878  1.00  0.00     0.124 S 
ATOM     69  O   UNL A   1      46.491  25.124  38.695  1.00  0.00    -0.237 OA
ATOM     70  O   UNL A   1      47.989  25.478  36.761  1.00  0.00    -0.237 OA
ATOM     71  O   UNL A   1      47.963  27.103  38.615  1.00  0.00    -0.744 OA
ENDBRANCH  67  68
ENDBRANCH  46  60
BRANCH  47  72
ATOM     72  C   UNL A   1      36.603  33.244  30.938  1.00  0.00     0.058 A 
ATOM     73  C   UNL A   1      36.838  34.058  29.820  1.00  0.00     0.135 A 
ATOM     74  C   UNL A   1      35.278  33.098  31.375  1.00  0.00     0.135 A 
ATOM     75  F   UNL A   1      38.089  34.231  29.368  1.00  0.00    -0.206 F 
ATOM     76  C   UNL A   1      35.802  34.719  29.170  1.00  0.00     0.059 A 
ATOM     77  C   UNL A   1      34.221  33.728  30.726  1.00  0.00     0.059 A 
ATOM     78  F   UNL A   1      35.000  32.314  32.427  1.00  0.00    -0.206 F 
ATOM     79  C   UNL A   1      34.495  34.546  29.631  1.00  0.00     0.060 A 
BRANCH  79  80
ATOM     80  S   UNL A   1      33.147  35.366  28.751  1.00  0.00     0.124 S 
ATOM     81  O   UNL A   1      33.873  36.349  27.955  1.00  0.00    -0.237 OA
ATOM     82  O   UNL A   1      32.547  34.262  28.009  1.00  0.00    -0.237 OA
ATOM     83  O   UNL A   1      32.325  35.906  29.830  1.00  0.00    -0.744 OA
ENDBRANCH  79  80
ENDBRANCH  47  72
BRANCH  59  84
ATOM     84  C   UNL A   1      39.813  34.192  37.048  1.00  0.00     0.058 A 
ATOM     85  C   UNL A   1      39.104  33.907  38.225  1.00  0.00     0.135 A 
ATOM     86  C   UNL A   1      40.374  35.471  36.913  1.00  0.00     0.135 A 
ATOM     87  F   UNL A   1      38.543  32.700  38.401  1.00  0.00    -0.206 F 
ATOM     88  C   UNL A   1      38.927  34.866  39.217  1.00  0.00     0.059 A 
ATOM     89  C   UNL A   1      40.231  36.439  37.903  1.00  0.00     0.059 A 
ATOM     90  F   UNL A   1      41.071  35.792  35.811  1.00  0.00    -0.206 F 
ATOM     91  C   UNL A   1      39.490  36.131  39.044  1.00  0.00     0.060 A 
BRANCH  91  92
ATOM     92  S   UNL A   1      39.255  37.370  40.336  1.00  0.00     0.124 S 
ATOM     93  O   UNL A   1      40.634  37.717  40.663  1.00  0.00    -0.237 OA
ATOM     94  O   UNL A   1      38.488  38.403  39.646  1.00  0.00    -0.237 OA
ATOM     95  O   UNL A   1      38.527  36.644  41.372  1.00  0.00    -0.744 OA
ENDBRANCH  91  92
ENDBRANCH  59  84
ENDBRANCH  33  34
ENDBRANCH  25  28
ENDBRANCH  23  24
ENDBRANCH  22  23
ENDBRANCH   1  22
TORSDOF 17
ENDMDL
MODEL 3
REMARK VINA RESULT:      -8.6      4.267      6.670
REMARK SMILES C[C@@H](C(=O)NCCCNC(=O)c1ccc(-c2c3nc(c(-c4c(F)cc(S(=O)(=O)[O-])cc4F)c4ccc([nH]4)c(-c4c(F)cc(S(=O)(=O)[O-])cc4F)c4nc(c(-c5c(F)cc(S(=O)(=O)[O-])cc5F)c5ccc2[nH]5)C=C4)C=C3)cc1)c1ccc(C[C@H]2CCC[C@H]2O)cc1
REMARK SMILES IDX 6 1 5 2 3 3 4 4 2 6 1 7 78 8 79 9 90 10 80 11 89 12 81 13
REMARK SMILES IDX 82 14 83 15 84 16 87 17 85 18 86 19 88 20 7 22 8 23 9 24
REMARK SMILES IDX 10 25 11 27 12 28 13 29 77 30 14 31 76 32 15 33 16 34 17 35
REMARK SMILES IDX 70 36 18 37 75 38 69 39 71 40 19 41 74 42 68 43 67 44 20 46
REMARK SMILES IDX 54 47 33 48 53 49 34 50 37 51 52 52 72 53 35 54 36 55 51 57
REMARK SMILES IDX 73 58 38 59 21 60 22 61 31 62 23 63 24 64 30 65 32 66 25 67
REMARK SMILES IDX 26 68 27 69 28 70 29 71 55 72 56 73 65 74 57 75 58 76 64 77
REMARK SMILES IDX 66 78 59 79 60 80 61 81 62 82 63 83 39 84 40 85 49 86 41 87
REMARK SMILES IDX 42 88 48 89 50 90 43 91 44 92 45 93 46 94 47 95
REMARK H PARENT 5 5 88 21 9 26 71 45 37 56
REMARK Flexibility Score: inf
ROOT
ATOM      1  C   UNL A   1      37.923  23.738  25.846  1.00  0.00     0.117 C 
ENDROOT
BRANCH   1   2
ATOM      2  N   UNL A   1      37.545  23.580  24.454  1.00  0.00    -0.356 N 
ATOM      3  C   UNL A   1      36.384  23.124  23.901  1.00  0.00     0.227 C 
ATOM      4  O   UNL A   1      36.373  22.972  22.678  1.00  0.00    -0.274 OA
ATOM      5  H   UNL A   1      38.237  23.846  23.806  1.00  0.00     0.163 HD
BRANCH   3   6
ATOM      6  C   UNL A   1      35.170  22.856  24.794  1.00  0.00     0.105 C 
ATOM      7  C   UNL A   1      34.318  21.688  24.279  1.00  0.00     0.023 C 
BRANCH   6   8
ATOM      8  C   UNL A   1      34.314  24.101  24.991  1.00  0.00    -0.036 A 
ATOM      9  C   UNL A   1      33.494  24.210  26.122  1.00  0.00     0.005 A 
ATOM     10  C   UNL A   1      34.308  25.145  24.056  1.00  0.00     0.005 A 
ATOM     11  C   UNL A   1      32.616  25.286  26.258  1.00  0.00     0.004 A 
ATOM     12  C   UNL A   1      33.413  26.207  24.181  1.00  0.00     0.004 A 
ATOM     13  C   UNL A   1      32.514  26.253  25.253  1.00  0.00    -0.048 A 
BRANCH  13  14
ATOM     14  C   UNL A   1      31.423  27.293  25.290  1.00  0.00     0.041 C 
BRANCH  14  15
ATOM     15  C   UNL A   1      30.864  27.759  23.930  1.00  0.00     0.022 C 
ATOM     16  C   UNL A   1      29.364  27.520  23.684  1.00  0.00     0.007 C 
ATOM     17  C   UNL A   1      31.091  29.224  23.524  1.00  0.00     0.117 C 
ATOM     18  C   UNL A   1      28.905  28.627  22.729  1.00  0.00     0.003 C 
ATOM     19  C   UNL A   1      30.165  29.382  22.322  1.00  0.00     0.032 C 
BRANCH  17  20
ATOM     20  O   UNL A   1      30.725  30.181  24.503  1.00  0.00    -0.393 OA
ATOM     21  H   UNL A   1      30.307  30.942  24.070  1.00  0.00     0.210 HD
ENDBRANCH  17  20
ENDBRANCH  14  15
ENDBRANCH  13  14
ENDBRANCH   6   8
ENDBRANCH   3   6
ENDBRANCH   1   2
BRANCH   1  22
ATOM     22  C   UNL A   1      38.889  22.643  26.296  1.00  0.00     0.042 C 
BRANCH  22  23
ATOM     23  C   UNL A   1      40.146  23.157  26.993  1.00  0.00     0.118 C 
BRANCH  23  24
ATOM     24  N   UNL A   1      41.048  23.847  26.084  1.00  0.00    -0.352 N 
ATOM     25  C   UNL A   1      41.550  25.123  26.131  1.00  0.00     0.251 C 
ATOM     26  H   UNL A   1      41.344  23.314  25.312  1.00  0.00     0.163 HD
ATOM     27  O   UNL A   1      42.154  25.558  25.155  1.00  0.00    -0.269 OA
BRANCH  25  28
ATOM     28  C   UNL A   1      41.358  25.978  27.324  1.00  0.00     0.039 A 
ATOM     29  C   UNL A   1      42.357  26.902  27.644  1.00  0.00     0.014 A 
ATOM     30  C   UNL A   1      40.240  25.850  28.155  1.00  0.00     0.014 A 
ATOM     31  C   UNL A   1      42.210  27.731  28.759  1.00  0.00     0.010 A 
ATOM     32  C   UNL A   1      40.063  26.724  29.229  1.00  0.00     0.010 A 
ATOM     33  C   UNL A   1      41.047  27.671  29.544  1.00  0.00    -0.014 A 
BRANCH  33  34
ATOM     34  C   UNL A   1      40.852  28.614  30.676  1.00  0.00     0.031 A 
ATOM     35  C   UNL A   1      41.684  28.501  31.925  1.00  0.00     0.074 A 
ATOM     36  C   UNL A   1      39.894  29.558  30.588  1.00  0.00     0.049 A 
ATOM     37  N   UNL A   1      41.645  29.233  33.010  1.00  0.00    -0.248 NA
ATOM     38  C   UNL A   1      42.675  27.414  31.971  1.00  0.00     0.031 C 
ATOM     39  C   UNL A   1      38.980  29.730  29.455  1.00  0.00     0.029 A 
ATOM     40  N   UNL A   1      39.524  30.546  31.464  1.00  0.00    -0.354 N 
ATOM     41  C   UNL A   1      42.602  28.698  33.865  1.00  0.00     0.074 A 
ATOM     42  C   UNL A   1      43.168  27.547  33.194  1.00  0.00     0.031 C 
ATOM     43  C   UNL A   1      38.172  30.774  29.696  1.00  0.00     0.029 A 
ATOM     44  C   UNL A   1      38.489  31.328  31.009  1.00  0.00     0.049 A 
ATOM     45  H   UNL A   1      39.958  30.684  32.336  1.00  0.00     0.167 HD
ATOM     46  C   UNL A   1      42.990  29.141  35.085  1.00  0.00     0.037 A 
ATOM     47  C   UNL A   1      37.862  32.374  31.582  1.00  0.00     0.037 A 
ATOM     48  C   UNL A   1      42.435  30.296  35.744  1.00  0.00     0.049 A 
ATOM     49  C   UNL A   1      38.324  32.856  32.929  1.00  0.00     0.074 A 
ATOM     50  C   UNL A   1      42.792  30.848  36.962  1.00  0.00     0.029 A 
ATOM     51  N   UNL A   1      41.404  31.077  35.240  1.00  0.00    -0.354 N 
ATOM     52  N   UNL A   1      39.271  32.373  33.696  1.00  0.00    -0.248 NA
ATOM     53  C   UNL A   1      37.639  34.032  33.482  1.00  0.00     0.031 C 
ATOM     54  C   UNL A   1      41.955  31.943  37.210  1.00  0.00     0.029 A 
ATOM     55  C   UNL A   1      41.105  32.098  36.128  1.00  0.00     0.049 A 
ATOM     56  H   UNL A   1      40.953  30.927  34.379  1.00  0.00     0.167 HD
ATOM     57  C   UNL A   1      39.306  33.193  34.818  1.00  0.00     0.074 A 
ATOM     58  C   UNL A   1      38.303  34.218  34.616  1.00  0.00     0.031 C 
ATOM     59  C   UNL A   1      40.095  33.104  35.918  1.00  0.00     0.037 A 
BRANCH  46  60
ATOM     60  C   UNL A   1      44.084  28.381  35.786  1.00  0.00     0.058 A 
ATOM     61  C   UNL A   1      43.793  27.334  36.676  1.00  0.00     0.135 A 
ATOM     62  C   UNL A   1      45.436  28.670  35.534  1.00  0.00     0.135 A 
ATOM     63  F   UNL A   1      42.520  27.026  36.964  1.00  0.00    -0.206 F 
ATOM     64  C   UNL A   1      44.802  26.616  37.309  1.00  0.00     0.059 A 
ATOM     65  C   UNL A   1      46.461  27.947  36.138  1.00  0.00     0.059 A 
ATOM     66  F   UNL A   1      45.770  29.660  34.693  1.00  0.00    -0.206 F 
ATOM     67  C   UNL A   1      46.134  26.930  37.034  1.00  0.00     0.060 A 
BRANCH  67  68
ATOM     68  S   UNL A   1      47.431  25.978  37.854  1.00  0.00     0.124 S 
ATOM     69  O   UNL A   1      48.421  27.015  38.130  1.00  0.00    -0.237 OA
ATOM     70  O   UNL A   1      46.736  25.439  39.019  1.00  0.00    -0.237 OA
ATOM     71  O   UNL A   1      47.818  24.994  36.848  1.00  0.00    -0.744 OA
ENDBRANCH  67  68
ENDBRANCH  46  60
BRANCH  47  72
ATOM     72  C   UNL A   1      36.741  33.045  30.873  1.00  0.00     0.058 A 
ATOM     73  C   UNL A   1      35.406  32.762  31.199  1.00  0.00     0.135 A 
ATOM     74  C   UNL A   1      36.983  33.993  29.868  1.00  0.00     0.135 A 
ATOM     75  F   UNL A   1      35.125  31.859  32.151  1.00  0.00    -0.206 F 
ATOM     76  C   UNL A   1      34.349  33.381  30.540  1.00  0.00     0.059 A 
ATOM     77  C   UNL A   1      35.943  34.644  29.212  1.00  0.00     0.059 A 
ATOM     78  F   UNL A   1      38.243  34.313  29.535  1.00  0.00    -0.206 F 
ATOM     79  C   UNL A   1      34.629  34.322  29.547  1.00  0.00     0.060 A 
BRANCH  79  80
ATOM     80  S   UNL A   1      33.252  35.160  28.731  1.00  0.00     0.124 S 
ATOM     81  O   UNL A   1      32.652  34.067  27.975  1.00  0.00    -0.237 OA
ATOM     82  O   UNL A   1      32.477  35.654  29.864  1.00  0.00    -0.237 OA
ATOM     83  O   UNL A   1      33.914  36.191  27.938  1.00  0.00    -0.744 OA
ENDBRANCH  79  80
ENDBRANCH  47  72
BRANCH  59  84
ATOM     84  C   UNL A   1      39.906  34.152  36.979  1.00  0.00     0.058 A 
ATOM     85  C   UNL A   1      40.506  35.417  36.879  1.00  0.00     0.135 A 
ATOM     86  C   UNL A   1      39.104  33.894  38.103  1.00  0.00     0.135 A 
ATOM     87  F   UNL A   1      41.286  35.712  35.827  1.00  0.00    -0.206 F 
ATOM     88  C   UNL A   1      40.349  36.377  37.872  1.00  0.00     0.059 A 
ATOM     89  C   UNL A   1      38.912  34.849  39.096  1.00  0.00     0.059 A 
ATOM     90  F   UNL A   1      38.498  32.704  38.242  1.00  0.00    -0.206 F 
ATOM     91  C   UNL A   1      39.553  36.082  38.980  1.00  0.00     0.060 A 
BRANCH  91  92
ATOM     92  S   UNL A   1      39.353  37.335  40.264  1.00  0.00     0.124 S 
ATOM     93  O   UNL A   1      38.565  38.346  39.567  1.00  0.00    -0.237 OA
ATOM     94  O   UNL A   1      38.654  36.600  41.315  1.00  0.00    -0.237 OA
ATOM     95  O   UNL A   1      40.726  37.716  40.582  1.00  0.00    -0.744 OA
ENDBRANCH  91  92
ENDBRANCH  59  84
ENDBRANCH  33  34
ENDBRANCH  25  28
ENDBRANCH  23  24
ENDBRANCH  22  23
ENDBRANCH   1  22
TORSDOF 17
ENDMDL
