MODEL 1
REMARK VINA RESULT:     -11.2      0.000      0.000
REMARK SMILES COc1ccc(/C=C2/SC(=S)N(CC(=O)NCCCNC(=O)c3ccc(-c4c5nc(c(-c6c(F)cc(S(=O)(=O)[O-])cc6F)c6ccc([nH]6)c(-c6c(F)cc(S(=O)(=O)[O-])cc6F)c6nc(c(-c7c(F)cc(S(=O)(=O)[O-])cc7F)c7ccc4[nH]7)C=C6)C=C5)cc3)C2=O)cc1[N+](=O)[O-]
REMARK SMILES IDX 18 1 17 2 16 3 14 4 15 5 13 7 12 8 7 9 8 10 9 11 89 12 10 13
REMARK SMILES IDX 90 14 11 15 6 16 3 17 4 18 92 19 5 20 91 21 2 22 1 23 93 24
REMARK SMILES IDX 94 25 95 26 19 27 20 28 21 29 22 31 23 32 24 33 88 34 25 35
REMARK SMILES IDX 87 36 26 37 27 38 28 39 81 40 29 41 86 42 80 43 82 44 30 45
REMARK SMILES IDX 85 46 79 47 78 48 31 50 65 51 44 52 64 53 45 54 48 55 63 56
REMARK SMILES IDX 83 57 46 58 47 59 62 61 84 62 49 63 32 64 33 65 42 66 34 67
REMARK SMILES IDX 35 68 41 69 43 70 36 71 37 72 38 73 39 74 40 75 66 76 67 77
REMARK SMILES IDX 76 78 68 79 69 80 75 81 77 82 70 83 71 84 72 85 73 86 74 87
REMARK SMILES IDX 50 88 51 89 60 90 52 91 53 92 59 93 61 94 54 95 55 96 56 97
REMARK SMILES IDX 57 98 58 99
REMARK H PARENT 16 6 20 30 82 49 48 60
REMARK Flexibility Score: inf
ROOT
ATOM      1  C   UNL A   1      38.908  23.712  26.618  1.00  0.00     0.042 C 
ENDROOT
BRANCH   1   2
ATOM      2  C   UNL A   1      37.591  23.511  25.883  1.00  0.00     0.117 C 
BRANCH   2   3
ATOM      3  N   UNL A   1      36.634  22.753  26.660  1.00  0.00    -0.354 N 
ATOM      4  C   UNL A   1      35.377  22.344  26.328  1.00  0.00     0.240 C 
ATOM      5  O   UNL A   1      34.881  21.435  26.999  1.00  0.00    -0.273 OA
ATOM      6  H   UNL A   1      36.936  22.494  27.561  1.00  0.00     0.163 HD
BRANCH   4   7
ATOM      7  C   UNL A   1      34.674  22.863  25.066  1.00  0.00     0.227 C 
BRANCH   7   8
ATOM      8  N   UNL A   1      33.225  23.029  25.205  1.00  0.00    -0.283 N 
ATOM      9  C   UNL A   1      30.484  25.362  25.844  1.00  0.00     0.029 C 
ATOM     10  C   UNL A   1      31.277  24.289  25.683  1.00  0.00     0.081 C 
ATOM     11  S   UNL A   1      30.686  22.682  25.499  1.00  0.00    -0.054 SA
ATOM     12  C   UNL A   1      32.767  24.275  25.595  1.00  0.00     0.266 C 
ATOM     13  C   UNL A   1      32.291  22.018  25.202  1.00  0.00     0.148 C 
ATOM     14  O   UNL A   1      33.490  25.222  25.879  1.00  0.00    -0.268 OA
ATOM     15  S   UNL A   1      32.538  20.379  24.996  1.00  0.00    -0.052 S 
BRANCH   9  16
ATOM     16  C   UNL A   1      31.001  26.734  25.888  1.00  0.00    -0.017 A 
ATOM     17  C   UNL A   1      32.430  29.166  25.899  1.00  0.00     0.196 A 
ATOM     18  C   UNL A   1      32.068  28.540  27.100  1.00  0.00     0.054 A 
ATOM     19  C   UNL A   1      32.017  28.588  24.694  1.00  0.00     0.311 A 
ATOM     20  C   UNL A   1      31.357  27.331  27.098  1.00  0.00     0.012 A 
ATOM     21  C   UNL A   1      31.275  27.396  24.688  1.00  0.00     0.098 A 
BRANCH  17  22
ATOM     22  O   UNL A   1      33.358  30.164  26.022  1.00  0.00    -0.490 OA
ATOM     23  C   UNL A   1      33.669  30.535  27.363  1.00  0.00     0.278 C 
ENDBRANCH  17  22
BRANCH  19  24
ATOM     24  N   UNL A   1      32.425  29.099  23.395  1.00  0.00     0.066 N 
ATOM     25  O   UNL A   1      33.644  29.179  23.173  1.00  0.00    -0.258 OA
ATOM     26  O   UNL A   1      31.546  29.342  22.559  1.00  0.00    -0.258 OA
ENDBRANCH  19  24
ENDBRANCH   9  16
ENDBRANCH   7   8
ENDBRANCH   4   7
ENDBRANCH   2   3
ENDBRANCH   1   2
BRANCH   1  27
ATOM     27  C   UNL A   1      39.691  24.931  26.140  1.00  0.00     0.118 C 
BRANCH  27  28
ATOM     28  N   UNL A   1      41.085  24.621  25.843  1.00  0.00    -0.352 N 
ATOM     29  C   UNL A   1      42.237  25.174  26.353  1.00  0.00     0.251 C 
ATOM     30  H   UNL A   1      41.223  23.910  25.176  1.00  0.00     0.163 HD
ATOM     31  O   UNL A   1      43.321  24.909  25.843  1.00  0.00    -0.269 OA
BRANCH  29  32
ATOM     32  C   UNL A   1      42.159  26.104  27.498  1.00  0.00     0.039 A 
ATOM     33  C   UNL A   1      42.896  27.291  27.467  1.00  0.00     0.014 A 
ATOM     34  C   UNL A   1      41.347  25.807  28.594  1.00  0.00     0.014 A 
ATOM     35  C   UNL A   1      42.751  28.221  28.502  1.00  0.00     0.010 A 
ATOM     36  C   UNL A   1      41.144  26.766  29.579  1.00  0.00     0.010 A 
ATOM     37  C   UNL A   1      41.841  27.984  29.543  1.00  0.00    -0.014 A 
BRANCH  37  38
ATOM     38  C   UNL A   1      41.591  28.980  30.617  1.00  0.00     0.031 A 
ATOM     39  C   UNL A   1      42.386  28.907  31.894  1.00  0.00     0.074 A 
ATOM     40  C   UNL A   1      40.583  29.868  30.492  1.00  0.00     0.049 A 
ATOM     41  N   UNL A   1      42.205  29.551  33.017  1.00  0.00    -0.248 NA
ATOM     42  C   UNL A   1      43.514  27.960  31.921  1.00  0.00     0.031 C 
ATOM     43  C   UNL A   1      39.719  30.013  29.318  1.00  0.00     0.029 A 
ATOM     44  N   UNL A   1      40.091  30.797  31.377  1.00  0.00    -0.354 N 
ATOM     45  C   UNL A   1      43.168  29.063  33.892  1.00  0.00     0.074 A 
ATOM     46  C   UNL A   1      43.912  28.047  33.183  1.00  0.00     0.031 C 
ATOM     47  C   UNL A   1      38.806  30.968  29.556  1.00  0.00     0.029 A 
ATOM     48  C   UNL A   1      38.981  31.469  30.915  1.00  0.00     0.049 A 
ATOM     49  H   UNL A   1      40.495  30.967  32.260  1.00  0.00     0.167 HD
ATOM     50  C   UNL A   1      43.416  29.441  35.168  1.00  0.00     0.037 A 
ATOM     51  C   UNL A   1      38.178  32.362  31.528  1.00  0.00     0.037 A 
ATOM     52  C   UNL A   1      42.699  30.486  35.849  1.00  0.00     0.049 A 
ATOM     53  C   UNL A   1      38.479  32.765  32.950  1.00  0.00     0.074 A 
ATOM     54  C   UNL A   1      42.930  30.997  37.114  1.00  0.00     0.029 A 
ATOM     55  N   UNL A   1      41.617  31.177  35.327  1.00  0.00    -0.354 N 
ATOM     56  N   UNL A   1      39.439  32.342  33.739  1.00  0.00    -0.248 NA
ATOM     57  C   UNL A   1      37.595  33.765  33.566  1.00  0.00     0.031 C 
ATOM     58  C   UNL A   1      41.951  31.956  37.381  1.00  0.00     0.029 A 
ATOM     59  C   UNL A   1      41.152  32.092  36.257  1.00  0.00     0.049 A 
ATOM     60  H   UNL A   1      41.236  31.039  34.430  1.00  0.00     0.167 HD
ATOM     61  C   UNL A   1      39.299  33.057  34.924  1.00  0.00     0.074 A 
ATOM     62  C   UNL A   1      38.164  33.937  34.751  1.00  0.00     0.031 C 
ATOM     63  C   UNL A   1      40.044  32.989  36.054  1.00  0.00     0.037 A 
BRANCH  50  64
ATOM     64  C   UNL A   1      44.506  28.733  35.924  1.00  0.00     0.058 A 
ATOM     65  C   UNL A   1      45.827  29.204  35.932  1.00  0.00     0.135 A 
ATOM     66  C   UNL A   1      44.200  27.623  36.728  1.00  0.00     0.135 A 
ATOM     67  F   UNL A   1      46.178  30.250  35.168  1.00  0.00    -0.206 F 
ATOM     68  C   UNL A   1      46.808  28.600  36.711  1.00  0.00     0.059 A 
ATOM     69  C   UNL A   1      45.159  27.020  37.537  1.00  0.00     0.059 A 
ATOM     70  F   UNL A   1      42.952  27.129  36.751  1.00  0.00    -0.206 F 
ATOM     71  C   UNL A   1      46.461  27.515  37.519  1.00  0.00     0.060 A 
BRANCH  71  72
ATOM     72  S   UNL A   1      47.733  26.784  38.570  1.00  0.00     0.124 S 
ATOM     73  O   UNL A   1      48.640  27.912  38.759  1.00  0.00    -0.237 OA
ATOM     74  O   UNL A   1      46.969  26.381  39.746  1.00  0.00    -0.237 OA
ATOM     75  O   UNL A   1      48.257  25.689  37.760  1.00  0.00    -0.744 OA
ENDBRANCH  71  72
ENDBRANCH  50  64
BRANCH  51  76
ATOM     76  C   UNL A   1      36.996  32.926  30.819  1.00  0.00     0.058 A 
ATOM     77  C   UNL A   1      37.134  33.975  29.896  1.00  0.00     0.135 A 
ATOM     78  C   UNL A   1      35.699  32.453  31.074  1.00  0.00     0.135 A 
ATOM     79  F   UNL A   1      38.351  34.467  29.618  1.00  0.00    -0.206 F 
ATOM     80  C   UNL A   1      36.030  34.563  29.287  1.00  0.00     0.059 A 
ATOM     81  C   UNL A   1      34.581  33.002  30.452  1.00  0.00     0.059 A 
ATOM     82  F   UNL A   1      35.508  31.437  31.930  1.00  0.00    -0.206 F 
ATOM     83  C   UNL A   1      34.756  34.072  29.576  1.00  0.00     0.060 A 
BRANCH  83  84
ATOM     84  S   UNL A   1      33.327  34.841  28.782  1.00  0.00     0.124 S 
ATOM     85  O   UNL A   1      32.427  35.023  29.915  1.00  0.00    -0.237 OA
ATOM     86  O   UNL A   1      33.906  36.058  28.223  1.00  0.00    -0.237 OA
ATOM     87  O   UNL A   1      32.913  33.843  27.800  1.00  0.00    -0.744 OA
ENDBRANCH  83  84
ENDBRANCH  51  76
BRANCH  63  88
ATOM     88  C   UNL A   1      39.716  33.937  37.175  1.00  0.00     0.058 A 
ATOM     89  C   UNL A   1      38.865  33.574  38.230  1.00  0.00     0.135 A 
ATOM     90  C   UNL A   1      40.349  35.189  37.242  1.00  0.00     0.135 A 
ATOM     91  F   UNL A   1      38.228  32.393  38.210  1.00  0.00    -0.206 F 
ATOM     92  C   UNL A   1      38.650  34.422  39.311  1.00  0.00     0.059 A 
ATOM     93  C   UNL A   1      40.173  36.040  38.328  1.00  0.00     0.059 A 
ATOM     94  F   UNL A   1      41.181  35.580  36.263  1.00  0.00    -0.206 F 
ATOM     95  C   UNL A   1      39.318  35.648  39.356  1.00  0.00     0.060 A 
BRANCH  95  96
ATOM     96  S   UNL A   1      39.086  36.706  40.800  1.00  0.00     0.124 S 
ATOM     97  O   UNL A   1      38.345  37.826  40.231  1.00  0.00    -0.237 OA
ATOM     98  O   UNL A   1      38.332  35.840  41.701  1.00  0.00    -0.237 OA
ATOM     99  O   UNL A   1      40.450  37.007  41.226  1.00  0.00    -0.744 OA
ENDBRANCH  95  96
ENDBRANCH  63  88
ENDBRANCH  37  38
ENDBRANCH  29  32
ENDBRANCH  27  28
ENDBRANCH   1  27
TORSDOF 17
ENDMDL
MODEL 2
REMARK VINA RESULT:     -10.9      4.418     11.064
REMARK SMILES COc1ccc(/C=C2/SC(=S)N(CC(=O)NCCCNC(=O)c3ccc(-c4c5nc(c(-c6c(F)cc(S(=O)(=O)[O-])cc6F)c6ccc([nH]6)c(-c6c(F)cc(S(=O)(=O)[O-])cc6F)c6nc(c(-c7c(F)cc(S(=O)(=O)[O-])cc7F)c7ccc4[nH]7)C=C6)C=C5)cc3)C2=O)cc1[N+](=O)[O-]
REMARK SMILES IDX 18 1 17 2 16 3 14 4 15 5 13 7 12 8 7 9 8 10 9 11 89 12 10 13
REMARK SMILES IDX 90 14 11 15 6 16 3 17 4 18 92 19 5 20 91 21 2 22 1 23 93 24
REMARK SMILES IDX 94 25 95 26 19 27 20 28 21 29 22 31 23 32 24 33 88 34 25 35
REMARK SMILES IDX 87 36 26 37 27 38 28 39 81 40 29 41 86 42 80 43 82 44 30 45
REMARK SMILES IDX 85 46 79 47 78 48 31 50 65 51 44 52 64 53 45 54 48 55 63 56
REMARK SMILES IDX 83 57 46 58 47 59 62 61 84 62 49 63 32 64 33 65 42 66 34 67
REMARK SMILES IDX 35 68 41 69 43 70 36 71 37 72 38 73 39 74 40 75 66 76 67 77
REMARK SMILES IDX 76 78 68 79 69 80 75 81 77 82 70 83 71 84 72 85 73 86 74 87
REMARK SMILES IDX 50 88 51 89 60 90 52 91 53 92 59 93 61 94 54 95 55 96 56 97
REMARK SMILES IDX 57 98 58 99
REMARK H PARENT 16 6 20 30 82 49 48 60
REMARK Flexibility Score: inf
ROOT
ATOM      1  C   UNL A   1      43.267  24.358  28.678  1.00  0.00     0.042 C 
ENDROOT
BRANCH   1   2
ATOM      2  C   UNL A   1      44.445  24.539  29.623  1.00  0.00     0.117 C 
BRANCH   2   3
ATOM      3  N   UNL A   1      44.827  25.927  29.771  1.00  0.00    -0.354 N 
ATOM      4  C   UNL A   1      45.941  26.572  29.321  1.00  0.00     0.240 C 
ATOM      5  O   UNL A   1      45.898  27.804  29.263  1.00  0.00    -0.273 OA
ATOM      6  H   UNL A   1      44.189  26.488  30.268  1.00  0.00     0.163 HD
BRANCH   4   7
ATOM      7  C   UNL A   1      47.133  25.799  28.741  1.00  0.00     0.227 C 
BRANCH   7   8
ATOM      8  N   UNL A   1      47.115  25.663  27.282  1.00  0.00    -0.283 N 
ATOM      9  C   UNL A   1      46.240  23.533  24.442  1.00  0.00     0.029 C 
ATOM     10  C   UNL A   1      46.739  24.463  25.274  1.00  0.00     0.081 C 
ATOM     11  S   UNL A   1      47.486  25.920  24.742  1.00  0.00    -0.054 SA
ATOM     12  C   UNL A   1      46.714  24.443  26.767  1.00  0.00     0.266 C 
ATOM     13  C   UNL A   1      47.663  26.547  26.380  1.00  0.00     0.148 C 
ATOM     14  O   UNL A   1      46.427  23.465  27.445  1.00  0.00    -0.268 OA
ATOM     15  S   UNL A   1      48.433  27.997  26.686  1.00  0.00    -0.052 S 
BRANCH   9  16
ATOM     16  C   UNL A   1      45.508  22.353  24.915  1.00  0.00    -0.017 A 
ATOM     17  C   UNL A   1      43.938  20.053  25.367  1.00  0.00     0.196 A 
ATOM     18  C   UNL A   1      43.460  21.327  25.704  1.00  0.00     0.054 A 
ATOM     19  C   UNL A   1      45.235  19.942  24.855  1.00  0.00     0.311 A 
ATOM     20  C   UNL A   1      44.238  22.472  25.480  1.00  0.00     0.012 A 
ATOM     21  C   UNL A   1      46.031  21.082  24.662  1.00  0.00     0.098 A 
BRANCH  17  22
ATOM     22  O   UNL A   1      42.994  19.062  25.357  1.00  0.00    -0.490 OA
ATOM     23  C   UNL A   1      41.707  19.454  25.830  1.00  0.00     0.278 C 
ENDBRANCH  17  22
BRANCH  19  24
ATOM     24  N   UNL A   1      45.788  18.682  24.380  1.00  0.00     0.066 N 
ATOM     25  O   UNL A   1      45.991  17.796  25.226  1.00  0.00    -0.258 OA
ATOM     26  O   UNL A   1      45.944  18.534  23.162  1.00  0.00    -0.258 OA
ENDBRANCH  19  24
ENDBRANCH   9  16
ENDBRANCH   7   8
ENDBRANCH   4   7
ENDBRANCH   2   3
ENDBRANCH   1   2
BRANCH   1  27
ATOM     27  C   UNL A   1      43.399  25.155  27.384  1.00  0.00     0.118 C 
BRANCH  27  28
ATOM     28  N   UNL A   1      42.242  24.998  26.508  1.00  0.00    -0.352 N 
ATOM     29  C   UNL A   1      40.947  25.431  26.676  1.00  0.00     0.251 C 
ATOM     30  H   UNL A   1      42.413  24.509  25.671  1.00  0.00     0.163 HD
ATOM     31  O   UNL A   1      40.069  25.043  25.912  1.00  0.00    -0.269 OA
BRANCH  29  32
ATOM     32  C   UNL A   1      40.618  26.344  27.789  1.00  0.00     0.039 A 
ATOM     33  C   UNL A   1      39.671  25.950  28.740  1.00  0.00     0.014 A 
ATOM     34  C   UNL A   1      41.254  27.581  27.900  1.00  0.00     0.014 A 
ATOM     35  C   UNL A   1      39.427  26.765  29.849  1.00  0.00     0.010 A 
ATOM     36  C   UNL A   1      41.069  28.350  29.043  1.00  0.00     0.010 A 
ATOM     37  C   UNL A   1      40.156  27.950  30.032  1.00  0.00    -0.014 A 
BRANCH  37  38
ATOM     38  C   UNL A   1      39.991  28.803  31.237  1.00  0.00     0.031 A 
ATOM     39  C   UNL A   1      38.970  29.910  31.226  1.00  0.00     0.074 A 
ATOM     40  C   UNL A   1      40.828  28.658  32.285  1.00  0.00     0.049 A 
ATOM     41  N   UNL A   1      38.792  30.877  32.088  1.00  0.00    -0.248 NA
ATOM     42  C   UNL A   1      38.050  29.954  30.077  1.00  0.00     0.031 C 
ATOM     43  C   UNL A   1      41.880  27.645  32.398  1.00  0.00     0.029 A 
ATOM     44  N   UNL A   1      40.948  29.386  33.445  1.00  0.00    -0.354 N 
ATOM     45  C   UNL A   1      37.769  31.661  31.570  1.00  0.00     0.074 A 
ATOM     46  C   UNL A   1      37.385  31.079  30.304  1.00  0.00     0.031 C 
ATOM     47  C   UNL A   1      42.537  27.817  33.557  1.00  0.00     0.029 A 
ATOM     48  C   UNL A   1      41.991  28.982  34.247  1.00  0.00     0.049 A 
ATOM     49  H   UNL A   1      40.343  30.127  33.680  1.00  0.00     0.167 HD
ATOM     50  C   UNL A   1      37.193  32.760  32.111  1.00  0.00     0.037 A 
ATOM     51  C   UNL A   1      42.475  29.509  35.390  1.00  0.00     0.037 A 
ATOM     52  C   UNL A   1      37.552  33.304  33.394  1.00  0.00     0.049 A 
ATOM     53  C   UNL A   1      41.813  30.733  35.970  1.00  0.00     0.074 A 
ATOM     54  C   UNL A   1      36.972  34.367  34.064  1.00  0.00     0.029 A 
ATOM     55  N   UNL A   1      38.578  32.834  34.197  1.00  0.00    -0.354 N 
ATOM     56  N   UNL A   1      40.799  31.421  35.499  1.00  0.00    -0.248 NA
ATOM     57  C   UNL A   1      42.353  31.254  37.234  1.00  0.00     0.031 C 
ATOM     58  C   UNL A   1      37.684  34.577  35.246  1.00  0.00     0.029 A 
ATOM     59  C   UNL A   1      38.665  33.604  35.345  1.00  0.00     0.049 A 
ATOM     60  H   UNL A   1      39.159  32.069  33.984  1.00  0.00     0.167 HD
ATOM     61  C   UNL A   1      40.556  32.425  36.431  1.00  0.00     0.074 A 
ATOM     62  C   UNL A   1      41.525  32.257  37.492  1.00  0.00     0.031 C 
ATOM     63  C   UNL A   1      39.613  33.399  36.410  1.00  0.00     0.037 A 
BRANCH  50  64
ATOM     64  C   UNL A   1      36.113  33.458  31.332  1.00  0.00     0.058 A 
ATOM     65  C   UNL A   1      34.777  33.460  31.759  1.00  0.00     0.135 A 
ATOM     66  C   UNL A   1      36.439  34.215  30.196  1.00  0.00     0.135 A 
ATOM     67  F   UNL A   1      34.406  32.738  32.829  1.00  0.00    -0.206 F 
ATOM     68  C   UNL A   1      33.801  34.187  31.087  1.00  0.00     0.059 A 
ATOM     69  C   UNL A   1      35.485  34.973  29.523  1.00  0.00     0.059 A 
ATOM     70  F   UNL A   1      37.702  34.243  29.742  1.00  0.00    -0.206 F 
ATOM     71  C   UNL A   1      34.168  34.951  29.976  1.00  0.00     0.060 A 
BRANCH  71  72
ATOM     72  S   UNL A   1      32.899  35.937  29.154  1.00  0.00     0.124 S 
ATOM     73  O   UNL A   1      32.299  34.954  28.258  1.00  0.00    -0.237 OA
ATOM     74  O   UNL A   1      32.067  36.365  30.274  1.00  0.00    -0.237 OA
ATOM     75  O   UNL A   1      33.661  36.997  28.501  1.00  0.00    -0.744 OA
ENDBRANCH  71  72
ENDBRANCH  50  64
BRANCH  51  76
ATOM     76  C   UNL A   1      43.660  28.904  36.060  1.00  0.00     0.058 A 
ATOM     77  C   UNL A   1      43.532  27.772  36.879  1.00  0.00     0.135 A 
ATOM     78  C   UNL A   1      44.939  29.465  35.923  1.00  0.00     0.135 A 
ATOM     79  F   UNL A   1      42.331  27.198  37.048  1.00  0.00    -0.206 F 
ATOM     80  C   UNL A   1      44.617  27.245  37.572  1.00  0.00     0.059 A 
ATOM     81  C   UNL A   1      46.047  28.937  36.579  1.00  0.00     0.059 A 
ATOM     82  F   UNL A   1      45.125  30.535  35.134  1.00  0.00    -0.206 F 
ATOM     83  C   UNL A   1      45.871  27.839  37.419  1.00  0.00     0.060 A 
BRANCH  83  84
ATOM     84  S   UNL A   1      47.275  27.150  38.324  1.00  0.00     0.124 S 
ATOM     85  O   UNL A   1      48.362  28.013  37.876  1.00  0.00    -0.237 OA
ATOM     86  O   UNL A   1      46.857  27.315  39.711  1.00  0.00    -0.237 OA
ATOM     87  O   UNL A   1      47.331  25.769  37.852  1.00  0.00    -0.744 OA
ENDBRANCH  83  84
ENDBRANCH  51  76
BRANCH  63  88
ATOM     88  C   UNL A   1      39.522  34.321  37.595  1.00  0.00     0.058 A 
ATOM     89  C   UNL A   1      38.899  33.935  38.791  1.00  0.00     0.135 A 
ATOM     90  C   UNL A   1      40.162  35.571  37.561  1.00  0.00     0.135 A 
ATOM     91  F   UNL A   1      38.266  32.755  38.874  1.00  0.00    -0.206 F 
ATOM     92  C   UNL A   1      38.911  34.759  39.912  1.00  0.00     0.059 A 
ATOM     93  C   UNL A   1      40.212  36.397  38.678  1.00  0.00     0.059 A 
ATOM     94  F   UNL A   1      40.782  35.983  36.443  1.00  0.00    -0.206 F 
ATOM     95  C   UNL A   1      39.580  35.983  39.849  1.00  0.00     0.060 A 
BRANCH  95  96
ATOM     96  S   UNL A   1      39.649  37.009  41.333  1.00  0.00     0.124 S 
ATOM     97  O   UNL A   1      41.086  37.102  41.561  1.00  0.00    -0.237 OA
ATOM     98  O   UNL A   1      38.997  38.237  40.890  1.00  0.00    -0.237 OA
ATOM     99  O   UNL A   1      38.905  36.231  42.319  1.00  0.00    -0.744 OA
ENDBRANCH  95  96
ENDBRANCH  63  88
ENDBRANCH  37  38
ENDBRANCH  29  32
ENDBRANCH  27  28
ENDBRANCH   1  27
TORSDOF 17
ENDMDL
MODEL 3
REMARK VINA RESULT:     -10.9      8.881     16.231
REMARK SMILES COc1ccc(/C=C2/SC(=S)N(CC(=O)NCCCNC(=O)c3ccc(-c4c5nc(c(-c6c(F)cc(S(=O)(=O)[O-])cc6F)c6ccc([nH]6)c(-c6c(F)cc(S(=O)(=O)[O-])cc6F)c6nc(c(-c7c(F)cc(S(=O)(=O)[O-])cc7F)c7ccc4[nH]7)C=C6)C=C5)cc3)C2=O)cc1[N+](=O)[O-]
REMARK SMILES IDX 18 1 17 2 16 3 14 4 15 5 13 7 12 8 7 9 8 10 9 11 89 12 10 13
REMARK SMILES IDX 90 14 11 15 6 16 3 17 4 18 92 19 5 20 91 21 2 22 1 23 93 24
REMARK SMILES IDX 94 25 95 26 19 27 20 28 21 29 22 31 23 32 24 33 88 34 25 35
REMARK SMILES IDX 87 36 26 37 27 38 28 39 81 40 29 41 86 42 80 43 82 44 30 45
REMARK SMILES IDX 85 46 79 47 78 48 31 50 65 51 44 52 64 53 45 54 48 55 63 56
REMARK SMILES IDX 83 57 46 58 47 59 62 61 84 62 49 63 32 64 33 65 42 66 34 67
REMARK SMILES IDX 35 68 41 69 43 70 36 71 37 72 38 73 39 74 40 75 66 76 67 77
REMARK SMILES IDX 76 78 68 79 69 80 75 81 77 82 70 83 71 84 72 85 73 86 74 87
REMARK SMILES IDX 50 88 51 89 60 90 52 91 53 92 59 93 61 94 54 95 55 96 56 97
REMARK SMILES IDX 57 98 58 99
REMARK H PARENT 16 6 20 30 82 49 48 60
REMARK Flexibility Score: inf
ROOT
ATOM      1  C   UNL A   1      44.334  38.291  31.013  1.00  0.00     0.042 C 
ENDROOT
BRANCH   1   2
ATOM      2  C   UNL A   1      44.612  39.511  30.147  1.00  0.00     0.117 C 
BRANCH   2   3
ATOM      3  N   UNL A   1      43.502  39.835  29.276  1.00  0.00    -0.354 N 
ATOM      4  C   UNL A   1      43.511  40.260  27.980  1.00  0.00     0.240 C 
ATOM      5  O   UNL A   1      42.463  40.147  27.339  1.00  0.00    -0.273 OA
ATOM      6  H   UNL A   1      42.609  39.733  29.678  1.00  0.00     0.163 HD
BRANCH   4   7
ATOM      7  C   UNL A   1      44.812  40.694  27.291  1.00  0.00     0.227 C 
BRANCH   7   8
ATOM      8  N   UNL A   1      44.880  42.122  26.972  1.00  0.00    -0.283 N 
ATOM      9  C   UNL A   1      44.615  44.664  24.357  1.00  0.00     0.029 C 
ATOM     10  C   UNL A   1      44.860  43.957  25.473  1.00  0.00     0.081 C 
ATOM     11  S   UNL A   1      45.281  44.671  26.983  1.00  0.00    -0.054 SA
ATOM     12  C   UNL A   1      44.783  42.475  25.637  1.00  0.00     0.266 C 
ATOM     13  C   UNL A   1      45.250  43.128  27.835  1.00  0.00     0.148 C 
ATOM     14  O   UNL A   1      44.698  41.676  24.713  1.00  0.00    -0.268 OA
ATOM     15  S   UNL A   1      45.662  43.009  29.449  1.00  0.00    -0.052 S 
BRANCH   9  16
ATOM     16  C   UNL A   1      44.149  44.045  23.111  1.00  0.00    -0.017 A 
ATOM     17  C   UNL A   1      43.261  43.309  20.535  1.00  0.00     0.196 A 
ATOM     18  C   UNL A   1      42.350  43.484  21.587  1.00  0.00     0.054 A 
ATOM     19  C   UNL A   1      44.626  43.450  20.806  1.00  0.00     0.311 A 
ATOM     20  C   UNL A   1      42.788  43.851  22.868  1.00  0.00     0.012 A 
ATOM     21  C   UNL A   1      45.072  43.782  22.095  1.00  0.00     0.098 A 
BRANCH  17  22
ATOM     22  O   UNL A   1      42.703  43.244  19.288  1.00  0.00    -0.490 OA
ATOM     23  C   UNL A   1      41.316  43.573  19.232  1.00  0.00     0.278 C 
ENDBRANCH  17  22
BRANCH  19  24
ATOM     24  N   UNL A   1      45.644  43.390  19.768  1.00  0.00     0.066 N 
ATOM     25  O   UNL A   1      45.733  44.364  19.003  1.00  0.00    -0.258 OA
ATOM     26  O   UNL A   1      46.414  42.422  19.759  1.00  0.00    -0.258 OA
ENDBRANCH  19  24
ENDBRANCH   9  16
ENDBRANCH   7   8
ENDBRANCH   4   7
ENDBRANCH   2   3
ENDBRANCH   1   2
BRANCH   1  27
ATOM     27  C   UNL A   1      45.215  37.093  30.675  1.00  0.00     0.118 C 
BRANCH  27  28
ATOM     28  N   UNL A   1      46.530  37.486  30.178  1.00  0.00    -0.352 N 
ATOM     29  C   UNL A   1      47.506  36.724  29.579  1.00  0.00     0.251 C 
ATOM     30  H   UNL A   1      46.752  38.438  30.288  1.00  0.00     0.163 HD
ATOM     31  O   UNL A   1      48.624  37.197  29.395  1.00  0.00    -0.269 OA
BRANCH  29  32
ATOM     32  C   UNL A   1      47.211  35.333  29.181  1.00  0.00     0.039 A 
ATOM     33  C   UNL A   1      47.352  34.307  30.120  1.00  0.00     0.014 A 
ATOM     34  C   UNL A   1      46.780  35.046  27.885  1.00  0.00     0.014 A 
ATOM     35  C   UNL A   1      46.980  33.003  29.780  1.00  0.00     0.010 A 
ATOM     36  C   UNL A   1      46.336  33.766  27.575  1.00  0.00     0.010 A 
ATOM     37  C   UNL A   1      46.428  32.731  28.519  1.00  0.00    -0.014 A 
BRANCH  37  38
ATOM     38  C   UNL A   1      45.939  31.379  28.144  1.00  0.00     0.031 A 
ATOM     39  C   UNL A   1      44.509  31.004  28.430  1.00  0.00     0.074 A 
ATOM     40  C   UNL A   1      46.800  30.461  27.659  1.00  0.00     0.049 A 
ATOM     41  N   UNL A   1      43.933  29.832  28.357  1.00  0.00    -0.248 NA
ATOM     42  C   UNL A   1      43.618  32.082  28.891  1.00  0.00     0.031 C 
ATOM     43  C   UNL A   1      48.218  30.694  27.372  1.00  0.00     0.029 A 
ATOM     44  N   UNL A   1      46.618  29.135  27.350  1.00  0.00    -0.354 N 
ATOM     45  C   UNL A   1      42.628  30.025  28.795  1.00  0.00     0.074 A 
ATOM     46  C   UNL A   1      42.503  31.417  29.163  1.00  0.00     0.031 C 
ATOM     47  C   UNL A   1      48.774  29.553  26.934  1.00  0.00     0.029 A 
ATOM     48  C   UNL A   1      47.771  28.493  26.956  1.00  0.00     0.049 A 
ATOM     49  H   UNL A   1      45.743  28.684  27.405  1.00  0.00     0.167 HD
ATOM     50  C   UNL A   1      41.622  29.123  28.869  1.00  0.00     0.037 A 
ATOM     51  C   UNL A   1      48.002  27.194  26.678  1.00  0.00     0.037 A 
ATOM     52  C   UNL A   1      41.744  27.750  28.456  1.00  0.00     0.049 A 
ATOM     53  C   UNL A   1      46.861  26.211  26.768  1.00  0.00     0.074 A 
ATOM     54  C   UNL A   1      40.759  26.778  28.417  1.00  0.00     0.029 A 
ATOM     55  N   UNL A   1      42.915  27.154  28.015  1.00  0.00    -0.354 N 
ATOM     56  N   UNL A   1      45.615  26.427  27.119  1.00  0.00    -0.248 NA
ATOM     57  C   UNL A   1      47.153  24.812  26.425  1.00  0.00     0.031 C 
ATOM     58  C   UNL A   1      41.347  25.579  28.008  1.00  0.00     0.029 A 
ATOM     59  C   UNL A   1      42.683  25.820  27.727  1.00  0.00     0.049 A 
ATOM     60  H   UNL A   1      43.781  27.610  27.920  1.00  0.00     0.167 HD
ATOM     61  C   UNL A   1      44.968  25.202  26.994  1.00  0.00     0.074 A 
ATOM     62  C   UNL A   1      45.957  24.249  26.538  1.00  0.00     0.031 C 
ATOM     63  C   UNL A   1      43.671  24.894  27.236  1.00  0.00     0.037 A 
BRANCH  50  64
ATOM     64  C   UNL A   1      40.295  29.575  29.411  1.00  0.00     0.058 A 
ATOM     65  C   UNL A   1      40.090  29.789  30.782  1.00  0.00     0.135 A 
ATOM     66  C   UNL A   1      39.245  29.892  28.534  1.00  0.00     0.135 A 
ATOM     67  F   UNL A   1      41.054  29.486  31.667  1.00  0.00    -0.206 F 
ATOM     68  C   UNL A   1      38.890  30.300  31.266  1.00  0.00     0.059 A 
ATOM     69  C   UNL A   1      38.046  30.430  28.993  1.00  0.00     0.059 A 
ATOM     70  F   UNL A   1      39.387  29.700  27.213  1.00  0.00    -0.206 F 
ATOM     71  C   UNL A   1      37.878  30.628  30.361  1.00  0.00     0.060 A 
BRANCH  71  72
ATOM     72  S   UNL A   1      36.352  31.348  31.003  1.00  0.00     0.124 S 
ATOM     73  O   UNL A   1      36.796  32.686  31.379  1.00  0.00    -0.237 OA
ATOM     74  O   UNL A   1      35.466  31.275  29.846  1.00  0.00    -0.237 OA
ATOM     75  O   UNL A   1      36.002  30.469  32.114  1.00  0.00    -0.744 OA
ENDBRANCH  71  72
ENDBRANCH  50  64
BRANCH  51  76
ATOM     76  C   UNL A   1      49.369  26.732  26.309  1.00  0.00     0.058 A 
ATOM     77  C   UNL A   1      49.830  26.815  24.986  1.00  0.00     0.135 A 
ATOM     78  C   UNL A   1      50.228  26.165  27.262  1.00  0.00     0.135 A 
ATOM     79  F   UNL A   1      49.047  27.345  24.034  1.00  0.00    -0.206 F 
ATOM     80  C   UNL A   1      51.074  26.314  24.614  1.00  0.00     0.059 A 
ATOM     81  C   UNL A   1      51.490  25.687  26.921  1.00  0.00     0.059 A 
ATOM     82  F   UNL A   1      49.848  26.079  28.547  1.00  0.00    -0.206 F 
ATOM     83  C   UNL A   1      51.896  25.747  25.589  1.00  0.00     0.060 A 
BRANCH  83  84
ATOM     84  S   UNL A   1      53.508  25.098  25.098  1.00  0.00     0.124 S 
ATOM     85  O   UNL A   1      53.340  23.673  25.357  1.00  0.00    -0.237 OA
ATOM     86  O   UNL A   1      53.581  25.489  23.694  1.00  0.00    -0.237 OA
ATOM     87  O   UNL A   1      54.433  25.796  25.985  1.00  0.00    -0.744 OA
ENDBRANCH  83  84
ENDBRANCH  51  76
BRANCH  63  88
ATOM     88  C   UNL A   1      43.211  23.491  26.947  1.00  0.00     0.058 A 
ATOM     89  C   UNL A   1      43.028  23.024  25.637  1.00  0.00     0.135 A 
ATOM     90  C   UNL A   1      43.054  22.574  28.000  1.00  0.00     0.135 A 
ATOM     91  F   UNL A   1      43.157  23.862  24.596  1.00  0.00    -0.206 F 
ATOM     92  C   UNL A   1      42.701  21.697  25.381  1.00  0.00     0.059 A 
ATOM     93  C   UNL A   1      42.757  21.236  27.765  1.00  0.00     0.059 A 
ATOM     94  F   UNL A   1      43.228  22.968  29.272  1.00  0.00    -0.206 F 
ATOM     95  C   UNL A   1      42.579  20.808  26.451  1.00  0.00     0.060 A 
BRANCH  95  96
ATOM     96  S   UNL A   1      42.226  19.073  26.098  1.00  0.00     0.124 S 
ATOM     97  O   UNL A   1      43.133  18.807  24.988  1.00  0.00    -0.237 OA
ATOM     98  O   UNL A   1      42.564  18.425  27.362  1.00  0.00    -0.237 OA
ATOM     99  O   UNL A   1      40.806  19.075  25.763  1.00  0.00    -0.744 OA
ENDBRANCH  95  96
ENDBRANCH  63  88
ENDBRANCH  37  38
ENDBRANCH  29  32
ENDBRANCH  27  28
ENDBRANCH   1  27
TORSDOF 17
ENDMDL
