MODEL 1
REMARK VINA RESULT:     -13.0      0.000      0.000
REMARK SMILES Cc1nsc(NC(=O)[C@H]2Cc3[nH]cnc3C[NH2+]2)c1C(=O)NCCCNC(=O)c1ccc(-c2c3nc(c(-c4c(F)cc(S(=O)(=O)[O-])cc4F)c4ccc([nH]4)c(-c4c(F)cc(S(=O)(=O)[O-])cc4F)c4nc(c(-c5c(F)cc(S(=O)(=O)[O-])cc5F)c5ccc2[nH]5)C=C4)C=C3)cc1
REMARK SMILES IDX 23 1 22 2 21 3 19 4 20 5 18 7 1 8 2 9 3 10 4 11 5 12 6 13
REMARK SMILES IDX 7 14 8 16 9 17 10 18 17 19 11 20 16 21 12 24 15 25 13 26
REMARK SMILES IDX 14 28 24 29 25 30 26 31 27 33 28 34 29 35 93 36 30 37 92 38
REMARK SMILES IDX 31 39 32 40 33 41 86 42 34 43 91 44 85 45 87 46 35 47 90 48
REMARK SMILES IDX 84 49 83 50 36 52 70 53 49 54 69 55 50 56 53 57 68 58 88 59
REMARK SMILES IDX 51 60 52 61 67 63 89 64 54 65 37 66 38 67 47 68 39 69 40 70
REMARK SMILES IDX 46 71 48 72 41 73 42 74 43 75 44 76 45 77 71 78 72 79 81 80
REMARK SMILES IDX 73 81 74 82 80 83 82 84 75 85 76 86 77 87 78 88 79 89 55 90
REMARK SMILES IDX 56 91 65 92 57 93 58 94 64 95 66 96 59 97 60 98 61 99 62 100
REMARK SMILES IDX 63 101
REMARK H PARENT 21 6 6 15 17 22 17 23 12 27 25 32 87 51 53 62
REMARK Flexibility Score: inf
ROOT
ATOM      1  C   UNL A   1      32.940  31.241  27.332  1.00  0.00     0.042 C 
ENDROOT
BRANCH   1   2
ATOM      2  C   UNL A   1      33.387  29.778  27.302  1.00  0.00     0.118 C 
BRANCH   2   3
ATOM      3  N   UNL A   1      32.267  28.876  27.408  1.00  0.00    -0.352 N 
ATOM      4  C   UNL A   1      31.924  27.716  26.774  1.00  0.00     0.256 C 
ATOM      5  O   UNL A   1      30.924  27.164  27.249  1.00  0.00    -0.269 OA
ATOM      6  H   UNL A   1      31.607  29.157  28.083  1.00  0.00     0.163 HD
BRANCH   4   7
ATOM      7  C   UNL A   1      32.642  27.088  25.648  1.00  0.00     0.097 A 
ATOM      8  C   UNL A   1      33.412  28.912  23.767  1.00  0.00     0.069 C 
ATOM      9  C   UNL A   1      33.280  27.584  24.411  1.00  0.00     0.066 A 
ATOM     10  N   UNL A   1      33.840  26.658  23.640  1.00  0.00    -0.195 NA
ATOM     11  S   UNL A   1      33.599  25.213  24.282  1.00  0.00    -0.017 S 
ATOM     12  C   UNL A   1      32.757  25.679  25.646  1.00  0.00     0.129 A 
BRANCH  12  13
ATOM     13  N   UNL A   1      32.265  24.753  26.558  1.00  0.00    -0.311 N 
ATOM     14  C   UNL A   1      32.239  23.386  26.650  1.00  0.00     0.283 C 
ATOM     15  H   UNL A   1      31.825  25.185  27.327  1.00  0.00     0.171 HD
ATOM     16  O   UNL A   1      31.590  22.919  27.600  1.00  0.00    -0.268 OA
BRANCH  14  17
ATOM     17  C   UNL A   1      32.909  22.379  25.675  1.00  0.00     0.279 C 
ATOM     18  C   UNL A   1      33.547  21.182  26.463  1.00  0.00     0.131 C 
ATOM     19  N   UNL A   1      32.021  22.134  24.487  1.00  0.00    -0.331 N 
ATOM     20  C   UNL A   1      33.181  19.897  25.816  1.00  0.00     0.050 A 
ATOM     21  C   UNL A   1      32.428  20.967  23.667  1.00  0.00     0.320 C 
ATOM     22  H   UNL A   1      32.038  22.965  23.896  1.00  0.00     0.347 HD
ATOM     23  H   UNL A   1      31.088  21.932  24.849  1.00  0.00     0.347 HD
ATOM     24  N   UNL A   1      33.033  18.669  26.394  1.00  0.00    -0.348 N 
ATOM     25  C   UNL A   1      32.646  19.788  24.554  1.00  0.00     0.116 A 
ATOM     26  C   UNL A   1      32.350  17.895  25.490  1.00  0.00     0.197 A 
ATOM     27  H   UNL A   1      33.352  18.394  27.283  1.00  0.00     0.167 HD
ATOM     28  N   UNL A   1      32.137  18.532  24.356  1.00  0.00    -0.236 NA
ENDBRANCH  14  17
ENDBRANCH  12  13
ENDBRANCH   4   7
ENDBRANCH   2   3
ENDBRANCH   1   2
BRANCH   1  29
ATOM     29  C   UNL A   1      34.061  32.208  27.630  1.00  0.00     0.118 C 
BRANCH  29  30
ATOM     30  N   UNL A   1      34.021  32.648  29.023  1.00  0.00    -0.352 N 
ATOM     31  C   UNL A   1      34.840  32.259  30.057  1.00  0.00     0.251 C 
ATOM     32  H   UNL A   1      33.323  33.304  29.248  1.00  0.00     0.163 HD
ATOM     33  O   UNL A   1      34.466  32.397  31.224  1.00  0.00    -0.269 OA
BRANCH  31  34
ATOM     34  C   UNL A   1      36.145  31.662  29.745  1.00  0.00     0.039 A 
ATOM     35  C   UNL A   1      37.293  32.450  29.675  1.00  0.00     0.014 A 
ATOM     36  C   UNL A   1      36.220  30.277  29.589  1.00  0.00     0.014 A 
ATOM     37  C   UNL A   1      38.524  31.816  29.542  1.00  0.00     0.010 A 
ATOM     38  C   UNL A   1      37.439  29.649  29.640  1.00  0.00     0.010 A 
ATOM     39  C   UNL A   1      38.596  30.409  29.570  1.00  0.00    -0.014 A 
BRANCH  39  40
ATOM     40  C   UNL A   1      39.888  29.741  29.717  1.00  0.00     0.031 A 
ATOM     41  C   UNL A   1      40.235  29.488  31.138  1.00  0.00     0.074 A 
ATOM     42  C   UNL A   1      40.623  29.241  28.696  1.00  0.00     0.049 A 
ATOM     43  N   UNL A   1      41.052  30.176  31.863  1.00  0.00    -0.248 NA
ATOM     44  C   UNL A   1      39.424  28.531  31.913  1.00  0.00     0.031 C 
ATOM     45  C   UNL A   1      40.265  29.163  27.276  1.00  0.00     0.029 A 
ATOM     46  N   UNL A   1      41.832  28.611  28.725  1.00  0.00    -0.354 N 
ATOM     47  C   UNL A   1      41.093  29.528  33.090  1.00  0.00     0.074 A 
ATOM     48  C   UNL A   1      39.903  28.722  33.146  1.00  0.00     0.031 C 
ATOM     49  C   UNL A   1      41.113  28.328  26.635  1.00  0.00     0.029 A 
ATOM     50  C   UNL A   1      42.175  27.946  27.546  1.00  0.00     0.049 A 
ATOM     51  H   UNL A   1      42.418  28.624  29.516  1.00  0.00     0.167 HD
ATOM     52  C   UNL A   1      42.266  29.455  33.778  1.00  0.00     0.037 A 
ATOM     53  C   UNL A   1      43.254  27.144  27.330  1.00  0.00     0.037 A 
ATOM     54  C   UNL A   1      43.213  30.426  33.271  1.00  0.00     0.049 A 
ATOM     55  C   UNL A   1      44.264  27.505  28.357  1.00  0.00     0.074 A 
ATOM     56  C   UNL A   1      43.196  31.794  33.066  1.00  0.00     0.029 A 
ATOM     57  N   UNL A   1      44.243  29.946  32.500  1.00  0.00    -0.354 N 
ATOM     58  N   UNL A   1      44.878  28.655  28.393  1.00  0.00    -0.248 NA
ATOM     59  C   UNL A   1      44.246  26.767  29.607  1.00  0.00     0.031 C 
ATOM     60  C   UNL A   1      43.893  31.993  31.837  1.00  0.00     0.029 A 
ATOM     61  C   UNL A   1      44.383  30.759  31.408  1.00  0.00     0.049 A 
ATOM     62  H   UNL A   1      44.790  29.150  32.699  1.00  0.00     0.167 HD
ATOM     63  C   UNL A   1      44.902  28.993  29.737  1.00  0.00     0.074 A 
ATOM     64  C   UNL A   1      44.591  27.750  30.443  1.00  0.00     0.031 C 
ATOM     65  C   UNL A   1      44.879  30.301  30.129  1.00  0.00     0.037 A 
BRANCH  52  66
ATOM     66  C   UNL A   1      42.718  28.232  34.553  1.00  0.00     0.058 A 
ATOM     67  C   UNL A   1      43.043  28.381  35.919  1.00  0.00     0.135 A 
ATOM     68  C   UNL A   1      43.134  27.017  33.964  1.00  0.00     0.135 A 
ATOM     69  F   UNL A   1      42.702  29.497  36.585  1.00  0.00    -0.206 F 
ATOM     70  C   UNL A   1      43.802  27.442  36.616  1.00  0.00     0.059 A 
ATOM     71  C   UNL A   1      43.844  26.043  34.656  1.00  0.00     0.059 A 
ATOM     72  F   UNL A   1      42.962  26.739  32.669  1.00  0.00    -0.206 F 
ATOM     73  C   UNL A   1      44.207  26.280  35.969  1.00  0.00     0.060 A 
BRANCH  73  74
ATOM     74  S   UNL A   1      45.237  25.092  36.842  1.00  0.00     0.124 S 
ATOM     75  O   UNL A   1      46.574  25.557  36.492  1.00  0.00    -0.237 OA
ATOM     76  O   UNL A   1      44.824  25.301  38.226  1.00  0.00    -0.237 OA
ATOM     77  O   UNL A   1      44.837  23.814  36.262  1.00  0.00    -0.744 OA
ENDBRANCH  73  74
ENDBRANCH  52  66
BRANCH  53  78
ATOM     78  C   UNL A   1      43.374  25.904  26.510  1.00  0.00     0.058 A 
ATOM     79  C   UNL A   1      44.378  25.774  25.528  1.00  0.00     0.135 A 
ATOM     80  C   UNL A   1      42.720  24.713  26.877  1.00  0.00     0.135 A 
ATOM     81  F   UNL A   1      45.064  26.852  25.117  1.00  0.00    -0.206 F 
ATOM     82  C   UNL A   1      44.761  24.533  25.000  1.00  0.00     0.059 A 
ATOM     83  C   UNL A   1      43.078  23.465  26.359  1.00  0.00     0.059 A 
ATOM     84  F   UNL A   1      41.774  24.710  27.828  1.00  0.00    -0.206 F 
ATOM     85  C   UNL A   1      44.121  23.378  25.444  1.00  0.00     0.060 A 
BRANCH  85  86
ATOM     86  S   UNL A   1      44.742  21.758  24.924  1.00  0.00     0.124 S 
ATOM     87  O   UNL A   1      43.815  20.850  25.590  1.00  0.00    -0.237 OA
ATOM     88  O   UNL A   1      44.629  21.834  23.472  1.00  0.00    -0.237 OA
ATOM     89  O   UNL A   1      46.110  21.741  25.437  1.00  0.00    -0.744 OA
ENDBRANCH  85  86
ENDBRANCH  53  78
BRANCH  65  90
ATOM     90  C   UNL A   1      45.232  31.361  29.117  1.00  0.00     0.058 A 
ATOM     91  C   UNL A   1      46.533  31.759  28.762  1.00  0.00     0.135 A 
ATOM     92  C   UNL A   1      44.172  31.916  28.382  1.00  0.00     0.135 A 
ATOM     93  F   UNL A   1      47.610  31.207  29.341  1.00  0.00    -0.206 F 
ATOM     94  C   UNL A   1      46.762  32.703  27.756  1.00  0.00     0.059 A 
ATOM     95  C   UNL A   1      44.378  32.828  27.354  1.00  0.00     0.059 A 
ATOM     96  F   UNL A   1      42.908  31.537  28.633  1.00  0.00    -0.206 F 
ATOM     97  C   UNL A   1      45.676  33.233  27.058  1.00  0.00     0.060 A 
BRANCH  97  98
ATOM     98  S   UNL A   1      45.965  34.420  25.728  1.00  0.00     0.124 S 
ATOM     99  O   UNL A   1      45.575  35.680  26.352  1.00  0.00    -0.237 OA
ATOM    100  O   UNL A   1      47.391  34.258  25.463  1.00  0.00    -0.237 OA
ATOM    101  O   UNL A   1      45.085  33.956  24.658  1.00  0.00    -0.744 OA
ENDBRANCH  97  98
ENDBRANCH  65  90
ENDBRANCH  39  40
ENDBRANCH  31  34
ENDBRANCH  29  30
ENDBRANCH   1  29
TORSDOF 15
ENDMDL
MODEL 2
REMARK VINA RESULT:     -12.9      2.740      8.689
REMARK SMILES Cc1nsc(NC(=O)[C@H]2Cc3[nH]cnc3C[NH2+]2)c1C(=O)NCCCNC(=O)c1ccc(-c2c3nc(c(-c4c(F)cc(S(=O)(=O)[O-])cc4F)c4ccc([nH]4)c(-c4c(F)cc(S(=O)(=O)[O-])cc4F)c4nc(c(-c5c(F)cc(S(=O)(=O)[O-])cc5F)c5ccc2[nH]5)C=C4)C=C3)cc1
REMARK SMILES IDX 23 1 22 2 21 3 19 4 20 5 18 7 1 8 2 9 3 10 4 11 5 12 6 13
REMARK SMILES IDX 7 14 8 16 9 17 10 18 17 19 11 20 16 21 12 24 15 25 13 26
REMARK SMILES IDX 14 28 24 29 25 30 26 31 27 33 28 34 29 35 93 36 30 37 92 38
REMARK SMILES IDX 31 39 32 40 33 41 86 42 34 43 91 44 85 45 87 46 35 47 90 48
REMARK SMILES IDX 84 49 83 50 36 52 70 53 49 54 69 55 50 56 53 57 68 58 88 59
REMARK SMILES IDX 51 60 52 61 67 63 89 64 54 65 37 66 38 67 47 68 39 69 40 70
REMARK SMILES IDX 46 71 48 72 41 73 42 74 43 75 44 76 45 77 71 78 72 79 81 80
REMARK SMILES IDX 73 81 74 82 80 83 82 84 75 85 76 86 77 87 78 88 79 89 55 90
REMARK SMILES IDX 56 91 65 92 57 93 58 94 64 95 66 96 59 97 60 98 61 99 62 100
REMARK SMILES IDX 63 101
REMARK H PARENT 21 6 6 15 17 22 17 23 12 27 25 32 87 51 53 62
REMARK Flexibility Score: inf
ROOT
ATOM      1  C   UNL A   1      35.942  23.392  25.383  1.00  0.00     0.042 C 
ENDROOT
BRANCH   1   2
ATOM      2  C   UNL A   1      35.010  24.374  24.669  1.00  0.00     0.118 C 
BRANCH   2   3
ATOM      3  N   UNL A   1      34.626  25.464  25.530  1.00  0.00    -0.352 N 
ATOM      4  C   UNL A   1      33.533  26.282  25.588  1.00  0.00     0.256 C 
ATOM      5  O   UNL A   1      33.521  27.029  26.574  1.00  0.00    -0.269 OA
ATOM      6  H   UNL A   1      35.295  25.663  26.225  1.00  0.00     0.163 HD
BRANCH   4   7
ATOM      7  C   UNL A   1      32.409  26.311  24.633  1.00  0.00     0.097 A 
ATOM      8  C   UNL A   1      32.802  28.125  22.630  1.00  0.00     0.069 C 
ATOM      9  C   UNL A   1      32.113  27.058  23.394  1.00  0.00     0.066 A 
ATOM     10  N   UNL A   1      30.950  26.777  22.815  1.00  0.00    -0.195 NA
ATOM     11  S   UNL A   1      30.159  25.706  23.702  1.00  0.00    -0.017 S 
ATOM     12  C   UNL A   1      31.287  25.498  24.913  1.00  0.00     0.129 A 
BRANCH  12  13
ATOM     13  N   UNL A   1      31.056  24.659  25.997  1.00  0.00    -0.311 N 
ATOM     14  C   UNL A   1      31.413  23.381  26.341  1.00  0.00     0.283 C 
ATOM     15  H   UNL A   1      30.498  25.087  26.687  1.00  0.00     0.171 HD
ATOM     16  O   UNL A   1      30.902  22.938  27.383  1.00  0.00    -0.268 OA
BRANCH  14  17
ATOM     17  C   UNL A   1      32.357  22.437  25.547  1.00  0.00     0.279 C 
ATOM     18  C   UNL A   1      33.061  21.416  26.508  1.00  0.00     0.131 C 
ATOM     19  N   UNL A   1      31.687  21.970  24.284  1.00  0.00    -0.331 N 
ATOM     20  C   UNL A   1      32.990  20.049  25.936  1.00  0.00     0.050 A 
ATOM     21  C   UNL A   1      32.378  20.835  23.625  1.00  0.00     0.320 C 
ATOM     22  H   UNL A   1      31.654  22.752  23.630  1.00  0.00     0.347 HD
ATOM     23  H   UNL A   1      30.757  21.641  24.545  1.00  0.00     0.347 HD
ATOM     24  N   UNL A   1      32.958  18.855  26.595  1.00  0.00    -0.348 N 
ATOM     25  C   UNL A   1      32.655  19.770  24.631  1.00  0.00     0.116 A 
ATOM     26  C   UNL A   1      32.534  17.920  25.685  1.00  0.00     0.197 A 
ATOM     27  H   UNL A   1      33.193  18.695  27.538  1.00  0.00     0.167 HD
ATOM     28  N   UNL A   1      32.379  18.437  24.482  1.00  0.00    -0.236 NA
ENDBRANCH  14  17
ENDBRANCH  12  13
ENDBRANCH   4   7
ENDBRANCH   2   3
ENDBRANCH   1   2
BRANCH   1  29
ATOM     29  C   UNL A   1      37.391  23.535  24.982  1.00  0.00     0.118 C 
BRANCH  29  30
ATOM     30  N   UNL A   1      38.152  22.334  25.318  1.00  0.00    -0.352 N 
ATOM     31  C   UNL A   1      39.305  22.244  26.062  1.00  0.00     0.251 C 
ATOM     32  H   UNL A   1      37.795  21.485  24.969  1.00  0.00     0.163 HD
ATOM     33  O   UNL A   1      40.039  21.259  25.944  1.00  0.00    -0.269 OA
BRANCH  31  34
ATOM     34  C   UNL A   1      39.651  23.342  26.974  1.00  0.00     0.039 A 
ATOM     35  C   UNL A   1      40.885  23.372  27.621  1.00  0.00     0.014 A 
ATOM     36  C   UNL A   1      38.742  24.389  27.124  1.00  0.00     0.014 A 
ATOM     37  C   UNL A   1      41.228  24.512  28.341  1.00  0.00     0.010 A 
ATOM     38  C   UNL A   1      39.152  25.576  27.678  1.00  0.00     0.010 A 
ATOM     39  C   UNL A   1      40.374  25.633  28.329  1.00  0.00    -0.014 A 
BRANCH  39  40
ATOM     40  C   UNL A   1      40.844  26.921  28.836  1.00  0.00     0.031 A 
ATOM     41  C   UNL A   1      42.023  27.427  28.088  1.00  0.00     0.074 A 
ATOM     42  C   UNL A   1      40.200  27.674  29.758  1.00  0.00     0.049 A 
ATOM     43  N   UNL A   1      43.255  27.372  28.470  1.00  0.00    -0.248 NA
ATOM     44  C   UNL A   1      41.861  27.812  26.674  1.00  0.00     0.031 C 
ATOM     45  C   UNL A   1      38.885  27.434  30.362  1.00  0.00     0.029 A 
ATOM     46  N   UNL A   1      40.552  28.875  30.297  1.00  0.00    -0.354 N 
ATOM     47  C   UNL A   1      43.978  28.016  27.475  1.00  0.00     0.074 A 
ATOM     48  C   UNL A   1      43.132  28.013  26.311  1.00  0.00     0.031 C 
ATOM     49  C   UNL A   1      38.458  28.554  30.990  1.00  0.00     0.029 A 
ATOM     50  C   UNL A   1      39.530  29.532  30.986  1.00  0.00     0.049 A 
ATOM     51  H   UNL A   1      41.457  29.252  30.208  1.00  0.00     0.167 HD
ATOM     52  C   UNL A   1      45.051  28.787  27.809  1.00  0.00     0.037 A 
ATOM     53  C   UNL A   1      39.560  30.784  31.519  1.00  0.00     0.037 A 
ATOM     54  C   UNL A   1      45.493  28.485  29.154  1.00  0.00     0.049 A 
ATOM     55  C   UNL A   1      40.991  31.130  31.710  1.00  0.00     0.074 A 
ATOM     56  C   UNL A   1      45.866  27.335  29.827  1.00  0.00     0.029 A 
ATOM     57  N   UNL A   1      45.193  29.406  30.129  1.00  0.00    -0.354 N 
ATOM     58  N   UNL A   1      41.770  30.532  32.569  1.00  0.00    -0.248 NA
ATOM     59  C   UNL A   1      41.669  31.816  30.625  1.00  0.00     0.031 C 
ATOM     60  C   UNL A   1      45.317  27.476  31.136  1.00  0.00     0.029 A 
ATOM     61  C   UNL A   1      44.727  28.737  31.228  1.00  0.00     0.049 A 
ATOM     62  H   UNL A   1      45.295  30.382  30.050  1.00  0.00     0.167 HD
ATOM     63  C   UNL A   1      42.967  30.363  31.892  1.00  0.00     0.074 A 
ATOM     64  C   UNL A   1      42.878  31.261  30.741  1.00  0.00     0.031 C 
ATOM     65  C   UNL A   1      43.782  29.301  32.166  1.00  0.00     0.037 A 
BRANCH  52  66
ATOM     66  C   UNL A   1      45.389  30.103  27.137  1.00  0.00     0.058 A 
ATOM     67  C   UNL A   1      46.740  30.374  26.826  1.00  0.00     0.135 A 
ATOM     68  C   UNL A   1      44.520  31.215  27.064  1.00  0.00     0.135 A 
ATOM     69  F   UNL A   1      47.659  29.396  26.865  1.00  0.00    -0.206 F 
ATOM     70  C   UNL A   1      47.204  31.661  26.559  1.00  0.00     0.059 A 
ATOM     71  C   UNL A   1      44.953  32.496  26.746  1.00  0.00     0.059 A 
ATOM     72  F   UNL A   1      43.225  31.149  27.385  1.00  0.00    -0.206 F 
ATOM     73  C   UNL A   1      46.301  32.718  26.533  1.00  0.00     0.060 A 
BRANCH  73  74
ATOM     74  S   UNL A   1      46.900  34.390  26.249  1.00  0.00     0.124 S 
ATOM     75  O   UNL A   1      46.921  34.923  27.606  1.00  0.00    -0.237 OA
ATOM     76  O   UNL A   1      48.200  34.139  25.635  1.00  0.00    -0.237 OA
ATOM     77  O   UNL A   1      45.893  34.958  25.359  1.00  0.00    -0.744 OA
ENDBRANCH  73  74
ENDBRANCH  52  66
BRANCH  53  78
ATOM     78  C   UNL A   1      38.484  31.814  31.602  1.00  0.00     0.058 A 
ATOM     79  C   UNL A   1      37.895  32.347  30.436  1.00  0.00     0.135 A 
ATOM     80  C   UNL A   1      37.797  32.065  32.804  1.00  0.00     0.135 A 
ATOM     81  F   UNL A   1      38.470  32.154  29.239  1.00  0.00    -0.206 F 
ATOM     82  C   UNL A   1      36.665  33.020  30.453  1.00  0.00     0.059 A 
ATOM     83  C   UNL A   1      36.574  32.741  32.847  1.00  0.00     0.059 A 
ATOM     84  F   UNL A   1      38.244  31.575  33.969  1.00  0.00    -0.206 F 
ATOM     85  C   UNL A   1      35.998  33.188  31.664  1.00  0.00     0.060 A 
BRANCH  85  86
ATOM     86  S   UNL A   1      34.321  33.872  31.671  1.00  0.00     0.124 S 
ATOM     87  O   UNL A   1      33.943  33.764  30.267  1.00  0.00    -0.237 OA
ATOM     88  O   UNL A   1      33.625  32.978  32.590  1.00  0.00    -0.237 OA
ATOM     89  O   UNL A   1      34.515  35.235  32.162  1.00  0.00    -0.744 OA
ENDBRANCH  85  86
ENDBRANCH  53  78
BRANCH  65  90
ATOM     90  C   UNL A   1      43.580  28.556  33.460  1.00  0.00     0.058 A 
ATOM     91  C   UNL A   1      44.148  28.892  34.702  1.00  0.00     0.135 A 
ATOM     92  C   UNL A   1      42.649  27.503  33.448  1.00  0.00     0.135 A 
ATOM     93  F   UNL A   1      44.968  29.946  34.827  1.00  0.00    -0.206 F 
ATOM     94  C   UNL A   1      43.842  28.179  35.866  1.00  0.00     0.059 A 
ATOM     95  C   UNL A   1      42.303  26.805  34.599  1.00  0.00     0.059 A 
ATOM     96  F   UNL A   1      42.028  27.167  32.305  1.00  0.00    -0.206 F 
ATOM     97  C   UNL A   1      42.917  27.135  35.803  1.00  0.00     0.060 A 
BRANCH  97  98
ATOM     98  S   UNL A   1      42.483  26.238  37.308  1.00  0.00     0.124 S 
ATOM     99  O   UNL A   1      41.078  26.596  37.484  1.00  0.00    -0.237 OA
ATOM    100  O   UNL A   1      42.742  24.851  36.937  1.00  0.00    -0.237 OA
ATOM    101  O   UNL A   1      43.395  26.787  38.309  1.00  0.00    -0.744 OA
ENDBRANCH  97  98
ENDBRANCH  65  90
ENDBRANCH  39  40
ENDBRANCH  31  34
ENDBRANCH  29  30
ENDBRANCH   1  29
TORSDOF 15
ENDMDL
MODEL 3
REMARK VINA RESULT:     -12.9      2.914      9.515
REMARK SMILES Cc1nsc(NC(=O)[C@H]2Cc3[nH]cnc3C[NH2+]2)c1C(=O)NCCCNC(=O)c1ccc(-c2c3nc(c(-c4c(F)cc(S(=O)(=O)[O-])cc4F)c4ccc([nH]4)c(-c4c(F)cc(S(=O)(=O)[O-])cc4F)c4nc(c(-c5c(F)cc(S(=O)(=O)[O-])cc5F)c5ccc2[nH]5)C=C4)C=C3)cc1
REMARK SMILES IDX 23 1 22 2 21 3 19 4 20 5 18 7 1 8 2 9 3 10 4 11 5 12 6 13
REMARK SMILES IDX 7 14 8 16 9 17 10 18 17 19 11 20 16 21 12 24 15 25 13 26
REMARK SMILES IDX 14 28 24 29 25 30 26 31 27 33 28 34 29 35 93 36 30 37 92 38
REMARK SMILES IDX 31 39 32 40 33 41 86 42 34 43 91 44 85 45 87 46 35 47 90 48
REMARK SMILES IDX 84 49 83 50 36 52 70 53 49 54 69 55 50 56 53 57 68 58 88 59
REMARK SMILES IDX 51 60 52 61 67 63 89 64 54 65 37 66 38 67 47 68 39 69 40 70
REMARK SMILES IDX 46 71 48 72 41 73 42 74 43 75 44 76 45 77 71 78 72 79 81 80
REMARK SMILES IDX 73 81 74 82 80 83 82 84 75 85 76 86 77 87 78 88 79 89 55 90
REMARK SMILES IDX 56 91 65 92 57 93 58 94 64 95 66 96 59 97 60 98 61 99 62 100
REMARK SMILES IDX 63 101
REMARK H PARENT 21 6 6 15 17 22 17 23 12 27 25 32 87 51 53 62
REMARK Flexibility Score: inf
ROOT
ATOM      1  C   UNL A   1      36.833  22.318  25.758  1.00  0.00     0.042 C 
ENDROOT
BRANCH   1   2
ATOM      2  C   UNL A   1      36.672  21.758  24.343  1.00  0.00     0.118 C 
BRANCH   2   3
ATOM      3  N   UNL A   1      35.914  22.648  23.501  1.00  0.00    -0.352 N 
ATOM      4  C   UNL A   1      34.612  23.064  23.494  1.00  0.00     0.256 C 
ATOM      5  O   UNL A   1      34.376  23.950  22.665  1.00  0.00    -0.269 OA
ATOM      6  H   UNL A   1      36.449  23.041  22.773  1.00  0.00     0.163 HD
BRANCH   4   7
ATOM      7  C   UNL A   1      33.536  22.584  24.382  1.00  0.00     0.097 A 
ATOM      8  C   UNL A   1      32.518  20.183  23.570  1.00  0.00     0.069 C 
ATOM      9  C   UNL A   1      32.681  21.381  24.429  1.00  0.00     0.066 A 
ATOM     10  N   UNL A   1      31.806  21.332  25.428  1.00  0.00    -0.195 NA
ATOM     11  S   UNL A   1      31.908  22.677  26.289  1.00  0.00    -0.017 S 
ATOM     12  C   UNL A   1      33.129  23.431  25.438  1.00  0.00     0.129 A 
BRANCH  12  13
ATOM     13  N   UNL A   1      33.583  24.701  25.774  1.00  0.00    -0.311 N 
ATOM     14  C   UNL A   1      33.073  25.972  25.714  1.00  0.00     0.283 C 
ATOM     15  H   UNL A   1      34.495  24.684  26.145  1.00  0.00     0.171 HD
ATOM     16  O   UNL A   1      33.856  26.885  26.023  1.00  0.00    -0.268 OA
BRANCH  14  17
ATOM     17  C   UNL A   1      31.640  26.376  25.272  1.00  0.00     0.279 C 
ATOM     18  C   UNL A   1      31.440  27.928  25.382  1.00  0.00     0.131 C 
ATOM     19  N   UNL A   1      31.250  25.635  24.024  1.00  0.00    -0.331 N 
ATOM     20  C   UNL A   1      30.794  28.444  24.150  1.00  0.00     0.050 A 
ATOM     21  C   UNL A   1      30.039  26.177  23.360  1.00  0.00     0.320 C 
ATOM     22  H   UNL A   1      31.073  24.661  24.270  1.00  0.00     0.347 HD
ATOM     23  H   UNL A   1      32.022  25.737  23.364  1.00  0.00     0.347 HD
ATOM     24  N   UNL A   1      30.916  29.679  23.582  1.00  0.00    -0.348 N 
ATOM     25  C   UNL A   1      30.176  27.654  23.209  1.00  0.00     0.116 A 
ATOM     26  C   UNL A   1      30.438  29.566  22.301  1.00  0.00     0.197 A 
ATOM     27  H   UNL A   1      31.276  30.490  24.008  1.00  0.00     0.167 HD
ATOM     28  N   UNL A   1      29.950  28.365  22.060  1.00  0.00    -0.236 NA
ENDBRANCH  14  17
ENDBRANCH  12  13
ENDBRANCH   4   7
ENDBRANCH   2   3
ENDBRANCH   1   2
BRANCH   1  29
ATOM     29  C   UNL A   1      38.090  23.132  25.945  1.00  0.00     0.118 C 
BRANCH  29  30
ATOM     30  N   UNL A   1      39.233  22.275  26.255  1.00  0.00    -0.352 N 
ATOM     31  C   UNL A   1      40.534  22.651  26.488  1.00  0.00     0.251 C 
ATOM     32  H   UNL A   1      39.047  21.309  26.303  1.00  0.00     0.163 HD
ATOM     33  O   UNL A   1      41.446  21.833  26.351  1.00  0.00    -0.269 OA
BRANCH  31  34
ATOM     34  C   UNL A   1      40.814  24.040  26.879  1.00  0.00     0.039 A 
ATOM     35  C   UNL A   1      39.997  25.082  26.446  1.00  0.00     0.014 A 
ATOM     36  C   UNL A   1      41.877  24.281  27.750  1.00  0.00     0.014 A 
ATOM     37  C   UNL A   1      40.206  26.351  26.977  1.00  0.00     0.010 A 
ATOM     38  C   UNL A   1      41.965  25.484  28.404  1.00  0.00     0.010 A 
ATOM     39  C   UNL A   1      41.166  26.538  27.992  1.00  0.00    -0.014 A 
BRANCH  39  40
ATOM     40  C   UNL A   1      41.199  27.788  28.751  1.00  0.00     0.031 A 
ATOM     41  C   UNL A   1      42.285  28.695  28.299  1.00  0.00     0.074 A 
ATOM     42  C   UNL A   1      40.260  28.179  29.643  1.00  0.00     0.049 A 
ATOM     43  N   UNL A   1      43.424  28.875  28.879  1.00  0.00    -0.248 NA
ATOM     44  C   UNL A   1      42.212  29.279  26.948  1.00  0.00     0.031 C 
ATOM     45  C   UNL A   1      38.991  27.519  29.969  1.00  0.00     0.029 A 
ATOM     46  N   UNL A   1      40.200  29.311  30.400  1.00  0.00    -0.354 N 
ATOM     47  C   UNL A   1      44.071  29.846  28.127  1.00  0.00     0.074 A 
ATOM     48  C   UNL A   1      43.418  29.848  26.845  1.00  0.00     0.031 C 
ATOM     49  C   UNL A   1      38.199  28.365  30.665  1.00  0.00     0.029 A 
ATOM     50  C   UNL A   1      38.957  29.560  30.986  1.00  0.00     0.049 A 
ATOM     51  H   UNL A   1      40.973  29.907  30.525  1.00  0.00     0.167 HD
ATOM     52  C   UNL A   1      44.841  30.782  28.748  1.00  0.00     0.037 A 
ATOM     53  C   UNL A   1      38.577  30.663  31.688  1.00  0.00     0.037 A 
ATOM     54  C   UNL A   1      45.168  30.358  30.094  1.00  0.00     0.049 A 
ATOM     55  C   UNL A   1      39.823  31.308  32.173  1.00  0.00     0.074 A 
ATOM     56  C   UNL A   1      45.746  29.231  30.651  1.00  0.00     0.029 A 
ATOM     57  N   UNL A   1      44.504  30.983  31.121  1.00  0.00    -0.354 N 
ATOM     58  N   UNL A   1      40.615  30.773  33.061  1.00  0.00    -0.248 NA
ATOM     59  C   UNL A   1      40.427  32.325  31.331  1.00  0.00     0.031 C 
ATOM     60  C   UNL A   1      45.013  28.992  31.851  1.00  0.00     0.029 A 
ATOM     61  C   UNL A   1      44.097  30.032  32.016  1.00  0.00     0.049 A 
ATOM     62  H   UNL A   1      44.348  31.953  31.200  1.00  0.00     0.167 HD
ATOM     63  C   UNL A   1      41.891  31.029  32.586  1.00  0.00     0.074 A 
ATOM     64  C   UNL A   1      41.715  32.072  31.576  1.00  0.00     0.031 C 
ATOM     65  C   UNL A   1      42.919  30.167  32.846  1.00  0.00     0.037 A 
BRANCH  52  66
ATOM     66  C   UNL A   1      44.896  32.241  28.339  1.00  0.00     0.058 A 
ATOM     67  C   UNL A   1      46.157  32.820  28.076  1.00  0.00     0.135 A 
ATOM     68  C   UNL A   1      43.831  33.158  28.487  1.00  0.00     0.135 A 
ATOM     69  F   UNL A   1      47.245  32.049  27.920  1.00  0.00    -0.206 F 
ATOM     70  C   UNL A   1      46.358  34.200  28.058  1.00  0.00     0.059 A 
ATOM     71  C   UNL A   1      44.001  34.535  28.417  1.00  0.00     0.059 A 
ATOM     72  F   UNL A   1      42.587  32.784  28.798  1.00  0.00    -0.206 F 
ATOM     73  C   UNL A   1      45.273  35.049  28.242  1.00  0.00     0.060 A 
BRANCH  73  74
ATOM     74  S   UNL A   1      45.534  36.828  28.279  1.00  0.00     0.124 S 
ATOM     75  O   UNL A   1      44.451  37.259  29.155  1.00  0.00    -0.237 OA
ATOM     76  O   UNL A   1      46.882  36.918  28.829  1.00  0.00    -0.237 OA
ATOM     77  O   UNL A   1      45.408  37.213  26.877  1.00  0.00    -0.744 OA
ENDBRANCH  73  74
ENDBRANCH  52  66
BRANCH  53  78
ATOM     78  C   UNL A   1      37.261  31.365  31.727  1.00  0.00     0.058 A 
ATOM     79  C   UNL A   1      36.653  31.704  32.953  1.00  0.00     0.135 A 
ATOM     80  C   UNL A   1      36.727  31.991  30.585  1.00  0.00     0.135 A 
ATOM     81  F   UNL A   1      37.097  31.166  34.100  1.00  0.00    -0.206 F 
ATOM     82  C   UNL A   1      35.632  32.660  33.049  1.00  0.00     0.059 A 
ATOM     83  C   UNL A   1      35.704  32.940  30.654  1.00  0.00     0.059 A 
ATOM     84  F   UNL A   1      37.251  31.772  29.370  1.00  0.00    -0.206 F 
ATOM     85  C   UNL A   1      35.182  33.294  31.893  1.00  0.00     0.060 A 
BRANCH  85  86
ATOM     86  S   UNL A   1      34.012  34.670  32.028  1.00  0.00     0.124 S 
ATOM     87  O   UNL A   1      33.562  34.822  30.649  1.00  0.00    -0.237 OA
ATOM     88  O   UNL A   1      33.026  34.149  32.967  1.00  0.00    -0.237 OA
ATOM     89  O   UNL A   1      34.836  35.764  32.539  1.00  0.00    -0.744 OA
ENDBRANCH  85  86
ENDBRANCH  53  78
BRANCH  65  90
ATOM     90  C   UNL A   1      42.758  29.172  33.966  1.00  0.00     0.058 A 
ATOM     91  C   UNL A   1      42.966  29.429  35.332  1.00  0.00     0.135 A 
ATOM     92  C   UNL A   1      42.241  27.910  33.625  1.00  0.00     0.135 A 
ATOM     93  F   UNL A   1      43.361  30.638  35.758  1.00  0.00    -0.206 F 
ATOM     94  C   UNL A   1      42.719  28.458  36.308  1.00  0.00     0.059 A 
ATOM     95  C   UNL A   1      41.954  26.943  34.581  1.00  0.00     0.059 A 
ATOM     96  F   UNL A   1      41.967  27.619  32.343  1.00  0.00    -0.206 F 
ATOM     97  C   UNL A   1      42.213  27.215  35.920  1.00  0.00     0.060 A 
BRANCH  97  98
ATOM     98  S   UNL A   1      41.851  25.970  37.176  1.00  0.00     0.124 S 
ATOM     99  O   UNL A   1      42.013  24.726  36.431  1.00  0.00    -0.237 OA
ATOM    100  O   UNL A   1      42.865  26.239  38.191  1.00  0.00    -0.237 OA
ATOM    101  O   UNL A   1      40.481  26.280  37.579  1.00  0.00    -0.744 OA
ENDBRANCH  97  98
ENDBRANCH  65  90
ENDBRANCH  39  40
ENDBRANCH  31  34
ENDBRANCH  29  30
ENDBRANCH   1  29
TORSDOF 15
ENDMDL
