MODEL 1
REMARK VINA RESULT:      -9.2      0.000      0.000
REMARK SMILES NS(=O)(=O)c1ccc(-n2nc(NC(=O)NCCCCCCCCCCC(=O)NCCCNC(=O)c3ccc(-c4c5nc(c(-c6c(F)cc(S(=O)(=O)[O-])cc6F)c6ccc([nH]6)c(-c6c(F)cc(S(=O)(=O)[O-])cc6F)c6nc(c(-c7c(F)cc(S(=O)(=O)[O-])cc7F)c7ccc4[nH]7)C=C6)C=C5)cc3)cc2-c2ccccc2)cc1
REMARK SMILES IDX 22 1 21 2 20 3 19 4 18 5 17 6 16 7 15 8 12 9 13 10 14 12
REMARK SMILES IDX 11 14 9 15 10 16 102 17 101 18 8 19 5 20 6 21 110 22 7 23
REMARK SMILES IDX 109 24 2 25 3 26 4 27 1 28 103 31 104 32 108 33 105 34
REMARK SMILES IDX 107 35 106 36 23 37 24 38 25 39 26 40 27 41 28 42 29 44
REMARK SMILES IDX 30 45 31 46 32 47 33 48 34 50 35 51 36 52 100 53 37 54 99 55
REMARK SMILES IDX 38 56 39 57 40 58 93 59 41 60 98 61 92 62 94 63 42 64 97 65
REMARK SMILES IDX 91 66 90 67 43 69 77 70 56 71 76 72 57 73 60 74 75 75 95 76
REMARK SMILES IDX 58 77 59 78 74 80 96 81 61 82 44 83 45 84 54 85 46 86 47 87
REMARK SMILES IDX 53 88 55 89 48 90 49 91 50 92 51 93 52 94 78 95 79 96 88 97
REMARK SMILES IDX 80 98 81 99 87 100 89 101 82 102 83 103 84 104 85 105 86 106
REMARK SMILES IDX 62 107 63 108 72 109 64 110 65 111 71 112 73 113 66 114
REMARK SMILES IDX 67 115 68 116 69 117 70 118
REMARK H PARENT 12 11 15 13 1 29 1 30 28 43 32 49 94 68 60 79
REMARK Flexibility Score: inf
ROOT
ATOM      1  C   UNL A   1      37.448  32.327  39.167  1.00  0.00     0.000 C 
ENDROOT
BRANCH   1   2
ATOM      2  C   UNL A   1      38.062  32.471  40.540  1.00  0.00     0.000 C 
BRANCH   2   3
ATOM      3  C   UNL A   1      37.145  32.006  41.665  1.00  0.00     0.000 C 
BRANCH   3   4
ATOM      4  C   UNL A   1      37.521  30.706  42.386  1.00  0.00     0.000 C 
BRANCH   4   5
ATOM      5  C   UNL A   1      39.016  30.440  42.601  1.00  0.00     0.002 C 
BRANCH   5   6
ATOM      6  C   UNL A   1      39.545  30.604  44.024  1.00  0.00     0.021 C 
BRANCH   6   7
ATOM      7  C   UNL A   1      38.695  31.435  44.971  1.00  0.00     0.117 C 
BRANCH   7   8
ATOM      8  N   UNL A   1      39.376  32.071  46.066  1.00  0.00    -0.338 N 
ATOM      9  N   UNL A   1      37.580  33.318  47.020  1.00  0.00    -0.291 N 
ATOM     10  C   UNL A   1      38.876  32.925  46.987  1.00  0.00     0.320 C 
ATOM     11  H   UNL A   1      37.438  34.166  47.501  1.00  0.00     0.173 HD
ATOM     12  O   UNL A   1      39.669  33.466  47.764  1.00  0.00    -0.248 OA
ATOM     13  H   UNL A   1      40.333  31.858  46.156  1.00  0.00     0.165 HD
BRANCH   9  14
ATOM     14  C   UNL A   1      36.420  32.769  46.515  1.00  0.00     0.157 A 
ATOM     15  N   UNL A   1      34.517  32.615  45.591  1.00  0.00    -0.231 N 
ATOM     16  N   UNL A   1      35.708  33.242  45.489  1.00  0.00    -0.149 NA
ATOM     17  C   UNL A   1      34.624  31.456  46.348  1.00  0.00     0.076 A 
ATOM     18  C   UNL A   1      35.839  31.571  46.998  1.00  0.00     0.078 A 
BRANCH  15  19
ATOM     19  C   UNL A   1      33.341  33.183  45.026  1.00  0.00     0.065 A 
ATOM     20  C   UNL A   1      31.001  34.238  43.943  1.00  0.00     0.082 A 
ATOM     21  C   UNL A   1      31.266  34.411  45.301  1.00  0.00     0.024 A 
ATOM     22  C   UNL A   1      31.911  33.571  43.115  1.00  0.00     0.024 A 
ATOM     23  C   UNL A   1      32.432  33.873  45.846  1.00  0.00     0.030 A 
ATOM     24  C   UNL A   1      33.096  33.058  43.656  1.00  0.00     0.030 A 
BRANCH  20  25
ATOM     25  S   UNL A   1      29.513  34.905  43.259  1.00  0.00     0.238 S 
ATOM     26  O   UNL A   1      28.962  35.880  44.154  1.00  0.00    -0.207 OA
ATOM     27  O   UNL A   1      28.735  33.813  42.702  1.00  0.00    -0.207 OA
BRANCH  25  28
ATOM     28  N   UNL A   1      30.092  35.777  41.940  1.00  0.00    -0.225 NA
ATOM     29  H   UNL A   1      31.074  36.009  42.091  1.00  0.00     0.137 HD
ATOM     30  H   UNL A   1      29.552  36.635  41.836  1.00  0.00     0.137 HD
ENDBRANCH  25  28
ENDBRANCH  20  25
ENDBRANCH  15  19
BRANCH  17  31
ATOM     31  C   UNL A   1      33.607  30.409  46.349  1.00  0.00     0.000 A 
ATOM     32  C   UNL A   1      32.661  30.377  47.387  1.00  0.00     0.010 A 
ATOM     33  C   UNL A   1      33.613  29.387  45.398  1.00  0.00     0.010 A 
ATOM     34  C   UNL A   1      31.771  29.313  47.506  1.00  0.00     0.001 A 
ATOM     35  C   UNL A   1      32.714  28.324  45.515  1.00  0.00     0.001 A 
ATOM     36  C   UNL A   1      31.804  28.282  46.573  1.00  0.00     0.000 A 
ENDBRANCH  17  31
ENDBRANCH   9  14
ENDBRANCH   7   8
ENDBRANCH   6   7
ENDBRANCH   5   6
ENDBRANCH   4   5
ENDBRANCH   3   4
ENDBRANCH   2   3
ENDBRANCH   1   2
BRANCH   1  37
ATOM     37  C   UNL A   1      38.153  33.161  38.092  1.00  0.00     0.001 C 
BRANCH  37  38
ATOM     38  C   UNL A   1      38.314  32.442  36.760  1.00  0.00     0.010 C 
BRANCH  38  39
ATOM     39  C   UNL A   1      37.353  32.884  35.654  1.00  0.00     0.100 C 
BRANCH  39  40
ATOM     40  C   UNL A   1      37.458  32.077  34.375  1.00  0.00     0.219 C 
ATOM     41  O   UNL A   1      38.355  31.242  34.246  1.00  0.00    -0.275 OA
ATOM     42  N   UNL A   1      36.575  32.225  33.346  1.00  0.00    -0.356 N 
ATOM     43  H   UNL A   1      36.802  31.701  32.544  1.00  0.00     0.163 HD
BRANCH  42  44
ATOM     44  C   UNL A   1      35.357  33.016  33.213  1.00  0.00     0.117 C 
BRANCH  44  45
ATOM     45  C   UNL A   1      34.526  32.662  31.965  1.00  0.00     0.042 C 
BRANCH  45  46
ATOM     46  C   UNL A   1      35.039  33.273  30.685  1.00  0.00     0.118 C 
BRANCH  46  47
ATOM     47  N   UNL A   1      34.471  32.660  29.480  1.00  0.00    -0.352 N 
ATOM     48  C   UNL A   1      35.123  31.805  28.601  1.00  0.00     0.251 C 
ATOM     49  H   UNL A   1      33.533  32.877  29.273  1.00  0.00     0.163 HD
ATOM     50  O   UNL A   1      34.731  31.656  27.451  1.00  0.00    -0.269 OA
BRANCH  48  51
ATOM     51  C   UNL A   1      36.310  31.091  29.106  1.00  0.00     0.039 A 
ATOM     52  C   UNL A   1      36.362  29.702  29.241  1.00  0.00     0.014 A 
ATOM     53  C   UNL A   1      37.437  31.869  29.320  1.00  0.00     0.014 A 
ATOM     54  C   UNL A   1      37.598  29.110  29.503  1.00  0.00     0.010 A 
ATOM     55  C   UNL A   1      38.661  31.275  29.282  1.00  0.00     0.010 A 
ATOM     56  C   UNL A   1      38.752  29.908  29.493  1.00  0.00    -0.014 A 
BRANCH  56  57
ATOM     57  C   UNL A   1      40.093  29.355  29.629  1.00  0.00     0.031 A 
ATOM     58  C   UNL A   1      40.539  29.146  31.031  1.00  0.00     0.074 A 
ATOM     59  C   UNL A   1      40.772  28.859  28.567  1.00  0.00     0.049 A 
ATOM     60  N   UNL A   1      41.440  29.814  31.669  1.00  0.00    -0.248 NA
ATOM     61  C   UNL A   1      39.783  28.211  31.881  1.00  0.00     0.031 C 
ATOM     62  C   UNL A   1      40.327  28.728  27.171  1.00  0.00     0.029 A 
ATOM     63  N   UNL A   1      41.982  28.245  28.537  1.00  0.00    -0.354 N 
ATOM     64  C   UNL A   1      41.552  29.206  32.915  1.00  0.00     0.074 A 
ATOM     65  C   UNL A   1      40.370  28.399  33.067  1.00  0.00     0.031 C 
ATOM     66  C   UNL A   1      41.124  27.858  26.515  1.00  0.00     0.029 A 
ATOM     67  C   UNL A   1      42.237  27.517  27.375  1.00  0.00     0.049 A 
ATOM     68  H   UNL A   1      42.629  28.308  29.276  1.00  0.00     0.167 HD
ATOM     69  C   UNL A   1      42.735  29.208  33.591  1.00  0.00     0.037 A 
ATOM     70  C   UNL A   1      43.279  26.675  27.157  1.00  0.00     0.037 A 
ATOM     71  C   UNL A   1      43.654  30.163  33.016  1.00  0.00     0.049 A 
ATOM     72  C   UNL A   1      44.339  27.065  28.130  1.00  0.00     0.074 A 
ATOM     73  C   UNL A   1      43.607  31.523  32.771  1.00  0.00     0.029 A 
ATOM     74  N   UNL A   1      44.661  29.675  32.215  1.00  0.00    -0.354 N 
ATOM     75  N   UNL A   1      44.958  28.216  28.097  1.00  0.00    -0.248 NA
ATOM     76  C   UNL A   1      44.346  26.393  29.421  1.00  0.00     0.031 C 
ATOM     77  C   UNL A   1      44.220  31.687  31.494  1.00  0.00     0.029 A 
ATOM     78  C   UNL A   1      44.688  30.440  31.075  1.00  0.00     0.049 A 
ATOM     79  H   UNL A   1      45.254  28.916  32.421  1.00  0.00     0.167 HD
ATOM     80  C   UNL A   1      45.043  28.613  29.425  1.00  0.00     0.074 A 
ATOM     81  C   UNL A   1      44.721  27.414  30.199  1.00  0.00     0.031 C 
ATOM     82  C   UNL A   1      45.066  29.935  29.772  1.00  0.00     0.037 A 
BRANCH  69  83
ATOM     83  C   UNL A   1      43.207  28.103  34.510  1.00  0.00     0.058 A 
ATOM     84  C   UNL A   1      43.558  28.423  35.838  1.00  0.00     0.135 A 
ATOM     85  C   UNL A   1      43.595  26.817  34.074  1.00  0.00     0.135 A 
ATOM     86  F   UNL A   1      43.241  29.619  36.361  1.00  0.00    -0.206 F 
ATOM     87  C   UNL A   1      44.312  27.566  36.641  1.00  0.00     0.059 A 
ATOM     88  C   UNL A   1      44.298  25.926  34.876  1.00  0.00     0.059 A 
ATOM     89  F   UNL A   1      43.403  26.393  32.820  1.00  0.00    -0.206 F 
ATOM     90  C   UNL A   1      44.691  26.324  36.142  1.00  0.00     0.060 A 
BRANCH  90  91
ATOM     91  S   UNL A   1      45.750  25.260  37.134  1.00  0.00     0.124 S 
ATOM     92  O   UNL A   1      46.110  24.228  36.169  1.00  0.00    -0.237 OA
ATOM     93  O   UNL A   1      46.818  26.177  37.521  1.00  0.00    -0.237 OA
ATOM     94  O   UNL A   1      44.874  24.834  38.221  1.00  0.00    -0.744 OA
ENDBRANCH  90  91
ENDBRANCH  69  83
BRANCH  70  95
ATOM     95  C   UNL A   1      43.256  25.360  26.455  1.00  0.00     0.058 A 
ATOM     96  C   UNL A   1      44.018  25.149  25.290  1.00  0.00     0.135 A 
ATOM     97  C   UNL A   1      42.724  24.199  27.057  1.00  0.00     0.135 A 
ATOM     98  F   UNL A   1      44.566  26.191  24.647  1.00  0.00    -0.206 F 
ATOM     99  C   UNL A   1      44.305  23.868  24.802  1.00  0.00     0.059 A 
ATOM    100  C   UNL A   1      42.984  22.913  26.580  1.00  0.00     0.059 A 
ATOM    101  F   UNL A   1      42.009  24.266  28.189  1.00  0.00    -0.206 F 
ATOM    102  C   UNL A   1      43.806  22.752  25.473  1.00  0.00     0.060 A 
BRANCH 102 103
ATOM    103  S   UNL A   1      44.352  21.097  24.986  1.00  0.00     0.124 S 
ATOM    104  O   UNL A   1      44.486  21.236  23.540  1.00  0.00    -0.237 OA
ATOM    105  O   UNL A   1      45.598  20.952  25.730  1.00  0.00    -0.237 OA
ATOM    106  O   UNL A   1      43.261  20.235  25.433  1.00  0.00    -0.744 OA
ENDBRANCH 102 103
ENDBRANCH  70  95
BRANCH  82 107
ATOM    107  C   UNL A   1      45.281  30.968  28.690  1.00  0.00     0.058 A 
ATOM    108  C   UNL A   1      44.268  31.486  27.862  1.00  0.00     0.135 A 
ATOM    109  C   UNL A   1      46.541  31.580  28.610  1.00  0.00     0.135 A 
ATOM    110  F   UNL A   1      43.009  31.037  27.945  1.00  0.00    -0.206 F 
ATOM    111  C   UNL A   1      44.508  32.536  26.971  1.00  0.00     0.059 A 
ATOM    112  C   UNL A   1      46.794  32.648  27.753  1.00  0.00     0.059 A 
ATOM    113  F   UNL A   1      47.536  31.177  29.416  1.00  0.00    -0.206 F 
ATOM    114  C   UNL A   1      45.775  33.112  26.925  1.00  0.00     0.060 A 
BRANCH 114 115
ATOM    115  S   UNL A   1      46.070  34.513  25.823  1.00  0.00     0.124 S 
ATOM    116  O   UNL A   1      45.772  35.650  26.687  1.00  0.00    -0.237 OA
ATOM    117  O   UNL A   1      47.474  34.344  25.460  1.00  0.00    -0.237 OA
ATOM    118  O   UNL A   1      45.124  34.295  24.731  1.00  0.00    -0.744 OA
ENDBRANCH 114 115
ENDBRANCH  82 107
ENDBRANCH  56  57
ENDBRANCH  48  51
ENDBRANCH  46  47
ENDBRANCH  45  46
ENDBRANCH  44  45
ENDBRANCH  42  44
ENDBRANCH  39  40
ENDBRANCH  38  39
ENDBRANCH  37  38
ENDBRANCH   1  37
TORSDOF 28
ENDMDL
MODEL 2
REMARK VINA RESULT:      -9.0      4.481     14.446
REMARK SMILES NS(=O)(=O)c1ccc(-n2nc(NC(=O)NCCCCCCCCCCC(=O)NCCCNC(=O)c3ccc(-c4c5nc(c(-c6c(F)cc(S(=O)(=O)[O-])cc6F)c6ccc([nH]6)c(-c6c(F)cc(S(=O)(=O)[O-])cc6F)c6nc(c(-c7c(F)cc(S(=O)(=O)[O-])cc7F)c7ccc4[nH]7)C=C6)C=C5)cc3)cc2-c2ccccc2)cc1
REMARK SMILES IDX 22 1 21 2 20 3 19 4 18 5 17 6 16 7 15 8 12 9 13 10 14 12
REMARK SMILES IDX 11 14 9 15 10 16 102 17 101 18 8 19 5 20 6 21 110 22 7 23
REMARK SMILES IDX 109 24 2 25 3 26 4 27 1 28 103 31 104 32 108 33 105 34
REMARK SMILES IDX 107 35 106 36 23 37 24 38 25 39 26 40 27 41 28 42 29 44
REMARK SMILES IDX 30 45 31 46 32 47 33 48 34 50 35 51 36 52 100 53 37 54 99 55
REMARK SMILES IDX 38 56 39 57 40 58 93 59 41 60 98 61 92 62 94 63 42 64 97 65
REMARK SMILES IDX 91 66 90 67 43 69 77 70 56 71 76 72 57 73 60 74 75 75 95 76
REMARK SMILES IDX 58 77 59 78 74 80 96 81 61 82 44 83 45 84 54 85 46 86 47 87
REMARK SMILES IDX 53 88 55 89 48 90 49 91 50 92 51 93 52 94 78 95 79 96 88 97
REMARK SMILES IDX 80 98 81 99 87 100 89 101 82 102 83 103 84 104 85 105 86 106
REMARK SMILES IDX 62 107 63 108 72 109 64 110 65 111 71 112 73 113 66 114
REMARK SMILES IDX 67 115 68 116 69 117 70 118
REMARK H PARENT 12 11 15 13 1 29 1 30 28 43 32 49 94 68 60 79
REMARK Flexibility Score: inf
ROOT
ATOM      1  C   UNL A   1      38.561  28.336  28.237  1.00  0.00     0.000 C 
ENDROOT
BRANCH   1   2
ATOM      2  C   UNL A   1      39.907  27.650  28.248  1.00  0.00     0.000 C 
BRANCH   2   3
ATOM      3  C   UNL A   1      40.890  28.228  27.236  1.00  0.00     0.000 C 
BRANCH   3   4
ATOM      4  C   UNL A   1      41.183  27.391  25.985  1.00  0.00     0.000 C 
BRANCH   4   5
ATOM      5  C   UNL A   1      40.754  25.919  26.020  1.00  0.00     0.002 C 
BRANCH   5   6
ATOM      6  C   UNL A   1      41.787  24.914  26.525  1.00  0.00     0.021 C 
BRANCH   6   7
ATOM      7  C   UNL A   1      42.283  23.890  25.518  1.00  0.00     0.117 C 
BRANCH   7   8
ATOM      8  N   UNL A   1      41.969  22.512  25.786  1.00  0.00    -0.338 N 
ATOM      9  N   UNL A   1      44.158  21.639  26.163  1.00  0.00    -0.291 N 
ATOM     10  C   UNL A   1      42.814  21.496  26.071  1.00  0.00     0.320 C 
ATOM     11  H   UNL A   1      44.654  20.799  26.035  1.00  0.00     0.173 HD
ATOM     12  O   UNL A   1      42.345  20.355  26.131  1.00  0.00    -0.248 OA
ATOM     13  H   UNL A   1      41.013  22.278  25.756  1.00  0.00     0.165 HD
BRANCH   9  14
ATOM     14  C   UNL A   1      44.971  22.729  26.399  1.00  0.00     0.157 A 
ATOM     15  N   UNL A   1      45.588  24.683  26.947  1.00  0.00    -0.231 N 
ATOM     16  N   UNL A   1      44.767  23.678  27.317  1.00  0.00    -0.149 NA
ATOM     17  C   UNL A   1      46.606  24.221  26.123  1.00  0.00     0.076 A 
ATOM     18  C   UNL A   1      46.188  22.967  25.717  1.00  0.00     0.078 A 
BRANCH  15  19
ATOM     19  C   UNL A   1      45.321  26.025  27.336  1.00  0.00     0.065 A 
ATOM     20  C   UNL A   1      44.865  28.672  28.076  1.00  0.00     0.082 A 
ATOM     21  C   UNL A   1      44.662  28.286  26.751  1.00  0.00     0.024 A 
ATOM     22  C   UNL A   1      45.263  27.739  29.041  1.00  0.00     0.024 A 
ATOM     23  C   UNL A   1      44.901  26.964  26.379  1.00  0.00     0.030 A 
ATOM     24  C   UNL A   1      45.474  26.406  28.673  1.00  0.00     0.030 A 
BRANCH  20  25
ATOM     25  S   UNL A   1      44.579  30.354  28.541  1.00  0.00     0.238 S 
ATOM     26  O   UNL A   1      44.380  31.155  27.369  1.00  0.00    -0.207 OA
ATOM     27  O   UNL A   1      45.521  30.706  29.590  1.00  0.00    -0.207 OA
BRANCH  25  28
ATOM     28  N   UNL A   1      43.074  30.260  29.288  1.00  0.00    -0.225 NA
ATOM     29  H   UNL A   1      42.947  31.067  29.899  1.00  0.00     0.137 HD
ATOM     30  H   UNL A   1      43.020  29.404  29.839  1.00  0.00     0.137 HD
ENDBRANCH  25  28
ENDBRANCH  20  25
ENDBRANCH  15  19
BRANCH  17  31
ATOM     31  C   UNL A   1      47.816  24.989  25.846  1.00  0.00     0.000 A 
ATOM     32  C   UNL A   1      48.786  25.121  26.854  1.00  0.00     0.010 A 
ATOM     33  C   UNL A   1      47.985  25.674  24.642  1.00  0.00     0.010 A 
ATOM     34  C   UNL A   1      49.879  25.966  26.683  1.00  0.00     0.001 A 
ATOM     35  C   UNL A   1      49.086  26.516  24.469  1.00  0.00     0.001 A 
ATOM     36  C   UNL A   1      50.024  26.669  25.492  1.00  0.00     0.000 A 
ENDBRANCH  17  31
ENDBRANCH   9  14
ENDBRANCH   7   8
ENDBRANCH   6   7
ENDBRANCH   5   6
ENDBRANCH   4   5
ENDBRANCH   3   4
ENDBRANCH   2   3
ENDBRANCH   1   2
BRANCH   1  37
ATOM     37  C   UNL A   1      38.328  29.242  29.452  1.00  0.00     0.001 C 
BRANCH  37  38
ATOM     38  C   UNL A   1      37.363  30.389  29.190  1.00  0.00     0.010 C 
BRANCH  38  39
ATOM     39  C   UNL A   1      35.881  30.009  29.162  1.00  0.00     0.100 C 
BRANCH  39  40
ATOM     40  C   UNL A   1      35.240  30.092  27.791  1.00  0.00     0.219 C 
ATOM     41  O   UNL A   1      35.353  29.154  27.001  1.00  0.00    -0.275 OA
ATOM     42  N   UNL A   1      34.514  31.175  27.391  1.00  0.00    -0.356 N 
ATOM     43  H   UNL A   1      34.221  31.136  26.452  1.00  0.00     0.163 HD
BRANCH  42  44
ATOM     44  C   UNL A   1      34.092  32.380  28.096  1.00  0.00     0.117 C 
BRANCH  44  45
ATOM     45  C   UNL A   1      35.221  33.409  28.287  1.00  0.00     0.042 C 
BRANCH  45  46
ATOM     46  C   UNL A   1      35.630  33.619  29.724  1.00  0.00     0.118 C 
BRANCH  46  47
ATOM     47  N   UNL A   1      34.516  33.500  30.670  1.00  0.00    -0.352 N 
ATOM     48  C   UNL A   1      34.603  33.146  32.010  1.00  0.00     0.251 C 
ATOM     49  H   UNL A   1      33.616  33.691  30.320  1.00  0.00     0.163 HD
ATOM     50  O   UNL A   1      33.637  32.697  32.612  1.00  0.00    -0.269 OA
BRANCH  48  51
ATOM     51  C   UNL A   1      35.906  33.325  32.675  1.00  0.00     0.039 A 
ATOM     52  C   UNL A   1      36.401  34.573  33.059  1.00  0.00     0.014 A 
ATOM     53  C   UNL A   1      36.570  32.159  33.025  1.00  0.00     0.014 A 
ATOM     54  C   UNL A   1      37.525  34.613  33.882  1.00  0.00     0.010 A 
ATOM     55  C   UNL A   1      37.469  32.198  34.047  1.00  0.00     0.010 A 
ATOM     56  C   UNL A   1      38.038  33.413  34.397  1.00  0.00    -0.014 A 
BRANCH  56  57
ATOM     57  C   UNL A   1      39.126  33.370  35.364  1.00  0.00     0.031 A 
ATOM     58  C   UNL A   1      38.695  33.424  36.785  1.00  0.00     0.074 A 
ATOM     59  C   UNL A   1      40.396  33.070  34.999  1.00  0.00     0.049 A 
ATOM     60  N   UNL A   1      38.851  34.404  37.610  1.00  0.00    -0.248 NA
ATOM     61  C   UNL A   1      37.839  32.344  37.305  1.00  0.00     0.031 C 
ATOM     62  C   UNL A   1      40.906  32.699  33.670  1.00  0.00     0.029 A 
ATOM     63  N   UNL A   1      41.495  32.913  35.779  1.00  0.00    -0.354 N 
ATOM     64  C   UNL A   1      38.351  33.957  38.828  1.00  0.00     0.074 A 
ATOM     65  C   UNL A   1      37.547  32.803  38.526  1.00  0.00     0.031 C 
ATOM     66  C   UNL A   1      42.119  32.117  33.790  1.00  0.00     0.029 A 
ATOM     67  C   UNL A   1      42.553  32.243  35.166  1.00  0.00     0.049 A 
ATOM     68  H   UNL A   1      41.544  33.246  36.704  1.00  0.00     0.167 HD
ATOM     69  C   UNL A   1      38.864  34.415  40.005  1.00  0.00     0.037 A 
ATOM     70  C   UNL A   1      43.690  31.802  35.763  1.00  0.00     0.037 A 
ATOM     71  C   UNL A   1      39.679  35.588  39.788  1.00  0.00     0.049 A 
ATOM     72  C   UNL A   1      43.839  32.599  37.012  1.00  0.00     0.074 A 
ATOM     73  C   UNL A   1      39.456  36.828  39.217  1.00  0.00     0.029 A 
ATOM     74  N   UNL A   1      41.046  35.427  39.806  1.00  0.00    -0.354 N 
ATOM     75  N   UNL A   1      44.055  33.888  37.022  1.00  0.00    -0.248 NA
ATOM     76  C   UNL A   1      43.247  32.060  38.229  1.00  0.00     0.031 C 
ATOM     77  C   UNL A   1      40.641  37.108  38.474  1.00  0.00     0.029 A 
ATOM     78  C   UNL A   1      41.551  36.076  38.707  1.00  0.00     0.049 A 
ATOM     79  H   UNL A   1      41.566  34.937  40.484  1.00  0.00     0.167 HD
ATOM     80  C   UNL A   1      43.242  34.379  38.035  1.00  0.00     0.074 A 
ATOM     81  C   UNL A   1      42.829  33.198  38.794  1.00  0.00     0.031 C 
ATOM     82  C   UNL A   1      42.734  35.647  37.989  1.00  0.00     0.037 A 
BRANCH  69  83
ATOM     83  C   UNL A   1      38.956  33.608  41.281  1.00  0.00     0.058 A 
ATOM     84  C   UNL A   1      39.786  32.468  41.309  1.00  0.00     0.135 A 
ATOM     85  C   UNL A   1      38.064  33.735  42.368  1.00  0.00     0.135 A 
ATOM     86  F   UNL A   1      40.674  32.243  40.327  1.00  0.00    -0.206 F 
ATOM     87  C   UNL A   1      39.678  31.487  42.295  1.00  0.00     0.059 A 
ATOM     88  C   UNL A   1      37.978  32.797  43.391  1.00  0.00     0.059 A 
ATOM     89  F   UNL A   1      37.160  34.718  42.448  1.00  0.00    -0.206 F 
ATOM     90  C   UNL A   1      38.757  31.655  43.324  1.00  0.00     0.060 A 
BRANCH  90  91
ATOM     91  S   UNL A   1      38.541  30.344  44.538  1.00  0.00     0.124 S 
ATOM     92  O   UNL A   1      37.762  31.026  45.565  1.00  0.00    -0.237 OA
ATOM     93  O   UNL A   1      37.832  29.331  43.763  1.00  0.00    -0.237 OA
ATOM     94  O   UNL A   1      39.910  29.998  44.906  1.00  0.00    -0.744 OA
ENDBRANCH  90  91
ENDBRANCH  69  83
BRANCH  70  95
ATOM     95  C   UNL A   1      44.405  30.516  35.521  1.00  0.00     0.058 A 
ATOM     96  C   UNL A   1      43.813  29.285  35.862  1.00  0.00     0.135 A 
ATOM     97  C   UNL A   1      45.546  30.437  34.694  1.00  0.00     0.135 A 
ATOM     98  F   UNL A   1      42.722  29.256  36.643  1.00  0.00    -0.206 F 
ATOM     99  C   UNL A   1      44.271  28.064  35.351  1.00  0.00     0.059 A 
ATOM    100  C   UNL A   1      46.029  29.232  34.184  1.00  0.00     0.059 A 
ATOM    101  F   UNL A   1      46.179  31.542  34.274  1.00  0.00    -0.206 F 
ATOM    102  C   UNL A   1      45.365  28.051  34.487  1.00  0.00     0.060 A 
BRANCH 102 103
ATOM    103  S   UNL A   1      45.823  26.515  33.646  1.00  0.00     0.124 S 
ATOM    104  O   UNL A   1      46.901  26.017  34.493  1.00  0.00    -0.237 OA
ATOM    105  O   UNL A   1      44.578  25.757  33.687  1.00  0.00    -0.237 OA
ATOM    106  O   UNL A   1      46.230  26.965  32.317  1.00  0.00    -0.744 OA
ENDBRANCH 102 103
ENDBRANCH  70  95
BRANCH  82 107
ATOM    107  C   UNL A   1      43.285  36.615  36.968  1.00  0.00     0.058 A 
ATOM    108  C   UNL A   1      42.794  36.767  35.658  1.00  0.00     0.135 A 
ATOM    109  C   UNL A   1      44.241  37.547  37.398  1.00  0.00     0.135 A 
ATOM    110  F   UNL A   1      41.804  35.992  35.196  1.00  0.00    -0.206 F 
ATOM    111  C   UNL A   1      43.260  37.772  34.806  1.00  0.00     0.059 A 
ATOM    112  C   UNL A   1      44.697  38.576  36.578  1.00  0.00     0.059 A 
ATOM    113  F   UNL A   1      44.707  37.499  38.657  1.00  0.00    -0.206 F 
ATOM    114  C   UNL A   1      44.211  38.674  35.277  1.00  0.00     0.060 A 
BRANCH 114 115
ATOM    115  S   UNL A   1      44.766  40.015  34.200  1.00  0.00     0.124 S 
ATOM    116  O   UNL A   1      44.398  39.519  32.879  1.00  0.00    -0.237 OA
ATOM    117  O   UNL A   1      43.993  41.154  34.687  1.00  0.00    -0.237 OA
ATOM    118  O   UNL A   1      46.201  40.091  34.461  1.00  0.00    -0.744 OA
ENDBRANCH 114 115
ENDBRANCH  82 107
ENDBRANCH  56  57
ENDBRANCH  48  51
ENDBRANCH  46  47
ENDBRANCH  45  46
ENDBRANCH  44  45
ENDBRANCH  42  44
ENDBRANCH  39  40
ENDBRANCH  38  39
ENDBRANCH  37  38
ENDBRANCH   1  37
TORSDOF 28
ENDMDL
MODEL 3
REMARK VINA RESULT:      -8.8      9.586     19.257
REMARK SMILES NS(=O)(=O)c1ccc(-n2nc(NC(=O)NCCCCCCCCCCC(=O)NCCCNC(=O)c3ccc(-c4c5nc(c(-c6c(F)cc(S(=O)(=O)[O-])cc6F)c6ccc([nH]6)c(-c6c(F)cc(S(=O)(=O)[O-])cc6F)c6nc(c(-c7c(F)cc(S(=O)(=O)[O-])cc7F)c7ccc4[nH]7)C=C6)C=C5)cc3)cc2-c2ccccc2)cc1
REMARK SMILES IDX 22 1 21 2 20 3 19 4 18 5 17 6 16 7 15 8 12 9 13 10 14 12
REMARK SMILES IDX 11 14 9 15 10 16 102 17 101 18 8 19 5 20 6 21 110 22 7 23
REMARK SMILES IDX 109 24 2 25 3 26 4 27 1 28 103 31 104 32 108 33 105 34
REMARK SMILES IDX 107 35 106 36 23 37 24 38 25 39 26 40 27 41 28 42 29 44
REMARK SMILES IDX 30 45 31 46 32 47 33 48 34 50 35 51 36 52 100 53 37 54 99 55
REMARK SMILES IDX 38 56 39 57 40 58 93 59 41 60 98 61 92 62 94 63 42 64 97 65
REMARK SMILES IDX 91 66 90 67 43 69 77 70 56 71 76 72 57 73 60 74 75 75 95 76
REMARK SMILES IDX 58 77 59 78 74 80 96 81 61 82 44 83 45 84 54 85 46 86 47 87
REMARK SMILES IDX 53 88 55 89 48 90 49 91 50 92 51 93 52 94 78 95 79 96 88 97
REMARK SMILES IDX 80 98 81 99 87 100 89 101 82 102 83 103 84 104 85 105 86 106
REMARK SMILES IDX 62 107 63 108 72 109 64 110 65 111 71 112 73 113 66 114
REMARK SMILES IDX 67 115 68 116 69 117 70 118
REMARK H PARENT 12 11 15 13 1 29 1 30 28 43 32 49 94 68 60 79
REMARK Flexibility Score: inf
ROOT
ATOM      1  C   UNL A   1      45.980  43.066  25.761  1.00  0.00     0.000 C 
ENDROOT
BRANCH   1   2
ATOM      2  C   UNL A   1      46.412  44.369  25.129  1.00  0.00     0.000 C 
BRANCH   2   3
ATOM      3  C   UNL A   1      47.733  44.268  24.375  1.00  0.00     0.000 C 
BRANCH   3   4
ATOM      4  C   UNL A   1      47.732  43.481  23.060  1.00  0.00     0.000 C 
BRANCH   4   5
ATOM      5  C   UNL A   1      48.965  43.634  22.159  1.00  0.00     0.002 C 
BRANCH   5   6
ATOM      6  C   UNL A   1      48.711  43.724  20.656  1.00  0.00     0.021 C 
BRANCH   6   7
ATOM      7  C   UNL A   1      49.425  44.842  19.915  1.00  0.00     0.117 C 
BRANCH   7   8
ATOM      8  N   UNL A   1      50.620  45.363  20.523  1.00  0.00    -0.338 N 
ATOM      9  N   UNL A   1      49.916  47.591  21.008  1.00  0.00    -0.291 N 
ATOM     10  C   UNL A   1      50.844  46.604  21.011  1.00  0.00     0.320 C 
ATOM     11  H   UNL A   1      50.301  48.495  21.068  1.00  0.00     0.173 HD
ATOM     12  O   UNL A   1      51.992  46.886  21.368  1.00  0.00    -0.248 OA
ATOM     13  H   UNL A   1      51.374  44.734  20.592  1.00  0.00     0.165 HD
BRANCH   9  14
ATOM     14  C   UNL A   1      48.538  47.583  20.937  1.00  0.00     0.157 A 
ATOM     15  N   UNL A   1      46.533  46.905  21.063  1.00  0.00    -0.231 N 
ATOM     16  N   UNL A   1      47.715  46.874  21.713  1.00  0.00    -0.149 NA
ATOM     17  C   UNL A   1      46.478  47.970  20.172  1.00  0.00     0.076 A 
ATOM     18  C   UNL A   1      47.790  48.386  20.042  1.00  0.00     0.078 A 
BRANCH  15  19
ATOM     19  C   UNL A   1      45.557  45.891  21.272  1.00  0.00     0.065 A 
ATOM     20  C   UNL A   1      43.693  43.868  21.718  1.00  0.00     0.082 A 
ATOM     21  C   UNL A   1      43.885  44.850  22.691  1.00  0.00     0.024 A 
ATOM     22  C   UNL A   1      44.402  43.907  20.512  1.00  0.00     0.024 A 
ATOM     23  C   UNL A   1      44.825  45.856  22.471  1.00  0.00     0.030 A 
ATOM     24  C   UNL A   1      45.324  44.934  20.280  1.00  0.00     0.030 A 
BRANCH  20  25
ATOM     25  S   UNL A   1      42.513  42.583  22.007  1.00  0.00     0.238 S 
ATOM     26  O   UNL A   1      41.207  43.026  21.617  1.00  0.00    -0.207 OA
ATOM     27  O   UNL A   1      42.793  41.987  23.302  1.00  0.00    -0.207 OA
BRANCH  25  28
ATOM     28  N   UNL A   1      42.962  41.432  20.864  1.00  0.00    -0.225 NA
ATOM     29  H   UNL A   1      42.705  41.759  19.933  1.00  0.00     0.137 HD
ATOM     30  H   UNL A   1      42.483  40.554  21.060  1.00  0.00     0.137 HD
ENDBRANCH  25  28
ENDBRANCH  20  25
ENDBRANCH  15  19
BRANCH  17  31
ATOM     31  C   UNL A   1      45.232  48.456  19.590  1.00  0.00     0.000 A 
ATOM     32  C   UNL A   1      44.680  47.776  18.492  1.00  0.00     0.010 A 
ATOM     33  C   UNL A   1      44.630  49.635  20.036  1.00  0.00     0.010 A 
ATOM     34  C   UNL A   1      43.578  48.292  17.815  1.00  0.00     0.001 A 
ATOM     35  C   UNL A   1      43.520  50.147  19.361  1.00  0.00     0.001 A 
ATOM     36  C   UNL A   1      43.003  49.483  18.247  1.00  0.00     0.000 A 
ENDBRANCH  17  31
ENDBRANCH   9  14
ENDBRANCH   7   8
ENDBRANCH   6   7
ENDBRANCH   5   6
ENDBRANCH   4   5
ENDBRANCH   3   4
ENDBRANCH   2   3
ENDBRANCH   1   2
BRANCH   1  37
ATOM     37  C   UNL A   1      46.837  42.658  26.964  1.00  0.00     0.001 C 
BRANCH  37  38
ATOM     38  C   UNL A   1      47.377  41.237  26.884  1.00  0.00     0.010 C 
BRANCH  38  39
ATOM     39  C   UNL A   1      46.950  40.440  25.650  1.00  0.00     0.100 C 
BRANCH  39  40
ATOM     40  C   UNL A   1      45.928  39.355  25.929  1.00  0.00     0.219 C 
ATOM     41  O   UNL A   1      44.737  39.646  26.044  1.00  0.00    -0.275 OA
ATOM     42  N   UNL A   1      46.274  38.040  26.041  1.00  0.00    -0.356 N 
ATOM     43  H   UNL A   1      45.530  37.451  26.302  1.00  0.00     0.163 HD
BRANCH  42  44
ATOM     44  C   UNL A   1      47.542  37.346  25.849  1.00  0.00     0.117 C 
BRANCH  44  45
ATOM     45  C   UNL A   1      47.527  35.888  26.343  1.00  0.00     0.042 C 
BRANCH  45  46
ATOM     46  C   UNL A   1      46.242  35.150  26.058  1.00  0.00     0.118 C 
BRANCH  46  47
ATOM     47  N   UNL A   1      46.448  33.754  25.658  1.00  0.00    -0.352 N 
ATOM     48  C   UNL A   1      46.580  32.663  26.506  1.00  0.00     0.251 C 
ATOM     49  H   UNL A   1      46.498  33.573  24.692  1.00  0.00     0.163 HD
ATOM     50  O   UNL A   1      47.126  31.632  26.135  1.00  0.00    -0.269 OA
BRANCH  48  51
ATOM     51  C   UNL A   1      46.044  32.798  27.873  1.00  0.00     0.039 A 
ATOM     52  C   UNL A   1      46.858  32.919  29.001  1.00  0.00     0.014 A 
ATOM     53  C   UNL A   1      44.668  32.933  27.972  1.00  0.00     0.014 A 
ATOM     54  C   UNL A   1      46.261  33.272  30.212  1.00  0.00     0.010 A 
ATOM     55  C   UNL A   1      44.146  33.552  29.066  1.00  0.00     0.010 A 
ATOM     56  C   UNL A   1      44.901  33.616  30.227  1.00  0.00    -0.014 A 
BRANCH  56  57
ATOM     57  C   UNL A   1      44.229  34.120  31.417  1.00  0.00     0.031 A 
ATOM     58  C   UNL A   1      44.650  35.481  31.837  1.00  0.00     0.074 A 
ATOM     59  C   UNL A   1      43.150  33.495  31.947  1.00  0.00     0.049 A 
ATOM     60  N   UNL A   1      45.348  35.794  32.877  1.00  0.00    -0.248 NA
ATOM     61  C   UNL A   1      44.428  36.607  30.914  1.00  0.00     0.031 C 
ATOM     62  C   UNL A   1      42.443  32.304  31.452  1.00  0.00     0.029 A 
ATOM     63  N   UNL A   1      42.370  33.873  32.991  1.00  0.00    -0.354 N 
ATOM     64  C   UNL A   1      45.421  37.183  32.880  1.00  0.00     0.074 A 
ATOM     65  C   UNL A   1      45.051  37.601  31.554  1.00  0.00     0.031 C 
ATOM     66  C   UNL A   1      41.223  32.223  32.024  1.00  0.00     0.029 A 
ATOM     67  C   UNL A   1      41.132  33.236  33.054  1.00  0.00     0.049 A 
ATOM     68  H   UNL A   1      42.656  34.544  33.653  1.00  0.00     0.167 HD
ATOM     69  C   UNL A   1      45.516  37.876  34.050  1.00  0.00     0.037 A 
ATOM     70  C   UNL A   1      40.101  33.546  33.881  1.00  0.00     0.037 A 
ATOM     71  C   UNL A   1      45.857  36.995  35.143  1.00  0.00     0.049 A 
ATOM     72  C   UNL A   1      40.695  34.298  35.022  1.00  0.00     0.074 A 
ATOM     73  C   UNL A   1      46.899  36.120  35.390  1.00  0.00     0.029 A 
ATOM     74  N   UNL A   1      44.847  36.622  36.000  1.00  0.00    -0.354 N 
ATOM     75  N   UNL A   1      41.529  33.768  35.877  1.00  0.00    -0.248 NA
ATOM     76  C   UNL A   1      40.758  35.748  34.910  1.00  0.00     0.031 C 
ATOM     77  C   UNL A   1      46.287  34.983  35.995  1.00  0.00     0.029 A 
ATOM     78  C   UNL A   1      44.931  35.263  36.169  1.00  0.00     0.049 A 
ATOM     79  H   UNL A   1      44.186  37.222  36.417  1.00  0.00     0.167 HD
ATOM     80  C   UNL A   1      42.500  34.740  36.077  1.00  0.00     0.074 A 
ATOM     81  C   UNL A   1      41.930  35.965  35.518  1.00  0.00     0.031 C 
ATOM     82  C   UNL A   1      43.787  34.405  36.398  1.00  0.00     0.037 A 
BRANCH  69  83
ATOM     83  C   UNL A   1      44.936  39.253  34.289  1.00  0.00     0.058 A 
ATOM     84  C   UNL A   1      43.556  39.456  34.086  1.00  0.00     0.135 A 
ATOM     85  C   UNL A   1      45.708  40.427  34.431  1.00  0.00     0.135 A 
ATOM     86  F   UNL A   1      42.724  38.412  33.938  1.00  0.00    -0.206 F 
ATOM     87  C   UNL A   1      42.999  40.728  33.947  1.00  0.00     0.059 A 
ATOM     88  C   UNL A   1      45.164  41.704  34.352  1.00  0.00     0.059 A 
ATOM     89  F   UNL A   1      47.039  40.404  34.554  1.00  0.00    -0.206 F 
ATOM     90  C   UNL A   1      43.817  41.846  34.067  1.00  0.00     0.060 A 
BRANCH  90  91
ATOM     91  S   UNL A   1      43.124  43.483  33.785  1.00  0.00     0.124 S 
ATOM     92  O   UNL A   1      42.965  43.486  32.336  1.00  0.00    -0.237 OA
ATOM     93  O   UNL A   1      41.891  43.424  34.564  1.00  0.00    -0.237 OA
ATOM     94  O   UNL A   1      44.149  44.377  34.313  1.00  0.00    -0.744 OA
ENDBRANCH  90  91
ENDBRANCH  69  83
BRANCH  70  95
ATOM     95  C   UNL A   1      38.646  33.568  33.554  1.00  0.00     0.058 A 
ATOM     96  C   UNL A   1      37.677  33.385  34.558  1.00  0.00     0.135 A 
ATOM     97  C   UNL A   1      38.164  34.053  32.319  1.00  0.00     0.135 A 
ATOM     98  F   UNL A   1      38.038  32.930  35.767  1.00  0.00    -0.206 F 
ATOM     99  C   UNL A   1      36.333  33.738  34.378  1.00  0.00     0.059 A 
ATOM    100  C   UNL A   1      36.828  34.397  32.111  1.00  0.00     0.059 A 
ATOM    101  F   UNL A   1      38.994  34.299  31.295  1.00  0.00    -0.206 F 
ATOM    102  C   UNL A   1      35.923  34.271  33.157  1.00  0.00     0.060 A 
BRANCH 102 103
ATOM    103  S   UNL A   1      34.248  34.937  32.989  1.00  0.00     0.124 S 
ATOM    104  O   UNL A   1      34.189  35.887  34.094  1.00  0.00    -0.237 OA
ATOM    105  O   UNL A   1      34.280  35.517  31.651  1.00  0.00    -0.237 OA
ATOM    106  O   UNL A   1      33.399  33.757  33.132  1.00  0.00    -0.744 OA
ENDBRANCH 102 103
ENDBRANCH  70  95
BRANCH  82 107
ATOM    107  C   UNL A   1      44.087  32.983  36.810  1.00  0.00     0.058 A 
ATOM    108  C   UNL A   1      44.528  31.970  35.937  1.00  0.00     0.135 A 
ATOM    109  C   UNL A   1      44.091  32.685  38.181  1.00  0.00     0.135 A 
ATOM    110  F   UNL A   1      44.658  32.197  34.624  1.00  0.00    -0.206 F 
ATOM    111  C   UNL A   1      44.915  30.711  36.403  1.00  0.00     0.059 A 
ATOM    112  C   UNL A   1      44.504  31.449  38.670  1.00  0.00     0.059 A 
ATOM    113  F   UNL A   1      43.743  33.625  39.074  1.00  0.00    -0.206 F 
ATOM    114  C   UNL A   1      44.902  30.460  37.774  1.00  0.00     0.060 A 
BRANCH 114 115
ATOM    115  S   UNL A   1      45.468  28.856  38.384  1.00  0.00     0.124 S 
ATOM    116  O   UNL A   1      45.795  29.155  39.774  1.00  0.00    -0.237 OA
ATOM    117  O   UNL A   1      44.298  28.007  38.177  1.00  0.00    -0.237 OA
ATOM    118  O   UNL A   1      46.609  28.547  37.527  1.00  0.00    -0.744 OA
ENDBRANCH 114 115
ENDBRANCH  82 107
ENDBRANCH  56  57
ENDBRANCH  48  51
ENDBRANCH  46  47
ENDBRANCH  45  46
ENDBRANCH  44  45
ENDBRANCH  42  44
ENDBRANCH  39  40
ENDBRANCH  38  39
ENDBRANCH  37  38
ENDBRANCH   1  37
TORSDOF 28
ENDMDL
