MODEL 1
REMARK VINA RESULT:     -13.7      0.000      0.000
REMARK SMILES CC1(C)S[C@@H]2[C@H]([NH2+]Cn3nnc4ccccc43)C(=O)N2[C@@H]1C(=O)NCCCNC(=O)c1ccc(-c2c3nc(c(-c4c(F)cc(S(=O)(=O)[O-])cc4F)c4ccc([nH]4)c(-c4c(F)cc(S(=O)(=O)[O-])cc4F)c4nc(c(-c5c(F)cc(S(=O)(=O)[O-])cc5F)c5ccc2[nH]5)C=C4)C=C3)cc1
REMARK SMILES IDX 26 1 25 2 24 3 22 4 23 5 21 7 1 8 2 9 3 10 4 11 5 12 20 13
REMARK SMILES IDX 6 14 18 15 19 16 7 17 8 20 9 21 10 22 17 23 11 24 12 25
REMARK SMILES IDX 16 26 13 27 15 28 14 29 27 30 28 31 29 32 30 34 31 35 32 36
REMARK SMILES IDX 96 37 33 38 95 39 34 40 35 41 36 42 89 43 37 44 94 45 88 46
REMARK SMILES IDX 90 47 38 48 93 49 87 50 86 51 39 53 73 54 52 55 72 56 53 57
REMARK SMILES IDX 56 58 71 59 91 60 54 61 55 62 70 64 92 65 57 66 40 67 41 68
REMARK SMILES IDX 50 69 42 70 43 71 49 72 51 73 44 74 45 75 46 76 47 77 48 78
REMARK SMILES IDX 74 79 75 80 84 81 76 82 77 83 83 84 85 85 78 86 79 87 80 88
REMARK SMILES IDX 81 89 82 90 58 91 59 92 68 93 60 94 61 95 67 96 69 97 62 98
REMARK SMILES IDX 63 99 64 100 65 101 66 102
REMARK H PARENT 24 6 7 18 7 19 28 33 90 52 56 63
REMARK Flexibility Score: inf
ROOT
ATOM      1  C   UNL A   1      33.235  28.275  27.126  1.00  0.00     0.042 C 
ENDROOT
BRANCH   1   2
ATOM      2  C   UNL A   1      31.715  28.302  27.367  1.00  0.00     0.117 C 
BRANCH   2   3
ATOM      3  N   UNL A   1      31.024  27.044  27.098  1.00  0.00    -0.354 N 
ATOM      4  C   UNL A   1      31.249  26.060  26.175  1.00  0.00     0.244 C 
ATOM      5  O   UNL A   1      30.749  24.953  26.429  1.00  0.00    -0.273 OA
ATOM      6  H   UNL A   1      30.256  26.872  27.689  1.00  0.00     0.163 HD
BRANCH   4   7
ATOM      7  C   UNL A   1      32.178  26.177  24.937  1.00  0.00     0.191 C 
ATOM      8  C   UNL A   1      29.999  27.020  23.732  1.00  0.00     0.026 C 
ATOM      9  C   UNL A   1      31.503  26.750  23.646  1.00  0.00     0.042 C 
ATOM     10  C   UNL A   1      32.219  28.008  23.127  1.00  0.00     0.026 C 
ATOM     11  S   UNL A   1      31.757  25.495  22.285  1.00  0.00    -0.121 SA
ATOM     12  C   UNL A   1      33.129  24.700  23.137  1.00  0.00     0.213 C 
ATOM     13  N   UNL A   1      32.778  24.934  24.524  1.00  0.00    -0.306 N 
ATOM     14  C   UNL A   1      33.269  23.197  23.526  1.00  0.00     0.307 C 
ATOM     15  C   UNL A   1      33.441  23.890  24.995  1.00  0.00     0.285 C 
ATOM     16  O   UNL A   1      33.813  23.620  26.138  1.00  0.00    -0.268 OA
BRANCH  14  17
ATOM     17  N   UNL A   1      32.055  22.346  23.496  1.00  0.00    -0.315 N 
ATOM     18  H   UNL A   1      31.326  22.852  22.994  1.00  0.00     0.348 HD
ATOM     19  H   UNL A   1      31.814  22.155  24.469  1.00  0.00     0.348 HD
BRANCH  17  20
ATOM     20  C   UNL A   1      32.236  21.045  22.851  1.00  0.00     0.415 C 
BRANCH  20  21
ATOM     21  N   UNL A   1      32.340  20.042  23.904  1.00  0.00    -0.194 N 
ATOM     22  N   UNL A   1      32.004  20.387  25.156  1.00  0.00    -0.061 NA
ATOM     23  C   UNL A   1      32.813  18.753  23.835  1.00  0.00     0.095 A 
ATOM     24  N   UNL A   1      32.337  19.374  25.938  1.00  0.00    -0.130 NA
ATOM     25  C   UNL A   1      32.785  18.349  25.163  1.00  0.00     0.113 A 
ATOM     26  C   UNL A   1      33.283  17.916  22.814  1.00  0.00     0.030 A 
ATOM     27  C   UNL A   1      33.199  17.054  25.511  1.00  0.00     0.032 A 
ATOM     28  C   UNL A   1      33.741  16.643  23.191  1.00  0.00     0.002 A 
ATOM     29  C   UNL A   1      33.694  16.213  24.517  1.00  0.00     0.002 A 
ENDBRANCH  20  21
ENDBRANCH  17  20
ENDBRANCH  14  17
ENDBRANCH   4   7
ENDBRANCH   2   3
ENDBRANCH   1   2
BRANCH   1  30
ATOM     30  C   UNL A   1      33.850  29.463  26.387  1.00  0.00     0.118 C 
BRANCH  30  31
ATOM     31  N   UNL A   1      33.854  30.712  27.128  1.00  0.00    -0.352 N 
ATOM     32  C   UNL A   1      34.841  31.511  27.647  1.00  0.00     0.251 C 
ATOM     33  H   UNL A   1      32.949  31.061  27.295  1.00  0.00     0.163 HD
ATOM     34  O   UNL A   1      34.573  32.718  27.669  1.00  0.00    -0.269 OA
BRANCH  32  35
ATOM     35  C   UNL A   1      36.104  31.050  28.299  1.00  0.00     0.039 A 
ATOM     36  C   UNL A   1      37.096  31.860  28.846  1.00  0.00     0.014 A 
ATOM     37  C   UNL A   1      36.367  29.665  28.182  1.00  0.00     0.014 A 
ATOM     38  C   UNL A   1      38.358  31.315  29.135  1.00  0.00     0.010 A 
ATOM     39  C   UNL A   1      37.632  29.130  28.431  1.00  0.00     0.010 A 
ATOM     40  C   UNL A   1      38.661  29.974  28.828  1.00  0.00    -0.014 A 
BRANCH  40  41
ATOM     41  C   UNL A   1      40.048  29.496  28.979  1.00  0.00     0.031 A 
ATOM     42  C   UNL A   1      40.518  29.445  30.388  1.00  0.00     0.074 A 
ATOM     43  C   UNL A   1      40.844  29.004  27.999  1.00  0.00     0.049 A 
ATOM     44  N   UNL A   1      41.508  30.078  30.930  1.00  0.00    -0.248 NA
ATOM     45  C   UNL A   1      39.708  28.668  31.337  1.00  0.00     0.031 C 
ATOM     46  C   UNL A   1      40.498  28.727  26.607  1.00  0.00     0.029 A 
ATOM     47  N   UNL A   1      42.136  28.545  28.069  1.00  0.00    -0.354 N 
ATOM     48  C   UNL A   1      41.558  29.646  32.251  1.00  0.00     0.074 A 
ATOM     49  C   UNL A   1      40.347  28.900  32.482  1.00  0.00     0.031 C 
ATOM     50  C   UNL A   1      41.448  27.954  26.038  1.00  0.00     0.029 A 
ATOM     51  C   UNL A   1      42.525  27.756  26.988  1.00  0.00     0.049 A 
ATOM     52  H   UNL A   1      42.738  28.757  28.819  1.00  0.00     0.167 HD
ATOM     53  C   UNL A   1      42.682  29.765  33.010  1.00  0.00     0.037 A 
ATOM     54  C   UNL A   1      43.605  26.933  26.900  1.00  0.00     0.037 A 
ATOM     55  C   UNL A   1      43.613  30.707  32.446  1.00  0.00     0.049 A 
ATOM     56  C   UNL A   1      44.594  27.396  27.908  1.00  0.00     0.074 A 
ATOM     57  C   UNL A   1      43.553  32.049  32.119  1.00  0.00     0.029 A 
ATOM     58  N   UNL A   1      44.735  30.224  31.818  1.00  0.00    -0.354 N 
ATOM     59  N   UNL A   1      45.247  28.524  27.830  1.00  0.00    -0.248 NA
ATOM     60  C   UNL A   1      44.519  26.809  29.237  1.00  0.00     0.031 C 
ATOM     61  C   UNL A   1      44.332  32.175  30.934  1.00  0.00     0.029 A 
ATOM     62  C   UNL A   1      44.859  30.918  30.641  1.00  0.00     0.049 A 
ATOM     63  H   UNL A   1      45.336  29.516  32.149  1.00  0.00     0.167 HD
ATOM     64  C   UNL A   1      45.279  29.002  29.133  1.00  0.00     0.074 A 
ATOM     65  C   UNL A   1      44.889  27.864  29.965  1.00  0.00     0.031 C 
ATOM     66  C   UNL A   1      45.343  30.338  29.407  1.00  0.00     0.037 A 
BRANCH  53  67
ATOM     67  C   UNL A   1      43.079  28.791  34.088  1.00  0.00     0.058 A 
ATOM     68  C   UNL A   1      43.218  27.425  33.772  1.00  0.00     0.135 A 
ATOM     69  C   UNL A   1      43.038  29.100  35.466  1.00  0.00     0.135 A 
ATOM     70  F   UNL A   1      43.265  27.020  32.491  1.00  0.00    -0.206 F 
ATOM     71  C   UNL A   1      43.230  26.431  34.750  1.00  0.00     0.059 A 
ATOM     72  C   UNL A   1      43.106  28.130  36.459  1.00  0.00     0.059 A 
ATOM     73  F   UNL A   1      42.827  30.343  35.913  1.00  0.00    -0.206 F 
ATOM     74  C   UNL A   1      43.150  26.796  36.091  1.00  0.00     0.060 A 
BRANCH  74  75
ATOM     75  S   UNL A   1      43.010  25.514  37.347  1.00  0.00     0.124 S 
ATOM     76  O   UNL A   1      43.983  24.536  36.873  1.00  0.00    -0.237 OA
ATOM     77  O   UNL A   1      43.371  26.239  38.561  1.00  0.00    -0.237 OA
ATOM     78  O   UNL A   1      41.611  25.108  37.260  1.00  0.00    -0.744 OA
ENDBRANCH  74  75
ENDBRANCH  53  67
BRANCH  54  79
ATOM     79  C   UNL A   1      43.665  25.582  26.260  1.00  0.00     0.058 A 
ATOM     80  C   UNL A   1      44.583  25.282  25.234  1.00  0.00     0.135 A 
ATOM     81  C   UNL A   1      42.995  24.471  26.818  1.00  0.00     0.135 A 
ATOM     82  F   UNL A   1      45.295  26.261  24.656  1.00  0.00    -0.206 F 
ATOM     83  C   UNL A   1      44.844  23.965  24.817  1.00  0.00     0.059 A 
ATOM     84  C   UNL A   1      43.226  23.158  26.409  1.00  0.00     0.059 A 
ATOM     85  F   UNL A   1      42.153  24.610  27.851  1.00  0.00    -0.206 F 
ATOM     86  C   UNL A   1      44.169  22.907  25.424  1.00  0.00     0.060 A 
BRANCH  86  87
ATOM     87  S   UNL A   1      44.599  21.199  25.005  1.00  0.00     0.124 S 
ATOM     88  O   UNL A   1      44.698  21.258  23.552  1.00  0.00    -0.237 OA
ATOM     89  O   UNL A   1      45.854  21.012  25.724  1.00  0.00    -0.237 OA
ATOM     90  O   UNL A   1      43.469  20.429  25.519  1.00  0.00    -0.744 OA
ENDBRANCH  86  87
ENDBRANCH  54  79
BRANCH  66  91
ATOM     91  C   UNL A   1      45.666  31.308  28.300  1.00  0.00     0.058 A 
ATOM     92  C   UNL A   1      44.738  31.748  27.339  1.00  0.00     0.135 A 
ATOM     93  C   UNL A   1      46.903  31.973  28.345  1.00  0.00     0.135 A 
ATOM     94  F   UNL A   1      43.502  31.234  27.286  1.00  0.00    -0.206 F 
ATOM     95  C   UNL A   1      45.033  32.790  26.456  1.00  0.00     0.059 A 
ATOM     96  C   UNL A   1      47.207  33.034  27.494  1.00  0.00     0.059 A 
ATOM     97  F   UNL A   1      47.814  31.637  29.274  1.00  0.00    -0.206 F 
ATOM     98  C   UNL A   1      46.265  33.437  26.551  1.00  0.00     0.060 A 
BRANCH  98  99
ATOM     99  S   UNL A   1      46.588  34.866  25.493  1.00  0.00     0.124 S 
ATOM    100  O   UNL A   1      47.999  34.695  25.163  1.00  0.00    -0.237 OA
ATOM    101  O   UNL A   1      45.651  34.666  24.390  1.00  0.00    -0.237 OA
ATOM    102  O   UNL A   1      46.283  36.007  26.353  1.00  0.00    -0.744 OA
ENDBRANCH  98  99
ENDBRANCH  66  91
ENDBRANCH  40  41
ENDBRANCH  32  35
ENDBRANCH  30  31
ENDBRANCH   1  30
TORSDOF 16
ENDMDL
MODEL 2
REMARK VINA RESULT:     -13.3      1.565      2.145
REMARK SMILES CC1(C)S[C@@H]2[C@H]([NH2+]Cn3nnc4ccccc43)C(=O)N2[C@@H]1C(=O)NCCCNC(=O)c1ccc(-c2c3nc(c(-c4c(F)cc(S(=O)(=O)[O-])cc4F)c4ccc([nH]4)c(-c4c(F)cc(S(=O)(=O)[O-])cc4F)c4nc(c(-c5c(F)cc(S(=O)(=O)[O-])cc5F)c5ccc2[nH]5)C=C4)C=C3)cc1
REMARK SMILES IDX 26 1 25 2 24 3 22 4 23 5 21 7 1 8 2 9 3 10 4 11 5 12 20 13
REMARK SMILES IDX 6 14 18 15 19 16 7 17 8 20 9 21 10 22 17 23 11 24 12 25
REMARK SMILES IDX 16 26 13 27 15 28 14 29 27 30 28 31 29 32 30 34 31 35 32 36
REMARK SMILES IDX 96 37 33 38 95 39 34 40 35 41 36 42 89 43 37 44 94 45 88 46
REMARK SMILES IDX 90 47 38 48 93 49 87 50 86 51 39 53 73 54 52 55 72 56 53 57
REMARK SMILES IDX 56 58 71 59 91 60 54 61 55 62 70 64 92 65 57 66 40 67 41 68
REMARK SMILES IDX 50 69 42 70 43 71 49 72 51 73 44 74 45 75 46 76 47 77 48 78
REMARK SMILES IDX 74 79 75 80 84 81 76 82 77 83 83 84 85 85 78 86 79 87 80 88
REMARK SMILES IDX 81 89 82 90 58 91 59 92 68 93 60 94 61 95 67 96 69 97 62 98
REMARK SMILES IDX 63 99 64 100 65 101 66 102
REMARK H PARENT 24 6 7 18 7 19 28 33 90 52 56 63
REMARK Flexibility Score: inf
ROOT
ATOM      1  C   UNL A   1      33.666  27.910  26.518  1.00  0.00     0.042 C 
ENDROOT
BRANCH   1   2
ATOM      2  C   UNL A   1      33.588  26.836  25.418  1.00  0.00     0.117 C 
BRANCH   2   3
ATOM      3  N   UNL A   1      33.903  27.306  24.071  1.00  0.00    -0.354 N 
ATOM      4  C   UNL A   1      33.124  27.477  22.960  1.00  0.00     0.244 C 
ATOM      5  O   UNL A   1      33.577  28.240  22.092  1.00  0.00    -0.273 OA
ATOM      6  H   UNL A   1      34.849  27.545  23.939  1.00  0.00     0.163 HD
BRANCH   4   7
ATOM      7  C   UNL A   1      31.688  26.920  22.770  1.00  0.00     0.191 C 
ATOM      8  C   UNL A   1      31.021  28.862  24.412  1.00  0.00     0.026 C 
ATOM      9  C   UNL A   1      30.560  27.712  23.513  1.00  0.00     0.042 C 
ATOM     10  C   UNL A   1      29.477  28.222  22.548  1.00  0.00     0.026 C 
ATOM     11  S   UNL A   1      29.653  26.495  24.602  1.00  0.00    -0.121 SA
ATOM     12  C   UNL A   1      30.240  25.071  23.669  1.00  0.00     0.213 C 
ATOM     13  N   UNL A   1      31.520  25.552  23.189  1.00  0.00    -0.306 N 
ATOM     14  C   UNL A   1      31.016  23.831  24.208  1.00  0.00     0.307 C 
ATOM     15  C   UNL A   1      32.063  24.352  23.068  1.00  0.00     0.285 C 
ATOM     16  O   UNL A   1      33.058  23.976  22.445  1.00  0.00    -0.268 OA
BRANCH  14  17
ATOM     17  N   UNL A   1      31.634  23.917  25.553  1.00  0.00    -0.315 N 
ATOM     18  H   UNL A   1      31.034  24.494  26.142  1.00  0.00     0.348 HD
ATOM     19  H   UNL A   1      32.564  24.314  25.418  1.00  0.00     0.348 HD
BRANCH  17  20
ATOM     20  C   UNL A   1      31.827  22.630  26.221  1.00  0.00     0.415 C 
BRANCH  20  21
ATOM     21  N   UNL A   1      32.988  21.989  25.615  1.00  0.00    -0.194 N 
ATOM     22  N   UNL A   1      32.829  20.792  25.029  1.00  0.00    -0.061 NA
ATOM     23  C   UNL A   1      34.301  22.397  25.603  1.00  0.00     0.095 A 
ATOM     24  N   UNL A   1      34.035  20.356  24.710  1.00  0.00    -0.130 NA
ATOM     25  C   UNL A   1      34.946  21.325  25.001  1.00  0.00     0.113 A 
ATOM     26  C   UNL A   1      35.000  23.522  26.060  1.00  0.00     0.030 A 
ATOM     27  C   UNL A   1      36.333  21.366  24.798  1.00  0.00     0.032 A 
ATOM     28  C   UNL A   1      36.394  23.519  25.894  1.00  0.00     0.002 A 
ATOM     29  C   UNL A   1      37.053  22.462  25.266  1.00  0.00     0.002 A 
ENDBRANCH  20  21
ENDBRANCH  17  20
ENDBRANCH  14  17
ENDBRANCH   4   7
ENDBRANCH   2   3
ENDBRANCH   1   2
BRANCH   1  30
ATOM     30  C   UNL A   1      34.136  29.305  26.107  1.00  0.00     0.118 C 
BRANCH  30  31
ATOM     31  N   UNL A   1      33.874  30.352  27.078  1.00  0.00    -0.352 N 
ATOM     32  C   UNL A   1      34.669  31.198  27.809  1.00  0.00     0.251 C 
ATOM     33  H   UNL A   1      32.913  30.482  27.250  1.00  0.00     0.163 HD
ATOM     34  O   UNL A   1      34.168  32.302  28.050  1.00  0.00    -0.269 OA
BRANCH  32  35
ATOM     35  C   UNL A   1      35.980  30.858  28.439  1.00  0.00     0.039 A 
ATOM     36  C   UNL A   1      37.006  31.749  28.744  1.00  0.00     0.014 A 
ATOM     37  C   UNL A   1      36.241  29.474  28.571  1.00  0.00     0.014 A 
ATOM     38  C   UNL A   1      38.290  31.258  29.036  1.00  0.00     0.010 A 
ATOM     39  C   UNL A   1      37.525  28.985  28.821  1.00  0.00     0.010 A 
ATOM     40  C   UNL A   1      38.576  29.880  28.970  1.00  0.00    -0.014 A 
BRANCH  40  41
ATOM     41  C   UNL A   1      39.973  29.427  29.105  1.00  0.00     0.031 A 
ATOM     42  C   UNL A   1      40.467  29.401  30.507  1.00  0.00     0.074 A 
ATOM     43  C   UNL A   1      40.761  28.935  28.118  1.00  0.00     0.049 A 
ATOM     44  N   UNL A   1      41.454  30.057  31.025  1.00  0.00    -0.248 NA
ATOM     45  C   UNL A   1      39.685  28.623  31.477  1.00  0.00     0.031 C 
ATOM     46  C   UNL A   1      40.398  28.635  26.735  1.00  0.00     0.029 A 
ATOM     47  N   UNL A   1      42.062  28.499  28.173  1.00  0.00    -0.354 N 
ATOM     48  C   UNL A   1      41.533  29.643  32.350  1.00  0.00     0.074 A 
ATOM     49  C   UNL A   1      40.338  28.880  32.610  1.00  0.00     0.031 C 
ATOM     50  C   UNL A   1      41.351  27.871  26.161  1.00  0.00     0.029 A 
ATOM     51  C   UNL A   1      42.446  27.702  27.095  1.00  0.00     0.049 A 
ATOM     52  H   UNL A   1      42.672  28.730  28.911  1.00  0.00     0.167 HD
ATOM     53  C   UNL A   1      42.666  29.790  33.089  1.00  0.00     0.037 A 
ATOM     54  C   UNL A   1      43.539  26.896  27.000  1.00  0.00     0.037 A 
ATOM     55  C   UNL A   1      43.572  30.740  32.498  1.00  0.00     0.049 A 
ATOM     56  C   UNL A   1      44.535  27.388  27.986  1.00  0.00     0.074 A 
ATOM     57  C   UNL A   1      43.484  32.076  32.155  1.00  0.00     0.029 A 
ATOM     58  N   UNL A   1      44.692  30.267  31.858  1.00  0.00    -0.354 N 
ATOM     59  N   UNL A   1      45.168  28.525  27.884  1.00  0.00    -0.248 NA
ATOM     60  C   UNL A   1      44.492  26.817  29.324  1.00  0.00     0.031 C 
ATOM     61  C   UNL A   1      44.242  32.201  30.957  1.00  0.00     0.029 A 
ATOM     62  C   UNL A   1      44.786  30.948  30.671  1.00  0.00     0.049 A 
ATOM     63  H   UNL A   1      45.309  29.574  32.188  1.00  0.00     0.167 HD
ATOM     64  C   UNL A   1      45.213  29.020  29.180  1.00  0.00     0.074 A 
ATOM     65  C   UNL A   1      44.855  27.887  30.032  1.00  0.00     0.031 C 
ATOM     66  C   UNL A   1      45.259  30.360  29.437  1.00  0.00     0.037 A 
BRANCH  53  67
ATOM     67  C   UNL A   1      43.096  28.836  34.172  1.00  0.00     0.058 A 
ATOM     68  C   UNL A   1      43.260  27.470  33.869  1.00  0.00     0.135 A 
ATOM     69  C   UNL A   1      43.066  29.160  35.548  1.00  0.00     0.135 A 
ATOM     70  F   UNL A   1      43.299  27.052  32.593  1.00  0.00    -0.206 F 
ATOM     71  C   UNL A   1      43.304  26.488  34.858  1.00  0.00     0.059 A 
ATOM     72  C   UNL A   1      43.166  28.203  36.550  1.00  0.00     0.059 A 
ATOM     73  F   UNL A   1      42.834  30.403  35.983  1.00  0.00    -0.206 F 
ATOM     74  C   UNL A   1      43.233  26.865  36.196  1.00  0.00     0.060 A 
BRANCH  74  75
ATOM     75  S   UNL A   1      43.135  25.596  37.467  1.00  0.00     0.124 S 
ATOM     76  O   UNL A   1      41.729  25.216  37.390  1.00  0.00    -0.237 OA
ATOM     77  O   UNL A   1      44.093  24.607  36.982  1.00  0.00    -0.237 OA
ATOM     78  O   UNL A   1      43.533  26.302  38.681  1.00  0.00    -0.744 OA
ENDBRANCH  74  75
ENDBRANCH  53  67
BRANCH  54  79
ATOM     79  C   UNL A   1      43.611  25.539  26.376  1.00  0.00     0.058 A 
ATOM     80  C   UNL A   1      44.477  25.255  25.302  1.00  0.00     0.135 A 
ATOM     81  C   UNL A   1      43.016  24.413  26.988  1.00  0.00     0.135 A 
ATOM     82  F   UNL A   1      45.117  26.251  24.670  1.00  0.00    -0.206 F 
ATOM     83  C   UNL A   1      44.762  23.942  24.888  1.00  0.00     0.059 A 
ATOM     84  C   UNL A   1      43.271  23.102  26.584  1.00  0.00     0.059 A 
ATOM     85  F   UNL A   1      42.232  24.538  28.067  1.00  0.00    -0.206 F 
ATOM     86  C   UNL A   1      44.163  22.871  25.549  1.00  0.00     0.060 A 
BRANCH  86  87
ATOM     87  S   UNL A   1      44.630  21.173  25.128  1.00  0.00     0.124 S 
ATOM     88  O   UNL A   1      45.965  21.072  25.707  1.00  0.00    -0.237 OA
ATOM     89  O   UNL A   1      43.588  20.395  25.788  1.00  0.00    -0.237 OA
ATOM     90  O   UNL A   1      44.585  21.160  23.668  1.00  0.00    -0.744 OA
ENDBRANCH  86  87
ENDBRANCH  54  79
BRANCH  66  91
ATOM     91  C   UNL A   1      45.549  31.322  28.312  1.00  0.00     0.058 A 
ATOM     92  C   UNL A   1      44.614  31.692  27.329  1.00  0.00     0.135 A 
ATOM     93  C   UNL A   1      46.749  32.050  28.359  1.00  0.00     0.135 A 
ATOM     94  F   UNL A   1      43.406  31.115  27.271  1.00  0.00    -0.206 F 
ATOM     95  C   UNL A   1      44.868  32.729  26.427  1.00  0.00     0.059 A 
ATOM     96  C   UNL A   1      47.011  33.107  27.489  1.00  0.00     0.059 A 
ATOM     97  F   UNL A   1      47.662  31.782  29.307  1.00  0.00    -0.206 F 
ATOM     98  C   UNL A   1      46.063  33.440  26.524  1.00  0.00     0.060 A 
BRANCH  98  99
ATOM     99  S   UNL A   1      46.328  34.860  25.439  1.00  0.00     0.124 S 
ATOM    100  O   UNL A   1      47.741  34.731  25.097  1.00  0.00    -0.237 OA
ATOM    101  O   UNL A   1      45.388  34.610  24.349  1.00  0.00    -0.237 OA
ATOM    102  O   UNL A   1      45.994  36.005  26.282  1.00  0.00    -0.744 OA
ENDBRANCH  98  99
ENDBRANCH  66  91
ENDBRANCH  40  41
ENDBRANCH  32  35
ENDBRANCH  30  31
ENDBRANCH   1  30
TORSDOF 16
ENDMDL
MODEL 3
REMARK VINA RESULT:     -13.1      3.219      9.844
REMARK SMILES CC1(C)S[C@@H]2[C@H]([NH2+]Cn3nnc4ccccc43)C(=O)N2[C@@H]1C(=O)NCCCNC(=O)c1ccc(-c2c3nc(c(-c4c(F)cc(S(=O)(=O)[O-])cc4F)c4ccc([nH]4)c(-c4c(F)cc(S(=O)(=O)[O-])cc4F)c4nc(c(-c5c(F)cc(S(=O)(=O)[O-])cc5F)c5ccc2[nH]5)C=C4)C=C3)cc1
REMARK SMILES IDX 26 1 25 2 24 3 22 4 23 5 21 7 1 8 2 9 3 10 4 11 5 12 20 13
REMARK SMILES IDX 6 14 18 15 19 16 7 17 8 20 9 21 10 22 17 23 11 24 12 25
REMARK SMILES IDX 16 26 13 27 15 28 14 29 27 30 28 31 29 32 30 34 31 35 32 36
REMARK SMILES IDX 96 37 33 38 95 39 34 40 35 41 36 42 89 43 37 44 94 45 88 46
REMARK SMILES IDX 90 47 38 48 93 49 87 50 86 51 39 53 73 54 52 55 72 56 53 57
REMARK SMILES IDX 56 58 71 59 91 60 54 61 55 62 70 64 92 65 57 66 40 67 41 68
REMARK SMILES IDX 50 69 42 70 43 71 49 72 51 73 44 74 45 75 46 76 47 77 48 78
REMARK SMILES IDX 74 79 75 80 84 81 76 82 77 83 83 84 85 85 78 86 79 87 80 88
REMARK SMILES IDX 81 89 82 90 58 91 59 92 68 93 60 94 61 95 67 96 69 97 62 98
REMARK SMILES IDX 63 99 64 100 65 101 66 102
REMARK H PARENT 24 6 7 18 7 19 28 33 90 52 56 63
REMARK Flexibility Score: inf
ROOT
ATOM      1  C   UNL A   1      36.440  21.812  24.389  1.00  0.00     0.042 C 
ENDROOT
BRANCH   1   2
ATOM      2  C   UNL A   1      34.936  22.121  24.500  1.00  0.00     0.117 C 
BRANCH   2   3
ATOM      3  N   UNL A   1      34.451  23.167  23.604  1.00  0.00    -0.354 N 
ATOM      4  C   UNL A   1      33.607  24.224  23.810  1.00  0.00     0.244 C 
ATOM      5  O   UNL A   1      33.682  25.146  22.984  1.00  0.00    -0.273 OA
ATOM      6  H   UNL A   1      34.795  23.101  22.684  1.00  0.00     0.163 HD
BRANCH   4   7
ATOM      7  C   UNL A   1      32.690  24.419  25.046  1.00  0.00     0.191 C 
ATOM      8  C   UNL A   1      30.781  23.685  23.393  1.00  0.00     0.026 C 
ATOM      9  C   UNL A   1      31.180  24.070  24.820  1.00  0.00     0.042 C 
ATOM     10  C   UNL A   1      30.682  22.993  25.798  1.00  0.00     0.026 C 
ATOM     11  S   UNL A   1      30.186  25.585  25.277  1.00  0.00    -0.121 SA
ATOM     12  C   UNL A   1      31.522  26.287  26.260  1.00  0.00     0.213 C 
ATOM     13  N   UNL A   1      32.687  25.758  25.579  1.00  0.00    -0.306 N 
ATOM     14  C   UNL A   1      32.186  27.689  26.105  1.00  0.00     0.307 C 
ATOM     15  C   UNL A   1      33.500  26.731  25.957  1.00  0.00     0.285 C 
ATOM     16  O   UNL A   1      34.731  26.792  25.970  1.00  0.00    -0.268 OA
BRANCH  14  17
ATOM     17  N   UNL A   1      31.954  28.443  24.849  1.00  0.00    -0.315 N 
ATOM     18  H   UNL A   1      31.595  27.793  24.151  1.00  0.00     0.348 HD
ATOM     19  H   UNL A   1      32.851  28.855  24.591  1.00  0.00     0.348 HD
BRANCH  17  20
ATOM     20  C   UNL A   1      31.009  29.553  24.969  1.00  0.00     0.415 C 
BRANCH  20  21
ATOM     21  N   UNL A   1      30.265  29.636  23.718  1.00  0.00    -0.194 N 
ATOM     22  N   UNL A   1      30.350  28.615  22.851  1.00  0.00    -0.061 NA
ATOM     23  C   UNL A   1      29.505  30.669  23.222  1.00  0.00     0.095 A 
ATOM     24  N   UNL A   1      29.733  28.996  21.745  1.00  0.00    -0.130 NA
ATOM     25  C   UNL A   1      29.169  30.217  21.954  1.00  0.00     0.113 A 
ATOM     26  C   UNL A   1      29.105  31.928  23.692  1.00  0.00     0.030 A 
ATOM     27  C   UNL A   1      28.371  31.010  21.115  1.00  0.00     0.032 A 
ATOM     28  C   UNL A   1      28.352  32.727  22.817  1.00  0.00     0.002 A 
ATOM     29  C   UNL A   1      27.982  32.275  21.550  1.00  0.00     0.002 A 
ENDBRANCH  20  21
ENDBRANCH  17  20
ENDBRANCH  14  17
ENDBRANCH   4   7
ENDBRANCH   2   3
ENDBRANCH   1   2
BRANCH   1  30
ATOM     30  C   UNL A   1      37.401  22.709  25.169  1.00  0.00     0.118 C 
BRANCH  30  31
ATOM     31  N   UNL A   1      38.605  22.052  25.644  1.00  0.00    -0.352 N 
ATOM     32  C   UNL A   1      39.525  22.334  26.621  1.00  0.00     0.251 C 
ATOM     33  H   UNL A   1      38.804  21.220  25.156  1.00  0.00     0.163 HD
ATOM     34  O   UNL A   1      40.038  21.342  27.153  1.00  0.00    -0.269 OA
BRANCH  32  35
ATOM     35  C   UNL A   1      40.049  23.686  26.981  1.00  0.00     0.039 A 
ATOM     36  C   UNL A   1      41.290  23.968  27.548  1.00  0.00     0.014 A 
ATOM     37  C   UNL A   1      39.109  24.738  26.884  1.00  0.00     0.014 A 
ATOM     38  C   UNL A   1      41.522  25.229  28.121  1.00  0.00     0.010 A 
ATOM     39  C   UNL A   1      39.323  25.978  27.488  1.00  0.00     0.010 A 
ATOM     40  C   UNL A   1      40.503  26.199  28.186  1.00  0.00    -0.014 A 
BRANCH  40  41
ATOM     41  C   UNL A   1      40.734  27.436  28.956  1.00  0.00     0.031 A 
ATOM     42  C   UNL A   1      41.859  28.263  28.445  1.00  0.00     0.074 A 
ATOM     43  C   UNL A   1      39.963  27.919  29.960  1.00  0.00     0.049 A 
ATOM     44  N   UNL A   1      42.944  28.612  29.056  1.00  0.00    -0.248 NA
ATOM     45  C   UNL A   1      41.810  28.660  27.031  1.00  0.00     0.031 C 
ATOM     46  C   UNL A   1      38.683  27.406  30.443  1.00  0.00     0.029 A 
ATOM     47  N   UNL A   1      40.118  29.055  30.715  1.00  0.00    -0.354 N 
ATOM     48  C   UNL A   1      43.640  29.421  28.165  1.00  0.00     0.074 A 
ATOM     49  C   UNL A   1      42.973  29.294  26.894  1.00  0.00     0.031 C 
ATOM     50  C   UNL A   1      38.079  28.328  31.224  1.00  0.00     0.029 A 
ATOM     51  C   UNL A   1      38.965  29.464  31.383  1.00  0.00     0.049 A 
ATOM     52  H   UNL A   1      40.973  29.540  30.779  1.00  0.00     0.167 HD
ATOM     53  C   UNL A   1      44.601  30.292  28.577  1.00  0.00     0.037 A 
ATOM     54  C   UNL A   1      38.716  30.672  31.956  1.00  0.00     0.037 A 
ATOM     55  C   UNL A   1      45.066  29.990  29.905  1.00  0.00     0.049 A 
ATOM     56  C   UNL A   1      40.030  31.307  32.233  1.00  0.00     0.074 A 
ATOM     57  C   UNL A   1      45.651  28.887  30.498  1.00  0.00     0.029 A 
ATOM     58  N   UNL A   1      44.653  30.791  30.942  1.00  0.00    -0.354 N 
ATOM     59  N   UNL A   1      40.876  30.879  33.130  1.00  0.00    -0.248 NA
ATOM     60  C   UNL A   1      40.597  32.154  31.194  1.00  0.00     0.031 C 
ATOM     61  C   UNL A   1      45.114  28.847  31.815  1.00  0.00     0.029 A 
ATOM     62  C   UNL A   1      44.277  29.954  31.962  1.00  0.00     0.049 A 
ATOM     63  H   UNL A   1      44.631  31.776  30.952  1.00  0.00     0.167 HD
ATOM     64  C   UNL A   1      42.122  31.026  32.536  1.00  0.00     0.074 A 
ATOM     65  C   UNL A   1      41.892  31.892  31.380  1.00  0.00     0.031 C 
ATOM     66  C   UNL A   1      43.174  30.217  32.859  1.00  0.00     0.037 A 
BRANCH  53  67
ATOM     67  C   UNL A   1      44.888  31.609  27.905  1.00  0.00     0.058 A 
ATOM     68  C   UNL A   1      46.154  31.833  27.328  1.00  0.00     0.135 A 
ATOM     69  C   UNL A   1      44.076  32.755  28.064  1.00  0.00     0.135 A 
ATOM     70  F   UNL A   1      47.008  30.814  27.134  1.00  0.00    -0.206 F 
ATOM     71  C   UNL A   1      46.613  33.112  27.013  1.00  0.00     0.059 A 
ATOM     72  C   UNL A   1      44.491  34.030  27.703  1.00  0.00     0.059 A 
ATOM     73  F   UNL A   1      42.885  32.706  28.671  1.00  0.00    -0.206 F 
ATOM     74  C   UNL A   1      45.780  34.206  27.227  1.00  0.00     0.060 A 
BRANCH  74  75
ATOM     75  S   UNL A   1      46.421  35.868  26.966  1.00  0.00     0.124 S 
ATOM     76  O   UNL A   1      47.545  35.893  27.895  1.00  0.00    -0.237 OA
ATOM     77  O   UNL A   1      46.762  35.842  25.547  1.00  0.00    -0.237 OA
ATOM     78  O   UNL A   1      45.292  36.723  27.318  1.00  0.00    -0.744 OA
ENDBRANCH  74  75
ENDBRANCH  53  67
BRANCH  54  79
ATOM     79  C   UNL A   1      37.429  31.436  31.936  1.00  0.00     0.058 A 
ATOM     80  C   UNL A   1      36.738  31.767  33.118  1.00  0.00     0.135 A 
ATOM     81  C   UNL A   1      36.976  32.086  30.767  1.00  0.00     0.135 A 
ATOM     82  F   UNL A   1      37.108  31.229  34.290  1.00  0.00    -0.206 F 
ATOM     83  C   UNL A   1      35.694  32.707  33.143  1.00  0.00     0.059 A 
ATOM     84  C   UNL A   1      35.930  33.010  30.765  1.00  0.00     0.059 A 
ATOM     85  F   UNL A   1      37.594  31.918  29.590  1.00  0.00    -0.206 F 
ATOM     86  C   UNL A   1      35.308  33.336  31.960  1.00  0.00     0.060 A 
BRANCH  86  87
ATOM     87  S   UNL A   1      34.068  34.654  31.997  1.00  0.00     0.124 S 
ATOM     88  O   UNL A   1      34.856  35.801  32.433  1.00  0.00    -0.237 OA
ATOM     89  O   UNL A   1      33.609  34.683  30.613  1.00  0.00    -0.237 OA
ATOM     90  O   UNL A   1      33.088  34.171  32.966  1.00  0.00    -0.744 OA
ENDBRANCH  86  87
ENDBRANCH  54  79
BRANCH  66  91
ATOM     91  C   UNL A   1      43.081  29.331  34.075  1.00  0.00     0.058 A 
ATOM     92  C   UNL A   1      42.442  28.078  34.093  1.00  0.00     0.135 A 
ATOM     93  C   UNL A   1      43.848  29.673  35.202  1.00  0.00     0.135 A 
ATOM     94  F   UNL A   1      41.767  27.632  33.025  1.00  0.00    -0.206 F 
ATOM     95  C   UNL A   1      42.551  27.213  35.185  1.00  0.00     0.059 A 
ATOM     96  C   UNL A   1      43.995  28.813  36.288  1.00  0.00     0.059 A 
ATOM     97  F   UNL A   1      44.527  30.832  35.227  1.00  0.00    -0.206 F 
ATOM     98  C   UNL A   1      43.342  27.583  36.272  1.00  0.00     0.060 A 
BRANCH  98  99
ATOM     99  S   UNL A   1      43.581  26.406  37.622  1.00  0.00     0.124 S 
ATOM    100  O   UNL A   1      42.222  26.221  38.118  1.00  0.00    -0.237 OA
ATOM    101  O   UNL A   1      44.169  25.254  36.942  1.00  0.00    -0.237 OA
ATOM    102  O   UNL A   1      44.487  27.104  38.531  1.00  0.00    -0.744 OA
ENDBRANCH  98  99
ENDBRANCH  66  91
ENDBRANCH  40  41
ENDBRANCH  32  35
ENDBRANCH  30  31
ENDBRANCH   1  30
TORSDOF 16
ENDMDL
