MODEL 1
REMARK VINA RESULT:     -12.9      0.000      0.000
REMARK SMILES COc1cc([C@H]2[NH2+]CCC3=c4ccccc4=N[C@@H]32)ccc1OCC(=O)NCCCNC(=O)c1ccc(-c2c3nc(c(-c4c(F)cc(S(=O)(=O)[O-])cc4F)c4ccc([nH]4)c(-c4c(F)cc(S(=O)(=O)[O-])cc4F)c4nc(c(-c5c(F)cc(S(=O)(=O)[O-])cc5F)c5ccc2[nH]5)C=C4)C=C3)cc1
REMARK SMILES IDX 28 1 27 2 26 3 24 4 25 5 23 7 22 8 21 9 3 10 4 11 5 12 20 13
REMARK SMILES IDX 19 14 2 15 1 16 6 17 7 18 18 19 8 20 10 23 17 24 9 25 11 26
REMARK SMILES IDX 16 27 12 28 15 29 13 30 14 31 29 32 30 33 31 34 32 36 33 37
REMARK SMILES IDX 34 38 98 39 35 40 97 41 36 42 37 43 38 44 91 45 39 46 96 47
REMARK SMILES IDX 90 48 92 49 40 50 95 51 89 52 88 53 41 55 75 56 54 57 74 58
REMARK SMILES IDX 55 59 58 60 73 61 93 62 56 63 57 64 72 66 94 67 59 68 42 69
REMARK SMILES IDX 43 70 52 71 44 72 45 73 51 74 53 75 46 76 47 77 48 78 49 79
REMARK SMILES IDX 50 80 76 81 77 82 86 83 78 84 79 85 85 86 87 87 80 88 81 89
REMARK SMILES IDX 82 90 83 91 84 92 60 93 61 94 70 95 62 96 63 97 69 98 71 99
REMARK SMILES IDX 64 100 65 101 66 102 67 103 68 104
REMARK H PARENT 26 6 7 21 7 22 30 35 92 54 58 65
REMARK Flexibility Score: inf
ROOT
ATOM      1  C   UNL A   1      42.254  22.451  28.151  1.00  0.00     0.042 C 
ENDROOT
BRANCH   1   2
ATOM      2  C   UNL A   1      40.887  22.240  27.507  1.00  0.00     0.117 C 
BRANCH   2   3
ATOM      3  N   UNL A   1      40.686  20.888  27.023  1.00  0.00    -0.353 N 
ATOM      4  C   UNL A   1      39.808  20.419  26.089  1.00  0.00     0.257 C 
ATOM      5  O   UNL A   1      39.961  19.258  25.701  1.00  0.00    -0.271 OA
ATOM      6  H   UNL A   1      41.270  20.206  27.428  1.00  0.00     0.163 HD
BRANCH   4   7
ATOM      7  C   UNL A   1      38.736  21.334  25.480  1.00  0.00     0.329 C 
BRANCH   7   8
ATOM      8  O   UNL A   1      37.399  21.200  25.902  1.00  0.00    -0.480 OA
BRANCH   8   9
ATOM      9  C   UNL A   1      36.383  21.718  25.156  1.00  0.00     0.161 A 
ATOM     10  C   UNL A   1      35.003  21.691  25.371  1.00  0.00     0.161 A 
ATOM     11  C   UNL A   1      34.115  22.258  24.422  1.00  0.00     0.060 A 
ATOM     12  C   UNL A   1      34.594  22.911  23.268  1.00  0.00     0.016 A 
ATOM     13  C   UNL A   1      36.856  22.329  24.004  1.00  0.00     0.051 A 
ATOM     14  C   UNL A   1      35.992  22.951  23.111  1.00  0.00     0.014 A 
BRANCH  10  15
ATOM     15  O   UNL A   1      34.488  21.014  26.444  1.00  0.00    -0.493 OA
ATOM     16  C   UNL A   1      34.146  21.895  27.515  1.00  0.00     0.278 C 
ENDBRANCH  10  15
BRANCH  12  17
ATOM     17  C   UNL A   1      33.609  23.605  22.275  1.00  0.00     0.243 C 
ATOM     18  N   UNL A   1      32.446  22.697  22.058  1.00  0.00    -0.338 N 
ATOM     19  C   UNL A   1      33.152  25.025  22.741  1.00  0.00     0.196 C 
ATOM     20  C   UNL A   1      31.447  22.815  23.133  1.00  0.00     0.265 C 
ATOM     21  H   UNL A   1      32.781  21.734  22.024  1.00  0.00     0.346 HD
ATOM     22  H   UNL A   1      31.998  22.962  21.181  1.00  0.00     0.346 HD
ATOM     23  C   UNL A   1      31.704  25.305  22.978  1.00  0.00    -0.025 C 
ATOM     24  N   UNL A   1      33.711  26.260  22.113  1.00  0.00    -0.270 NA
ATOM     25  C   UNL A   1      30.743  24.182  23.131  1.00  0.00     0.095 C 
ATOM     26  C   UNL A   1      31.614  26.607  23.226  1.00  0.00     0.001 A 
ATOM     27  C   UNL A   1      32.880  27.128  22.641  1.00  0.00     0.066 A 
ATOM     28  C   UNL A   1      30.678  27.447  23.891  1.00  0.00     0.010 A 
ATOM     29  C   UNL A   1      33.076  28.590  22.734  1.00  0.00     0.028 A 
ATOM     30  C   UNL A   1      31.004  28.740  24.062  1.00  0.00     0.001 A 
ATOM     31  C   UNL A   1      32.200  29.310  23.460  1.00  0.00     0.002 A 
ENDBRANCH  12  17
ENDBRANCH   8   9
ENDBRANCH   7   8
ENDBRANCH   4   7
ENDBRANCH   2   3
ENDBRANCH   1   2
BRANCH   1  32
ATOM     32  C   UNL A   1      43.195  23.398  27.410  1.00  0.00     0.118 C 
BRANCH  32  33
ATOM     33  N   UNL A   1      42.567  24.086  26.293  1.00  0.00    -0.352 N 
ATOM     34  C   UNL A   1      41.781  25.211  26.247  1.00  0.00     0.251 C 
ATOM     35  H   UNL A   1      42.735  23.671  25.416  1.00  0.00     0.163 HD
ATOM     36  O   UNL A   1      41.244  25.512  25.184  1.00  0.00    -0.269 OA
BRANCH  34  37
ATOM     37  C   UNL A   1      41.548  26.046  27.450  1.00  0.00     0.039 A 
ATOM     38  C   UNL A   1      42.470  27.055  27.746  1.00  0.00     0.014 A 
ATOM     39  C   UNL A   1      40.474  25.820  28.314  1.00  0.00     0.014 A 
ATOM     40  C   UNL A   1      42.279  27.871  28.864  1.00  0.00     0.010 A 
ATOM     41  C   UNL A   1      40.238  26.690  29.380  1.00  0.00     0.010 A 
ATOM     42  C   UNL A   1      41.141  27.722  29.673  1.00  0.00    -0.014 A 
BRANCH  42  43
ATOM     43  C   UNL A   1      40.894  28.642  30.816  1.00  0.00     0.031 A 
ATOM     44  C   UNL A   1      41.710  28.539  32.079  1.00  0.00     0.074 A 
ATOM     45  C   UNL A   1      39.904  29.553  30.731  1.00  0.00     0.049 A 
ATOM     46  N   UNL A   1      41.638  29.261  33.169  1.00  0.00    -0.248 NA
ATOM     47  C   UNL A   1      42.720  27.470  32.138  1.00  0.00     0.031 C 
ATOM     48  C   UNL A   1      38.997  29.710  29.591  1.00  0.00     0.029 A 
ATOM     49  N   UNL A   1      39.493  30.521  31.613  1.00  0.00    -0.354 N 
ATOM     50  C   UNL A   1      42.582  28.730  34.042  1.00  0.00     0.074 A 
ATOM     51  C   UNL A   1      43.171  27.587  33.379  1.00  0.00     0.031 C 
ATOM     52  C   UNL A   1      38.164  30.737  29.826  1.00  0.00     0.029 A 
ATOM     53  C   UNL A   1      38.454  31.292  31.145  1.00  0.00     0.049 A 
ATOM     54  H   UNL A   1      39.903  30.652  32.498  1.00  0.00     0.167 HD
ATOM     55  C   UNL A   1      42.947  29.170  35.271  1.00  0.00     0.037 A 
ATOM     56  C   UNL A   1      37.811  32.334  31.707  1.00  0.00     0.037 A 
ATOM     57  C   UNL A   1      42.375  30.324  35.917  1.00  0.00     0.049 A 
ATOM     58  C   UNL A   1      38.252  32.824  33.059  1.00  0.00     0.074 A 
ATOM     59  C   UNL A   1      42.714  30.885  37.136  1.00  0.00     0.029 A 
ATOM     60  N   UNL A   1      41.346  31.096  35.396  1.00  0.00    -0.354 N 
ATOM     61  N   UNL A   1      39.196  32.350  33.839  1.00  0.00    -0.248 NA
ATOM     62  C   UNL A   1      37.556  33.998  33.600  1.00  0.00     0.031 C 
ATOM     63  C   UNL A   1      41.862  31.969  37.373  1.00  0.00     0.029 A 
ATOM     64  C   UNL A   1      41.028  32.118  36.276  1.00  0.00     0.049 A 
ATOM     65  H   UNL A   1      40.907  30.940  34.530  1.00  0.00     0.167 HD
ATOM     66  C   UNL A   1      39.227  33.189  34.949  1.00  0.00     0.074 A 
ATOM     67  C   UNL A   1      38.217  34.204  34.731  1.00  0.00     0.031 C 
ATOM     68  C   UNL A   1      40.022  33.125  36.046  1.00  0.00     0.037 A 
BRANCH  55  69
ATOM     69  C   UNL A   1      44.023  28.406  35.997  1.00  0.00     0.058 A 
ATOM     70  C   UNL A   1      45.380  28.744  35.873  1.00  0.00     0.135 A 
ATOM     71  C   UNL A   1      43.692  27.343  36.855  1.00  0.00     0.135 A 
ATOM     72  F   UNL A   1      45.756  29.741  35.056  1.00  0.00    -0.206 F 
ATOM     73  C   UNL A   1      46.373  28.039  36.547  1.00  0.00     0.059 A 
ATOM     74  C   UNL A   1      44.666  26.643  37.564  1.00  0.00     0.059 A 
ATOM     75  F   UNL A   1      42.411  26.975  37.014  1.00  0.00    -0.206 F 
ATOM     76  C   UNL A   1      46.005  26.989  37.390  1.00  0.00     0.060 A 
BRANCH  76  77
ATOM     77  S   UNL A   1      47.306  26.088  38.259  1.00  0.00     0.124 S 
ATOM     78  O   UNL A   1      48.162  27.179  38.713  1.00  0.00    -0.237 OA
ATOM     79  O   UNL A   1      46.561  25.390  39.300  1.00  0.00    -0.237 OA
ATOM     80  O   UNL A   1      47.877  25.233  37.221  1.00  0.00    -0.744 OA
ENDBRANCH  76  77
ENDBRANCH  55  69
BRANCH  56  81
ATOM     81  C   UNL A   1      36.708  33.010  30.972  1.00  0.00     0.058 A 
ATOM     82  C   UNL A   1      35.367  32.798  31.322  1.00  0.00     0.135 A 
ATOM     83  C   UNL A   1      36.974  33.893  29.914  1.00  0.00     0.135 A 
ATOM     84  F   UNL A   1      35.060  31.959  32.323  1.00  0.00    -0.206 F 
ATOM     85  C   UNL A   1      34.327  33.420  30.640  1.00  0.00     0.059 A 
ATOM     86  C   UNL A   1      35.953  34.550  29.235  1.00  0.00     0.059 A 
ATOM     87  F   UNL A   1      38.241  34.147  29.551  1.00  0.00    -0.206 F 
ATOM     88  C   UNL A   1      34.631  34.298  29.598  1.00  0.00     0.060 A 
BRANCH  88  89
ATOM     89  S   UNL A   1      33.276  35.140  28.750  1.00  0.00     0.124 S 
ATOM     90  O   UNL A   1      33.981  36.226  28.080  1.00  0.00    -0.237 OA
ATOM     91  O   UNL A   1      32.754  34.086  27.887  1.00  0.00    -0.237 OA
ATOM     92  O   UNL A   1      32.394  35.538  29.844  1.00  0.00    -0.744 OA
ENDBRANCH  88  89
ENDBRANCH  56  81
BRANCH  68  93
ATOM     93  C   UNL A   1      39.861  34.210  37.077  1.00  0.00     0.058 A 
ATOM     94  C   UNL A   1      39.062  34.035  38.218  1.00  0.00     0.135 A 
ATOM     95  C   UNL A   1      40.536  35.432  36.930  1.00  0.00     0.135 A 
ATOM     96  F   UNL A   1      38.392  32.887  38.406  1.00  0.00    -0.206 F 
ATOM     97  C   UNL A   1      38.906  35.050  39.157  1.00  0.00     0.059 A 
ATOM     98  C   UNL A   1      40.419  36.449  37.872  1.00  0.00     0.059 A 
ATOM     99  F   UNL A   1      41.324  35.646  35.864  1.00  0.00    -0.206 F 
ATOM    100  C   UNL A   1      39.586  36.256  38.973  1.00  0.00     0.060 A 
BRANCH 100 101
ATOM    101  S   UNL A   1      39.378  37.565  40.198  1.00  0.00     0.124 S 
ATOM    102  O   UNL A   1      39.001  36.801  41.382  1.00  0.00    -0.237 OA
ATOM    103  O   UNL A   1      40.704  38.174  40.233  1.00  0.00    -0.237 OA
ATOM    104  O   UNL A   1      38.326  38.400  39.626  1.00  0.00    -0.744 OA
ENDBRANCH 100 101
ENDBRANCH  68  93
ENDBRANCH  42  43
ENDBRANCH  34  37
ENDBRANCH  32  33
ENDBRANCH   1  32
TORSDOF 17
ENDMDL
MODEL 2
REMARK VINA RESULT:     -12.8      6.207     12.200
REMARK SMILES COc1cc([C@H]2[NH2+]CCC3=c4ccccc4=N[C@@H]32)ccc1OCC(=O)NCCCNC(=O)c1ccc(-c2c3nc(c(-c4c(F)cc(S(=O)(=O)[O-])cc4F)c4ccc([nH]4)c(-c4c(F)cc(S(=O)(=O)[O-])cc4F)c4nc(c(-c5c(F)cc(S(=O)(=O)[O-])cc5F)c5ccc2[nH]5)C=C4)C=C3)cc1
REMARK SMILES IDX 28 1 27 2 26 3 24 4 25 5 23 7 22 8 21 9 3 10 4 11 5 12 20 13
REMARK SMILES IDX 19 14 2 15 1 16 6 17 7 18 18 19 8 20 10 23 17 24 9 25 11 26
REMARK SMILES IDX 16 27 12 28 15 29 13 30 14 31 29 32 30 33 31 34 32 36 33 37
REMARK SMILES IDX 34 38 98 39 35 40 97 41 36 42 37 43 38 44 91 45 39 46 96 47
REMARK SMILES IDX 90 48 92 49 40 50 95 51 89 52 88 53 41 55 75 56 54 57 74 58
REMARK SMILES IDX 55 59 58 60 73 61 93 62 56 63 57 64 72 66 94 67 59 68 42 69
REMARK SMILES IDX 43 70 52 71 44 72 45 73 51 74 53 75 46 76 47 77 48 78 49 79
REMARK SMILES IDX 50 80 76 81 77 82 86 83 78 84 79 85 85 86 87 87 80 88 81 89
REMARK SMILES IDX 82 90 83 91 84 92 60 93 61 94 70 95 62 96 63 97 69 98 71 99
REMARK SMILES IDX 64 100 65 101 66 102 67 103 68 104
REMARK H PARENT 26 6 7 21 7 22 30 35 92 54 58 65
REMARK Flexibility Score: inf
ROOT
ATOM      1  C   UNL A   1      37.388  33.965  32.067  1.00  0.00     0.042 C 
ENDROOT
BRANCH   1   2
ATOM      2  C   UNL A   1      37.684  33.913  30.571  1.00  0.00     0.117 C 
BRANCH   2   3
ATOM      3  N   UNL A   1      36.611  34.450  29.757  1.00  0.00    -0.353 N 
ATOM      4  C   UNL A   1      35.828  33.829  28.828  1.00  0.00     0.257 C 
ATOM      5  O   UNL A   1      34.848  34.450  28.409  1.00  0.00    -0.271 OA
ATOM      6  H   UNL A   1      36.419  35.407  29.895  1.00  0.00     0.163 HD
BRANCH   4   7
ATOM      7  C   UNL A   1      36.105  32.382  28.398  1.00  0.00     0.329 C 
BRANCH   7   8
ATOM      8  O   UNL A   1      35.170  31.379  28.718  1.00  0.00    -0.480 OA
BRANCH   8   9
ATOM      9  C   UNL A   1      34.518  30.701  27.733  1.00  0.00     0.161 A 
ATOM     10  C   UNL A   1      33.327  31.004  27.067  1.00  0.00     0.161 A 
ATOM     11  C   UNL A   1      32.799  30.115  26.097  1.00  0.00     0.060 A 
ATOM     12  C   UNL A   1      33.479  28.933  25.736  1.00  0.00     0.016 A 
ATOM     13  C   UNL A   1      35.172  29.522  27.406  1.00  0.00     0.051 A 
ATOM     14  C   UNL A   1      34.694  28.687  26.402  1.00  0.00     0.014 A 
BRANCH  10  15
ATOM     15  O   UNL A   1      32.600  32.106  27.427  1.00  0.00    -0.493 OA
ATOM     16  C   UNL A   1      31.375  32.197  26.698  1.00  0.00     0.278 C 
ENDBRANCH  10  15
BRANCH  12  17
ATOM     17  C   UNL A   1      32.929  28.008  24.606  1.00  0.00     0.243 C 
ATOM     18  N   UNL A   1      32.838  26.619  25.141  1.00  0.00    -0.338 N 
ATOM     19  C   UNL A   1      31.564  28.488  24.015  1.00  0.00     0.196 C 
ATOM     20  C   UNL A   1      31.604  26.407  25.916  1.00  0.00     0.265 C 
ATOM     21  H   UNL A   1      33.641  26.445  25.746  1.00  0.00     0.346 HD
ATOM     22  H   UNL A   1      32.828  25.975  24.350  1.00  0.00     0.346 HD
ATOM     23  C   UNL A   1      30.362  27.606  24.097  1.00  0.00    -0.025 C 
ATOM     24  N   UNL A   1      31.493  29.156  22.680  1.00  0.00    -0.270 NA
ATOM     25  C   UNL A   1      30.344  26.454  25.035  1.00  0.00     0.095 C 
ATOM     26  C   UNL A   1      29.407  28.215  23.402  1.00  0.00     0.001 A 
ATOM     27  C   UNL A   1      30.189  29.139  22.535  1.00  0.00     0.066 A 
ATOM     28  C   UNL A   1      27.986  28.170  23.382  1.00  0.00     0.010 A 
ATOM     29  C   UNL A   1      29.397  29.964  21.598  1.00  0.00     0.028 A 
ATOM     30  C   UNL A   1      27.339  29.059  22.609  1.00  0.00     0.001 A 
ATOM     31  C   UNL A   1      28.056  29.942  21.701  1.00  0.00     0.002 A 
ENDBRANCH  12  17
ENDBRANCH   8   9
ENDBRANCH   7   8
ENDBRANCH   4   7
ENDBRANCH   2   3
ENDBRANCH   1   2
BRANCH   1  32
ATOM     32  C   UNL A   1      37.706  32.692  32.849  1.00  0.00     0.118 C 
BRANCH  32  33
ATOM     33  N   UNL A   1      36.823  31.580  32.534  1.00  0.00    -0.352 N 
ATOM     34  C   UNL A   1      36.999  30.481  31.729  1.00  0.00     0.251 C 
ATOM     35  H   UNL A   1      35.944  31.623  32.976  1.00  0.00     0.163 HD
ATOM     36  O   UNL A   1      36.037  29.751  31.510  1.00  0.00    -0.269 OA
BRANCH  34  37
ATOM     37  C   UNL A   1      38.309  30.179  31.105  1.00  0.00     0.039 A 
ATOM     38  C   UNL A   1      39.340  29.703  31.922  1.00  0.00     0.014 A 
ATOM     39  C   UNL A   1      38.555  30.402  29.748  1.00  0.00     0.014 A 
ATOM     40  C   UNL A   1      40.586  29.394  31.369  1.00  0.00     0.010 A 
ATOM     41  C   UNL A   1      39.770  30.012  29.181  1.00  0.00     0.010 A 
ATOM     42  C   UNL A   1      40.803  29.510  29.985  1.00  0.00    -0.014 A 
BRANCH  42  43
ATOM     43  C   UNL A   1      42.102  29.105  29.383  1.00  0.00     0.031 A 
ATOM     44  C   UNL A   1      43.245  30.082  29.284  1.00  0.00     0.074 A 
ATOM     45  C   UNL A   1      42.242  27.857  28.889  1.00  0.00     0.049 A 
ATOM     46  N   UNL A   1      44.447  29.900  28.798  1.00  0.00    -0.248 NA
ATOM     47  C   UNL A   1      42.999  31.450  29.769  1.00  0.00     0.031 C 
ATOM     48  C   UNL A   1      41.191  26.838  28.861  1.00  0.00     0.029 A 
ATOM     49  N   UNL A   1      43.322  27.232  28.318  1.00  0.00    -0.354 N 
ATOM     50  C   UNL A   1      45.094  31.126  28.910  1.00  0.00     0.074 A 
ATOM     51  C   UNL A   1      44.132  32.060  29.452  1.00  0.00     0.031 C 
ATOM     52  C   UNL A   1      41.688  25.704  28.339  1.00  0.00     0.029 A 
ATOM     53  C   UNL A   1      43.082  25.924  27.965  1.00  0.00     0.049 A 
ATOM     54  H   UNL A   1      44.188  27.678  28.173  1.00  0.00     0.167 HD
ATOM     55  C   UNL A   1      46.379  31.440  28.615  1.00  0.00     0.037 A 
ATOM     56  C   UNL A   1      43.892  25.002  27.411  1.00  0.00     0.037 A 
ATOM     57  C   UNL A   1      47.341  30.499  28.099  1.00  0.00     0.049 A 
ATOM     58  C   UNL A   1      45.323  25.363  27.120  1.00  0.00     0.074 A 
ATOM     59  C   UNL A   1      48.682  30.703  27.822  1.00  0.00     0.029 A 
ATOM     60  N   UNL A   1      47.066  29.176  27.785  1.00  0.00    -0.354 N 
ATOM     61  N   UNL A   1      45.935  26.510  27.298  1.00  0.00    -0.248 NA
ATOM     62  C   UNL A   1      46.177  24.303  26.571  1.00  0.00     0.031 C 
ATOM     63  C   UNL A   1      49.207  29.516  27.298  1.00  0.00     0.029 A 
ATOM     64  C   UNL A   1      48.207  28.557  27.301  1.00  0.00     0.049 A 
ATOM     65  H   UNL A   1      46.190  28.741  27.888  1.00  0.00     0.167 HD
ATOM     66  C   UNL A   1      47.255  26.299  26.912  1.00  0.00     0.074 A 
ATOM     67  C   UNL A   1      47.352  24.913  26.504  1.00  0.00     0.031 C 
ATOM     68  C   UNL A   1      48.292  27.174  26.900  1.00  0.00     0.037 A 
BRANCH  55  69
ATOM     69  C   UNL A   1      46.825  32.859  28.853  1.00  0.00     0.058 A 
ATOM     70  C   UNL A   1      47.385  33.261  30.077  1.00  0.00     0.135 A 
ATOM     71  C   UNL A   1      46.726  33.822  27.835  1.00  0.00     0.135 A 
ATOM     72  F   UNL A   1      47.492  32.388  31.091  1.00  0.00    -0.206 F 
ATOM     73  C   UNL A   1      47.800  34.571  30.294  1.00  0.00     0.059 A 
ATOM     74  C   UNL A   1      47.163  35.131  28.019  1.00  0.00     0.059 A 
ATOM     75  F   UNL A   1      46.200  33.494  26.643  1.00  0.00    -0.206 F 
ATOM     76  C   UNL A   1      47.683  35.499  29.258  1.00  0.00     0.060 A 
BRANCH  76  77
ATOM     77  S   UNL A   1      48.230  37.195  29.557  1.00  0.00     0.124 S 
ATOM     78  O   UNL A   1      48.013  37.804  28.249  1.00  0.00    -0.237 OA
ATOM     79  O   UNL A   1      47.329  37.631  30.618  1.00  0.00    -0.237 OA
ATOM     80  O   UNL A   1      49.627  37.036  29.950  1.00  0.00    -0.744 OA
ENDBRANCH  76  77
ENDBRANCH  55  69
BRANCH  56  81
ATOM     81  C   UNL A   1      43.378  23.632  27.135  1.00  0.00     0.058 A 
ATOM     82  C   UNL A   1      43.037  23.235  25.833  1.00  0.00     0.135 A 
ATOM     83  C   UNL A   1      43.232  22.690  28.164  1.00  0.00     0.135 A 
ATOM     84  F   UNL A   1      43.155  24.102  24.816  1.00  0.00    -0.206 F 
ATOM     85  C   UNL A   1      42.552  21.961  25.563  1.00  0.00     0.059 A 
ATOM     86  C   UNL A   1      42.775  21.399  27.915  1.00  0.00     0.059 A 
ATOM     87  F   UNL A   1      43.562  23.012  29.424  1.00  0.00    -0.206 F 
ATOM     88  C   UNL A   1      42.427  21.048  26.611  1.00  0.00     0.060 A 
BRANCH  88  89
ATOM     89  S   UNL A   1      41.842  19.379  26.243  1.00  0.00     0.124 S 
ATOM     90  O   UNL A   1      42.567  19.079  25.014  1.00  0.00    -0.237 OA
ATOM     91  O   UNL A   1      42.259  18.640  27.429  1.00  0.00    -0.237 OA
ATOM     92  O   UNL A   1      40.399  19.556  26.098  1.00  0.00    -0.744 OA
ENDBRANCH  88  89
ENDBRANCH  56  81
BRANCH  68  93
ATOM     93  C   UNL A   1      49.634  26.645  26.471  1.00  0.00     0.058 A 
ATOM     94  C   UNL A   1      50.075  26.734  25.141  1.00  0.00     0.135 A 
ATOM     95  C   UNL A   1      50.499  26.062  27.411  1.00  0.00     0.135 A 
ATOM     96  F   UNL A   1      49.287  27.279  24.202  1.00  0.00    -0.206 F 
ATOM     97  C   UNL A   1      51.310  26.227  24.751  1.00  0.00     0.059 A 
ATOM     98  C   UNL A   1      51.751  25.577  27.049  1.00  0.00     0.059 A 
ATOM     99  F   UNL A   1      50.132  25.965  28.699  1.00  0.00    -0.206 F 
ATOM    100  C   UNL A   1      52.141  25.646  25.712  1.00  0.00     0.060 A 
BRANCH 100 101
ATOM    101  S   UNL A   1      53.742  24.993  25.195  1.00  0.00     0.124 S 
ATOM    102  O   UNL A   1      53.953  25.699  23.936  1.00  0.00    -0.237 OA
ATOM    103  O   UNL A   1      54.612  25.389  26.298  1.00  0.00    -0.237 OA
ATOM    104  O   UNL A   1      53.501  23.558  25.079  1.00  0.00    -0.744 OA
ENDBRANCH 100 101
ENDBRANCH  68  93
ENDBRANCH  42  43
ENDBRANCH  34  37
ENDBRANCH  32  33
ENDBRANCH   1  32
TORSDOF 17
ENDMDL
MODEL 3
REMARK VINA RESULT:     -12.7      6.223     12.445
REMARK SMILES COc1cc([C@H]2[NH2+]CCC3=c4ccccc4=N[C@@H]32)ccc1OCC(=O)NCCCNC(=O)c1ccc(-c2c3nc(c(-c4c(F)cc(S(=O)(=O)[O-])cc4F)c4ccc([nH]4)c(-c4c(F)cc(S(=O)(=O)[O-])cc4F)c4nc(c(-c5c(F)cc(S(=O)(=O)[O-])cc5F)c5ccc2[nH]5)C=C4)C=C3)cc1
REMARK SMILES IDX 28 1 27 2 26 3 24 4 25 5 23 7 22 8 21 9 3 10 4 11 5 12 20 13
REMARK SMILES IDX 19 14 2 15 1 16 6 17 7 18 18 19 8 20 10 23 17 24 9 25 11 26
REMARK SMILES IDX 16 27 12 28 15 29 13 30 14 31 29 32 30 33 31 34 32 36 33 37
REMARK SMILES IDX 34 38 98 39 35 40 97 41 36 42 37 43 38 44 91 45 39 46 96 47
REMARK SMILES IDX 90 48 92 49 40 50 95 51 89 52 88 53 41 55 75 56 54 57 74 58
REMARK SMILES IDX 55 59 58 60 73 61 93 62 56 63 57 64 72 66 94 67 59 68 42 69
REMARK SMILES IDX 43 70 52 71 44 72 45 73 51 74 53 75 46 76 47 77 48 78 49 79
REMARK SMILES IDX 50 80 76 81 77 82 86 83 78 84 79 85 85 86 87 87 80 88 81 89
REMARK SMILES IDX 82 90 83 91 84 92 60 93 61 94 70 95 62 96 63 97 69 98 71 99
REMARK SMILES IDX 64 100 65 101 66 102 67 103 68 104
REMARK H PARENT 26 6 7 21 7 22 30 35 92 54 58 65
REMARK Flexibility Score: inf
ROOT
ATOM      1  C   UNL A   1      36.892  34.313  31.759  1.00  0.00     0.042 C 
ENDROOT
BRANCH   1   2
ATOM      2  C   UNL A   1      35.371  34.236  31.677  1.00  0.00     0.117 C 
BRANCH   2   3
ATOM      3  N   UNL A   1      34.844  34.679  30.400  1.00  0.00    -0.353 N 
ATOM      4  C   UNL A   1      34.380  33.947  29.347  1.00  0.00     0.257 C 
ATOM      5  O   UNL A   1      33.798  34.556  28.446  1.00  0.00    -0.271 OA
ATOM      6  H   UNL A   1      34.818  35.657  30.274  1.00  0.00     0.163 HD
BRANCH   4   7
ATOM      7  C   UNL A   1      34.494  32.416  29.336  1.00  0.00     0.329 C 
BRANCH   7   8
ATOM      8  O   UNL A   1      35.003  31.774  28.189  1.00  0.00    -0.480 OA
BRANCH   8   9
ATOM      9  C   UNL A   1      34.270  30.820  27.549  1.00  0.00     0.161 A 
ATOM     10  C   UNL A   1      32.993  30.890  26.988  1.00  0.00     0.161 A 
ATOM     11  C   UNL A   1      32.397  29.742  26.409  1.00  0.00     0.060 A 
ATOM     12  C   UNL A   1      33.088  28.515  26.333  1.00  0.00     0.016 A 
ATOM     13  C   UNL A   1      34.940  29.606  27.507  1.00  0.00     0.051 A 
ATOM     14  C   UNL A   1      34.387  28.499  26.874  1.00  0.00     0.014 A 
BRANCH  10  15
ATOM     15  O   UNL A   1      32.258  32.041  27.094  1.00  0.00    -0.493 OA
ATOM     16  C   UNL A   1      31.033  31.959  26.365  1.00  0.00     0.278 C 
ENDBRANCH  10  15
BRANCH  12  17
ATOM     17  C   UNL A   1      32.451  27.282  25.617  1.00  0.00     0.243 C 
ATOM     18  N   UNL A   1      31.986  27.713  24.267  1.00  0.00    -0.338 N 
ATOM     19  C   UNL A   1      33.408  26.050  25.530  1.00  0.00     0.196 C 
ATOM     20  C   UNL A   1      33.081  27.721  23.283  1.00  0.00     0.265 C 
ATOM     21  H   UNL A   1      31.599  28.656  24.337  1.00  0.00     0.346 HD
ATOM     22  H   UNL A   1      31.281  27.049  23.949  1.00  0.00     0.346 HD
ATOM     23  C   UNL A   1      33.798  25.498  24.198  1.00  0.00    -0.025 C 
ATOM     24  N   UNL A   1      33.227  24.868  26.426  1.00  0.00    -0.270 NA
ATOM     25  C   UNL A   1      33.593  26.306  22.967  1.00  0.00     0.095 C 
ATOM     26  C   UNL A   1      34.492  24.392  24.443  1.00  0.00     0.001 A 
ATOM     27  C   UNL A   1      34.066  24.054  25.829  1.00  0.00     0.066 A 
ATOM     28  C   UNL A   1      35.453  23.623  23.731  1.00  0.00     0.010 A 
ATOM     29  C   UNL A   1      34.657  22.825  26.400  1.00  0.00     0.028 A 
ATOM     30  C   UNL A   1      36.052  22.608  24.379  1.00  0.00     0.001 A 
ATOM     31  C   UNL A   1      35.631  22.202  25.711  1.00  0.00     0.002 A 
ENDBRANCH  12  17
ENDBRANCH   8   9
ENDBRANCH   7   8
ENDBRANCH   4   7
ENDBRANCH   2   3
ENDBRANCH   1   2
BRANCH   1  32
ATOM     32  C   UNL A   1      37.607  32.991  32.033  1.00  0.00     0.118 C 
BRANCH  32  33
ATOM     33  N   UNL A   1      36.720  31.838  32.029  1.00  0.00    -0.352 N 
ATOM     34  C   UNL A   1      36.869  30.581  31.497  1.00  0.00     0.251 C 
ATOM     35  H   UNL A   1      35.861  31.986  32.488  1.00  0.00     0.163 HD
ATOM     36  O   UNL A   1      35.903  29.821  31.500  1.00  0.00    -0.269 OA
BRANCH  34  37
ATOM     37  C   UNL A   1      38.151  30.137  30.902  1.00  0.00     0.039 A 
ATOM     38  C   UNL A   1      38.315  30.248  29.517  1.00  0.00     0.014 A 
ATOM     39  C   UNL A   1      39.170  29.568  31.671  1.00  0.00     0.014 A 
ATOM     40  C   UNL A   1      39.514  29.851  28.920  1.00  0.00     0.010 A 
ATOM     41  C   UNL A   1      40.398  29.254  31.086  1.00  0.00     0.010 A 
ATOM     42  C   UNL A   1      40.584  29.384  29.703  1.00  0.00    -0.014 A 
BRANCH  42  43
ATOM     43  C   UNL A   1      41.889  29.039  29.078  1.00  0.00     0.031 A 
ATOM     44  C   UNL A   1      42.974  30.075  28.934  1.00  0.00     0.074 A 
ATOM     45  C   UNL A   1      42.087  27.791  28.605  1.00  0.00     0.049 A 
ATOM     46  N   UNL A   1      44.173  29.949  28.423  1.00  0.00    -0.248 NA
ATOM     47  C   UNL A   1      42.664  31.436  29.398  1.00  0.00     0.031 C 
ATOM     48  C   UNL A   1      41.093  26.715  28.620  1.00  0.00     0.029 A 
ATOM     49  N   UNL A   1      43.187  27.214  28.020  1.00  0.00    -0.354 N 
ATOM     50  C   UNL A   1      44.754  31.211  28.496  1.00  0.00     0.074 A 
ATOM     51  C   UNL A   1      43.754  32.102  29.043  1.00  0.00     0.031 C 
ATOM     52  C   UNL A   1      41.640  25.600  28.109  1.00  0.00     0.029 A 
ATOM     53  C   UNL A   1      43.011  25.889  27.698  1.00  0.00     0.049 A 
ATOM     54  H   UNL A   1      44.023  27.704  27.847  1.00  0.00     0.167 HD
ATOM     55  C   UNL A   1      46.013  31.588  28.166  1.00  0.00     0.037 A 
ATOM     56  C   UNL A   1      43.858  25.000  27.143  1.00  0.00     0.037 A 
ATOM     57  C   UNL A   1      47.013  30.691  27.646  1.00  0.00     0.049 A 
ATOM     58  C   UNL A   1      45.260  25.433  26.812  1.00  0.00     0.074 A 
ATOM     59  C   UNL A   1      48.334  30.962  27.333  1.00  0.00     0.029 A 
ATOM     60  N   UNL A   1      46.805  29.349  27.363  1.00  0.00    -0.354 N 
ATOM     61  N   UNL A   1      45.812  26.615  26.954  1.00  0.00    -0.248 NA
ATOM     62  C   UNL A   1      46.159  24.411  26.263  1.00  0.00     0.031 C 
ATOM     63  C   UNL A   1      48.913  29.796  26.819  1.00  0.00     0.029 A 
ATOM     64  C   UNL A   1      47.967  28.783  26.864  1.00  0.00     0.049 A 
ATOM     65  H   UNL A   1      45.956  28.869  27.495  1.00  0.00     0.167 HD
ATOM     66  C   UNL A   1      47.133  26.470  26.541  1.00  0.00     0.074 A 
ATOM     67  C   UNL A   1      47.297  25.082  26.157  1.00  0.00     0.031 C 
ATOM     68  C   UNL A   1      48.119  27.399  26.488  1.00  0.00     0.037 A 
BRANCH  55  69
ATOM     69  C   UNL A   1      46.385  33.034  28.366  1.00  0.00     0.058 A 
ATOM     70  C   UNL A   1      46.902  33.500  29.586  1.00  0.00     0.135 A 
ATOM     71  C   UNL A   1      46.258  33.959  27.317  1.00  0.00     0.135 A 
ATOM     72  F   UNL A   1      47.033  32.665  30.629  1.00  0.00    -0.206 F 
ATOM     73  C   UNL A   1      47.250  34.836  29.768  1.00  0.00     0.059 A 
ATOM     74  C   UNL A   1      46.627  35.293  27.466  1.00  0.00     0.059 A 
ATOM     75  F   UNL A   1      45.770  33.569  26.128  1.00  0.00    -0.206 F 
ATOM     76  C   UNL A   1      47.107  35.724  28.702  1.00  0.00     0.060 A 
BRANCH  76  77
ATOM     77  S   UNL A   1      47.565  37.453  28.956  1.00  0.00     0.124 S 
ATOM     78  O   UNL A   1      48.287  37.746  27.722  1.00  0.00    -0.237 OA
ATOM     79  O   UNL A   1      46.267  38.102  29.101  1.00  0.00    -0.237 OA
ATOM     80  O   UNL A   1      48.381  37.413  30.166  1.00  0.00    -0.744 OA
ENDBRANCH  76  77
ENDBRANCH  55  69
BRANCH  56  81
ATOM     81  C   UNL A   1      43.414  23.600  26.905  1.00  0.00     0.058 A 
ATOM     82  C   UNL A   1      43.194  23.121  25.605  1.00  0.00     0.135 A 
ATOM     83  C   UNL A   1      43.217  22.709  27.971  1.00  0.00     0.135 A 
ATOM     84  F   UNL A   1      43.365  23.935  24.553  1.00  0.00    -0.206 F 
ATOM     85  C   UNL A   1      42.775  21.816  25.370  1.00  0.00     0.059 A 
ATOM     86  C   UNL A   1      42.825  21.391  27.760  1.00  0.00     0.059 A 
ATOM     87  F   UNL A   1      43.433  23.110  29.234  1.00  0.00    -0.206 F 
ATOM     88  C   UNL A   1      42.596  20.957  26.455  1.00  0.00     0.060 A 
BRANCH  88  89
ATOM     89  S   UNL A   1      42.099  19.249  26.137  1.00  0.00     0.124 S 
ATOM     90  O   UNL A   1      42.414  18.611  27.409  1.00  0.00    -0.237 OA
ATOM     91  O   UNL A   1      40.681  19.396  25.827  1.00  0.00    -0.237 OA
ATOM     92  O   UNL A   1      42.943  18.862  25.009  1.00  0.00    -0.744 OA
ENDBRANCH  88  89
ENDBRANCH  56  81
BRANCH  68  93
ATOM     93  C   UNL A   1      49.479  26.936  26.038  1.00  0.00     0.058 A 
ATOM     94  C   UNL A   1      49.877  27.004  24.693  1.00  0.00     0.135 A 
ATOM     95  C   UNL A   1      50.402  26.438  26.971  1.00  0.00     0.135 A 
ATOM     96  F   UNL A   1      49.032  27.468  23.760  1.00  0.00    -0.206 F 
ATOM     97  C   UNL A   1      51.130  26.557  24.285  1.00  0.00     0.059 A 
ATOM     98  C   UNL A   1      51.671  26.016  26.589  1.00  0.00     0.059 A 
ATOM     99  F   UNL A   1      50.077  26.366  28.272  1.00  0.00    -0.206 F 
ATOM    100  C   UNL A   1      52.019  26.060  25.240  1.00  0.00     0.060 A 
BRANCH 100 101
ATOM    101  S   UNL A   1      53.642  25.486  24.699  1.00  0.00     0.124 S 
ATOM    102  O   UNL A   1      53.510  24.042  24.858  1.00  0.00    -0.237 OA
ATOM    103  O   UNL A   1      53.702  25.969  23.323  1.00  0.00    -0.237 OA
ATOM    104  O   UNL A   1      54.560  26.140  25.627  1.00  0.00    -0.744 OA
ENDBRANCH 100 101
ENDBRANCH  68  93
ENDBRANCH  42  43
ENDBRANCH  34  37
ENDBRANCH  32  33
ENDBRANCH   1  32
TORSDOF 17
ENDMDL
