MODEL 1
REMARK VINA RESULT:     -11.0      0.000      0.000
REMARK SMILES CC[C@@H]1CCCC[C@@H]1OCC[C@@H]1CCC[C@]1([NH2+]C)C(=O)NCCCNC(=O)c1ccc(-c2c3nc(c(-c4c(F)cc(S(=O)(=O)[O-])cc4F)c4ccc([nH]4)c(-c4c(F)cc(S(=O)(=O)[O-])cc4F)c4nc(c(-c5c(F)cc(S(=O)(=O)[O-])cc5F)c5ccc2[nH]5)C=C4)C=C3)cc1
REMARK SMILES IDX 22 1 21 2 19 3 20 4 16 6 12 7 13 8 14 9 15 10 11 11 10 12
REMARK SMILES IDX 9 13 8 14 3 15 4 16 5 17 7 18 6 19 2 20 1 21 17 22 18 23
REMARK SMILES IDX 23 26 24 27 25 28 26 29 27 31 28 32 29 33 93 34 30 35 92 36
REMARK SMILES IDX 31 37 32 38 33 39 86 40 34 41 91 42 85 43 87 44 35 45 90 46
REMARK SMILES IDX 84 47 83 48 36 50 70 51 49 52 69 53 50 54 53 55 68 56 88 57
REMARK SMILES IDX 51 58 52 59 67 61 89 62 54 63 37 64 38 65 47 66 39 67 40 68
REMARK SMILES IDX 46 69 48 70 41 71 42 72 43 73 44 74 45 75 71 76 72 77 81 78
REMARK SMILES IDX 73 79 74 80 80 81 82 82 75 83 76 84 77 85 78 86 79 87 55 88
REMARK SMILES IDX 56 89 65 90 57 91 58 92 64 93 66 94 59 95 60 96 61 97 62 98
REMARK SMILES IDX 63 99
REMARK H PARENT 21 5 17 24 17 25 25 30 87 49 53 60
REMARK Flexibility Score: inf
ROOT
ATOM      1  C   UNL A   1      33.080  30.090  27.099  1.00  0.00     0.118 C 
ENDROOT
BRANCH   1   2
ATOM      2  N   UNL A   1      31.895  29.352  26.515  1.00  0.00    -0.351 N 
ATOM      3  C   UNL A   1      31.601  27.992  26.646  1.00  0.00     0.281 C 
ATOM      4  O   UNL A   1      31.122  27.639  27.733  1.00  0.00    -0.268 OA
ATOM      5  H   UNL A   1      31.261  29.887  25.986  1.00  0.00     0.163 HD
BRANCH   3   6
ATOM      6  C   UNL A   1      31.579  26.958  25.383  1.00  0.00     0.178 C 
ATOM      7  C   UNL A   1      32.196  25.555  25.640  1.00  0.00     0.063 C 
ATOM      8  C   UNL A   1      33.694  25.877  25.757  1.00  0.00     0.011 C 
ATOM      9  C   UNL A   1      33.933  26.897  24.638  1.00  0.00     0.008 C 
ATOM     10  C   UNL A   1      32.567  27.483  24.301  1.00  0.00     0.079 C 
BRANCH   7  11
ATOM     11  C   UNL A   1      31.639  24.471  26.597  1.00  0.00     0.039 C 
BRANCH  11  12
ATOM     12  C   UNL A   1      31.297  23.022  26.210  1.00  0.00     0.161 C 
BRANCH  12  13
ATOM     13  O   UNL A   1      31.086  22.551  24.842  1.00  0.00    -0.378 OA
BRANCH  13  14
ATOM     14  C   UNL A   1      32.166  21.933  24.166  1.00  0.00     0.121 C 
ATOM     15  C   UNL A   1      33.532  21.517  24.919  1.00  0.00     0.018 C 
ATOM     16  C   UNL A   1      34.607  22.604  24.719  1.00  0.00     0.006 C 
ATOM     17  C   UNL A   1      34.773  22.978  23.265  1.00  0.00     0.000 C 
ATOM     18  C   UNL A   1      32.367  22.617  22.800  1.00  0.00     0.032 C 
ATOM     19  C   UNL A   1      33.499  23.623  22.772  1.00  0.00     0.003 C 
BRANCH  15  20
ATOM     20  C   UNL A   1      33.769  21.061  26.412  1.00  0.00     0.003 C 
ATOM     21  C   UNL A   1      34.366  21.956  27.490  1.00  0.00     0.004 C 
ENDBRANCH  15  20
ENDBRANCH  13  14
ENDBRANCH  12  13
ENDBRANCH  11  12
ENDBRANCH   7  11
BRANCH   6  22
ATOM     22  N   UNL A   1      30.257  26.814  24.716  1.00  0.00    -0.336 N 
ATOM     23  C   UNL A   1      29.942  25.702  23.846  1.00  0.00     0.331 C 
ATOM     24  H   UNL A   1      30.128  27.657  24.157  1.00  0.00     0.346 HD
ATOM     25  H   UNL A   1      29.641  26.638  25.510  1.00  0.00     0.346 HD
ENDBRANCH   6  22
ENDBRANCH   3   6
ENDBRANCH   1   2
BRANCH   1  26
ATOM     26  C   UNL A   1      34.342  29.240  27.369  1.00  0.00     0.042 C 
BRANCH  26  27
ATOM     27  C   UNL A   1      35.534  29.923  28.029  1.00  0.00     0.118 C 
BRANCH  27  28
ATOM     28  N   UNL A   1      35.364  30.423  29.395  1.00  0.00    -0.352 N 
ATOM     29  C   UNL A   1      36.335  30.700  30.353  1.00  0.00     0.251 C 
ATOM     30  H   UNL A   1      34.434  30.589  29.674  1.00  0.00     0.163 HD
ATOM     31  O   UNL A   1      36.006  31.116  31.461  1.00  0.00    -0.269 OA
BRANCH  29  32
ATOM     32  C   UNL A   1      37.775  30.443  30.064  1.00  0.00     0.039 A 
ATOM     33  C   UNL A   1      38.620  29.947  31.065  1.00  0.00     0.014 A 
ATOM     34  C   UNL A   1      38.284  30.636  28.783  1.00  0.00     0.014 A 
ATOM     35  C   UNL A   1      39.927  29.545  30.744  1.00  0.00     0.010 A 
ATOM     36  C   UNL A   1      39.514  30.097  28.434  1.00  0.00     0.010 A 
ATOM     37  C   UNL A   1      40.368  29.569  29.412  1.00  0.00    -0.014 A 
BRANCH  37  38
ATOM     38  C   UNL A   1      41.726  29.122  28.997  1.00  0.00     0.031 A 
ATOM     39  C   UNL A   1      42.848  30.134  28.939  1.00  0.00     0.074 A 
ATOM     40  C   UNL A   1      41.937  27.857  28.575  1.00  0.00     0.049 A 
ATOM     41  N   UNL A   1      44.059  30.008  28.461  1.00  0.00    -0.248 NA
ATOM     42  C   UNL A   1      42.544  31.489  29.434  1.00  0.00     0.031 C 
ATOM     43  C   UNL A   1      40.925  26.801  28.511  1.00  0.00     0.029 A 
ATOM     44  N   UNL A   1      43.075  27.248  28.103  1.00  0.00    -0.354 N 
ATOM     45  C   UNL A   1      44.638  31.269  28.564  1.00  0.00     0.074 A 
ATOM     46  C   UNL A   1      43.624  32.163  29.073  1.00  0.00     0.031 C 
ATOM     47  C   UNL A   1      41.493  25.670  28.060  1.00  0.00     0.029 A 
ATOM     48  C   UNL A   1      42.899  25.926  27.764  1.00  0.00     0.049 A 
ATOM     49  H   UNL A   1      43.937  27.715  28.015  1.00  0.00     0.167 HD
ATOM     50  C   UNL A   1      45.911  31.645  28.299  1.00  0.00     0.037 A 
ATOM     51  C   UNL A   1      43.773  25.025  27.272  1.00  0.00     0.037 A 
ATOM     52  C   UNL A   1      46.934  30.735  27.863  1.00  0.00     0.049 A 
ATOM     53  C   UNL A   1      45.199  25.450  27.032  1.00  0.00     0.074 A 
ATOM     54  C   UNL A   1      48.277  30.987  27.645  1.00  0.00     0.029 A 
ATOM     55  N   UNL A   1      46.728  29.389  27.594  1.00  0.00    -0.354 N 
ATOM     56  N   UNL A   1      45.744  26.633  27.196  1.00  0.00    -0.248 NA
ATOM     57  C   UNL A   1      46.129  24.421  26.549  1.00  0.00     0.031 C 
ATOM     58  C   UNL A   1      48.876  29.800  27.210  1.00  0.00     0.029 A 
ATOM     59  C   UNL A   1      47.916  28.800  27.201  1.00  0.00     0.049 A 
ATOM     60  H   UNL A   1      45.864  28.924  27.670  1.00  0.00     0.167 HD
ATOM     61  C   UNL A   1      47.086  26.483  26.865  1.00  0.00     0.074 A 
ATOM     62  C   UNL A   1      47.272  25.093  26.502  1.00  0.00     0.031 C 
ATOM     63  C   UNL A   1      48.077  27.408  26.859  1.00  0.00     0.037 A 
BRANCH  50  64
ATOM     64  C   UNL A   1      46.270  33.093  28.503  1.00  0.00     0.058 A 
ATOM     65  C   UNL A   1      46.170  34.032  27.463  1.00  0.00     0.135 A 
ATOM     66  C   UNL A   1      46.703  33.553  29.757  1.00  0.00     0.135 A 
ATOM     67  F   UNL A   1      45.779  33.646  26.239  1.00  0.00    -0.206 F 
ATOM     68  C   UNL A   1      46.519  35.366  27.648  1.00  0.00     0.059 A 
ATOM     69  C   UNL A   1      47.028  34.890  29.974  1.00  0.00     0.059 A 
ATOM     70  F   UNL A   1      46.821  32.700  30.787  1.00  0.00    -0.206 F 
ATOM     71  C   UNL A   1      46.948  35.785  28.908  1.00  0.00     0.060 A 
BRANCH  71  72
ATOM     72  S   UNL A   1      47.390  37.521  29.133  1.00  0.00     0.124 S 
ATOM     73  O   UNL A   1      47.685  37.563  30.561  1.00  0.00    -0.237 OA
ATOM     74  O   UNL A   1      48.539  37.667  28.245  1.00  0.00    -0.237 OA
ATOM     75  O   UNL A   1      46.187  38.235  28.719  1.00  0.00    -0.744 OA
ENDBRANCH  71  72
ENDBRANCH  50  64
BRANCH  51  76
ATOM     76  C   UNL A   1      43.340  23.624  27.013  1.00  0.00     0.058 A 
ATOM     77  C   UNL A   1      43.100  23.174  25.704  1.00  0.00     0.135 A 
ATOM     78  C   UNL A   1      43.167  22.703  28.057  1.00  0.00     0.135 A 
ATOM     79  F   UNL A   1      43.246  24.017  24.670  1.00  0.00    -0.206 F 
ATOM     80  C   UNL A   1      42.689  21.871  25.442  1.00  0.00     0.059 A 
ATOM     81  C   UNL A   1      42.780  21.387  27.818  1.00  0.00     0.059 A 
ATOM     82  F   UNL A   1      43.397  23.075  29.327  1.00  0.00    -0.206 F 
ATOM     83  C   UNL A   1      42.533  20.983  26.507  1.00  0.00     0.060 A 
BRANCH  83  84
ATOM     84  S   UNL A   1      42.041  19.281  26.149  1.00  0.00     0.124 S 
ATOM     85  O   UNL A   1      42.839  18.985  24.969  1.00  0.00    -0.237 OA
ATOM     86  O   UNL A   1      42.421  18.586  27.373  1.00  0.00    -0.237 OA
ATOM     87  O   UNL A   1      40.598  19.392  25.925  1.00  0.00    -0.744 OA
ENDBRANCH  83  84
ENDBRANCH  51  76
BRANCH  63  88
ATOM     88  C   UNL A   1      49.457  26.946  26.486  1.00  0.00     0.058 A 
ATOM     89  C   UNL A   1      49.940  27.055  25.174  1.00  0.00     0.135 A 
ATOM     90  C   UNL A   1      50.326  26.448  27.469  1.00  0.00     0.135 A 
ATOM     91  F   UNL A   1      49.145  27.521  24.197  1.00  0.00    -0.206 F 
ATOM     92  C   UNL A   1      51.233  26.667  24.844  1.00  0.00     0.059 A 
ATOM     93  C   UNL A   1      51.632  26.080  27.168  1.00  0.00     0.059 A 
ATOM     94  F   UNL A   1      49.915  26.336  28.743  1.00  0.00    -0.206 F 
ATOM     95  C   UNL A   1      52.073  26.182  25.849  1.00  0.00     0.060 A 
BRANCH  95  96
ATOM     96  S   UNL A   1      53.762  25.716  25.414  1.00  0.00     0.124 S 
ATOM     97  O   UNL A   1      53.600  25.282  24.031  1.00  0.00    -0.237 OA
ATOM     98  O   UNL A   1      54.490  26.967  25.605  1.00  0.00    -0.237 OA
ATOM     99  O   UNL A   1      54.080  24.661  26.372  1.00  0.00    -0.744 OA
ENDBRANCH  95  96
ENDBRANCH  63  88
ENDBRANCH  37  38
ENDBRANCH  29  32
ENDBRANCH  27  28
ENDBRANCH  26  27
ENDBRANCH   1  26
TORSDOF 19
ENDMDL
MODEL 2
REMARK VINA RESULT:     -10.8      6.541     11.992
REMARK SMILES CC[C@@H]1CCCC[C@@H]1OCC[C@@H]1CCC[C@]1([NH2+]C)C(=O)NCCCNC(=O)c1ccc(-c2c3nc(c(-c4c(F)cc(S(=O)(=O)[O-])cc4F)c4ccc([nH]4)c(-c4c(F)cc(S(=O)(=O)[O-])cc4F)c4nc(c(-c5c(F)cc(S(=O)(=O)[O-])cc5F)c5ccc2[nH]5)C=C4)C=C3)cc1
REMARK SMILES IDX 22 1 21 2 19 3 20 4 16 6 12 7 13 8 14 9 15 10 11 11 10 12
REMARK SMILES IDX 9 13 8 14 3 15 4 16 5 17 7 18 6 19 2 20 1 21 17 22 18 23
REMARK SMILES IDX 23 26 24 27 25 28 26 29 27 31 28 32 29 33 93 34 30 35 92 36
REMARK SMILES IDX 31 37 32 38 33 39 86 40 34 41 91 42 85 43 87 44 35 45 90 46
REMARK SMILES IDX 84 47 83 48 36 50 70 51 49 52 69 53 50 54 53 55 68 56 88 57
REMARK SMILES IDX 51 58 52 59 67 61 89 62 54 63 37 64 38 65 47 66 39 67 40 68
REMARK SMILES IDX 46 69 48 70 41 71 42 72 43 73 44 74 45 75 71 76 72 77 81 78
REMARK SMILES IDX 73 79 74 80 80 81 82 82 75 83 76 84 77 85 78 86 79 87 55 88
REMARK SMILES IDX 56 89 65 90 57 91 58 92 64 93 66 94 59 95 60 96 61 97 62 98
REMARK SMILES IDX 63 99
REMARK H PARENT 21 5 17 24 17 25 25 30 87 49 53 60
REMARK Flexibility Score: inf
ROOT
ATOM      1  C   UNL A   1      37.667  22.027  25.148  1.00  0.00     0.118 C 
ENDROOT
BRANCH   1   2
ATOM      2  N   UNL A   1      36.409  21.763  24.348  1.00  0.00    -0.351 N 
ATOM      3  C   UNL A   1      35.266  22.564  24.286  1.00  0.00     0.281 C 
ATOM      4  O   UNL A   1      35.349  23.580  23.580  1.00  0.00    -0.268 OA
ATOM      5  H   UNL A   1      36.395  20.938  23.813  1.00  0.00     0.163 HD
BRANCH   3   6
ATOM      6  C   UNL A   1      33.807  22.079  24.832  1.00  0.00     0.178 C 
ATOM      7  C   UNL A   1      33.021  23.113  25.686  1.00  0.00     0.063 C 
ATOM      8  C   UNL A   1      33.844  23.154  26.982  1.00  0.00     0.011 C 
ATOM      9  C   UNL A   1      34.186  21.682  27.239  1.00  0.00     0.008 C 
ATOM     10  C   UNL A   1      34.025  20.971  25.902  1.00  0.00     0.079 C 
BRANCH   7  11
ATOM     11  C   UNL A   1      32.439  24.461  25.187  1.00  0.00     0.039 C 
BRANCH  11  12
ATOM     12  C   UNL A   1      31.358  25.290  25.900  1.00  0.00     0.161 C 
BRANCH  12  13
ATOM     13  O   UNL A   1      30.674  26.445  25.321  1.00  0.00    -0.378 OA
BRANCH  13  14
ATOM     14  C   UNL A   1      31.122  27.742  25.669  1.00  0.00     0.121 C 
ATOM     15  C   UNL A   1      31.594  28.820  24.564  1.00  0.00     0.018 C 
ATOM     16  C   UNL A   1      33.129  28.808  24.424  1.00  0.00     0.006 C 
ATOM     17  C   UNL A   1      33.822  28.926  25.761  1.00  0.00     0.000 C 
ATOM     18  C   UNL A   1      32.037  27.647  26.906  1.00  0.00     0.032 C 
ATOM     19  C   UNL A   1      33.517  27.699  26.586  1.00  0.00     0.003 C 
BRANCH  15  20
ATOM     20  C   UNL A   1      31.108  29.025  23.076  1.00  0.00     0.003 C 
ATOM     21  C   UNL A   1      29.664  28.852  22.621  1.00  0.00     0.004 C 
ENDBRANCH  15  20
ENDBRANCH  13  14
ENDBRANCH  12  13
ENDBRANCH  11  12
ENDBRANCH   7  11
BRANCH   6  22
ATOM     22  N   UNL A   1      32.912  21.498  23.795  1.00  0.00    -0.336 N 
ATOM     23  C   UNL A   1      32.467  20.123  23.833  1.00  0.00     0.331 C 
ATOM     24  H   UNL A   1      33.398  21.614  22.906  1.00  0.00     0.346 HD
ATOM     25  H   UNL A   1      32.042  22.004  23.962  1.00  0.00     0.346 HD
ENDBRANCH   6  22
ENDBRANCH   3   6
ENDBRANCH   1   2
BRANCH   1  26
ATOM     26  C   UNL A   1      37.770  23.420  25.810  1.00  0.00     0.042 C 
BRANCH  26  27
ATOM     27  C   UNL A   1      38.897  23.654  26.808  1.00  0.00     0.118 C 
BRANCH  27  28
ATOM     28  N   UNL A   1      40.255  23.806  26.282  1.00  0.00    -0.352 N 
ATOM     29  C   UNL A   1      41.211  24.770  26.591  1.00  0.00     0.251 C 
ATOM     30  H   UNL A   1      40.532  23.132  25.619  1.00  0.00     0.163 HD
ATOM     31  O   UNL A   1      42.310  24.744  26.044  1.00  0.00    -0.269 OA
BRANCH  29  32
ATOM     32  C   UNL A   1      40.892  25.870  27.545  1.00  0.00     0.039 A 
ATOM     33  C   UNL A   1      39.815  25.748  28.432  1.00  0.00     0.014 A 
ATOM     34  C   UNL A   1      41.695  27.005  27.608  1.00  0.00     0.014 A 
ATOM     35  C   UNL A   1      39.626  26.706  29.442  1.00  0.00     0.010 A 
ATOM     36  C   UNL A   1      41.603  27.864  28.694  1.00  0.00     0.010 A 
ATOM     37  C   UNL A   1      40.551  27.747  29.613  1.00  0.00    -0.014 A 
BRANCH  37  38
ATOM     38  C   UNL A   1      40.432  28.773  30.685  1.00  0.00     0.031 A 
ATOM     39  C   UNL A   1      41.310  28.660  31.911  1.00  0.00     0.074 A 
ATOM     40  C   UNL A   1      39.485  29.732  30.621  1.00  0.00     0.049 A 
ATOM     41  N   UNL A   1      41.270  29.339  33.029  1.00  0.00    -0.248 NA
ATOM     42  C   UNL A   1      42.333  27.598  31.899  1.00  0.00     0.031 C 
ATOM     43  C   UNL A   1      38.525  29.909  29.528  1.00  0.00     0.029 A 
ATOM     44  N   UNL A   1      39.161  30.733  31.505  1.00  0.00    -0.354 N 
ATOM     45  C   UNL A   1      42.230  28.761  33.855  1.00  0.00     0.074 A 
ATOM     46  C   UNL A   1      42.778  27.630  33.145  1.00  0.00     0.031 C 
ATOM     47  C   UNL A   1      37.746  30.971  29.792  1.00  0.00     0.029 A 
ATOM     48  C   UNL A   1      38.120  31.529  31.087  1.00  0.00     0.049 A 
ATOM     49  H   UNL A   1      39.632  30.868  32.359  1.00  0.00     0.167 HD
ATOM     50  C   UNL A   1      42.649  29.159  35.079  1.00  0.00     0.037 A 
ATOM     51  C   UNL A   1      37.534  32.588  31.682  1.00  0.00     0.037 A 
ATOM     52  C   UNL A   1      42.150  30.329  35.748  1.00  0.00     0.049 A 
ATOM     53  C   UNL A   1      38.049  33.045  33.023  1.00  0.00     0.074 A 
ATOM     54  C   UNL A   1      42.561  30.875  36.951  1.00  0.00     0.029 A 
ATOM     55  N   UNL A   1      41.139  31.144  35.260  1.00  0.00    -0.354 N 
ATOM     56  N   UNL A   1      39.002  32.525  33.760  1.00  0.00    -0.248 NA
ATOM     57  C   UNL A   1      37.419  34.237  33.608  1.00  0.00     0.031 C 
ATOM     58  C   UNL A   1      41.774  32.002  37.208  1.00  0.00     0.029 A 
ATOM     59  C   UNL A   1      40.904  32.183  36.143  1.00  0.00     0.049 A 
ATOM     60  H   UNL A   1      40.660  31.004  34.412  1.00  0.00     0.167 HD
ATOM     61  C   UNL A   1      39.105  33.341  34.882  1.00  0.00     0.074 A 
ATOM     62  C   UNL A   1      38.126  34.396  34.719  1.00  0.00     0.031 C 
ATOM     63  C   UNL A   1      39.932  33.230  35.950  1.00  0.00     0.037 A 
BRANCH  50  64
ATOM     64  C   UNL A   1      43.716  28.339  35.754  1.00  0.00     0.058 A 
ATOM     65  C   UNL A   1      43.396  27.301  36.646  1.00  0.00     0.135 A 
ATOM     66  C   UNL A   1      45.075  28.579  35.494  1.00  0.00     0.135 A 
ATOM     67  F   UNL A   1      42.115  27.038  36.945  1.00  0.00    -0.206 F 
ATOM     68  C   UNL A   1      44.384  26.556  37.282  1.00  0.00     0.059 A 
ATOM     69  C   UNL A   1      46.079  27.826  36.096  1.00  0.00     0.059 A 
ATOM     70  F   UNL A   1      45.440  29.560  34.653  1.00  0.00    -0.206 F 
ATOM     71  C   UNL A   1      45.723  26.827  37.001  1.00  0.00     0.060 A 
BRANCH  71  72
ATOM     72  S   UNL A   1      46.992  25.845  37.830  1.00  0.00     0.124 S 
ATOM     73  O   UNL A   1      47.619  26.846  38.687  1.00  0.00    -0.237 OA
ATOM     74  O   UNL A   1      46.200  24.831  38.518  1.00  0.00    -0.237 OA
ATOM     75  O   UNL A   1      47.815  25.355  36.730  1.00  0.00    -0.744 OA
ENDBRANCH  71  72
ENDBRANCH  50  64
BRANCH  51  76
ATOM     76  C   UNL A   1      36.426  33.313  31.002  1.00  0.00     0.058 A 
ATOM     77  C   UNL A   1      36.672  34.115  29.877  1.00  0.00     0.135 A 
ATOM     78  C   UNL A   1      35.099  33.215  31.451  1.00  0.00     0.135 A 
ATOM     79  F   UNL A   1      37.924  34.247  29.411  1.00  0.00    -0.206 F 
ATOM     80  C   UNL A   1      35.651  34.806  29.232  1.00  0.00     0.059 A 
ATOM     81  C   UNL A   1      34.057  33.876  30.808  1.00  0.00     0.059 A 
ATOM     82  F   UNL A   1      34.804  32.449  32.514  1.00  0.00    -0.206 F 
ATOM     83  C   UNL A   1      34.344  34.679  29.705  1.00  0.00     0.060 A 
BRANCH  83  84
ATOM     84  S   UNL A   1      33.020  35.546  28.831  1.00  0.00     0.124 S 
ATOM     85  O   UNL A   1      32.209  36.036  29.936  1.00  0.00    -0.237 OA
ATOM     86  O   UNL A   1      33.756  36.554  28.078  1.00  0.00    -0.237 OA
ATOM     87  O   UNL A   1      32.411  34.490  28.020  1.00  0.00    -0.744 OA
ENDBRANCH  83  84
ENDBRANCH  51  76
BRANCH  63  88
ATOM     88  C   UNL A   1      39.844  34.292  37.009  1.00  0.00     0.058 A 
ATOM     89  C   UNL A   1      40.484  35.532  36.864  1.00  0.00     0.135 A 
ATOM     90  C   UNL A   1      39.055  34.088  38.152  1.00  0.00     0.135 A 
ATOM     91  F   UNL A   1      41.253  35.774  35.790  1.00  0.00    -0.206 F 
ATOM     92  C   UNL A   1      40.362  36.526  37.827  1.00  0.00     0.059 A 
ATOM     93  C   UNL A   1      38.895  35.078  39.114  1.00  0.00     0.059 A 
ATOM     94  F   UNL A   1      38.411  32.922  38.330  1.00  0.00    -0.206 F 
ATOM     95  C   UNL A   1      39.563  36.291  38.948  1.00  0.00     0.060 A 
BRANCH  95  96
ATOM     96  S   UNL A   1      39.382  37.605  40.172  1.00  0.00     0.124 S 
ATOM     97  O   UNL A   1      38.279  38.378  39.614  1.00  0.00    -0.237 OA
ATOM     98  O   UNL A   1      39.081  36.858  41.390  1.00  0.00    -0.237 OA
ATOM     99  O   UNL A   1      40.685  38.265  40.156  1.00  0.00    -0.744 OA
ENDBRANCH  95  96
ENDBRANCH  63  88
ENDBRANCH  37  38
ENDBRANCH  29  32
ENDBRANCH  27  28
ENDBRANCH  26  27
ENDBRANCH   1  26
TORSDOF 19
ENDMDL
MODEL 3
REMARK VINA RESULT:     -10.7      2.639      3.394
REMARK SMILES CC[C@@H]1CCCC[C@@H]1OCC[C@@H]1CCC[C@]1([NH2+]C)C(=O)NCCCNC(=O)c1ccc(-c2c3nc(c(-c4c(F)cc(S(=O)(=O)[O-])cc4F)c4ccc([nH]4)c(-c4c(F)cc(S(=O)(=O)[O-])cc4F)c4nc(c(-c5c(F)cc(S(=O)(=O)[O-])cc5F)c5ccc2[nH]5)C=C4)C=C3)cc1
REMARK SMILES IDX 22 1 21 2 19 3 20 4 16 6 12 7 13 8 14 9 15 10 11 11 10 12
REMARK SMILES IDX 9 13 8 14 3 15 4 16 5 17 7 18 6 19 2 20 1 21 17 22 18 23
REMARK SMILES IDX 23 26 24 27 25 28 26 29 27 31 28 32 29 33 93 34 30 35 92 36
REMARK SMILES IDX 31 37 32 38 33 39 86 40 34 41 91 42 85 43 87 44 35 45 90 46
REMARK SMILES IDX 84 47 83 48 36 50 70 51 49 52 69 53 50 54 53 55 68 56 88 57
REMARK SMILES IDX 51 58 52 59 67 61 89 62 54 63 37 64 38 65 47 66 39 67 40 68
REMARK SMILES IDX 46 69 48 70 41 71 42 72 43 73 44 74 45 75 71 76 72 77 81 78
REMARK SMILES IDX 73 79 74 80 80 81 82 82 75 83 76 84 77 85 78 86 79 87 55 88
REMARK SMILES IDX 56 89 65 90 57 91 58 92 64 93 66 94 59 95 60 96 61 97 62 98
REMARK SMILES IDX 63 99
REMARK H PARENT 21 5 17 24 17 25 25 30 87 49 53 60
REMARK Flexibility Score: inf
ROOT
ATOM      1  C   UNL A   1      31.428  28.532  26.050  1.00  0.00     0.118 C 
ENDROOT
BRANCH   1   2
ATOM      2  N   UNL A   1      30.822  27.366  25.298  1.00  0.00    -0.351 N 
ATOM      3  C   UNL A   1      30.872  26.016  25.653  1.00  0.00     0.281 C 
ATOM      4  O   UNL A   1      30.108  25.661  26.562  1.00  0.00    -0.268 OA
ATOM      5  H   UNL A   1      30.340  27.583  24.468  1.00  0.00     0.163 HD
BRANCH   3   6
ATOM      6  C   UNL A   1      31.638  24.886  24.758  1.00  0.00     0.178 C 
ATOM      7  C   UNL A   1      32.805  24.137  25.458  1.00  0.00     0.063 C 
ATOM      8  C   UNL A   1      33.876  25.234  25.562  1.00  0.00     0.011 C 
ATOM      9  C   UNL A   1      33.799  25.943  24.206  1.00  0.00     0.008 C 
ATOM     10  C   UNL A   1      32.430  25.606  23.629  1.00  0.00     0.079 C 
BRANCH   7  11
ATOM     11  C   UNL A   1      32.682  23.168  26.662  1.00  0.00     0.039 C 
BRANCH  11  12
ATOM     12  C   UNL A   1      33.683  22.060  27.028  1.00  0.00     0.161 C 
BRANCH  12  13
ATOM     13  O   UNL A   1      35.132  22.152  26.851  1.00  0.00    -0.378 OA
BRANCH  13  14
ATOM     14  C   UNL A   1      35.715  21.536  25.718  1.00  0.00     0.121 C 
ATOM     15  C   UNL A   1      37.214  21.878  25.224  1.00  0.00     0.018 C 
ATOM     16  C   UNL A   1      37.181  22.921  24.089  1.00  0.00     0.006 C 
ATOM     17  C   UNL A   1      36.223  22.530  22.988  1.00  0.00     0.000 C 
ATOM     18  C   UNL A   1      34.669  21.456  24.589  1.00  0.00     0.032 C 
ATOM     19  C   UNL A   1      34.815  22.532  23.533  1.00  0.00     0.003 C 
BRANCH  15  20
ATOM     20  C   UNL A   1      38.483  22.309  26.058  1.00  0.00     0.003 C 
ATOM     21  C   UNL A   1      38.696  23.709  26.620  1.00  0.00     0.004 C 
ENDBRANCH  15  20
ENDBRANCH  13  14
ENDBRANCH  12  13
ENDBRANCH  11  12
ENDBRANCH   7  11
BRANCH   6  22
ATOM     22  N   UNL A   1      30.740  23.906  24.088  1.00  0.00    -0.336 N 
ATOM     23  C   UNL A   1      31.233  22.893  23.181  1.00  0.00     0.331 C 
ATOM     24  H   UNL A   1      30.066  24.457  23.557  1.00  0.00     0.346 HD
ATOM     25  H   UNL A   1      30.421  23.343  24.876  1.00  0.00     0.346 HD
ENDBRANCH   6  22
ENDBRANCH   3   6
ENDBRANCH   1   2
BRANCH   1  26
ATOM     26  C   UNL A   1      32.331  28.168  27.251  1.00  0.00     0.042 C 
BRANCH  26  27
ATOM     27  C   UNL A   1      33.665  28.893  27.386  1.00  0.00     0.118 C 
BRANCH  27  28
ATOM     28  N   UNL A   1      33.656  30.235  27.972  1.00  0.00    -0.352 N 
ATOM     29  C   UNL A   1      34.708  30.951  28.535  1.00  0.00     0.251 C 
ATOM     30  H   UNL A   1      32.785  30.695  27.965  1.00  0.00     0.163 HD
ATOM     31  O   UNL A   1      34.515  32.077  28.985  1.00  0.00    -0.269 OA
BRANCH  29  32
ATOM     32  C   UNL A   1      36.063  30.340  28.645  1.00  0.00     0.039 A 
ATOM     33  C   UNL A   1      36.944  30.369  27.557  1.00  0.00     0.014 A 
ATOM     34  C   UNL A   1      36.493  29.785  29.848  1.00  0.00     0.014 A 
ATOM     35  C   UNL A   1      38.274  29.950  27.719  1.00  0.00     0.010 A 
ATOM     36  C   UNL A   1      37.839  29.519  30.050  1.00  0.00     0.010 A 
ATOM     37  C   UNL A   1      38.747  29.568  28.984  1.00  0.00    -0.014 A 
BRANCH  37  38
ATOM     38  C   UNL A   1      40.155  29.150  29.234  1.00  0.00     0.031 A 
ATOM     39  C   UNL A   1      41.130  30.154  29.804  1.00  0.00     0.074 A 
ATOM     40  C   UNL A   1      40.587  27.927  28.863  1.00  0.00     0.049 A 
ATOM     41  N   UNL A   1      42.426  30.063  29.955  1.00  0.00    -0.248 NA
ATOM     42  C   UNL A   1      40.578  31.463  30.202  1.00  0.00     0.031 C 
ATOM     43  C   UNL A   1      39.767  26.887  28.236  1.00  0.00     0.029 A 
ATOM     44  N   UNL A   1      41.834  27.354  28.945  1.00  0.00    -0.354 N 
ATOM     45  C   UNL A   1      42.839  31.306  30.425  1.00  0.00     0.074 A 
ATOM     46  C   UNL A   1      41.674  32.158  30.458  1.00  0.00     0.031 C 
ATOM     47  C   UNL A   1      40.522  25.797  28.021  1.00  0.00     0.029 A 
ATOM     48  C   UNL A   1      41.888  26.068  28.456  1.00  0.00     0.049 A 
ATOM     49  H   UNL A   1      42.615  27.820  29.318  1.00  0.00     0.167 HD
ATOM     50  C   UNL A   1      44.070  31.694  30.834  1.00  0.00     0.037 A 
ATOM     51  C   UNL A   1      42.923  25.208  28.370  1.00  0.00     0.037 A 
ATOM     52  C   UNL A   1      45.210  30.819  30.867  1.00  0.00     0.049 A 
ATOM     53  C   UNL A   1      44.274  25.643  28.876  1.00  0.00     0.074 A 
ATOM     54  C   UNL A   1      46.483  31.080  31.340  1.00  0.00     0.029 A 
ATOM     55  N   UNL A   1      45.206  29.505  30.423  1.00  0.00    -0.354 N 
ATOM     56  N   UNL A   1      44.632  26.802  29.378  1.00  0.00    -0.248 NA
ATOM     57  C   UNL A   1      45.359  24.655  28.815  1.00  0.00     0.031 C 
ATOM     58  C   UNL A   1      47.260  29.932  31.149  1.00  0.00     0.029 A 
ATOM     59  C   UNL A   1      46.458  28.944  30.600  1.00  0.00     0.049 A 
ATOM     60  H   UNL A   1      44.428  29.040  30.038  1.00  0.00     0.167 HD
ATOM     61  C   UNL A   1      45.974  26.673  29.718  1.00  0.00     0.074 A 
ATOM     62  C   UNL A   1      46.361  25.319  29.376  1.00  0.00     0.031 C 
ATOM     63  C   UNL A   1      46.813  27.587  30.264  1.00  0.00     0.037 A 
BRANCH  50  64
ATOM     64  C   UNL A   1      44.236  33.116  31.303  1.00  0.00     0.058 A 
ATOM     65  C   UNL A   1      44.081  33.469  32.654  1.00  0.00     0.135 A 
ATOM     66  C   UNL A   1      44.571  34.134  30.397  1.00  0.00     0.135 A 
ATOM     67  F   UNL A   1      43.743  32.540  33.562  1.00  0.00    -0.206 F 
ATOM     68  C   UNL A   1      44.216  34.785  33.083  1.00  0.00     0.059 A 
ATOM     69  C   UNL A   1      44.742  35.453  30.810  1.00  0.00     0.059 A 
ATOM     70  F   UNL A   1      44.729  33.855  29.093  1.00  0.00    -0.206 F 
ATOM     71  C   UNL A   1      44.546  35.771  32.153  1.00  0.00     0.060 A 
BRANCH  71  72
ATOM     72  S   UNL A   1      44.726  37.472  32.729  1.00  0.00     0.124 S 
ATOM     73  O   UNL A   1      43.388  37.749  33.241  1.00  0.00    -0.237 OA
ATOM     74  O   UNL A   1      45.776  37.351  33.736  1.00  0.00    -0.237 OA
ATOM     75  O   UNL A   1      45.100  38.202  31.522  1.00  0.00    -0.744 OA
ENDBRANCH  71  72
ENDBRANCH  50  64
BRANCH  51  76
ATOM     76  C   UNL A   1      42.718  23.840  27.821  1.00  0.00     0.058 A 
ATOM     77  C   UNL A   1      42.788  23.599  26.439  1.00  0.00     0.135 A 
ATOM     78  C   UNL A   1      42.459  22.743  28.658  1.00  0.00     0.135 A 
ATOM     79  F   UNL A   1      43.026  24.615  25.594  1.00  0.00    -0.206 F 
ATOM     80  C   UNL A   1      42.592  22.329  25.906  1.00  0.00     0.059 A 
ATOM     81  C   UNL A   1      42.284  21.459  28.151  1.00  0.00     0.059 A 
ATOM     82  F   UNL A   1      42.397  22.913  29.989  1.00  0.00    -0.206 F 
ATOM     83  C   UNL A   1      42.342  21.263  26.772  1.00  0.00     0.060 A 
BRANCH  83  84
ATOM     84  S   UNL A   1      42.134  19.610  26.071  1.00  0.00     0.124 S 
ATOM     85  O   UNL A   1      40.703  19.580  25.805  1.00  0.00    -0.237 OA
ATOM     86  O   UNL A   1      43.004  19.659  24.902  1.00  0.00    -0.237 OA
ATOM     87  O   UNL A   1      42.594  18.732  27.148  1.00  0.00    -0.744 OA
ENDBRANCH  83  84
ENDBRANCH  51  76
BRANCH  63  88
ATOM     88  C   UNL A   1      48.219  27.150  30.559  1.00  0.00     0.058 A 
ATOM     89  C   UNL A   1      49.265  27.370  29.651  1.00  0.00     0.135 A 
ATOM     90  C   UNL A   1      48.532  26.562  31.795  1.00  0.00     0.135 A 
ATOM     91  F   UNL A   1      49.016  27.926  28.454  1.00  0.00    -0.206 F 
ATOM     92  C   UNL A   1      50.572  27.003  29.949  1.00  0.00     0.059 A 
ATOM     93  C   UNL A   1      49.836  26.213  32.126  1.00  0.00     0.059 A 
ATOM     94  F   UNL A   1      47.568  26.342  32.704  1.00  0.00    -0.206 F 
ATOM     95  C   UNL A   1      50.849  26.427  31.191  1.00  0.00     0.060 A 
BRANCH  95  96
ATOM     96  S   UNL A   1      52.556  25.990  31.581  1.00  0.00     0.124 S 
ATOM     97  O   UNL A   1      53.182  26.052  30.265  1.00  0.00    -0.237 OA
ATOM     98  O   UNL A   1      52.942  27.041  32.517  1.00  0.00    -0.237 OA
ATOM     99  O   UNL A   1      52.440  24.654  32.160  1.00  0.00    -0.744 OA
ENDBRANCH  95  96
ENDBRANCH  63  88
ENDBRANCH  37  38
ENDBRANCH  29  32
ENDBRANCH  27  28
ENDBRANCH  26  27
ENDBRANCH   1  26
TORSDOF 19
ENDMDL
