MODEL 1
REMARK VINA RESULT:     -11.5      0.000      0.000
REMARK SMILES COc1ccc(/C=C/c2cc(OC)cc(OC)c2/C=C/C(=O)NCCCNC(=O)c2ccc(-c3c4nc(c(-c5c(F)cc(S(=O)(=O)[O-])cc5F)c5ccc([nH]5)c(-c5c(F)cc(S(=O)(=O)[O-])cc5F)c5nc(c(-c6c(F)cc(S(=O)(=O)[O-])cc6F)c6ccc3[nH]6)C=C5)C=C4)cc2)cc1
REMARK SMILES IDX 24 1 23 2 21 3 22 4 20 6 19 7 18 8 9 9 10 10 11 11 15 12
REMARK SMILES IDX 14 13 8 14 7 15 6 16 3 17 4 18 97 19 5 20 96 21 2 22 1 23
REMARK SMILES IDX 12 24 13 25 16 26 17 27 25 28 26 29 27 30 28 31 29 33 30 34
REMARK SMILES IDX 31 35 95 36 32 37 94 38 33 39 34 40 35 41 88 42 36 43 93 44
REMARK SMILES IDX 87 45 89 46 37 47 92 48 86 49 85 50 38 52 72 53 51 54 71 55
REMARK SMILES IDX 52 56 55 57 70 58 90 59 53 60 54 61 69 63 91 64 56 65 39 66
REMARK SMILES IDX 40 67 49 68 41 69 42 70 48 71 50 72 43 73 44 74 45 75 46 76
REMARK SMILES IDX 47 77 73 78 74 79 83 80 75 81 76 82 82 83 84 84 77 85 78 86
REMARK SMILES IDX 79 87 80 88 81 89 57 90 58 91 67 92 59 93 60 94 66 95 68 96
REMARK SMILES IDX 61 97 62 98 63 99 64 100 65 101
REMARK H PARENT 23 5 27 32 89 51 55 62
REMARK Flexibility Score: inf
ROOT
ATOM      1  C   UNL A   1      37.431  21.227  24.906  1.00  0.00     0.118 C 
ENDROOT
BRANCH   1   2
ATOM      2  N   UNL A   1      38.165  22.455  25.130  1.00  0.00    -0.352 N 
ATOM      3  C   UNL A   1      37.722  23.575  25.760  1.00  0.00     0.244 C 
ATOM      4  O   UNL A   1      38.472  24.515  26.003  1.00  0.00    -0.270 OA
ATOM      5  H   UNL A   1      39.087  22.482  24.787  1.00  0.00     0.163 HD
BRANCH   3   6
ATOM      6  C   UNL A   1      36.312  23.623  26.191  1.00  0.00     0.072 C 
ATOM      7  C   UNL A   1      35.384  24.096  25.346  1.00  0.00     0.018 C 
BRANCH   7   8
ATOM      8  C   UNL A   1      33.992  24.340  25.753  1.00  0.00     0.024 A 
ATOM      9  C   UNL A   1      33.155  23.212  26.000  1.00  0.00    -0.011 A 
ATOM     10  C   UNL A   1      31.803  23.396  26.334  1.00  0.00     0.055 A 
ATOM     11  C   UNL A   1      31.254  24.670  26.412  1.00  0.00     0.123 A 
ATOM     12  C   UNL A   1      33.434  25.633  25.858  1.00  0.00     0.130 A 
ATOM     13  C   UNL A   1      32.075  25.772  26.197  1.00  0.00     0.093 A 
BRANCH   9  14
ATOM     14  C   UNL A   1      33.609  21.811  25.875  1.00  0.00     0.009 C 
ATOM     15  C   UNL A   1      32.845  20.835  25.354  1.00  0.00     0.009 C 
BRANCH  15  16
ATOM     16  C   UNL A   1      33.236  19.412  25.264  1.00  0.00    -0.025 A 
ATOM     17  C   UNL A   1      34.010  16.708  24.937  1.00  0.00     0.118 A 
ATOM     18  C   UNL A   1      32.904  17.043  25.717  1.00  0.00     0.047 A 
ATOM     19  C   UNL A   1      34.732  17.724  24.315  1.00  0.00     0.047 A 
ATOM     20  C   UNL A   1      32.524  18.381  25.890  1.00  0.00     0.012 A 
ATOM     21  C   UNL A   1      34.356  19.065  24.493  1.00  0.00     0.012 A 
BRANCH  17  22
ATOM     22  O   UNL A   1      34.269  15.369  24.840  1.00  0.00    -0.497 OA
ATOM     23  C   UNL A   1      33.267  14.496  25.348  1.00  0.00     0.278 C 
ENDBRANCH  17  22
ENDBRANCH  15  16
ENDBRANCH   9  14
BRANCH  11  24
ATOM     24  O   UNL A   1      29.918  24.725  26.702  1.00  0.00    -0.497 OA
ATOM     25  C   UNL A   1      29.311  23.491  27.075  1.00  0.00     0.278 C 
ENDBRANCH  11  24
BRANCH  12  26
ATOM     26  O   UNL A   1      33.985  26.870  25.662  1.00  0.00    -0.496 OA
ATOM     27  C   UNL A   1      33.674  27.682  24.546  1.00  0.00     0.278 C 
ENDBRANCH  12  26
ENDBRANCH   7   8
ENDBRANCH   3   6
ENDBRANCH   1   2
BRANCH   1  28
ATOM     28  C   UNL A   1      38.246  19.997  25.273  1.00  0.00     0.042 C 
BRANCH  28  29
ATOM     29  C   UNL A   1      39.482  20.334  26.091  1.00  0.00     0.118 C 
BRANCH  29  30
ATOM     30  N   UNL A   1      40.483  19.273  26.047  1.00  0.00    -0.352 N 
ATOM     31  C   UNL A   1      41.854  19.366  26.037  1.00  0.00     0.251 C 
ATOM     32  H   UNL A   1      40.123  18.358  26.019  1.00  0.00     0.163 HD
ATOM     33  O   UNL A   1      42.537  18.375  25.809  1.00  0.00    -0.269 OA
BRANCH  31  34
ATOM     34  C   UNL A   1      42.485  20.671  26.317  1.00  0.00     0.039 A 
ATOM     35  C   UNL A   1      42.904  21.479  25.258  1.00  0.00     0.014 A 
ATOM     36  C   UNL A   1      42.651  21.091  27.639  1.00  0.00     0.014 A 
ATOM     37  C   UNL A   1      43.445  22.739  25.527  1.00  0.00     0.010 A 
ATOM     38  C   UNL A   1      43.101  22.376  27.901  1.00  0.00     0.010 A 
ATOM     39  C   UNL A   1      43.521  23.206  26.850  1.00  0.00    -0.014 A 
BRANCH  39  40
ATOM     40  C   UNL A   1      44.080  24.536  27.194  1.00  0.00     0.031 A 
ATOM     41  C   UNL A   1      43.140  25.628  27.630  1.00  0.00     0.074 A 
ATOM     42  C   UNL A   1      45.388  24.793  27.006  1.00  0.00     0.049 A 
ATOM     43  N   UNL A   1      43.366  26.906  27.778  1.00  0.00    -0.248 NA
ATOM     44  C   UNL A   1      41.744  25.231  27.888  1.00  0.00     0.031 C 
ATOM     45  C   UNL A   1      46.387  23.824  26.550  1.00  0.00     0.029 A 
ATOM     46  N   UNL A   1      46.098  25.958  27.149  1.00  0.00    -0.354 N 
ATOM     47  C   UNL A   1      42.137  27.470  28.104  1.00  0.00     0.074 A 
ATOM     48  C   UNL A   1      41.161  26.404  28.088  1.00  0.00     0.031 C 
ATOM     49  C   UNL A   1      47.581  24.433  26.459  1.00  0.00     0.029 A 
ATOM     50  C   UNL A   1      47.424  25.843  26.806  1.00  0.00     0.049 A 
ATOM     51  H   UNL A   1      45.696  26.798  27.468  1.00  0.00     0.167 HD
ATOM     52  C   UNL A   1      41.854  28.758  28.409  1.00  0.00     0.037 A 
ATOM     53  C   UNL A   1      48.398  26.774  26.758  1.00  0.00     0.037 A 
ATOM     54  C   UNL A   1      42.845  29.797  28.475  1.00  0.00     0.049 A 
ATOM     55  C   UNL A   1      48.068  28.193  27.134  1.00  0.00     0.074 A 
ATOM     56  C   UNL A   1      42.680  31.123  28.835  1.00  0.00     0.029 A 
ATOM     57  N   UNL A   1      44.191  29.624  28.185  1.00  0.00    -0.354 N 
ATOM     58  N   UNL A   1      46.909  28.705  27.479  1.00  0.00    -0.248 NA
ATOM     59  C   UNL A   1      49.172  29.163  27.119  1.00  0.00     0.031 C 
ATOM     60  C   UNL A   1      43.922  31.757  28.736  1.00  0.00     0.029 A 
ATOM     61  C   UNL A   1      44.868  30.818  28.354  1.00  0.00     0.049 A 
ATOM     62  H   UNL A   1      44.603  28.775  27.901  1.00  0.00     0.167 HD
ATOM     63  C   UNL A   1      47.153  30.045  27.758  1.00  0.00     0.074 A 
ATOM     64  C   UNL A   1      48.567  30.267  27.538  1.00  0.00     0.031 C 
ATOM     65  C   UNL A   1      46.284  31.004  28.162  1.00  0.00     0.037 A 
BRANCH  52  66
ATOM     66  C   UNL A   1      40.421  29.107  28.703  1.00  0.00     0.058 A 
ATOM     67  C   UNL A   1      39.490  29.328  27.675  1.00  0.00     0.135 A 
ATOM     68  C   UNL A   1      39.968  29.203  30.028  1.00  0.00     0.135 A 
ATOM     69  F   UNL A   1      39.874  29.267  26.390  1.00  0.00    -0.206 F 
ATOM     70  C   UNL A   1      38.170  29.666  27.950  1.00  0.00     0.059 A 
ATOM     71  C   UNL A   1      38.643  29.510  30.327  1.00  0.00     0.059 A 
ATOM     72  F   UNL A   1      40.815  29.002  31.049  1.00  0.00    -0.206 F 
ATOM     73  C   UNL A   1      37.756  29.757  29.280  1.00  0.00     0.060 A 
BRANCH  73  74
ATOM     74  S   UNL A   1      36.038  30.197  29.620  1.00  0.00     0.124 S 
ATOM     75  O   UNL A   1      35.354  29.594  28.480  1.00  0.00    -0.237 OA
ATOM     76  O   UNL A   1      35.800  29.558  30.910  1.00  0.00    -0.237 OA
ATOM     77  O   UNL A   1      36.059  31.656  29.640  1.00  0.00    -0.744 OA
ENDBRANCH  73  74
ENDBRANCH  52  66
BRANCH  53  78
ATOM     78  C   UNL A   1      49.778  26.386  26.365  1.00  0.00     0.058 A 
ATOM     79  C   UNL A   1      50.661  25.828  27.301  1.00  0.00     0.135 A 
ATOM     80  C   UNL A   1      50.237  26.542  25.048  1.00  0.00     0.135 A 
ATOM     81  F   UNL A   1      50.271  25.663  28.575  1.00  0.00    -0.206 F 
ATOM     82  C   UNL A   1      51.954  25.452  26.953  1.00  0.00     0.059 A 
ATOM     83  C   UNL A   1      51.518  26.153  24.668  1.00  0.00     0.059 A 
ATOM     84  F   UNL A   1      49.425  27.054  24.109  1.00  0.00    -0.206 F 
ATOM     85  C   UNL A   1      52.373  25.616  25.631  1.00  0.00     0.060 A 
BRANCH  85  86
ATOM     86  S   UNL A   1      54.037  25.079  25.177  1.00  0.00     0.124 S 
ATOM     87  O   UNL A   1      54.797  25.441  26.367  1.00  0.00    -0.237 OA
ATOM     88  O   UNL A   1      53.847  23.649  24.952  1.00  0.00    -0.237 OA
ATOM     89  O   UNL A   1      54.326  25.861  23.979  1.00  0.00    -0.744 OA
ENDBRANCH  85  86
ENDBRANCH  53  78
BRANCH  65  90
ATOM     90  C   UNL A   1      46.836  32.369  28.455  1.00  0.00     0.058 A 
ATOM     91  C   UNL A   1      47.375  32.692  29.709  1.00  0.00     0.135 A 
ATOM     92  C   UNL A   1      46.920  33.328  27.432  1.00  0.00     0.135 A 
ATOM     93  F   UNL A   1      47.311  31.812  30.720  1.00  0.00    -0.206 F 
ATOM     94  C   UNL A   1      47.980  33.923  29.939  1.00  0.00     0.059 A 
ATOM     95  C   UNL A   1      47.542  34.554  27.634  1.00  0.00     0.059 A 
ATOM     96  F   UNL A   1      46.427  33.060  26.213  1.00  0.00    -0.206 F 
ATOM     97  C   UNL A   1      48.068  34.844  28.892  1.00  0.00     0.060 A 
BRANCH  97  98
ATOM     98  S   UNL A   1      48.927  36.406  29.182  1.00  0.00     0.124 S 
ATOM     99  O   UNL A   1      48.297  37.276  28.195  1.00  0.00    -0.237 OA
ATOM    100  O   UNL A   1      48.602  36.687  30.577  1.00  0.00    -0.237 OA
ATOM    101  O   UNL A   1      50.326  36.075  28.927  1.00  0.00    -0.744 OA
ENDBRANCH  97  98
ENDBRANCH  65  90
ENDBRANCH  39  40
ENDBRANCH  31  34
ENDBRANCH  29  30
ENDBRANCH  28  29
ENDBRANCH   1  28
TORSDOF 19
ENDMDL
MODEL 2
REMARK VINA RESULT:     -11.3      6.281      8.535
REMARK SMILES COc1ccc(/C=C/c2cc(OC)cc(OC)c2/C=C/C(=O)NCCCNC(=O)c2ccc(-c3c4nc(c(-c5c(F)cc(S(=O)(=O)[O-])cc5F)c5ccc([nH]5)c(-c5c(F)cc(S(=O)(=O)[O-])cc5F)c5nc(c(-c6c(F)cc(S(=O)(=O)[O-])cc6F)c6ccc3[nH]6)C=C5)C=C4)cc2)cc1
REMARK SMILES IDX 24 1 23 2 21 3 22 4 20 6 19 7 18 8 9 9 10 10 11 11 15 12
REMARK SMILES IDX 14 13 8 14 7 15 6 16 3 17 4 18 97 19 5 20 96 21 2 22 1 23
REMARK SMILES IDX 12 24 13 25 16 26 17 27 25 28 26 29 27 30 28 31 29 33 30 34
REMARK SMILES IDX 31 35 95 36 32 37 94 38 33 39 34 40 35 41 88 42 36 43 93 44
REMARK SMILES IDX 87 45 89 46 37 47 92 48 86 49 85 50 38 52 72 53 51 54 71 55
REMARK SMILES IDX 52 56 55 57 70 58 90 59 53 60 54 61 69 63 91 64 56 65 39 66
REMARK SMILES IDX 40 67 49 68 41 69 42 70 48 71 50 72 43 73 44 74 45 75 46 76
REMARK SMILES IDX 47 77 73 78 74 79 83 80 75 81 76 82 82 83 84 84 77 85 78 86
REMARK SMILES IDX 79 87 80 88 81 89 57 90 58 91 67 92 59 93 60 94 66 95 68 96
REMARK SMILES IDX 61 97 62 98 63 99 64 100 65 101
REMARK H PARENT 23 5 27 32 89 51 55 62
REMARK Flexibility Score: inf
ROOT
ATOM      1  C   UNL A   1      37.445  22.328  25.796  1.00  0.00     0.118 C 
ENDROOT
BRANCH   1   2
ATOM      2  N   UNL A   1      37.565  22.450  24.358  1.00  0.00    -0.352 N 
ATOM      3  C   UNL A   1      36.636  22.934  23.492  1.00  0.00     0.244 C 
ATOM      4  O   UNL A   1      36.892  23.108  22.305  1.00  0.00    -0.270 OA
ATOM      5  H   UNL A   1      38.415  22.149  23.963  1.00  0.00     0.163 HD
BRANCH   3   6
ATOM      6  C   UNL A   1      35.307  23.292  24.022  1.00  0.00     0.072 C 
ATOM      7  C   UNL A   1      34.403  23.848  23.203  1.00  0.00     0.018 C 
BRANCH   7   8
ATOM      8  C   UNL A   1      33.125  24.392  23.686  1.00  0.00     0.024 A 
ATOM      9  C   UNL A   1      32.070  23.477  23.977  1.00  0.00    -0.011 A 
ATOM     10  C   UNL A   1      30.813  23.954  24.385  1.00  0.00     0.055 A 
ATOM     11  C   UNL A   1      30.569  25.319  24.495  1.00  0.00     0.123 A 
ATOM     12  C   UNL A   1      32.877  25.776  23.824  1.00  0.00     0.130 A 
ATOM     13  C   UNL A   1      31.604  26.211  24.237  1.00  0.00     0.093 A 
BRANCH   9  14
ATOM     14  C   UNL A   1      32.190  22.012  23.825  1.00  0.00     0.009 C 
ATOM     15  C   UNL A   1      32.417  21.182  24.857  1.00  0.00     0.009 C 
BRANCH  15  16
ATOM     16  C   UNL A   1      32.603  19.720  24.743  1.00  0.00    -0.025 A 
ATOM     17  C   UNL A   1      32.853  16.920  24.403  1.00  0.00     0.118 A 
ATOM     18  C   UNL A   1      32.773  17.479  25.678  1.00  0.00     0.047 A 
ATOM     19  C   UNL A   1      32.805  17.759  23.293  1.00  0.00     0.047 A 
ATOM     20  C   UNL A   1      32.661  18.865  25.850  1.00  0.00     0.012 A 
ATOM     21  C   UNL A   1      32.698  19.148  23.464  1.00  0.00     0.012 A 
BRANCH  17  22
ATOM     22  O   UNL A   1      32.951  15.556  24.372  1.00  0.00    -0.497 OA
ATOM     23  C   UNL A   1      32.829  14.887  25.622  1.00  0.00     0.278 C 
ENDBRANCH  17  22
ENDBRANCH  15  16
ENDBRANCH   9  14
BRANCH  11  24
ATOM     24  O   UNL A   1      29.297  25.668  24.857  1.00  0.00    -0.497 OA
ATOM     25  C   UNL A   1      28.579  26.465  23.920  1.00  0.00     0.278 C 
ENDBRANCH  11  24
BRANCH  12  26
ATOM     26  O   UNL A   1      33.681  26.861  23.599  1.00  0.00    -0.496 OA
ATOM     27  C   UNL A   1      33.857  27.896  24.547  1.00  0.00     0.278 C 
ENDBRANCH  12  26
ENDBRANCH   7   8
ENDBRANCH   3   6
ENDBRANCH   1   2
BRANCH   1  28
ATOM     28  C   UNL A   1      38.710  22.764  26.516  1.00  0.00     0.042 C 
BRANCH  28  29
ATOM     29  C   UNL A   1      38.877  24.274  26.549  1.00  0.00     0.118 C 
BRANCH  29  30
ATOM     30  N   UNL A   1      40.078  24.716  25.847  1.00  0.00    -0.352 N 
ATOM     31  C   UNL A   1      40.868  25.817  26.074  1.00  0.00     0.251 C 
ATOM     32  H   UNL A   1      40.363  24.141  25.101  1.00  0.00     0.163 HD
ATOM     33  O   UNL A   1      41.732  26.132  25.267  1.00  0.00    -0.269 OA
BRANCH  31  34
ATOM     34  C   UNL A   1      40.665  26.601  27.310  1.00  0.00     0.039 A 
ATOM     35  C   UNL A   1      39.867  26.084  28.333  1.00  0.00     0.014 A 
ATOM     36  C   UNL A   1      41.278  27.848  27.448  1.00  0.00     0.014 A 
ATOM     37  C   UNL A   1      39.727  26.802  29.524  1.00  0.00     0.010 A 
ATOM     38  C   UNL A   1      41.213  28.514  28.662  1.00  0.00     0.010 A 
ATOM     39  C   UNL A   1      40.422  28.009  29.706  1.00  0.00    -0.014 A 
BRANCH  39  40
ATOM     40  C   UNL A   1      40.316  28.809  30.950  1.00  0.00     0.031 A 
ATOM     41  C   UNL A   1      39.293  29.910  31.021  1.00  0.00     0.074 A 
ATOM     42  C   UNL A   1      41.199  28.629  31.951  1.00  0.00     0.049 A 
ATOM     43  N   UNL A   1      39.158  30.861  31.906  1.00  0.00    -0.248 NA
ATOM     44  C   UNL A   1      38.319  29.976  29.916  1.00  0.00     0.031 C 
ATOM     45  C   UNL A   1      42.259  27.618  31.977  1.00  0.00     0.029 A 
ATOM     46  N   UNL A   1      41.363  29.311  33.129  1.00  0.00    -0.354 N 
ATOM     47  C   UNL A   1      38.116  31.659  31.446  1.00  0.00     0.074 A 
ATOM     48  C   UNL A   1      37.684  31.108  30.181  1.00  0.00     0.031 C 
ATOM     49  C   UNL A   1      42.957  27.743  33.118  1.00  0.00     0.029 A 
ATOM     50  C   UNL A   1      42.424  28.867  33.882  1.00  0.00     0.049 A 
ATOM     51  H   UNL A   1      40.776  30.050  33.411  1.00  0.00     0.167 HD
ATOM     52  C   UNL A   1      37.558  32.741  32.036  1.00  0.00     0.037 A 
ATOM     53  C   UNL A   1      42.921  29.328  35.047  1.00  0.00     0.037 A 
ATOM     54  C   UNL A   1      37.962  33.245  33.321  1.00  0.00     0.049 A 
ATOM     55  C   UNL A   1      42.264  30.513  35.703  1.00  0.00     0.074 A 
ATOM     56  C   UNL A   1      37.423  34.295  34.042  1.00  0.00     0.029 A 
ATOM     57  N   UNL A   1      38.998  32.724  34.082  1.00  0.00    -0.354 N 
ATOM     58  N   UNL A   1      41.253  31.233  35.275  1.00  0.00    -0.248 NA
ATOM     59  C   UNL A   1      42.806  30.947  36.998  1.00  0.00     0.031 C 
ATOM     60  C   UNL A   1      38.152  34.427  35.227  1.00  0.00     0.029 A 
ATOM     61  C   UNL A   1      39.117  33.433  35.264  1.00  0.00     0.049 A 
ATOM     62  H   UNL A   1      39.563  31.962  33.820  1.00  0.00     0.167 HD
ATOM     63  C   UNL A   1      41.016  32.180  36.265  1.00  0.00     0.074 A 
ATOM     64  C   UNL A   1      41.990  31.945  37.311  1.00  0.00     0.031 C 
ATOM     65  C   UNL A   1      40.075  33.155  36.305  1.00  0.00     0.037 A 
BRANCH  52  66
ATOM     66  C   UNL A   1      36.447  33.442  31.303  1.00  0.00     0.058 A 
ATOM     67  C   UNL A   1      36.688  34.185  30.136  1.00  0.00     0.135 A 
ATOM     68  C   UNL A   1      35.123  33.353  31.760  1.00  0.00     0.135 A 
ATOM     69  F   UNL A   1      37.938  34.319  29.664  1.00  0.00    -0.206 F 
ATOM     70  C   UNL A   1      35.662  34.844  29.469  1.00  0.00     0.059 A 
ATOM     71  C   UNL A   1      34.075  33.979  31.091  1.00  0.00     0.059 A 
ATOM     72  F   UNL A   1      34.836  32.655  32.870  1.00  0.00    -0.206 F 
ATOM     73  C   UNL A   1      34.358  34.738  29.956  1.00  0.00     0.060 A 
BRANCH  73  74
ATOM     74  S   UNL A   1      33.037  35.599  29.078  1.00  0.00     0.124 S 
ATOM     75  O   UNL A   1      32.502  34.530  28.239  1.00  0.00    -0.237 OA
ATOM     76  O   UNL A   1      32.172  36.041  30.166  1.00  0.00    -0.237 OA
ATOM     77  O   UNL A   1      33.739  36.663  28.367  1.00  0.00    -0.744 OA
ENDBRANCH  73  74
ENDBRANCH  52  66
BRANCH  53  78
ATOM     78  C   UNL A   1      44.085  28.652  35.678  1.00  0.00     0.058 A 
ATOM     79  C   UNL A   1      43.898  27.614  36.603  1.00  0.00     0.135 A 
ATOM     80  C   UNL A   1      45.404  29.009  35.356  1.00  0.00     0.135 A 
ATOM     81  F   UNL A   1      42.656  27.239  36.946  1.00  0.00    -0.206 F 
ATOM     82  C   UNL A   1      44.973  26.963  37.198  1.00  0.00     0.059 A 
ATOM     83  C   UNL A   1      46.497  28.358  35.921  1.00  0.00     0.059 A 
ATOM     84  F   UNL A   1      45.639  29.983  34.463  1.00  0.00    -0.206 F 
ATOM     85  C   UNL A   1      46.271  27.341  36.849  1.00  0.00     0.060 A 
BRANCH  85  86
ATOM     86  S   UNL A   1      47.660  26.456  37.591  1.00  0.00     0.124 S 
ATOM     87  O   UNL A   1      47.288  26.455  39.000  1.00  0.00    -0.237 OA
ATOM     88  O   UNL A   1      47.599  25.165  36.912  1.00  0.00    -0.237 OA
ATOM     89  O   UNL A   1      48.810  27.286  37.240  1.00  0.00    -0.744 OA
ENDBRANCH  85  86
ENDBRANCH  53  78
BRANCH  65  90
ATOM     90  C   UNL A   1      40.003  34.008  37.539  1.00  0.00     0.058 A 
ATOM     91  C   UNL A   1      40.655  35.247  37.618  1.00  0.00     0.135 A 
ATOM     92  C   UNL A   1      39.182  33.623  38.612  1.00  0.00     0.135 A 
ATOM     93  F   UNL A   1      41.456  35.655  36.622  1.00  0.00    -0.206 F 
ATOM     94  C   UNL A   1      40.495  36.078  38.722  1.00  0.00     0.059 A 
ATOM     95  C   UNL A   1      38.989  34.447  39.714  1.00  0.00     0.059 A 
ATOM     96  F   UNL A   1      38.530  32.450  38.577  1.00  0.00    -0.206 F 
ATOM     97  C   UNL A   1      39.652  35.674  39.761  1.00  0.00     0.060 A 
BRANCH  97  98
ATOM     98  S   UNL A   1      39.390  36.796  41.151  1.00  0.00     0.124 S 
ATOM     99  O   UNL A   1      40.758  37.029  41.603  1.00  0.00    -0.237 OA
ATOM    100  O   UNL A   1      38.730  37.932  40.514  1.00  0.00    -0.237 OA
ATOM    101  O   UNL A   1      38.551  36.021  42.059  1.00  0.00    -0.744 OA
ENDBRANCH  97  98
ENDBRANCH  65  90
ENDBRANCH  39  40
ENDBRANCH  31  34
ENDBRANCH  29  30
ENDBRANCH  28  29
ENDBRANCH   1  28
TORSDOF 19
ENDMDL
MODEL 3
REMARK VINA RESULT:     -11.0      6.228     10.795
REMARK SMILES COc1ccc(/C=C/c2cc(OC)cc(OC)c2/C=C/C(=O)NCCCNC(=O)c2ccc(-c3c4nc(c(-c5c(F)cc(S(=O)(=O)[O-])cc5F)c5ccc([nH]5)c(-c5c(F)cc(S(=O)(=O)[O-])cc5F)c5nc(c(-c6c(F)cc(S(=O)(=O)[O-])cc6F)c6ccc3[nH]6)C=C5)C=C4)cc2)cc1
REMARK SMILES IDX 24 1 23 2 21 3 22 4 20 6 19 7 18 8 9 9 10 10 11 11 15 12
REMARK SMILES IDX 14 13 8 14 7 15 6 16 3 17 4 18 97 19 5 20 96 21 2 22 1 23
REMARK SMILES IDX 12 24 13 25 16 26 17 27 25 28 26 29 27 30 28 31 29 33 30 34
REMARK SMILES IDX 31 35 95 36 32 37 94 38 33 39 34 40 35 41 88 42 36 43 93 44
REMARK SMILES IDX 87 45 89 46 37 47 92 48 86 49 85 50 38 52 72 53 51 54 71 55
REMARK SMILES IDX 52 56 55 57 70 58 90 59 53 60 54 61 69 63 91 64 56 65 39 66
REMARK SMILES IDX 40 67 49 68 41 69 42 70 48 71 50 72 43 73 44 74 45 75 46 76
REMARK SMILES IDX 47 77 73 78 74 79 83 80 75 81 76 82 82 83 84 84 77 85 78 86
REMARK SMILES IDX 79 87 80 88 81 89 57 90 58 91 67 92 59 93 60 94 66 95 68 96
REMARK SMILES IDX 61 97 62 98 63 99 64 100 65 101
REMARK H PARENT 23 5 27 32 89 51 55 62
REMARK Flexibility Score: inf
ROOT
ATOM      1  C   UNL A   1      37.493  22.624  25.875  1.00  0.00     0.118 C 
ENDROOT
BRANCH   1   2
ATOM      2  N   UNL A   1      37.550  22.612  24.428  1.00  0.00    -0.352 N 
ATOM      3  C   UNL A   1      36.603  23.064  23.564  1.00  0.00     0.244 C 
ATOM      4  O   UNL A   1      36.810  23.119  22.356  1.00  0.00    -0.270 OA
ATOM      5  H   UNL A   1      38.365  22.234  24.026  1.00  0.00     0.163 HD
BRANCH   3   6
ATOM      6  C   UNL A   1      35.320  23.535  24.117  1.00  0.00     0.072 C 
ATOM      7  C   UNL A   1      34.331  23.878  23.278  1.00  0.00     0.018 C 
BRANCH   7   8
ATOM      8  C   UNL A   1      33.089  24.518  23.737  1.00  0.00     0.024 A 
ATOM      9  C   UNL A   1      31.976  23.682  24.048  1.00  0.00    -0.011 A 
ATOM     10  C   UNL A   1      30.751  24.252  24.434  1.00  0.00     0.055 A 
ATOM     11  C   UNL A   1      30.596  25.632  24.503  1.00  0.00     0.123 A 
ATOM     12  C   UNL A   1      32.931  25.918  23.833  1.00  0.00     0.130 A 
ATOM     13  C   UNL A   1      31.687  26.447  24.225  1.00  0.00     0.093 A 
BRANCH   9  14
ATOM     14  C   UNL A   1      32.001  22.208  23.940  1.00  0.00     0.009 C 
ATOM     15  C   UNL A   1      32.607  21.415  24.840  1.00  0.00     0.009 C 
BRANCH  15  16
ATOM     16  C   UNL A   1      32.707  19.944  24.739  1.00  0.00    -0.025 A 
ATOM     17  C   UNL A   1      32.783  17.129  24.436  1.00  0.00     0.118 A 
ATOM     18  C   UNL A   1      32.844  17.712  25.702  1.00  0.00     0.047 A 
ATOM     19  C   UNL A   1      32.681  17.952  23.318  1.00  0.00     0.047 A 
ATOM     20  C   UNL A   1      32.818  19.105  25.855  1.00  0.00     0.012 A 
ATOM     21  C   UNL A   1      32.660  19.347  23.469  1.00  0.00     0.012 A 
BRANCH  17  22
ATOM     22  O   UNL A   1      32.808  15.762  24.424  1.00  0.00    -0.497 OA
ATOM     23  C   UNL A   1      32.389  15.114  25.620  1.00  0.00     0.278 C 
ENDBRANCH  17  22
ENDBRANCH  15  16
ENDBRANCH   9  14
BRANCH  11  24
ATOM     24  O   UNL A   1      29.347  26.073  24.847  1.00  0.00    -0.497 OA
ATOM     25  C   UNL A   1      28.583  26.659  23.797  1.00  0.00     0.278 C 
ENDBRANCH  11  24
BRANCH  12  26
ATOM     26  O   UNL A   1      33.805  26.941  23.582  1.00  0.00    -0.496 OA
ATOM     27  C   UNL A   1      33.574  27.923  22.590  1.00  0.00     0.278 C 
ENDBRANCH  12  26
ENDBRANCH   7   8
ENDBRANCH   3   6
ENDBRANCH   1   2
BRANCH   1  28
ATOM     28  C   UNL A   1      38.875  22.711  26.503  1.00  0.00     0.042 C 
BRANCH  28  29
ATOM     29  C   UNL A   1      39.380  24.140  26.616  1.00  0.00     0.118 C 
BRANCH  29  30
ATOM     30  N   UNL A   1      40.727  24.297  26.078  1.00  0.00    -0.352 N 
ATOM     31  C   UNL A   1      41.642  25.300  26.291  1.00  0.00     0.251 C 
ATOM     32  H   UNL A   1      41.023  23.580  25.472  1.00  0.00     0.163 HD
ATOM     33  O   UNL A   1      42.657  25.363  25.609  1.00  0.00    -0.269 OA
BRANCH  31  34
ATOM     34  C   UNL A   1      41.387  26.285  27.361  1.00  0.00     0.039 A 
ATOM     35  C   UNL A   1      40.434  26.008  28.344  1.00  0.00     0.014 A 
ATOM     36  C   UNL A   1      42.106  27.483  27.387  1.00  0.00     0.014 A 
ATOM     37  C   UNL A   1      40.240  26.916  29.388  1.00  0.00     0.010 A 
ATOM     38  C   UNL A   1      41.978  28.337  28.470  1.00  0.00     0.010 A 
ATOM     39  C   UNL A   1      41.030  28.074  29.472  1.00  0.00    -0.014 A 
BRANCH  39  40
ATOM     40  C   UNL A   1      40.872  29.069  30.560  1.00  0.00     0.031 A 
ATOM     41  C   UNL A   1      41.726  28.939  31.793  1.00  0.00     0.074 A 
ATOM     42  C   UNL A   1      39.902  30.000  30.493  1.00  0.00     0.049 A 
ATOM     43  N   UNL A   1      41.622  29.553  32.941  1.00  0.00    -0.248 NA
ATOM     44  C   UNL A   1      42.814  27.947  31.739  1.00  0.00     0.031 C 
ATOM     45  C   UNL A   1      38.988  30.197  29.365  1.00  0.00     0.029 A 
ATOM     46  N   UNL A   1      39.502  30.940  31.409  1.00  0.00    -0.354 N 
ATOM     47  C   UNL A   1      42.600  28.994  33.757  1.00  0.00     0.074 A 
ATOM     48  C   UNL A   1      43.256  27.961  32.988  1.00  0.00     0.031 C 
ATOM     49  C   UNL A   1      38.142  31.199  29.653  1.00  0.00     0.029 A 
ATOM     50  C   UNL A   1      38.423  31.686  31.001  1.00  0.00     0.049 A 
ATOM     51  H   UNL A   1      39.948  31.069  32.278  1.00  0.00     0.167 HD
ATOM     52  C   UNL A   1      42.933  29.328  35.026  1.00  0.00     0.037 A 
ATOM     53  C   UNL A   1      37.726  32.641  31.649  1.00  0.00     0.037 A 
ATOM     54  C   UNL A   1      42.308  30.395  35.759  1.00  0.00     0.049 A 
ATOM     55  C   UNL A   1      38.135  33.019  33.048  1.00  0.00     0.074 A 
ATOM     56  C   UNL A   1      42.609  30.861  37.026  1.00  0.00     0.029 A 
ATOM     57  N   UNL A   1      41.261  31.172  35.283  1.00  0.00    -0.354 N 
ATOM     58  N   UNL A   1      39.089  32.509  33.792  1.00  0.00    -0.248 NA
ATOM     59  C   UNL A   1      37.381  34.102  33.695  1.00  0.00     0.031 C 
ATOM     60  C   UNL A   1      41.725  31.901  37.327  1.00  0.00     0.029 A 
ATOM     61  C   UNL A   1      40.902  32.111  36.232  1.00  0.00     0.049 A 
ATOM     62  H   UNL A   1      40.838  31.069  34.400  1.00  0.00     0.167 HD
ATOM     63  C   UNL A   1      39.073  33.233  34.979  1.00  0.00     0.074 A 
ATOM     64  C   UNL A   1      38.014  34.214  34.856  1.00  0.00     0.031 C 
ATOM     65  C   UNL A   1      39.865  33.100  36.070  1.00  0.00     0.037 A 
BRANCH  52  66
ATOM     66  C   UNL A   1      44.025  28.537  35.692  1.00  0.00     0.058 A 
ATOM     67  C   UNL A   1      45.378  28.888  35.554  1.00  0.00     0.135 A 
ATOM     68  C   UNL A   1      43.716  27.427  36.494  1.00  0.00     0.135 A 
ATOM     69  F   UNL A   1      45.732  29.930  34.784  1.00  0.00    -0.206 F 
ATOM     70  C   UNL A   1      46.387  28.147  36.159  1.00  0.00     0.059 A 
ATOM     71  C   UNL A   1      44.707  26.689  37.133  1.00  0.00     0.059 A 
ATOM     72  F   UNL A   1      42.439  27.048  36.659  1.00  0.00    -0.206 F 
ATOM     73  C   UNL A   1      46.042  27.046  36.945  1.00  0.00     0.060 A 
BRANCH  73  74
ATOM     74  S   UNL A   1      47.363  26.094  37.723  1.00  0.00     0.124 S 
ATOM     75  O   UNL A   1      46.962  24.727  37.403  1.00  0.00    -0.237 OA
ATOM     76  O   UNL A   1      48.551  26.582  37.032  1.00  0.00    -0.237 OA
ATOM     77  O   UNL A   1      47.263  26.464  39.131  1.00  0.00    -0.744 OA
ENDBRANCH  73  74
ENDBRANCH  52  66
BRANCH  53  78
ATOM     78  C   UNL A   1      36.591  33.321  30.972  1.00  0.00     0.058 A 
ATOM     79  C   UNL A   1      36.815  34.198  29.901  1.00  0.00     0.135 A 
ATOM     80  C   UNL A   1      35.262  33.096  31.364  1.00  0.00     0.135 A 
ATOM     81  F   UNL A   1      38.069  34.450  29.493  1.00  0.00    -0.206 F 
ATOM     82  C   UNL A   1      35.767  34.839  29.249  1.00  0.00     0.059 A 
ATOM     83  C   UNL A   1      34.194  33.707  30.713  1.00  0.00     0.059 A 
ATOM     84  F   UNL A   1      34.991  32.251  32.372  1.00  0.00    -0.206 F 
ATOM     85  C   UNL A   1      34.458  34.585  29.662  1.00  0.00     0.060 A 
BRANCH  85  86
ATOM     86  S   UNL A   1      33.100  35.384  28.777  1.00  0.00     0.124 S 
ATOM     87  O   UNL A   1      33.814  36.368  27.973  1.00  0.00    -0.237 OA
ATOM     88  O   UNL A   1      32.511  34.266  28.045  1.00  0.00    -0.237 OA
ATOM     89  O   UNL A   1      32.273  35.923  29.852  1.00  0.00    -0.744 OA
ENDBRANCH  85  86
ENDBRANCH  53  78
BRANCH  65  90
ATOM     90  C   UNL A   1      39.669  34.069  37.201  1.00  0.00     0.058 A 
ATOM     91  C   UNL A   1      38.885  33.749  38.318  1.00  0.00     0.135 A 
ATOM     92  C   UNL A   1      40.364  35.290  37.207  1.00  0.00     0.135 A 
ATOM     93  F   UNL A   1      38.196  32.598  38.355  1.00  0.00    -0.206 F 
ATOM     94  C   UNL A   1      38.796  34.609  39.408  1.00  0.00     0.059 A 
ATOM     95  C   UNL A   1      40.308  36.153  38.295  1.00  0.00     0.059 A 
ATOM     96  F   UNL A   1      41.134  35.634  36.164  1.00  0.00    -0.206 F 
ATOM     97  C   UNL A   1      39.519  35.805  39.392  1.00  0.00     0.060 A 
BRANCH  97  98
ATOM     98  S   UNL A   1      39.458  36.874  40.845  1.00  0.00     0.124 S 
ATOM     99  O   UNL A   1      38.665  36.070  41.769  1.00  0.00    -0.237 OA
ATOM    100  O   UNL A   1      40.871  37.021  41.183  1.00  0.00    -0.237 OA
ATOM    101  O   UNL A   1      38.810  38.084  40.348  1.00  0.00    -0.744 OA
ENDBRANCH  97  98
ENDBRANCH  65  90
ENDBRANCH  39  40
ENDBRANCH  31  34
ENDBRANCH  29  30
ENDBRANCH  28  29
ENDBRANCH   1  28
TORSDOF 19
ENDMDL
