MODEL 1
REMARK VINA RESULT:     -11.2      0.000      0.000
REMARK SMILES CC[C@H]1CC(=O)N(CCn2cc(C(=O)NCCCNC(=O)c3ccc(-c4c5nc(c(-c6c(F)cc(S(=O)(=O)[O-])cc6F)c6ccc([nH]6)c(-c6c(F)cc(S(=O)(=O)[O-])cc6F)c6nc(c(-c7c(F)cc(S(=O)(=O)[O-])cc7F)c7ccc4[nH]7)C=C6)C=C5)cc3)nn2)C1
REMARK SMILES IDX 16 1 15 2 13 3 14 4 12 6 10 7 11 8 89 9 88 10 9 11 8 12 7 13
REMARK SMILES IDX 3 14 4 15 90 16 5 17 6 18 2 19 1 20 17 21 18 22 19 23 20 24
REMARK SMILES IDX 21 26 22 27 23 28 87 29 24 30 86 31 25 32 26 33 27 34 80 35
REMARK SMILES IDX 28 36 85 37 79 38 81 39 29 40 84 41 78 42 77 43 30 45 64 46
REMARK SMILES IDX 43 47 63 48 44 49 47 50 62 51 82 52 45 53 46 54 61 56 83 57
REMARK SMILES IDX 48 58 31 59 32 60 41 61 33 62 34 63 40 64 42 65 35 66 36 67
REMARK SMILES IDX 37 68 38 69 39 70 65 71 66 72 75 73 67 74 68 75 74 76 76 77
REMARK SMILES IDX 69 78 70 79 71 80 72 81 73 82 49 83 50 84 59 85 51 86 52 87
REMARK SMILES IDX 58 88 60 89 53 90 54 91 55 92 56 93 57 94
REMARK H PARENT 15 5 19 25 81 44 47 55
REMARK Flexibility Score: inf
ROOT
ATOM      1  C   UNL A   1      33.090  35.119  28.983  1.00  0.00     0.118 C 
ENDROOT
BRANCH   1   2
ATOM      2  N   UNL A   1      32.893  36.355  29.717  1.00  0.00    -0.351 N 
ATOM      3  C   UNL A   1      33.135  36.704  31.028  1.00  0.00     0.273 C 
ATOM      4  O   UNL A   1      32.903  37.874  31.330  1.00  0.00    -0.267 OA
ATOM      5  H   UNL A   1      32.513  37.084  29.176  1.00  0.00     0.163 HD
BRANCH   3   6
ATOM      6  C   UNL A   1      33.611  35.739  32.018  1.00  0.00     0.170 A 
ATOM      7  N   UNL A   1      34.709  34.479  33.404  1.00  0.00    -0.250 N 
ATOM      8  C   UNL A   1      34.742  35.705  32.810  1.00  0.00     0.145 A 
ATOM      9  N   UNL A   1      33.574  33.830  33.127  1.00  0.00    -0.067 NA
ATOM     10  N   UNL A   1      32.899  34.577  32.265  1.00  0.00    -0.125 NA
BRANCH   7  11
ATOM     11  C   UNL A   1      35.764  33.833  34.148  1.00  0.00     0.167 C 
BRANCH  11  12
ATOM     12  C   UNL A   1      36.351  32.634  33.404  1.00  0.00     0.143 C 
BRANCH  12  13
ATOM     13  N   UNL A   1      37.507  32.932  32.558  1.00  0.00    -0.341 N 
ATOM     14  C   UNL A   1      38.701  33.262  30.570  1.00  0.00     0.017 C 
ATOM     15  C   UNL A   1      39.688  32.969  31.705  1.00  0.00     0.105 C 
ATOM     16  C   UNL A   1      37.418  33.643  31.304  1.00  0.00     0.123 C 
ATOM     17  C   UNL A   1      38.802  32.533  32.848  1.00  0.00     0.222 C 
ATOM     18  O   UNL A   1      39.178  31.985  33.864  1.00  0.00    -0.275 OA
BRANCH  14  19
ATOM     19  C   UNL A   1      39.143  34.303  29.531  1.00  0.00     0.002 C 
ATOM     20  C   UNL A   1      40.631  34.615  29.501  1.00  0.00     0.004 C 
ENDBRANCH  14  19
ENDBRANCH  12  13
ENDBRANCH  11  12
ENDBRANCH   7  11
ENDBRANCH   3   6
ENDBRANCH   1   2
BRANCH   1  21
ATOM     21  C   UNL A   1      34.503  35.005  28.407  1.00  0.00     0.042 C 
BRANCH  21  22
ATOM     22  C   UNL A   1      35.112  33.657  28.750  1.00  0.00     0.118 C 
BRANCH  22  23
ATOM     23  N   UNL A   1      34.382  32.504  28.197  1.00  0.00    -0.352 N 
ATOM     24  C   UNL A   1      34.814  31.188  27.987  1.00  0.00     0.251 C 
ATOM     25  H   UNL A   1      33.450  32.686  27.934  1.00  0.00     0.163 HD
ATOM     26  O   UNL A   1      34.168  30.429  27.298  1.00  0.00    -0.269 OA
BRANCH  24  27
ATOM     27  C   UNL A   1      36.074  30.735  28.627  1.00  0.00     0.039 A 
ATOM     28  C   UNL A   1      36.202  30.250  29.935  1.00  0.00     0.014 A 
ATOM     29  C   UNL A   1      37.197  30.787  27.849  1.00  0.00     0.014 A 
ATOM     30  C   UNL A   1      37.480  29.870  30.379  1.00  0.00     0.010 A 
ATOM     31  C   UNL A   1      38.119  29.843  28.111  1.00  0.00     0.010 A 
ATOM     32  C   UNL A   1      38.483  29.747  29.425  1.00  0.00    -0.014 A 
BRANCH  32  33
ATOM     33  C   UNL A   1      39.895  29.459  29.626  1.00  0.00     0.031 A 
ATOM     34  C   UNL A   1      40.256  29.144  31.025  1.00  0.00     0.074 A 
ATOM     35  C   UNL A   1      40.669  29.084  28.572  1.00  0.00     0.049 A 
ATOM     36  N   UNL A   1      40.961  29.846  31.848  1.00  0.00    -0.248 NA
ATOM     37  C   UNL A   1      39.591  27.987  31.651  1.00  0.00     0.031 C 
ATOM     38  C   UNL A   1      40.292  28.949  27.152  1.00  0.00     0.029 A 
ATOM     39  N   UNL A   1      41.941  28.602  28.569  1.00  0.00    -0.354 N 
ATOM     40  C   UNL A   1      41.037  29.074  33.003  1.00  0.00     0.074 A 
ATOM     41  C   UNL A   1      39.959  28.129  32.924  1.00  0.00     0.031 C 
ATOM     42  C   UNL A   1      41.218  28.215  26.494  1.00  0.00     0.029 A 
ATOM     43  C   UNL A   1      42.329  27.966  27.390  1.00  0.00     0.049 A 
ATOM     44  H   UNL A   1      42.544  28.695  29.342  1.00  0.00     0.167 HD
ATOM     45  C   UNL A   1      42.162  29.045  33.773  1.00  0.00     0.037 A 
ATOM     46  C   UNL A   1      43.467  27.247  27.202  1.00  0.00     0.037 A 
ATOM     47  C   UNL A   1      43.063  30.113  33.412  1.00  0.00     0.049 A 
ATOM     48  C   UNL A   1      44.400  27.640  28.296  1.00  0.00     0.074 A 
ATOM     49  C   UNL A   1      42.951  31.489  33.332  1.00  0.00     0.029 A 
ATOM     50  N   UNL A   1      44.166  29.787  32.656  1.00  0.00    -0.354 N 
ATOM     51  N   UNL A   1      44.883  28.849  28.436  1.00  0.00    -0.248 NA
ATOM     52  C   UNL A   1      44.389  26.834  29.507  1.00  0.00     0.031 C 
ATOM     53  C   UNL A   1      43.664  31.847  32.148  1.00  0.00     0.029 A 
ATOM     54  C   UNL A   1      44.236  30.687  31.620  1.00  0.00     0.049 A 
ATOM     55  H   UNL A   1      44.791  29.045  32.825  1.00  0.00     0.167 HD
ATOM     56  C   UNL A   1      44.852  29.096  29.804  1.00  0.00     0.074 A 
ATOM     57  C   UNL A   1      44.605  27.791  30.416  1.00  0.00     0.031 C 
ATOM     58  C   UNL A   1      44.728  30.367  30.295  1.00  0.00     0.037 A 
BRANCH  45  59
ATOM     59  C   UNL A   1      42.618  27.843  34.570  1.00  0.00     0.058 A 
ATOM     60  C   UNL A   1      42.764  27.969  35.966  1.00  0.00     0.135 A 
ATOM     61  C   UNL A   1      43.164  26.665  34.008  1.00  0.00     0.135 A 
ATOM     62  F   UNL A   1      42.287  29.048  36.606  1.00  0.00    -0.206 F 
ATOM     63  C   UNL A   1      43.469  27.038  36.730  1.00  0.00     0.059 A 
ATOM     64  C   UNL A   1      43.813  25.695  34.760  1.00  0.00     0.059 A 
ATOM     65  F   UNL A   1      43.191  26.438  32.689  1.00  0.00    -0.206 F 
ATOM     66  C   UNL A   1      44.005  25.912  36.112  1.00  0.00     0.060 A 
BRANCH  66  67
ATOM     67  S   UNL A   1      45.025  24.777  37.065  1.00  0.00     0.124 S 
ATOM     68  O   UNL A   1      46.361  25.290  36.788  1.00  0.00    -0.237 OA
ATOM     69  O   UNL A   1      44.524  24.987  38.420  1.00  0.00    -0.237 OA
ATOM     70  O   UNL A   1      44.712  23.476  36.482  1.00  0.00    -0.744 OA
ENDBRANCH  66  67
ENDBRANCH  45  59
BRANCH  46  71
ATOM     71  C   UNL A   1      43.635  26.001  26.399  1.00  0.00     0.058 A 
ATOM     72  C   UNL A   1      44.728  25.823  25.532  1.00  0.00     0.135 A 
ATOM     73  C   UNL A   1      42.870  24.846  26.670  1.00  0.00     0.135 A 
ATOM     74  F   UNL A   1      45.525  26.861  25.234  1.00  0.00    -0.206 F 
ATOM     75  C   UNL A   1      45.068  24.571  25.000  1.00  0.00     0.059 A 
ATOM     76  C   UNL A   1      43.182  23.591  26.145  1.00  0.00     0.059 A 
ATOM     77  F   UNL A   1      41.842  24.886  27.529  1.00  0.00    -0.206 F 
ATOM     78  C   UNL A   1      44.299  23.455  25.329  1.00  0.00     0.060 A 
BRANCH  78  79
ATOM     79  S   UNL A   1      44.830  21.811  24.785  1.00  0.00     0.124 S 
ATOM     80  O   UNL A   1      44.524  21.852  23.359  1.00  0.00    -0.237 OA
ATOM     81  O   UNL A   1      46.247  21.815  25.132  1.00  0.00    -0.237 OA
ATOM     82  O   UNL A   1      44.000  20.907  25.577  1.00  0.00    -0.744 OA
ENDBRANCH  78  79
ENDBRANCH  46  71
BRANCH  58  83
ATOM     83  C   UNL A   1      44.878  31.527  29.336  1.00  0.00     0.058 A 
ATOM     84  C   UNL A   1      46.111  32.003  28.852  1.00  0.00     0.135 A 
ATOM     85  C   UNL A   1      43.722  32.060  28.748  1.00  0.00     0.135 A 
ATOM     86  F   UNL A   1      47.266  31.479  29.276  1.00  0.00    -0.206 F 
ATOM     87  C   UNL A   1      46.193  32.983  27.860  1.00  0.00     0.059 A 
ATOM     88  C   UNL A   1      43.778  33.017  27.736  1.00  0.00     0.059 A 
ATOM     89  F   UNL A   1      42.514  31.604  29.115  1.00  0.00    -0.206 F 
ATOM     90  C   UNL A   1      45.018  33.482  27.303  1.00  0.00     0.060 A 
BRANCH  90  91
ATOM     91  S   UNL A   1      45.126  34.687  25.961  1.00  0.00     0.124 S 
ATOM     92  O   UNL A   1      43.902  35.459  26.142  1.00  0.00    -0.237 OA
ATOM     93  O   UNL A   1      46.369  35.390  26.265  1.00  0.00    -0.237 OA
ATOM     94  O   UNL A   1      45.169  33.856  24.760  1.00  0.00    -0.744 OA
ENDBRANCH  90  91
ENDBRANCH  58  83
ENDBRANCH  32  33
ENDBRANCH  24  27
ENDBRANCH  22  23
ENDBRANCH  21  22
ENDBRANCH   1  21
TORSDOF 17
ENDMDL
MODEL 2
REMARK VINA RESULT:     -11.0      4.048     10.774
REMARK SMILES CC[C@H]1CC(=O)N(CCn2cc(C(=O)NCCCNC(=O)c3ccc(-c4c5nc(c(-c6c(F)cc(S(=O)(=O)[O-])cc6F)c6ccc([nH]6)c(-c6c(F)cc(S(=O)(=O)[O-])cc6F)c6nc(c(-c7c(F)cc(S(=O)(=O)[O-])cc7F)c7ccc4[nH]7)C=C6)C=C5)cc3)nn2)C1
REMARK SMILES IDX 16 1 15 2 13 3 14 4 12 6 10 7 11 8 89 9 88 10 9 11 8 12 7 13
REMARK SMILES IDX 3 14 4 15 90 16 5 17 6 18 2 19 1 20 17 21 18 22 19 23 20 24
REMARK SMILES IDX 21 26 22 27 23 28 87 29 24 30 86 31 25 32 26 33 27 34 80 35
REMARK SMILES IDX 28 36 85 37 79 38 81 39 29 40 84 41 78 42 77 43 30 45 64 46
REMARK SMILES IDX 43 47 63 48 44 49 47 50 62 51 82 52 45 53 46 54 61 56 83 57
REMARK SMILES IDX 48 58 31 59 32 60 41 61 33 62 34 63 40 64 42 65 35 66 36 67
REMARK SMILES IDX 37 68 38 69 39 70 65 71 66 72 75 73 67 74 68 75 74 76 76 77
REMARK SMILES IDX 69 78 70 79 71 80 72 81 73 82 49 83 50 84 59 85 51 86 52 87
REMARK SMILES IDX 58 88 60 89 53 90 54 91 55 92 56 93 57 94
REMARK H PARENT 15 5 19 25 81 44 47 55
REMARK Flexibility Score: inf
ROOT
ATOM      1  C   UNL A   1      37.646  21.979  25.674  1.00  0.00     0.118 C 
ENDROOT
BRANCH   1   2
ATOM      2  N   UNL A   1      37.484  22.292  24.265  1.00  0.00    -0.351 N 
ATOM      3  C   UNL A   1      36.446  22.852  23.554  1.00  0.00     0.273 C 
ATOM      4  O   UNL A   1      36.649  23.038  22.354  1.00  0.00    -0.267 OA
ATOM      5  H   UNL A   1      38.265  22.059  23.713  1.00  0.00     0.163 HD
BRANCH   3   6
ATOM      6  C   UNL A   1      35.164  23.184  24.172  1.00  0.00     0.170 A 
ATOM      7  N   UNL A   1      33.505  23.863  25.397  1.00  0.00    -0.250 N 
ATOM      8  C   UNL A   1      34.797  24.159  25.078  1.00  0.00     0.145 A 
ATOM      9  N   UNL A   1      33.033  22.860  24.650  1.00  0.00    -0.067 NA
ATOM     10  N   UNL A   1      34.040  22.420  23.909  1.00  0.00    -0.125 NA
BRANCH   7  11
ATOM     11  C   UNL A   1      32.714  24.419  26.469  1.00  0.00     0.167 C 
BRANCH  11  12
ATOM     12  C   UNL A   1      31.836  25.581  26.004  1.00  0.00     0.143 C 
BRANCH  12  13
ATOM     13  N   UNL A   1      32.538  26.850  25.808  1.00  0.00    -0.341 N 
ATOM     14  C   UNL A   1      33.099  29.091  26.196  1.00  0.00     0.017 C 
ATOM     15  C   UNL A   1      33.540  28.702  24.780  1.00  0.00     0.105 C 
ATOM     16  C   UNL A   1      32.888  27.746  26.885  1.00  0.00     0.123 C 
ATOM     17  C   UNL A   1      32.908  27.346  24.567  1.00  0.00     0.222 C 
ATOM     18  O   UNL A   1      32.802  26.776  23.501  1.00  0.00    -0.275 OA
BRANCH  14  19
ATOM     19  C   UNL A   1      34.034  30.034  26.967  1.00  0.00     0.002 C 
ATOM     20  C   UNL A   1      35.217  29.373  27.657  1.00  0.00     0.004 C 
ENDBRANCH  14  19
ENDBRANCH  12  13
ENDBRANCH  11  12
ENDBRANCH   7  11
ENDBRANCH   3   6
ENDBRANCH   1   2
BRANCH   1  21
ATOM     21  C   UNL A   1      39.008  21.350  25.976  1.00  0.00     0.042 C 
BRANCH  21  22
ATOM     22  C   UNL A   1      39.962  22.389  26.537  1.00  0.00     0.118 C 
BRANCH  22  23
ATOM     23  N   UNL A   1      41.316  22.343  25.960  1.00  0.00    -0.352 N 
ATOM     24  C   UNL A   1      42.211  23.387  25.695  1.00  0.00     0.251 C 
ATOM     25  H   UNL A   1      41.640  21.444  25.725  1.00  0.00     0.163 HD
ATOM     26  O   UNL A   1      43.183  23.204  24.994  1.00  0.00    -0.269 OA
BRANCH  24  27
ATOM     27  C   UNL A   1      41.955  24.722  26.290  1.00  0.00     0.039 A 
ATOM     28  C   UNL A   1      41.208  25.752  25.703  1.00  0.00     0.014 A 
ATOM     29  C   UNL A   1      42.489  24.943  27.528  1.00  0.00     0.014 A 
ATOM     30  C   UNL A   1      41.073  26.959  26.410  1.00  0.00     0.010 A 
ATOM     31  C   UNL A   1      41.781  25.771  28.318  1.00  0.00     0.010 A 
ATOM     32  C   UNL A   1      41.457  26.969  27.745  1.00  0.00    -0.014 A 
BRANCH  32  33
ATOM     33  C   UNL A   1      41.503  28.094  28.666  1.00  0.00     0.031 A 
ATOM     34  C   UNL A   1      42.619  29.033  28.421  1.00  0.00     0.074 A 
ATOM     35  C   UNL A   1      40.388  28.454  29.358  1.00  0.00     0.049 A 
ATOM     36  N   UNL A   1      43.664  29.245  29.151  1.00  0.00    -0.248 NA
ATOM     37  C   UNL A   1      42.676  29.685  27.100  1.00  0.00     0.031 C 
ATOM     38  C   UNL A   1      39.055  27.821  29.352  1.00  0.00     0.029 A 
ATOM     39  N   UNL A   1      40.166  29.562  30.115  1.00  0.00    -0.354 N 
ATOM     40  C   UNL A   1      44.361  30.254  28.493  1.00  0.00     0.074 A 
ATOM     41  C   UNL A   1      43.879  30.256  27.140  1.00  0.00     0.031 C 
ATOM     42  C   UNL A   1      38.137  28.670  29.867  1.00  0.00     0.029 A 
ATOM     43  C   UNL A   1      38.826  29.833  30.388  1.00  0.00     0.049 A 
ATOM     44  H   UNL A   1      40.898  30.132  30.446  1.00  0.00     0.167 HD
ATOM     45  C   UNL A   1      45.033  31.223  29.177  1.00  0.00     0.037 A 
ATOM     46  C   UNL A   1      38.334  30.965  30.958  1.00  0.00     0.037 A 
ATOM     47  C   UNL A   1      45.174  30.870  30.569  1.00  0.00     0.049 A 
ATOM     48  C   UNL A   1      39.485  31.630  31.632  1.00  0.00     0.074 A 
ATOM     49  C   UNL A   1      45.708  29.788  31.245  1.00  0.00     0.029 A 
ATOM     50  N   UNL A   1      44.346  31.497  31.472  1.00  0.00    -0.354 N 
ATOM     51  N   UNL A   1      40.140  31.104  32.636  1.00  0.00    -0.248 NA
ATOM     52  C   UNL A   1      40.218  32.632  30.872  1.00  0.00     0.031 C 
ATOM     53  C   UNL A   1      44.798  29.539  32.317  1.00  0.00     0.029 A 
ATOM     54  C   UNL A   1      43.811  30.526  32.284  1.00  0.00     0.049 A 
ATOM     55  H   UNL A   1      44.168  32.464  31.526  1.00  0.00     0.167 HD
ATOM     56  C   UNL A   1      41.477  31.394  32.389  1.00  0.00     0.074 A 
ATOM     57  C   UNL A   1      41.454  32.397  31.326  1.00  0.00     0.031 C 
ATOM     58  C   UNL A   1      42.478  30.581  32.849  1.00  0.00     0.037 A 
BRANCH  45  59
ATOM     59  C   UNL A   1      45.218  32.641  28.684  1.00  0.00     0.058 A 
ATOM     60  C   UNL A   1      46.523  33.161  28.584  1.00  0.00     0.135 A 
ATOM     61  C   UNL A   1      44.176  33.590  28.557  1.00  0.00     0.135 A 
ATOM     62  F   UNL A   1      47.589  32.352  28.693  1.00  0.00    -0.206 F 
ATOM     63  C   UNL A   1      46.775  34.527  28.451  1.00  0.00     0.059 A 
ATOM     64  C   UNL A   1      44.405  34.946  28.359  1.00  0.00     0.059 A 
ATOM     65  F   UNL A   1      42.886  33.275  28.720  1.00  0.00    -0.206 F 
ATOM     66  C   UNL A   1      45.706  35.413  28.357  1.00  0.00     0.060 A 
BRANCH  66  67
ATOM     67  S   UNL A   1      46.021  37.184  28.317  1.00  0.00     0.124 S 
ATOM     68  O   UNL A   1      47.434  37.232  28.673  1.00  0.00    -0.237 OA
ATOM     69  O   UNL A   1      45.695  37.518  26.935  1.00  0.00    -0.237 OA
ATOM     70  O   UNL A   1      45.098  37.711  29.318  1.00  0.00    -0.744 OA
ENDBRANCH  66  67
ENDBRANCH  45  59
BRANCH  46  71
ATOM     71  C   UNL A   1      37.064  31.674  30.628  1.00  0.00     0.058 A 
ATOM     72  C   UNL A   1      36.175  32.102  31.629  1.00  0.00     0.135 A 
ATOM     73  C   UNL A   1      36.826  32.186  29.334  1.00  0.00     0.135 A 
ATOM     74  F   UNL A   1      36.336  31.684  32.895  1.00  0.00    -0.206 F 
ATOM     75  C   UNL A   1      35.142  33.014  31.376  1.00  0.00     0.059 A 
ATOM     76  C   UNL A   1      35.799  33.088  29.054  1.00  0.00     0.059 A 
ATOM     77  F   UNL A   1      37.647  31.893  28.314  1.00  0.00    -0.206 F 
ATOM     78  C   UNL A   1      34.973  33.518  30.086  1.00  0.00     0.060 A 
BRANCH  78  79
ATOM     79  S   UNL A   1      33.752  34.822  29.788  1.00  0.00     0.124 S 
ATOM     80  O   UNL A   1      32.653  34.074  29.189  1.00  0.00    -0.237 OA
ATOM     81  O   UNL A   1      33.515  35.336  31.133  1.00  0.00    -0.237 OA
ATOM     82  O   UNL A   1      34.448  35.739  28.888  1.00  0.00    -0.744 OA
ENDBRANCH  78  79
ENDBRANCH  46  71
BRANCH  58  83
ATOM     83  C   UNL A   1      42.126  29.500  33.847  1.00  0.00     0.058 A 
ATOM     84  C   UNL A   1      41.740  28.192  33.498  1.00  0.00     0.135 A 
ATOM     85  C   UNL A   1      42.362  29.746  35.207  1.00  0.00     0.135 A 
ATOM     86  F   UNL A   1      41.596  27.836  32.217  1.00  0.00    -0.206 F 
ATOM     87  C   UNL A   1      41.563  27.189  34.453  1.00  0.00     0.059 A 
ATOM     88  C   UNL A   1      42.220  28.754  36.176  1.00  0.00     0.059 A 
ATOM     89  F   UNL A   1      42.797  30.953  35.603  1.00  0.00    -0.206 F 
ATOM     90  C   UNL A   1      41.810  27.478  35.793  1.00  0.00     0.060 A 
BRANCH  90  91
ATOM     91  S   UNL A   1      41.663  26.158  37.017  1.00  0.00     0.124 S 
ATOM     92  O   UNL A   1      42.719  26.498  37.964  1.00  0.00    -0.237 OA
ATOM     93  O   UNL A   1      40.297  26.328  37.504  1.00  0.00    -0.237 OA
ATOM     94  O   UNL A   1      41.890  24.943  36.237  1.00  0.00    -0.744 OA
ENDBRANCH  90  91
ENDBRANCH  58  83
ENDBRANCH  32  33
ENDBRANCH  24  27
ENDBRANCH  22  23
ENDBRANCH  21  22
ENDBRANCH   1  21
TORSDOF 17
ENDMDL
MODEL 3
REMARK VINA RESULT:     -10.9      3.606      6.074
REMARK SMILES CC[C@H]1CC(=O)N(CCn2cc(C(=O)NCCCNC(=O)c3ccc(-c4c5nc(c(-c6c(F)cc(S(=O)(=O)[O-])cc6F)c6ccc([nH]6)c(-c6c(F)cc(S(=O)(=O)[O-])cc6F)c6nc(c(-c7c(F)cc(S(=O)(=O)[O-])cc7F)c7ccc4[nH]7)C=C6)C=C5)cc3)nn2)C1
REMARK SMILES IDX 16 1 15 2 13 3 14 4 12 6 10 7 11 8 89 9 88 10 9 11 8 12 7 13
REMARK SMILES IDX 3 14 4 15 90 16 5 17 6 18 2 19 1 20 17 21 18 22 19 23 20 24
REMARK SMILES IDX 21 26 22 27 23 28 87 29 24 30 86 31 25 32 26 33 27 34 80 35
REMARK SMILES IDX 28 36 85 37 79 38 81 39 29 40 84 41 78 42 77 43 30 45 64 46
REMARK SMILES IDX 43 47 63 48 44 49 47 50 62 51 82 52 45 53 46 54 61 56 83 57
REMARK SMILES IDX 48 58 31 59 32 60 41 61 33 62 34 63 40 64 42 65 35 66 36 67
REMARK SMILES IDX 37 68 38 69 39 70 65 71 66 72 75 73 67 74 68 75 74 76 76 77
REMARK SMILES IDX 69 78 70 79 71 80 72 81 73 82 49 83 50 84 59 85 51 86 52 87
REMARK SMILES IDX 58 88 60 89 53 90 54 91 55 92 56 93 57 94
REMARK H PARENT 15 5 19 25 81 44 47 55
REMARK Flexibility Score: inf
ROOT
ATOM      1  C   UNL A   1      32.944  28.666  26.371  1.00  0.00     0.118 C 
ENDROOT
BRANCH   1   2
ATOM      2  N   UNL A   1      31.843  28.424  25.457  1.00  0.00    -0.351 N 
ATOM      3  C   UNL A   1      31.101  27.298  25.176  1.00  0.00     0.273 C 
ATOM      4  O   UNL A   1      30.181  27.441  24.372  1.00  0.00    -0.267 OA
ATOM      5  H   UNL A   1      31.574  29.217  24.939  1.00  0.00     0.163 HD
BRANCH   3   6
ATOM      6  C   UNL A   1      31.401  25.996  25.771  1.00  0.00     0.170 A 
ATOM      7  N   UNL A   1      32.078  24.001  26.292  1.00  0.00    -0.250 N 
ATOM      8  C   UNL A   1      32.431  25.100  25.567  1.00  0.00     0.145 A 
ATOM      9  N   UNL A   1      30.977  24.223  27.016  1.00  0.00    -0.067 NA
ATOM     10  N   UNL A   1      30.538  25.432  26.695  1.00  0.00    -0.125 NA
BRANCH   7  11
ATOM     11  C   UNL A   1      32.678  22.688  26.249  1.00  0.00     0.167 C 
BRANCH  11  12
ATOM     12  C   UNL A   1      33.039  22.258  24.826  1.00  0.00     0.143 C 
BRANCH  12  13
ATOM     13  N   UNL A   1      34.470  22.249  24.524  1.00  0.00    -0.341 N 
ATOM     14  C   UNL A   1      36.771  22.277  24.962  1.00  0.00     0.017 C 
ATOM     15  C   UNL A   1      36.532  22.704  23.509  1.00  0.00     0.105 C 
ATOM     16  C   UNL A   1      35.460  21.604  25.355  1.00  0.00     0.123 C 
ATOM     17  C   UNL A   1      35.034  22.887  23.431  1.00  0.00     0.222 C 
ATOM     18  O   UNL A   1      34.437  23.445  22.533  1.00  0.00    -0.275 OA
BRANCH  14  19
ATOM     19  C   UNL A   1      38.009  21.407  25.223  1.00  0.00     0.002 C 
ATOM     20  C   UNL A   1      37.898  19.954  24.788  1.00  0.00     0.004 C 
ENDBRANCH  14  19
ENDBRANCH  12  13
ENDBRANCH  11  12
ENDBRANCH   7  11
ENDBRANCH   3   6
ENDBRANCH   1   2
BRANCH   1  21
ATOM     21  C   UNL A   1      32.812  30.005  27.099  1.00  0.00     0.042 C 
BRANCH  21  22
ATOM     22  C   UNL A   1      34.176  30.642  27.297  1.00  0.00     0.118 C 
BRANCH  22  23
ATOM     23  N   UNL A   1      34.223  31.653  28.366  1.00  0.00    -0.352 N 
ATOM     24  C   UNL A   1      35.088  31.756  29.463  1.00  0.00     0.251 C 
ATOM     25  H   UNL A   1      33.544  32.363  28.301  1.00  0.00     0.163 HD
ATOM     26  O   UNL A   1      34.835  32.507  30.380  1.00  0.00    -0.269 OA
BRANCH  24  27
ATOM     27  C   UNL A   1      36.323  30.933  29.484  1.00  0.00     0.039 A 
ATOM     28  C   UNL A   1      36.387  29.545  29.305  1.00  0.00     0.014 A 
ATOM     29  C   UNL A   1      37.494  31.609  29.680  1.00  0.00     0.014 A 
ATOM     30  C   UNL A   1      37.648  28.926  29.362  1.00  0.00     0.010 A 
ATOM     31  C   UNL A   1      38.571  31.075  29.077  1.00  0.00     0.010 A 
ATOM     32  C   UNL A   1      38.769  29.746  29.328  1.00  0.00    -0.014 A 
BRANCH  32  33
ATOM     33  C   UNL A   1      40.168  29.373  29.462  1.00  0.00     0.031 A 
ATOM     34  C   UNL A   1      40.612  29.176  30.859  1.00  0.00     0.074 A 
ATOM     35  C   UNL A   1      40.833  28.835  28.405  1.00  0.00     0.049 A 
ATOM     36  N   UNL A   1      41.425  29.903  31.552  1.00  0.00    -0.248 NA
ATOM     37  C   UNL A   1      39.918  28.144  31.650  1.00  0.00     0.031 C 
ATOM     38  C   UNL A   1      40.341  28.584  27.036  1.00  0.00     0.029 A 
ATOM     39  N   UNL A   1      42.065  28.258  28.366  1.00  0.00    -0.354 N 
ATOM     40  C   UNL A   1      41.535  29.249  32.776  1.00  0.00     0.074 A 
ATOM     41  C   UNL A   1      40.391  28.386  32.872  1.00  0.00     0.031 C 
ATOM     42  C   UNL A   1      41.161  27.718  26.400  1.00  0.00     0.029 A 
ATOM     43  C   UNL A   1      42.318  27.478  27.239  1.00  0.00     0.049 A 
ATOM     44  H   UNL A   1      42.730  28.384  29.082  1.00  0.00     0.167 HD
ATOM     45  C   UNL A   1      42.710  29.213  33.465  1.00  0.00     0.037 A 
ATOM     46  C   UNL A   1      43.386  26.658  27.052  1.00  0.00     0.037 A 
ATOM     47  C   UNL A   1      43.653  30.167  32.931  1.00  0.00     0.049 A 
ATOM     48  C   UNL A   1      44.424  27.089  28.031  1.00  0.00     0.074 A 
ATOM     49  C   UNL A   1      43.630  31.532  32.711  1.00  0.00     0.029 A 
ATOM     50  N   UNL A   1      44.670  29.682  32.140  1.00  0.00    -0.354 N 
ATOM     51  N   UNL A   1      44.998  28.265  28.007  1.00  0.00    -0.248 NA
ATOM     52  C   UNL A   1      44.449  26.414  29.320  1.00  0.00     0.031 C 
ATOM     53  C   UNL A   1      44.274  31.711  31.450  1.00  0.00     0.029 A 
ATOM     54  C   UNL A   1      44.723  30.463  31.011  1.00  0.00     0.049 A 
ATOM     55  H   UNL A   1      45.253  28.915  32.346  1.00  0.00     0.167 HD
ATOM     56  C   UNL A   1      45.088  28.652  29.339  1.00  0.00     0.074 A 
ATOM     57  C   UNL A   1      44.799  27.439  30.103  1.00  0.00     0.031 C 
ATOM     58  C   UNL A   1      45.089  29.973  29.699  1.00  0.00     0.037 A 
BRANCH  45  59
ATOM     59  C   UNL A   1      43.142  28.068  34.354  1.00  0.00     0.058 A 
ATOM     60  C   UNL A   1      43.459  28.334  35.700  1.00  0.00     0.135 A 
ATOM     61  C   UNL A   1      43.508  26.782  33.888  1.00  0.00     0.135 A 
ATOM     62  F   UNL A   1      43.160  29.523  36.248  1.00  0.00    -0.206 F 
ATOM     63  C   UNL A   1      44.157  27.427  36.497  1.00  0.00     0.059 A 
ATOM     64  C   UNL A   1      44.146  25.840  34.684  1.00  0.00     0.059 A 
ATOM     65  F   UNL A   1      43.362  26.406  32.613  1.00  0.00    -0.206 F 
ATOM     66  C   UNL A   1      44.512  26.188  35.972  1.00  0.00     0.060 A 
BRANCH  66  67
ATOM     67  S   UNL A   1      45.525  25.066  36.948  1.00  0.00     0.124 S 
ATOM     68  O   UNL A   1      44.730  24.945  38.164  1.00  0.00    -0.237 OA
ATOM     69  O   UNL A   1      45.577  23.885  36.093  1.00  0.00    -0.237 OA
ATOM     70  O   UNL A   1      46.786  25.789  37.086  1.00  0.00    -0.744 OA
ENDBRANCH  66  67
ENDBRANCH  45  59
BRANCH  46  71
ATOM     71  C   UNL A   1      43.406  25.327  26.378  1.00  0.00     0.058 A 
ATOM     72  C   UNL A   1      44.247  25.068  25.281  1.00  0.00     0.135 A 
ATOM     73  C   UNL A   1      42.797  24.198  26.967  1.00  0.00     0.135 A 
ATOM     74  F   UNL A   1      44.885  26.078  24.670  1.00  0.00    -0.206 F 
ATOM     75  C   UNL A   1      44.503  23.769  24.822  1.00  0.00     0.059 A 
ATOM     76  C   UNL A   1      43.029  22.895  26.523  1.00  0.00     0.059 A 
ATOM     77  F   UNL A   1      42.024  24.321  28.056  1.00  0.00    -0.206 F 
ATOM     78  C   UNL A   1      43.903  22.685  25.464  1.00  0.00     0.060 A 
BRANCH  78  79
ATOM     79  S   UNL A   1      44.361  20.999  24.988  1.00  0.00     0.124 S 
ATOM     80  O   UNL A   1      43.211  20.231  25.451  1.00  0.00    -0.237 OA
ATOM     81  O   UNL A   1      44.508  21.116  23.541  1.00  0.00    -0.237 OA
ATOM     82  O   UNL A   1      45.604  20.765  25.718  1.00  0.00    -0.744 OA
ENDBRANCH  78  79
ENDBRANCH  46  71
BRANCH  58  83
ATOM     83  C   UNL A   1      45.246  31.014  28.612  1.00  0.00     0.058 A 
ATOM     84  C   UNL A   1      44.174  31.673  27.983  1.00  0.00     0.135 A 
ATOM     85  C   UNL A   1      46.534  31.489  28.326  1.00  0.00     0.135 A 
ATOM     86  F   UNL A   1      42.907  31.360  28.274  1.00  0.00    -0.206 F 
ATOM     87  C   UNL A   1      44.371  32.727  27.088  1.00  0.00     0.059 A 
ATOM     88  C   UNL A   1      46.755  32.558  27.459  1.00  0.00     0.059 A 
ATOM     89  F   UNL A   1      47.598  30.950  28.942  1.00  0.00    -0.206 F 
ATOM     90  C   UNL A   1      45.668  33.167  26.835  1.00  0.00     0.060 A 
BRANCH  90  91
ATOM     91  S   UNL A   1      45.916  34.585  25.743  1.00  0.00     0.124 S 
ATOM     92  O   UNL A   1      45.009  34.286  24.640  1.00  0.00    -0.237 OA
ATOM     93  O   UNL A   1      45.531  35.710  26.591  1.00  0.00    -0.237 OA
ATOM     94  O   UNL A   1      47.339  34.519  25.417  1.00  0.00    -0.744 OA
ENDBRANCH  90  91
ENDBRANCH  58  83
ENDBRANCH  32  33
ENDBRANCH  24  27
ENDBRANCH  22  23
ENDBRANCH  21  22
ENDBRANCH   1  21
TORSDOF 17
ENDMDL
