MODEL 1
REMARK VINA RESULT:     -12.8      0.000      0.000
REMARK SMILES O=C(CCC(=O)N1CCC(c2nnc3ccccn23)CC1)NCCCNC(=O)c1ccc(-c2c3nc(c(-c4c(F)cc(S(=O)(=O)[O-])cc4F)c4ccc([nH]4)c(-c4c(F)cc(S(=O)(=O)[O-])cc4F)c4nc(c(-c5c(F)cc(S(=O)(=O)[O-])cc5F)c5ccc2[nH]5)C=C4)C=C3)cc1
REMARK SMILES IDX 24 1 23 2 22 3 1 4 2 5 3 7 4 8 5 9 6 10 7 11 8 12 21 13 9 14
REMARK SMILES IDX 20 15 10 16 11 17 12 18 19 19 13 20 14 21 18 22 15 23 17 24
REMARK SMILES IDX 16 25 25 26 26 27 27 28 28 30 29 31 30 32 94 33 31 34 93 35
REMARK SMILES IDX 32 36 33 37 34 38 87 39 35 40 92 41 86 42 88 43 36 44 91 45
REMARK SMILES IDX 85 46 84 47 37 49 71 50 50 51 70 52 51 53 54 54 69 55 89 56
REMARK SMILES IDX 52 57 53 58 68 60 90 61 55 62 38 63 39 64 48 65 40 66 41 67
REMARK SMILES IDX 47 68 49 69 42 70 43 71 44 72 45 73 46 74 72 75 73 76 82 77
REMARK SMILES IDX 74 78 75 79 81 80 83 81 76 82 77 83 78 84 79 85 80 86 56 87
REMARK SMILES IDX 57 88 66 89 58 90 59 91 65 92 67 93 60 94 61 95 62 96 63 97
REMARK SMILES IDX 64 98
REMARK H PARENT 22 6 26 29 88 48 54 59
REMARK Flexibility Score: inf
ROOT
ATOM      1  C   UNL A   1      31.774  29.977  26.837  1.00  0.00     0.042 C 
ENDROOT
BRANCH   1   2
ATOM      2  C   UNL A   1      31.355  30.581  25.480  1.00  0.00     0.117 C 
BRANCH   2   3
ATOM      3  N   UNL A   1      30.880  29.671  24.418  1.00  0.00    -0.356 N 
ATOM      4  O   UNL A   1      32.989  28.954  23.808  1.00  0.00    -0.275 OA
ATOM      5  C   UNL A   1      31.772  28.781  23.796  1.00  0.00     0.220 C 
ATOM      6  H   UNL A   1      29.934  29.688  24.145  1.00  0.00     0.163 HD
BRANCH   5   7
ATOM      7  C   UNL A   1      31.150  27.454  23.270  1.00  0.00     0.110 C 
BRANCH   7   8
ATOM      8  C   UNL A   1      30.184  26.719  24.265  1.00  0.00     0.110 C 
BRANCH   8   9
ATOM      9  C   UNL A   1      30.655  25.860  25.503  1.00  0.00     0.223 C 
ATOM     10  O   UNL A   1      30.926  26.407  26.574  1.00  0.00    -0.275 OA
ATOM     11  N   UNL A   1      30.634  24.472  25.397  1.00  0.00    -0.343 N 
ATOM     12  C   UNL A   1      30.766  23.504  26.497  1.00  0.00     0.120 C 
ATOM     13  C   UNL A   1      31.003  23.903  24.158  1.00  0.00     0.120 C 
ATOM     14  C   UNL A   1      32.145  22.750  26.514  1.00  0.00     0.033 C 
ATOM     15  C   UNL A   1      32.481  23.659  24.248  1.00  0.00     0.033 C 
ATOM     16  C   UNL A   1      32.590  22.398  25.091  1.00  0.00     0.062 C 
BRANCH  16  17
ATOM     17  C   UNL A   1      33.910  21.758  24.781  1.00  0.00     0.140 A 
ATOM     18  N   UNL A   1      34.055  20.076  24.633  1.00  0.00    -0.134 NA
ATOM     19  N   UNL A   1      35.503  22.457  25.159  1.00  0.00    -0.286 N 
ATOM     20  N   UNL A   1      35.949  19.572  24.926  1.00  0.00    -0.130 NA
ATOM     21  C   UNL A   1      36.815  21.205  25.179  1.00  0.00     0.160 A 
ATOM     22  C   UNL A   1      35.791  23.660  25.807  1.00  0.00     0.095 A 
ATOM     23  C   UNL A   1      38.110  21.813  25.397  1.00  0.00     0.050 A 
ATOM     24  C   UNL A   1      37.043  23.904  26.229  1.00  0.00     0.019 A 
ATOM     25  C   UNL A   1      38.182  23.062  25.887  1.00  0.00     0.005 A 
ENDBRANCH  16  17
ENDBRANCH   8   9
ENDBRANCH   7   8
ENDBRANCH   5   7
ENDBRANCH   2   3
ENDBRANCH   1   2
BRANCH   1  26
ATOM     26  C   UNL A   1      33.245  30.091  27.276  1.00  0.00     0.118 C 
BRANCH  26  27
ATOM     27  N   UNL A   1      33.652  31.334  27.950  1.00  0.00    -0.352 N 
ATOM     28  C   UNL A   1      34.721  31.581  28.815  1.00  0.00     0.251 C 
ATOM     29  H   UNL A   1      33.080  32.114  27.763  1.00  0.00     0.163 HD
ATOM     30  O   UNL A   1      34.816  32.696  29.337  1.00  0.00    -0.269 OA
BRANCH  28  31
ATOM     31  C   UNL A   1      35.806  30.523  29.223  1.00  0.00     0.039 A 
ATOM     32  C   UNL A   1      36.730  30.426  27.743  1.00  0.00     0.014 A 
ATOM     33  C   UNL A   1      36.620  29.599  30.920  1.00  0.00     0.014 A 
ATOM     34  C   UNL A   1      38.232  29.692  27.814  1.00  0.00     0.010 A 
ATOM     35  C   UNL A   1      38.252  28.985  30.791  1.00  0.00     0.010 A 
ATOM     36  C   UNL A   1      39.003  29.091  29.249  1.00  0.00    -0.014 A 
BRANCH  36  37
ATOM     37  C   UNL A   1      40.461  28.811  29.128  1.00  0.00     0.031 A 
ATOM     38  C   UNL A   1      41.439  29.887  29.475  1.00  0.00     0.074 A 
ATOM     39  C   UNL A   1      40.882  27.605  28.678  1.00  0.00     0.049 A 
ATOM     40  N   UNL A   1      42.735  29.895  29.329  1.00  0.00    -0.248 NA
ATOM     41  C   UNL A   1      40.892  31.146  30.005  1.00  0.00     0.031 C 
ATOM     42  C   UNL A   1      40.018  26.503  28.234  1.00  0.00     0.029 A 
ATOM     43  N   UNL A   1      42.143  27.078  28.537  1.00  0.00    -0.354 N 
ATOM     44  C   UNL A   1      43.138  31.172  29.694  1.00  0.00     0.074 A 
ATOM     45  C   UNL A   1      41.950  31.937  29.976  1.00  0.00     0.031 C 
ATOM     46  C   UNL A   1      40.751  25.407  28.008  1.00  0.00     0.029 A 
ATOM     47  C   UNL A   1      42.154  25.760  28.123  1.00  0.00     0.049 A 
ATOM     48  H   UNL A   1      42.963  27.592  28.714  1.00  0.00     0.167 HD
ATOM     49  C   UNL A   1      44.394  31.648  29.821  1.00  0.00     0.037 A 
ATOM     50  C   UNL A   1      43.179  24.941  27.821  1.00  0.00     0.037 A 
ATOM     51  C   UNL A   1      45.558  30.849  29.567  1.00  0.00     0.049 A 
ATOM     52  C   UNL A   1      44.565  25.509  27.928  1.00  0.00     0.074 A 
ATOM     53  C   UNL A   1      46.887  31.205  29.686  1.00  0.00     0.029 A 
ATOM     54  N   UNL A   1      45.526  29.529  29.135  1.00  0.00    -0.354 N 
ATOM     55  N   UNL A   1      44.930  26.714  28.303  1.00  0.00    -0.248 NA
ATOM     56  C   UNL A   1      45.677  24.625  27.565  1.00  0.00     0.031 C 
ATOM     57  C   UNL A   1      47.657  30.128  29.243  1.00  0.00     0.029 A 
ATOM     58  C   UNL A   1      46.814  29.065  28.951  1.00  0.00     0.049 A 
ATOM     59  H   UNL A   1      44.707  29.003  28.983  1.00  0.00     0.167 HD
ATOM     60  C   UNL A   1      46.316  26.722  28.256  1.00  0.00     0.074 A 
ATOM     61  C   UNL A   1      46.723  25.397  27.827  1.00  0.00     0.031 C 
ATOM     62  C   UNL A   1      47.176  27.730  28.542  1.00  0.00     0.037 A 
BRANCH  49  63
ATOM     63  C   UNL A   1      44.552  33.086  30.224  1.00  0.00     0.058 A 
ATOM     64  C   UNL A   1      44.575  34.130  29.283  1.00  0.00     0.135 A 
ATOM     65  C   UNL A   1      44.702  33.423  31.578  1.00  0.00     0.135 A 
ATOM     66  F   UNL A   1      44.473  33.866  27.969  1.00  0.00    -0.206 F 
ATOM     67  C   UNL A   1      44.773  35.451  29.667  1.00  0.00     0.059 A 
ATOM     68  C   UNL A   1      44.853  34.742  31.989  1.00  0.00     0.059 A 
ATOM     69  F   UNL A   1      44.708  32.465  32.517  1.00  0.00    -0.206 F 
ATOM     70  C   UNL A   1      44.898  35.747  31.025  1.00  0.00     0.060 A 
BRANCH  70  71
ATOM     71  S   UNL A   1      45.100  37.472  31.506  1.00  0.00     0.124 S 
ATOM     72  O   UNL A   1      46.351  37.424  32.256  1.00  0.00    -0.237 OA
ATOM     73  O   UNL A   1      45.163  38.142  30.212  1.00  0.00    -0.237 OA
ATOM     74  O   UNL A   1      43.905  37.748  32.296  1.00  0.00    -0.744 OA
ENDBRANCH  70  71
ENDBRANCH  49  63
BRANCH  50  75
ATOM     75  C   UNL A   1      42.941  23.539  27.365  1.00  0.00     0.058 A 
ATOM     76  C   UNL A   1      42.745  22.496  28.285  1.00  0.00     0.135 A 
ATOM     77  C   UNL A   1      42.907  23.206  26.000  1.00  0.00     0.135 A 
ATOM     78  F   UNL A   1      42.770  22.751  29.602  1.00  0.00    -0.206 F 
ATOM     79  C   UNL A   1      42.553  21.180  27.874  1.00  0.00     0.059 A 
ATOM     80  C   UNL A   1      42.674  21.904  25.563  1.00  0.00     0.059 A 
ATOM     81  F   UNL A   1      43.074  24.158  25.070  1.00  0.00    -0.206 F 
ATOM     82  C   UNL A   1      42.511  20.895  26.508  1.00  0.00     0.060 A 
BRANCH  82  83
ATOM     83  S   UNL A   1      42.217  19.190  25.988  1.00  0.00     0.124 S 
ATOM     84  O   UNL A   1      40.776  19.191  25.770  1.00  0.00    -0.237 OA
ATOM     85  O   UNL A   1      43.045  19.094  24.788  1.00  0.00    -0.237 OA
ATOM     86  O   UNL A   1      42.683  18.404  27.127  1.00  0.00    -0.744 OA
ENDBRANCH  82  83
ENDBRANCH  50  75
BRANCH  62  87
ATOM     87  C   UNL A   1      48.642  27.419  28.479  1.00  0.00     0.058 A 
ATOM     88  C   UNL A   1      49.402  27.624  27.319  1.00  0.00     0.135 A 
ATOM     89  C   UNL A   1      49.308  26.986  29.639  1.00  0.00     0.135 A 
ATOM     90  F   UNL A   1      48.811  28.032  26.184  1.00  0.00    -0.206 F 
ATOM     91  C   UNL A   1      50.770  27.388  27.304  1.00  0.00     0.059 A 
ATOM     92  C   UNL A   1      50.681  26.793  29.659  1.00  0.00     0.059 A 
ATOM     93  F   UNL A   1      48.624  26.787  30.778  1.00  0.00    -0.206 F 
ATOM     94  C   UNL A   1      51.401  26.987  28.483  1.00  0.00     0.060 A 
BRANCH  94  95
ATOM     95  S   UNL A   1      53.187  26.747  28.463  1.00  0.00     0.124 S 
ATOM     96  O   UNL A   1      53.432  26.247  29.812  1.00  0.00    -0.237 OA
ATOM     97  O   UNL A   1      53.352  25.777  27.385  1.00  0.00    -0.237 OA
ATOM     98  O   UNL A   1      53.707  28.082  28.185  1.00  0.00    -0.744 OA
ENDBRANCH  94  95
ENDBRANCH  62  87
ENDBRANCH  36  37
ENDBRANCH  28  31
ENDBRANCH  26  27
ENDBRANCH   1  26
TORSDOF 16
ENDMDL
MODEL 2
REMARK VINA RESULT:     -12.4      4.337     10.530
REMARK SMILES O=C(CCC(=O)N1CCC(c2nnc3ccccn23)CC1)NCCCNC(=O)c1ccc(-c2c3nc(c(-c4c(F)cc(S(=O)(=O)[O-])cc4F)c4ccc([nH]4)c(-c4c(F)cc(S(=O)(=O)[O-])cc4F)c4nc(c(-c5c(F)cc(S(=O)(=O)[O-])cc5F)c5ccc2[nH]5)C=C4)C=C3)cc1
REMARK SMILES IDX 24 1 23 2 22 3 1 4 2 5 3 7 4 8 5 9 6 10 7 11 8 12 21 13 9 14
REMARK SMILES IDX 20 15 10 16 11 17 12 18 19 19 13 20 14 21 18 22 15 23 17 24
REMARK SMILES IDX 16 25 25 26 26 27 27 28 28 30 29 31 30 32 94 33 31 34 93 35
REMARK SMILES IDX 32 36 33 37 34 38 87 39 35 40 92 41 86 42 88 43 36 44 91 45
REMARK SMILES IDX 85 46 84 47 37 49 71 50 50 51 70 52 51 53 54 54 69 55 89 56
REMARK SMILES IDX 52 57 53 58 68 60 90 61 55 62 38 63 39 64 48 65 40 66 41 67
REMARK SMILES IDX 47 68 49 69 42 70 43 71 44 72 45 73 46 74 72 75 73 76 82 77
REMARK SMILES IDX 74 78 75 79 81 80 83 81 76 82 77 83 78 84 79 85 80 86 56 87
REMARK SMILES IDX 57 88 66 89 58 90 59 91 65 92 67 93 60 94 61 95 62 96 63 97
REMARK SMILES IDX 64 98
REMARK H PARENT 22 6 26 29 88 48 54 59
REMARK Flexibility Score: inf
ROOT
ATOM      1  C   UNL A   1      36.640  22.829  26.126  1.00  0.00     0.042 C 
ENDROOT
BRANCH   1   2
ATOM      2  C   UNL A   1      35.443  21.853  26.126  1.00  0.00     0.117 C 
BRANCH   2   3
ATOM      3  N   UNL A   1      34.894  21.412  24.828  1.00  0.00    -0.356 N 
ATOM      4  O   UNL A   1      33.216  20.118  25.749  1.00  0.00    -0.275 OA
ATOM      5  C   UNL A   1      33.677  20.711  24.776  1.00  0.00     0.220 C 
ATOM      6  H   UNL A   1      35.383  21.609  23.997  1.00  0.00     0.163 HD
BRANCH   5   7
ATOM      7  C   UNL A   1      32.840  20.901  23.476  1.00  0.00     0.110 C 
BRANCH   7   8
ATOM      8  C   UNL A   1      32.220  22.329  23.274  1.00  0.00     0.110 C 
BRANCH   8   9
ATOM      9  C   UNL A   1      33.038  23.610  22.847  1.00  0.00     0.223 C 
ATOM     10  O   UNL A   1      34.269  23.577  22.804  1.00  0.00    -0.275 OA
ATOM     11  N   UNL A   1      32.339  24.729  22.403  1.00  0.00    -0.343 N 
ATOM     12  C   UNL A   1      32.902  25.901  21.714  1.00  0.00     0.120 C 
ATOM     13  C   UNL A   1      31.122  25.041  23.047  1.00  0.00     0.120 C 
ATOM     14  C   UNL A   1      32.952  27.195  22.606  1.00  0.00     0.033 C 
ATOM     15  C   UNL A   1      31.482  25.976  24.164  1.00  0.00     0.033 C 
ATOM     16  C   UNL A   1      31.690  27.312  23.466  1.00  0.00     0.062 C 
BRANCH  16  17
ATOM     17  C   UNL A   1      31.492  28.392  24.486  1.00  0.00     0.140 A 
ATOM     18  N   UNL A   1      30.452  29.697  24.191  1.00  0.00    -0.134 NA
ATOM     19  N   UNL A   1      32.673  28.851  25.738  1.00  0.00    -0.286 N 
ATOM     20  N   UNL A   1      30.964  31.202  25.374  1.00  0.00    -0.130 NA
ATOM     21  C   UNL A   1      32.368  30.514  26.394  1.00  0.00     0.160 A 
ATOM     22  C   UNL A   1      33.947  28.325  25.962  1.00  0.00     0.095 A 
ATOM     23  C   UNL A   1      33.282  30.823  27.471  1.00  0.00     0.050 A 
ATOM     24  C   UNL A   1      34.793  28.964  26.788  1.00  0.00     0.019 A 
ATOM     25  C   UNL A   1      34.398  30.089  27.625  1.00  0.00     0.005 A 
ENDBRANCH  16  17
ENDBRANCH   8   9
ENDBRANCH   7   8
ENDBRANCH   5   7
ENDBRANCH   2   3
ENDBRANCH   1   2
BRANCH   1  26
ATOM     26  C   UNL A   1      37.806  22.571  25.154  1.00  0.00     0.118 C 
BRANCH  26  27
ATOM     27  N   UNL A   1      39.067  22.080  25.731  1.00  0.00    -0.352 N 
ATOM     28  C   UNL A   1      40.122  22.783  26.321  1.00  0.00     0.251 C 
ATOM     29  H   UNL A   1      39.188  21.104  25.695  1.00  0.00     0.163 HD
ATOM     30  O   UNL A   1      41.133  22.160  26.659  1.00  0.00    -0.269 OA
BRANCH  28  31
ATOM     31  C   UNL A   1      40.146  24.335  26.550  1.00  0.00     0.039 A 
ATOM     32  C   UNL A   1      39.220  24.455  28.027  1.00  0.00     0.014 A 
ATOM     33  C   UNL A   1      41.159  26.058  25.915  1.00  0.00     0.014 A 
ATOM     34  C   UNL A   1      39.291  25.898  28.872  1.00  0.00     0.010 A 
ATOM     35  C   UNL A   1      41.182  27.421  27.009  1.00  0.00     0.010 A 
ATOM     36  C   UNL A   1      40.274  27.269  28.460  1.00  0.00    -0.014 A 
BRANCH  36  37
ATOM     37  C   UNL A   1      40.444  28.286  29.536  1.00  0.00     0.031 A 
ATOM     38  C   UNL A   1      41.616  28.180  30.457  1.00  0.00     0.074 A 
ATOM     39  C   UNL A   1      39.525  29.269  29.687  1.00  0.00     0.049 A 
ATOM     40  N   UNL A   1      41.887  28.881  31.524  1.00  0.00    -0.248 NA
ATOM     41  C   UNL A   1      42.591  27.112  30.185  1.00  0.00     0.031 C 
ATOM     42  C   UNL A   1      38.297  29.426  28.896  1.00  0.00     0.029 A 
ATOM     43  N   UNL A   1      39.477  30.346  30.538  1.00  0.00    -0.354 N 
ATOM     44  C   UNL A   1      43.021  28.298  32.069  1.00  0.00     0.074 A 
ATOM     45  C   UNL A   1      43.335  27.136  31.277  1.00  0.00     0.031 C 
ATOM     46  C   UNL A   1      37.702  30.587  29.198  1.00  0.00     0.029 A 
ATOM     47  C   UNL A   1      38.402  31.184  30.320  1.00  0.00     0.049 A 
ATOM     48  H   UNL A   1      40.149  30.505  31.240  1.00  0.00     0.167 HD
ATOM     49  C   UNL A   1      43.759  28.723  33.116  1.00  0.00     0.037 A 
ATOM     50  C   UNL A   1      37.996  32.285  30.980  1.00  0.00     0.037 A 
ATOM     51  C   UNL A   1      43.441  29.907  33.862  1.00  0.00     0.049 A 
ATOM     52  C   UNL A   1      38.810  32.711  32.168  1.00  0.00     0.074 A 
ATOM     53  C   UNL A   1      44.124  30.460  34.927  1.00  0.00     0.029 A 
ATOM     54  N   UNL A   1      42.338  30.715  33.620  1.00  0.00    -0.354 N 
ATOM     55  N   UNL A   1      39.899  32.162  32.655  1.00  0.00    -0.248 NA
ATOM     56  C   UNL A   1      38.344  33.889  32.907  1.00  0.00     0.031 C 
ATOM     57  C   UNL A   1      43.386  31.554  35.383  1.00  0.00     0.029 A 
ATOM     58  C   UNL A   1      42.303  31.747  34.538  1.00  0.00     0.049 A 
ATOM     59  H   UNL A   1      41.679  30.574  32.901  1.00  0.00     0.167 HD
ATOM     60  C   UNL A   1      40.271  32.949  33.734  1.00  0.00     0.074 A 
ATOM     61  C   UNL A   1      39.295  34.019  33.821  1.00  0.00     0.031 C 
ATOM     62  C   UNL A   1      41.322  32.804  34.577  1.00  0.00     0.037 A 
BRANCH  49  63
ATOM     63  C   UNL A   1      44.946  27.891  33.510  1.00  0.00     0.058 A 
ATOM     64  C   UNL A   1      46.231  28.127  32.992  1.00  0.00     0.135 A 
ATOM     65  C   UNL A   1      44.788  26.826  34.409  1.00  0.00     0.135 A 
ATOM     66  F   UNL A   1      46.436  29.110  32.099  1.00  0.00    -0.206 F 
ATOM     67  C   UNL A   1      47.309  27.316  33.327  1.00  0.00     0.059 A 
ATOM     68  C   UNL A   1      45.862  26.032  34.796  1.00  0.00     0.059 A 
ATOM     69  F   UNL A   1      43.580  26.543  34.919  1.00  0.00    -0.206 F 
ATOM     70  C   UNL A   1      47.116  26.280  34.240  1.00  0.00     0.060 A 
BRANCH  70  71
ATOM     71  S   UNL A   1      48.539  25.275  34.703  1.00  0.00     0.124 S 
ATOM     72  O   UNL A   1      49.637  26.029  34.108  1.00  0.00    -0.237 OA
ATOM     73  O   UNL A   1      48.468  25.301  36.159  1.00  0.00    -0.237 OA
ATOM     74  O   UNL A   1      48.259  23.982  34.085  1.00  0.00    -0.744 OA
ENDBRANCH  70  71
ENDBRANCH  49  63
BRANCH  50  75
ATOM     75  C   UNL A   1      36.767  33.026  30.567  1.00  0.00     0.058 A 
ATOM     76  C   UNL A   1      36.769  33.877  29.450  1.00  0.00     0.135 A 
ATOM     77  C   UNL A   1      35.561  32.904  31.279  1.00  0.00     0.135 A 
ATOM     78  F   UNL A   1      37.891  34.037  28.732  1.00  0.00    -0.206 F 
ATOM     79  C   UNL A   1      35.639  34.597  29.073  1.00  0.00     0.059 A 
ATOM     80  C   UNL A   1      34.405  33.580  30.896  1.00  0.00     0.059 A 
ATOM     81  F   UNL A   1      35.488  32.096  32.348  1.00  0.00    -0.206 F 
ATOM     82  C   UNL A   1      34.458  34.436  29.799  1.00  0.00     0.060 A 
BRANCH  82  83
ATOM     83  S   UNL A   1      32.987  35.342  29.272  1.00  0.00     0.124 S 
ATOM     84  O   UNL A   1      32.522  34.530  28.154  1.00  0.00    -0.237 OA
ATOM     85  O   UNL A   1      32.161  35.304  30.476  1.00  0.00    -0.237 OA
ATOM     86  O   UNL A   1      33.509  36.659  28.920  1.00  0.00    -0.744 OA
ENDBRANCH  82  83
ENDBRANCH  50  75
BRANCH  62  87
ATOM     87  C   UNL A   1      41.521  33.869  35.615  1.00  0.00     0.058 A 
ATOM     88  C   UNL A   1      41.048  33.731  36.928  1.00  0.00     0.135 A 
ATOM     89  C   UNL A   1      42.277  35.011  35.299  1.00  0.00     0.135 A 
ATOM     90  F   UNL A   1      40.317  32.660  37.276  1.00  0.00    -0.206 F 
ATOM     91  C   UNL A   1      41.298  34.702  37.888  1.00  0.00     0.059 A 
ATOM     92  C   UNL A   1      42.581  35.968  36.256  1.00  0.00     0.059 A 
ATOM     93  F   UNL A   1      42.761  35.181  34.059  1.00  0.00    -0.206 F 
ATOM     94  C   UNL A   1      42.078  35.809  37.545  1.00  0.00     0.060 A 
BRANCH  94  95
ATOM     95  S   UNL A   1      42.447  37.027  38.820  1.00  0.00     0.124 S 
ATOM     96  O   UNL A   1      43.368  37.916  38.120  1.00  0.00    -0.237 OA
ATOM     97  O   UNL A   1      41.126  37.578  39.107  1.00  0.00    -0.237 OA
ATOM     98  O   UNL A   1      43.037  36.231  39.892  1.00  0.00    -0.744 OA
ENDBRANCH  94  95
ENDBRANCH  62  87
ENDBRANCH  36  37
ENDBRANCH  28  31
ENDBRANCH  26  27
ENDBRANCH   1  26
TORSDOF 16
ENDMDL
MODEL 3
REMARK VINA RESULT:     -12.3      0.704      8.267
REMARK SMILES O=C(CCC(=O)N1CCC(c2nnc3ccccn23)CC1)NCCCNC(=O)c1ccc(-c2c3nc(c(-c4c(F)cc(S(=O)(=O)[O-])cc4F)c4ccc([nH]4)c(-c4c(F)cc(S(=O)(=O)[O-])cc4F)c4nc(c(-c5c(F)cc(S(=O)(=O)[O-])cc5F)c5ccc2[nH]5)C=C4)C=C3)cc1
REMARK SMILES IDX 24 1 23 2 22 3 1 4 2 5 3 7 4 8 5 9 6 10 7 11 8 12 21 13 9 14
REMARK SMILES IDX 20 15 10 16 11 17 12 18 19 19 13 20 14 21 18 22 15 23 17 24
REMARK SMILES IDX 16 25 25 26 26 27 27 28 28 30 29 31 30 32 94 33 31 34 93 35
REMARK SMILES IDX 32 36 33 37 34 38 87 39 35 40 92 41 86 42 88 43 36 44 91 45
REMARK SMILES IDX 85 46 84 47 37 49 71 50 50 51 70 52 51 53 54 54 69 55 89 56
REMARK SMILES IDX 52 57 53 58 68 60 90 61 55 62 38 63 39 64 48 65 40 66 41 67
REMARK SMILES IDX 47 68 49 69 42 70 43 71 44 72 45 73 46 74 72 75 73 76 82 77
REMARK SMILES IDX 74 78 75 79 81 80 83 81 76 82 77 83 78 84 79 85 80 86 56 87
REMARK SMILES IDX 57 88 66 89 58 90 59 91 65 92 67 93 60 94 61 95 62 96 63 97
REMARK SMILES IDX 64 98
REMARK H PARENT 22 6 26 29 88 48 54 59
REMARK Flexibility Score: inf
ROOT
ATOM      1  C   UNL A   1      33.210  30.005  25.712  1.00  0.00     0.042 C 
ENDROOT
BRANCH   1   2
ATOM      2  C   UNL A   1      32.826  28.761  24.883  1.00  0.00     0.117 C 
BRANCH   2   3
ATOM      3  N   UNL A   1      31.456  28.225  25.009  1.00  0.00    -0.356 N 
ATOM      4  O   UNL A   1      30.751  28.986  22.946  1.00  0.00    -0.275 OA
ATOM      5  C   UNL A   1      30.587  28.235  23.905  1.00  0.00     0.220 C 
ATOM      6  H   UNL A   1      31.151  27.859  25.870  1.00  0.00     0.163 HD
BRANCH   5   7
ATOM      7  C   UNL A   1      29.523  27.098  23.868  1.00  0.00     0.110 C 
BRANCH   7   8
ATOM      8  C   UNL A   1      30.094  25.637  23.896  1.00  0.00     0.110 C 
BRANCH   8   9
ATOM      9  C   UNL A   1      30.651  24.916  25.187  1.00  0.00     0.223 C 
ATOM     10  O   UNL A   1      30.768  25.537  26.245  1.00  0.00    -0.275 OA
ATOM     11  N   UNL A   1      30.883  23.545  25.135  1.00  0.00    -0.343 N 
ATOM     12  C   UNL A   1      31.132  22.653  26.278  1.00  0.00     0.120 C 
ATOM     13  C   UNL A   1      31.407  23.013  23.937  1.00  0.00     0.120 C 
ATOM     14  C   UNL A   1      32.622  22.160  26.383  1.00  0.00     0.033 C 
ATOM     15  C   UNL A   1      32.899  23.042  24.099  1.00  0.00     0.033 C 
ATOM     16  C   UNL A   1      33.191  21.848  24.996  1.00  0.00     0.062 C 
BRANCH  16  17
ATOM     17  C   UNL A   1      34.617  21.447  24.768  1.00  0.00     0.140 A 
ATOM     18  N   UNL A   1      35.057  19.818  24.624  1.00  0.00    -0.134 NA
ATOM     19  N   UNL A   1      36.041  22.404  25.246  1.00  0.00    -0.286 N 
ATOM     20  N   UNL A   1      36.988  19.640  25.034  1.00  0.00    -0.130 NA
ATOM     21  C   UNL A   1      37.544  21.394  25.345  1.00  0.00     0.160 A 
ATOM     22  C   UNL A   1      36.078  23.629  25.914  1.00  0.00     0.095 A 
ATOM     23  C   UNL A   1      38.700  22.210  25.645  1.00  0.00     0.050 A 
ATOM     24  C   UNL A   1      37.242  24.077  26.415  1.00  0.00     0.019 A 
ATOM     25  C   UNL A   1      38.527  23.447  26.142  1.00  0.00     0.005 A 
ENDBRANCH  16  17
ENDBRANCH   8   9
ENDBRANCH   7   8
ENDBRANCH   5   7
ENDBRANCH   2   3
ENDBRANCH   1   2
BRANCH   1  26
ATOM     26  C   UNL A   1      33.333  29.868  27.241  1.00  0.00     0.118 C 
BRANCH  26  27
ATOM     27  N   UNL A   1      33.659  31.084  28.002  1.00  0.00    -0.352 N 
ATOM     28  C   UNL A   1      34.715  31.341  28.881  1.00  0.00     0.251 C 
ATOM     29  H   UNL A   1      33.035  31.835  27.872  1.00  0.00     0.163 HD
ATOM     30  O   UNL A   1      34.737  32.420  29.481  1.00  0.00    -0.269 OA
BRANCH  28  31
ATOM     31  C   UNL A   1      35.871  30.332  29.211  1.00  0.00     0.039 A 
ATOM     32  C   UNL A   1      36.778  30.388  27.718  1.00  0.00     0.014 A 
ATOM     33  C   UNL A   1      36.767  29.360  30.838  1.00  0.00     0.014 A 
ATOM     34  C   UNL A   1      38.325  29.750  27.727  1.00  0.00     0.010 A 
ATOM     35  C   UNL A   1      38.433  28.862  30.654  1.00  0.00     0.010 A 
ATOM     36  C   UNL A   1      39.153  29.112  29.114  1.00  0.00    -0.014 A 
BRANCH  36  37
ATOM     37  C   UNL A   1      40.625  28.936  28.960  1.00  0.00     0.031 A 
ATOM     38  C   UNL A   1      41.154  27.620  28.486  1.00  0.00     0.074 A 
ATOM     39  C   UNL A   1      41.463  29.951  29.277  1.00  0.00     0.049 A 
ATOM     40  N   UNL A   1      42.392  27.218  28.397  1.00  0.00    -0.248 NA
ATOM     41  C   UNL A   1      40.167  26.594  28.114  1.00  0.00     0.031 C 
ATOM     42  C   UNL A   1      41.066  31.255  29.824  1.00  0.00     0.029 A 
ATOM     43  N   UNL A   1      42.827  30.070  29.168  1.00  0.00    -0.354 N 
ATOM     44  C   UNL A   1      42.318  25.886  28.018  1.00  0.00     0.074 A 
ATOM     45  C   UNL A   1      40.926  25.520  27.985  1.00  0.00     0.031 C 
ATOM     46  C   UNL A   1      42.123  32.075  29.870  1.00  0.00     0.029 A 
ATOM     47  C   UNL A   1      43.309  31.316  29.519  1.00  0.00     0.049 A 
ATOM     48  H   UNL A   1      43.409  29.335  28.868  1.00  0.00     0.167 HD
ATOM     49  C   UNL A   1      43.328  25.054  27.687  1.00  0.00     0.037 A 
ATOM     50  C   UNL A   1      44.570  31.782  29.598  1.00  0.00     0.037 A 
ATOM     51  C   UNL A   1      44.705  25.460  27.695  1.00  0.00     0.049 A 
ATOM     52  C   UNL A   1      45.677  30.823  29.267  1.00  0.00     0.074 A 
ATOM     53  C   UNL A   1      45.820  24.721  27.354  1.00  0.00     0.029 A 
ATOM     54  N   UNL A   1      45.150  26.721  28.071  1.00  0.00    -0.354 N 
ATOM     55  N   UNL A   1      45.589  29.571  28.882  1.00  0.00    -0.248 NA
ATOM     56  C   UNL A   1      47.050  31.324  29.388  1.00  0.00     0.031 C 
ATOM     57  C   UNL A   1      46.945  25.508  27.606  1.00  0.00     0.029 A 
ATOM     58  C   UNL A   1      46.528  26.771  28.002  1.00  0.00     0.049 A 
ATOM     59  H   UNL A   1      44.569  27.467  28.346  1.00  0.00     0.167 HD
ATOM     60  C   UNL A   1      46.892  29.143  28.680  1.00  0.00     0.074 A 
ATOM     61  C   UNL A   1      47.749  30.276  28.974  1.00  0.00     0.031 C 
ATOM     62  C   UNL A   1      47.343  27.928  28.285  1.00  0.00     0.037 A 
BRANCH  49  63
ATOM     63  C   UNL A   1      42.971  23.642  27.320  1.00  0.00     0.058 A 
ATOM     64  C   UNL A   1      42.766  22.645  28.290  1.00  0.00     0.135 A 
ATOM     65  C   UNL A   1      42.850  23.277  25.971  1.00  0.00     0.135 A 
ATOM     66  F   UNL A   1      42.904  22.927  29.597  1.00  0.00    -0.206 F 
ATOM     67  C   UNL A   1      42.486  21.332  27.934  1.00  0.00     0.059 A 
ATOM     68  C   UNL A   1      42.523  21.980  25.593  1.00  0.00     0.059 A 
ATOM     69  F   UNL A   1      43.054  24.183  25.003  1.00  0.00    -0.206 F 
ATOM     70  C   UNL A   1      42.354  21.013  26.582  1.00  0.00     0.060 A 
BRANCH  70  71
ATOM     71  S   UNL A   1      41.937  19.315  26.144  1.00  0.00     0.124 S 
ATOM     72  O   UNL A   1      40.511  19.427  25.857  1.00  0.00    -0.237 OA
ATOM     73  O   UNL A   1      42.799  19.078  24.992  1.00  0.00    -0.237 OA
ATOM     74  O   UNL A   1      42.276  18.560  27.346  1.00  0.00    -0.744 OA
ENDBRANCH  70  71
ENDBRANCH  49  63
BRANCH  50  75
ATOM     75  C   UNL A   1      44.851  33.183  30.032  1.00  0.00     0.058 A 
ATOM     76  C   UNL A   1      45.126  33.489  31.375  1.00  0.00     0.135 A 
ATOM     77  C   UNL A   1      44.849  34.250  29.118  1.00  0.00     0.135 A 
ATOM     78  F   UNL A   1      45.139  32.514  32.296  1.00  0.00    -0.206 F 
ATOM     79  C   UNL A   1      45.360  34.795  31.798  1.00  0.00     0.059 A 
ATOM     80  C   UNL A   1      45.122  35.559  29.508  1.00  0.00     0.059 A 
ATOM     81  F   UNL A   1      44.606  34.023  27.818  1.00  0.00    -0.206 F 
ATOM     82  C   UNL A   1      45.363  35.824  30.854  1.00  0.00     0.060 A 
BRANCH  82  83
ATOM     83  S   UNL A   1      45.711  37.507  31.408  1.00  0.00     0.124 S 
ATOM     84  O   UNL A   1      44.410  37.928  31.914  1.00  0.00    -0.237 OA
ATOM     85  O   UNL A   1      46.747  37.286  32.414  1.00  0.00    -0.237 OA
ATOM     86  O   UNL A   1      46.162  38.178  30.192  1.00  0.00    -0.744 OA
ENDBRANCH  82  83
ENDBRANCH  50  75
BRANCH  62  87
ATOM     87  C   UNL A   1      48.820  27.779  28.070  1.00  0.00     0.058 A 
ATOM     88  C   UNL A   1      49.689  27.386  29.097  1.00  0.00     0.135 A 
ATOM     89  C   UNL A   1      49.353  27.958  26.782  1.00  0.00     0.135 A 
ATOM     90  F   UNL A   1      49.229  27.208  30.346  1.00  0.00    -0.206 F 
ATOM     91  C   UNL A   1      51.044  27.195  28.859  1.00  0.00     0.059 A 
ATOM     92  C   UNL A   1      50.693  27.724  26.512  1.00  0.00     0.059 A 
ATOM     93  F   UNL A   1      48.557  28.323  25.764  1.00  0.00    -0.206 F 
ATOM     94  C   UNL A   1      51.532  27.353  27.560  1.00  0.00     0.060 A 
BRANCH  94  95
ATOM     95  S   UNL A   1      53.280  27.039  27.255  1.00  0.00     0.124 S 
ATOM     96  O   UNL A   1      53.267  26.641  25.851  1.00  0.00    -0.237 OA
ATOM     97  O   UNL A   1      53.878  28.339  27.542  1.00  0.00    -0.237 OA
ATOM     98  O   UNL A   1      53.606  25.979  28.204  1.00  0.00    -0.744 OA
ENDBRANCH  94  95
ENDBRANCH  62  87
ENDBRANCH  36  37
ENDBRANCH  28  31
ENDBRANCH  26  27
ENDBRANCH   1  26
TORSDOF 16
ENDMDL
