MODEL 1
REMARK VINA RESULT:     -10.4      0.000      0.000
REMARK SMILES CCC(CC)NC(=O)NC[C@H]1CC[C@H](C(=O)NCCCNC(=O)c2ccc(-c3c4nc(c(-c5c(F)cc(S(=O)(=O)[O-])cc5F)c5ccc([nH]5)c(-c5c(F)cc(S(=O)(=O)[O-])cc5F)c5nc(c(-c6c(F)cc(S(=O)(=O)[O-])cc6F)c6ccc3[nH]6)C=C5)C=C4)cc2)O1
REMARK SMILES IDX 18 1 17 2 15 3 16 4 14 6 11 7 12 8 90 9 13 10 10 11 9 12
REMARK SMILES IDX 6 13 7 14 8 16 3 18 2 19 1 20 4 21 5 22 19 23 20 24 21 25
REMARK SMILES IDX 22 26 23 28 24 29 25 30 89 31 26 32 88 33 27 34 28 35 29 36
REMARK SMILES IDX 82 37 30 38 87 39 81 40 83 41 31 42 86 43 80 44 79 45 32 47
REMARK SMILES IDX 66 48 45 49 65 50 46 51 49 52 64 53 84 54 47 55 48 56 63 58
REMARK SMILES IDX 85 59 50 60 33 61 34 62 43 63 35 64 36 65 42 66 44 67 37 68
REMARK SMILES IDX 38 69 39 70 40 71 41 72 67 73 68 74 77 75 69 76 70 77 76 78
REMARK SMILES IDX 78 79 71 80 72 81 73 82 74 83 75 84 51 85 52 86 61 87 53 88
REMARK SMILES IDX 54 89 60 90 62 91 55 92 56 93 57 94 58 95 59 96
REMARK H PARENT 17 5 6 15 9 17 21 27 83 46 49 57
REMARK Flexibility Score: inf
ROOT
ATOM      1  C   UNL A   1      41.467  21.290  27.433  1.00  0.00     0.117 C 
ENDROOT
BRANCH   1   2
ATOM      2  N   UNL A   1      42.039  20.460  26.392  1.00  0.00    -0.354 N 
ATOM      3  C   UNL A   1      43.214  20.585  25.714  1.00  0.00     0.249 C 
ATOM      4  O   UNL A   1      43.491  19.697  24.899  1.00  0.00    -0.272 OA
ATOM      5  H   UNL A   1      41.491  19.685  26.134  1.00  0.00     0.163 HD
BRANCH   3   6
ATOM      6  C   UNL A   1      44.144  21.813  25.871  1.00  0.00     0.207 C 
ATOM      7  C   UNL A   1      44.402  23.787  24.619  1.00  0.00     0.138 C 
ATOM      8  C   UNL A   1      45.407  22.787  24.074  1.00  0.00     0.037 C 
ATOM      9  O   UNL A   1      43.614  23.107  25.609  1.00  0.00    -0.363 OA
ATOM     10  C   UNL A   1      45.427  21.660  25.074  1.00  0.00     0.045 C 
BRANCH   7  11
ATOM     11  C   UNL A   1      45.068  25.053  25.184  1.00  0.00     0.149 C 
BRANCH  11  12
ATOM     12  N   UNL A   1      46.283  24.751  25.930  1.00  0.00    -0.336 N 
ATOM     13  N   UNL A   1      45.717  24.674  28.224  1.00  0.00    -0.335 N 
ATOM     14  C   UNL A   1      46.571  24.510  27.210  1.00  0.00     0.315 C 
ATOM     15  H   UNL A   1      46.050  24.300  29.072  1.00  0.00     0.165 HD
ATOM     16  O   UNL A   1      47.701  24.092  27.477  1.00  0.00    -0.249 OA
ATOM     17  H   UNL A   1      47.080  24.718  25.352  1.00  0.00     0.165 HD
BRANCH  13  18
ATOM     18  C   UNL A   1      44.399  25.284  28.349  1.00  0.00     0.083 C 
BRANCH  18  19
ATOM     19  C   UNL A   1      43.466  24.337  29.118  1.00  0.00     0.021 C 
ATOM     20  C   UNL A   1      44.102  22.989  29.417  1.00  0.00     0.006 C 
ENDBRANCH  18  19
BRANCH  18  21
ATOM     21  C   UNL A   1      44.519  26.703  28.936  1.00  0.00     0.021 C 
ATOM     22  C   UNL A   1      45.366  27.679  28.130  1.00  0.00     0.006 C 
ENDBRANCH  18  21
ENDBRANCH  13  18
ENDBRANCH  11  12
ENDBRANCH   7  11
ENDBRANCH   3   6
ENDBRANCH   1   2
BRANCH   1  23
ATOM     23  C   UNL A   1      40.116  21.871  27.031  1.00  0.00     0.042 C 
BRANCH  23  24
ATOM     24  C   UNL A   1      40.025  23.387  27.185  1.00  0.00     0.118 C 
BRANCH  24  25
ATOM     25  N   UNL A   1      40.792  24.089  26.167  1.00  0.00    -0.352 N 
ATOM     26  C   UNL A   1      41.170  25.404  26.072  1.00  0.00     0.251 C 
ATOM     27  H   UNL A   1      41.091  23.524  25.419  1.00  0.00     0.163 HD
ATOM     28  O   UNL A   1      41.645  25.803  25.010  1.00  0.00    -0.269 OA
BRANCH  26  29
ATOM     29  C   UNL A   1      41.010  26.345  27.205  1.00  0.00     0.039 A 
ATOM     30  C   UNL A   1      40.177  25.970  28.265  1.00  0.00     0.014 A 
ATOM     31  C   UNL A   1      41.605  27.610  27.211  1.00  0.00     0.014 A 
ATOM     32  C   UNL A   1      39.978  26.838  29.341  1.00  0.00     0.010 A 
ATOM     33  C   UNL A   1      41.468  28.444  28.320  1.00  0.00     0.010 A 
ATOM     34  C   UNL A   1      40.644  28.073  29.392  1.00  0.00    -0.014 A 
BRANCH  34  35
ATOM     35  C   UNL A   1      40.480  28.976  30.560  1.00  0.00     0.031 A 
ATOM     36  C   UNL A   1      41.350  28.820  31.779  1.00  0.00     0.074 A 
ATOM     37  C   UNL A   1      39.513  29.915  30.536  1.00  0.00     0.049 A 
ATOM     38  N   UNL A   1      41.343  29.509  32.892  1.00  0.00    -0.248 NA
ATOM     39  C   UNL A   1      42.341  27.733  31.756  1.00  0.00     0.031 C 
ATOM     40  C   UNL A   1      38.566  30.124  29.438  1.00  0.00     0.029 A 
ATOM     41  N   UNL A   1      39.167  30.871  31.457  1.00  0.00    -0.354 N 
ATOM     42  C   UNL A   1      42.314  28.933  33.704  1.00  0.00     0.074 A 
ATOM     43  C   UNL A   1      42.856  27.806  32.976  1.00  0.00     0.031 C 
ATOM     44  C   UNL A   1      37.767  31.161  29.736  1.00  0.00     0.029 A 
ATOM     45  C   UNL A   1      38.127  31.674  31.054  1.00  0.00     0.049 A 
ATOM     46  H   UNL A   1      39.622  30.972  32.325  1.00  0.00     0.167 HD
ATOM     47  C   UNL A   1      42.733  29.322  34.933  1.00  0.00     0.037 A 
ATOM     48  C   UNL A   1      37.532  32.711  31.674  1.00  0.00     0.037 A 
ATOM     49  C   UNL A   1      42.208  30.462  35.640  1.00  0.00     0.049 A 
ATOM     50  C   UNL A   1      38.042  33.149  33.019  1.00  0.00     0.074 A 
ATOM     51  C   UNL A   1      42.603  30.974  36.865  1.00  0.00     0.029 A 
ATOM     52  N   UNL A   1      41.177  31.271  35.185  1.00  0.00    -0.354 N 
ATOM     53  N   UNL A   1      39.003  32.629  33.745  1.00  0.00    -0.248 NA
ATOM     54  C   UNL A   1      37.396  34.322  33.621  1.00  0.00     0.031 C 
ATOM     55  C   UNL A   1      41.789  32.073  37.163  1.00  0.00     0.029 A 
ATOM     56  C   UNL A   1      40.915  32.271  36.108  1.00  0.00     0.049 A 
ATOM     57  H   UNL A   1      40.702  31.153  34.331  1.00  0.00     0.167 HD
ATOM     58  C   UNL A   1      39.092  33.425  34.881  1.00  0.00     0.074 A 
ATOM     59  C   UNL A   1      38.100  34.472  34.735  1.00  0.00     0.031 C 
ATOM     60  C   UNL A   1      39.920  33.302  35.949  1.00  0.00     0.037 A 
BRANCH  47  61
ATOM     61  C   UNL A   1      43.818  28.510  35.588  1.00  0.00     0.058 A 
ATOM     62  C   UNL A   1      43.519  27.462  36.473  1.00  0.00     0.135 A 
ATOM     63  C   UNL A   1      45.171  28.762  35.307  1.00  0.00     0.135 A 
ATOM     64  F   UNL A   1      42.243  27.185  36.789  1.00  0.00    -0.206 F 
ATOM     65  C   UNL A   1      44.522  26.713  37.080  1.00  0.00     0.059 A 
ATOM     66  C   UNL A   1      46.190  28.008  35.883  1.00  0.00     0.059 A 
ATOM     67  F   UNL A   1      45.514  29.752  34.468  1.00  0.00    -0.206 F 
ATOM     68  C   UNL A   1      45.855  26.995  36.782  1.00  0.00     0.060 A 
BRANCH  68  69
ATOM     69  S   UNL A   1      47.146  26.015  37.577  1.00  0.00     0.124 S 
ATOM     70  O   UNL A   1      48.305  26.892  37.434  1.00  0.00    -0.237 OA
ATOM     71  O   UNL A   1      46.632  25.862  38.934  1.00  0.00    -0.237 OA
ATOM     72  O   UNL A   1      47.183  24.792  36.782  1.00  0.00    -0.744 OA
ENDBRANCH  68  69
ENDBRANCH  47  61
BRANCH  48  73
ATOM     73  C   UNL A   1      36.415  33.430  31.006  1.00  0.00     0.058 A 
ATOM     74  C   UNL A   1      35.105  33.342  31.499  1.00  0.00     0.135 A 
ATOM     75  C   UNL A   1      36.639  34.238  29.881  1.00  0.00     0.135 A 
ATOM     76  F   UNL A   1      34.842  32.579  32.571  1.00  0.00    -0.206 F 
ATOM     77  C   UNL A   1      34.051  34.016  30.892  1.00  0.00     0.059 A 
ATOM     78  C   UNL A   1      35.605  34.941  29.271  1.00  0.00     0.059 A 
ATOM     79  F   UNL A   1      37.878  34.372  29.385  1.00  0.00    -0.206 F 
ATOM     80  C   UNL A   1      34.313  34.816  29.778  1.00  0.00     0.060 A 
BRANCH  80  81
ATOM     81  S   UNL A   1      32.949  35.736  29.030  1.00  0.00     0.124 S 
ATOM     82  O   UNL A   1      32.154  36.083  30.201  1.00  0.00    -0.237 OA
ATOM     83  O   UNL A   1      33.645  36.841  28.378  1.00  0.00    -0.237 OA
ATOM     84  O   UNL A   1      32.349  34.763  28.123  1.00  0.00    -0.744 OA
ENDBRANCH  80  81
ENDBRANCH  48  73
BRANCH  60  85
ATOM     85  C   UNL A   1      39.797  34.341  37.028  1.00  0.00     0.058 A 
ATOM     86  C   UNL A   1      40.345  35.625  36.878  1.00  0.00     0.135 A 
ATOM     87  C   UNL A   1      39.119  34.050  38.222  1.00  0.00     0.135 A 
ATOM     88  F   UNL A   1      41.007  35.951  35.758  1.00  0.00    -0.206 F 
ATOM     89  C   UNL A   1      40.260  36.572  37.894  1.00  0.00     0.059 A 
ATOM     90  C   UNL A   1      38.999  34.990  39.239  1.00  0.00     0.059 A 
ATOM     91  F   UNL A   1      38.567  32.840  38.409  1.00  0.00    -0.206 F 
ATOM     92  C   UNL A   1      39.592  36.242  39.075  1.00  0.00     0.060 A 
BRANCH  92  93
ATOM     93  S   UNL A   1      39.492  37.474  40.389  1.00  0.00     0.124 S 
ATOM     94  O   UNL A   1      38.574  36.831  41.323  1.00  0.00    -0.237 OA
ATOM     95  O   UNL A   1      40.878  37.576  40.833  1.00  0.00    -0.237 OA
ATOM     96  O   UNL A   1      38.970  38.655  39.707  1.00  0.00    -0.744 OA
ENDBRANCH  92  93
ENDBRANCH  60  85
ENDBRANCH  34  35
ENDBRANCH  26  29
ENDBRANCH  24  25
ENDBRANCH  23  24
ENDBRANCH   1  23
TORSDOF 18
ENDMDL
MODEL 2
REMARK VINA RESULT:     -10.1      6.212     10.204
REMARK SMILES CCC(CC)NC(=O)NC[C@H]1CC[C@H](C(=O)NCCCNC(=O)c2ccc(-c3c4nc(c(-c5c(F)cc(S(=O)(=O)[O-])cc5F)c5ccc([nH]5)c(-c5c(F)cc(S(=O)(=O)[O-])cc5F)c5nc(c(-c6c(F)cc(S(=O)(=O)[O-])cc6F)c6ccc3[nH]6)C=C5)C=C4)cc2)O1
REMARK SMILES IDX 18 1 17 2 15 3 16 4 14 6 11 7 12 8 90 9 13 10 10 11 9 12
REMARK SMILES IDX 6 13 7 14 8 16 3 18 2 19 1 20 4 21 5 22 19 23 20 24 21 25
REMARK SMILES IDX 22 26 23 28 24 29 25 30 89 31 26 32 88 33 27 34 28 35 29 36
REMARK SMILES IDX 82 37 30 38 87 39 81 40 83 41 31 42 86 43 80 44 79 45 32 47
REMARK SMILES IDX 66 48 45 49 65 50 46 51 49 52 64 53 84 54 47 55 48 56 63 58
REMARK SMILES IDX 85 59 50 60 33 61 34 62 43 63 35 64 36 65 42 66 44 67 37 68
REMARK SMILES IDX 38 69 39 70 40 71 41 72 67 73 68 74 77 75 69 76 70 77 76 78
REMARK SMILES IDX 78 79 71 80 72 81 73 82 74 83 75 84 51 85 52 86 61 87 53 88
REMARK SMILES IDX 54 89 60 90 62 91 55 92 56 93 57 94 58 95 59 96
REMARK H PARENT 17 5 6 15 9 17 21 27 83 46 49 57
REMARK Flexibility Score: inf
ROOT
ATOM      1  C   UNL A   1      37.488  20.705  24.610  1.00  0.00     0.117 C 
ENDROOT
BRANCH   1   2
ATOM      2  N   UNL A   1      37.816  22.005  25.159  1.00  0.00    -0.354 N 
ATOM      3  C   UNL A   1      37.020  23.082  25.405  1.00  0.00     0.249 C 
ATOM      4  O   UNL A   1      37.550  24.067  25.933  1.00  0.00    -0.272 OA
ATOM      5  H   UNL A   1      38.765  22.130  25.388  1.00  0.00     0.163 HD
BRANCH   3   6
ATOM      6  C   UNL A   1      35.532  23.137  24.980  1.00  0.00     0.207 C 
ATOM      7  C   UNL A   1      34.363  24.478  23.442  1.00  0.00     0.138 C 
ATOM      8  C   UNL A   1      34.256  25.164  24.793  1.00  0.00     0.037 C 
ATOM      9  O   UNL A   1      35.223  23.340  23.606  1.00  0.00    -0.363 OA
ATOM     10  C   UNL A   1      34.744  24.149  25.793  1.00  0.00     0.045 C 
BRANCH   7  11
ATOM     11  C   UNL A   1      32.992  24.086  22.864  1.00  0.00     0.149 C 
BRANCH  11  12
ATOM     12  N   UNL A   1      32.873  24.424  21.451  1.00  0.00    -0.336 N 
ATOM     13  N   UNL A   1      32.439  26.743  21.301  1.00  0.00    -0.335 N 
ATOM     14  C   UNL A   1      32.715  25.554  20.759  1.00  0.00     0.315 C 
ATOM     15  H   UNL A   1      32.513  27.485  20.658  1.00  0.00     0.165 HD
ATOM     16  O   UNL A   1      32.846  25.501  19.534  1.00  0.00    -0.249 OA
ATOM     17  H   UNL A   1      32.919  23.630  20.870  1.00  0.00     0.165 HD
BRANCH  13  18
ATOM     18  C   UNL A   1      32.054  27.183  22.637  1.00  0.00     0.083 C 
BRANCH  18  19
ATOM     19  C   UNL A   1      32.896  28.403  23.037  1.00  0.00     0.021 C 
ATOM     20  C   UNL A   1      34.231  28.469  22.311  1.00  0.00     0.006 C 
ENDBRANCH  18  19
BRANCH  18  21
ATOM     21  C   UNL A   1      30.529  27.386  22.714  1.00  0.00     0.021 C 
ATOM     22  C   UNL A   1      30.039  28.250  23.868  1.00  0.00     0.006 C 
ENDBRANCH  18  21
ENDBRANCH  13  18
ENDBRANCH  11  12
ENDBRANCH   7  11
ENDBRANCH   3   6
ENDBRANCH   1   2
BRANCH   1  23
ATOM     23  C   UNL A   1      38.354  19.595  25.198  1.00  0.00     0.042 C 
BRANCH  23  24
ATOM     24  C   UNL A   1      39.503  20.102  26.065  1.00  0.00     0.118 C 
BRANCH  24  25
ATOM     25  N   UNL A   1      40.663  19.225  26.008  1.00  0.00    -0.352 N 
ATOM     26  C   UNL A   1      42.006  19.504  26.025  1.00  0.00     0.251 C 
ATOM     27  H   UNL A   1      40.446  18.266  25.949  1.00  0.00     0.163 HD
ATOM     28  O   UNL A   1      42.795  18.599  25.761  1.00  0.00    -0.269 OA
BRANCH  26  29
ATOM     29  C   UNL A   1      42.516  20.858  26.338  1.00  0.00     0.039 A 
ATOM     30  C   UNL A   1      42.897  21.686  25.276  1.00  0.00     0.014 A 
ATOM     31  C   UNL A   1      42.692  21.300  27.653  1.00  0.00     0.014 A 
ATOM     32  C   UNL A   1      43.407  22.961  25.528  1.00  0.00     0.010 A 
ATOM     33  C   UNL A   1      43.129  22.601  27.902  1.00  0.00     0.010 A 
ATOM     34  C   UNL A   1      43.502  23.442  26.845  1.00  0.00    -0.014 A 
BRANCH  34  35
ATOM     35  C   UNL A   1      43.992  24.818  27.115  1.00  0.00     0.031 A 
ATOM     36  C   UNL A   1      45.443  25.168  26.921  1.00  0.00     0.074 A 
ATOM     37  C   UNL A   1      43.129  25.745  27.577  1.00  0.00     0.049 A 
ATOM     38  N   UNL A   1      46.049  26.311  27.115  1.00  0.00    -0.248 NA
ATOM     39  C   UNL A   1      46.336  24.087  26.474  1.00  0.00     0.031 C 
ATOM     40  C   UNL A   1      41.711  25.511  27.864  1.00  0.00     0.029 A 
ATOM     41  N   UNL A   1      43.314  27.069  27.883  1.00  0.00    -0.354 N 
ATOM     42  C   UNL A   1      47.391  26.085  26.828  1.00  0.00     0.074 A 
ATOM     43  C   UNL A   1      47.519  24.684  26.496  1.00  0.00     0.031 C 
ATOM     44  C   UNL A   1      41.150  26.658  28.276  1.00  0.00     0.029 A 
ATOM     45  C   UNL A   1      42.169  27.702  28.307  1.00  0.00     0.049 A 
ATOM     46  H   UNL A   1      44.185  27.523  27.807  1.00  0.00     0.167 HD
ATOM     47  C   UNL A   1      48.418  26.970  26.819  1.00  0.00     0.037 A 
ATOM     48  C   UNL A   1      41.962  28.981  28.675  1.00  0.00     0.037 A 
ATOM     49  C   UNL A   1      48.278  28.372  27.124  1.00  0.00     0.049 A 
ATOM     50  C   UNL A   1      43.108  29.953  28.617  1.00  0.00     0.074 A 
ATOM     51  C   UNL A   1      49.244  29.363  27.089  1.00  0.00     0.029 A 
ATOM     52  N   UNL A   1      47.095  28.982  27.517  1.00  0.00    -0.354 N 
ATOM     53  N   UNL A   1      44.358  29.734  28.284  1.00  0.00    -0.248 NA
ATOM     54  C   UNL A   1      42.812  31.347  28.970  1.00  0.00     0.031 C 
ATOM     55  C   UNL A   1      48.652  30.566  27.491  1.00  0.00     0.029 A 
ATOM     56  C   UNL A   1      47.310  30.334  27.738  1.00  0.00     0.049 A 
ATOM     57  H   UNL A   1      46.231  28.523  27.623  1.00  0.00     0.167 HD
ATOM     58  C   UNL A   1      44.994  30.967  28.367  1.00  0.00     0.074 A 
ATOM     59  C   UNL A   1      43.985  31.930  28.763  1.00  0.00     0.031 C 
ATOM     60  C   UNL A   1      46.295  31.276  28.137  1.00  0.00     0.037 A 
BRANCH  47  61
ATOM     61  C   UNL A   1      49.783  26.449  26.460  1.00  0.00     0.058 A 
ATOM     62  C   UNL A   1      50.620  25.857  27.421  1.00  0.00     0.135 A 
ATOM     63  C   UNL A   1      50.252  26.515  25.138  1.00  0.00     0.135 A 
ATOM     64  F   UNL A   1      50.229  25.780  28.703  1.00  0.00    -0.206 F 
ATOM     65  C   UNL A   1      51.883  25.377  27.090  1.00  0.00     0.059 A 
ATOM     66  C   UNL A   1      51.502  26.017  24.779  1.00  0.00     0.059 A 
ATOM     67  F   UNL A   1      49.494  27.070  24.179  1.00  0.00    -0.206 F 
ATOM     68  C   UNL A   1      52.317  25.464  25.766  1.00  0.00     0.060 A 
BRANCH  68  69
ATOM     69  S   UNL A   1      53.958  24.837  25.352  1.00  0.00     0.124 S 
ATOM     70  O   UNL A   1      54.282  25.632  24.171  1.00  0.00    -0.237 OA
ATOM     71  O   UNL A   1      54.725  25.147  26.553  1.00  0.00    -0.237 OA
ATOM     72  O   UNL A   1      53.728  23.416  25.108  1.00  0.00    -0.744 OA
ENDBRANCH  68  69
ENDBRANCH  47  61
BRANCH  48  73
ATOM     73  C   UNL A   1      40.605  29.421  29.089  1.00  0.00     0.058 A 
ATOM     74  C   UNL A   1      39.592  29.625  28.139  1.00  0.00     0.135 A 
ATOM     75  C   UNL A   1      40.285  29.623  30.440  1.00  0.00     0.135 A 
ATOM     76  F   UNL A   1      39.852  29.448  26.834  1.00  0.00    -0.206 F 
ATOM     77  C   UNL A   1      38.314  30.028  28.511  1.00  0.00     0.059 A 
ATOM     78  C   UNL A   1      39.007  30.003  30.839  1.00  0.00     0.059 A 
ATOM     79  F   UNL A   1      41.212  29.421  31.388  1.00  0.00    -0.206 F 
ATOM     80  C   UNL A   1      38.031  30.212  29.866  1.00  0.00     0.060 A 
BRANCH  80  81
ATOM     81  S   UNL A   1      36.353  30.677  30.347  1.00  0.00     0.124 S 
ATOM     82  O   UNL A   1      36.531  32.076  30.716  1.00  0.00    -0.237 OA
ATOM     83  O   UNL A   1      35.601  30.429  29.121  1.00  0.00    -0.237 OA
ATOM     84  O   UNL A   1      36.058  29.765  31.447  1.00  0.00    -0.744 OA
ENDBRANCH  80  81
ENDBRANCH  48  73
BRANCH  60  85
ATOM     85  C   UNL A   1      46.688  32.719  28.287  1.00  0.00     0.058 A 
ATOM     86  C   UNL A   1      46.555  33.632  27.229  1.00  0.00     0.135 A 
ATOM     87  C   UNL A   1      47.198  33.194  29.506  1.00  0.00     0.135 A 
ATOM     88  F   UNL A   1      46.077  33.227  26.042  1.00  0.00    -0.206 F 
ATOM     89  C   UNL A   1      46.953  34.959  27.362  1.00  0.00     0.059 A 
ATOM     90  C   UNL A   1      47.577  34.522  29.668  1.00  0.00     0.059 A 
ATOM     91  F   UNL A   1      47.333  32.365  30.552  1.00  0.00    -0.206 F 
ATOM     92  C   UNL A   1      47.471  35.392  28.584  1.00  0.00     0.060 A 
BRANCH  92  93
ATOM     93  S   UNL A   1      47.991  37.113  28.744  1.00  0.00     0.124 S 
ATOM     94  O   UNL A   1      47.069  37.602  29.764  1.00  0.00    -0.237 OA
ATOM     95  O   UNL A   1      49.384  36.985  29.159  1.00  0.00    -0.237 OA
ATOM     96  O   UNL A   1      47.790  37.654  27.403  1.00  0.00    -0.744 OA
ENDBRANCH  92  93
ENDBRANCH  60  85
ENDBRANCH  34  35
ENDBRANCH  26  29
ENDBRANCH  24  25
ENDBRANCH  23  24
ENDBRANCH   1  23
TORSDOF 18
ENDMDL
MODEL 3
REMARK VINA RESULT:     -10.1      3.615      5.948
REMARK SMILES CCC(CC)NC(=O)NC[C@H]1CC[C@H](C(=O)NCCCNC(=O)c2ccc(-c3c4nc(c(-c5c(F)cc(S(=O)(=O)[O-])cc5F)c5ccc([nH]5)c(-c5c(F)cc(S(=O)(=O)[O-])cc5F)c5nc(c(-c6c(F)cc(S(=O)(=O)[O-])cc6F)c6ccc3[nH]6)C=C5)C=C4)cc2)O1
REMARK SMILES IDX 18 1 17 2 15 3 16 4 14 6 11 7 12 8 90 9 13 10 10 11 9 12
REMARK SMILES IDX 6 13 7 14 8 16 3 18 2 19 1 20 4 21 5 22 19 23 20 24 21 25
REMARK SMILES IDX 22 26 23 28 24 29 25 30 89 31 26 32 88 33 27 34 28 35 29 36
REMARK SMILES IDX 82 37 30 38 87 39 81 40 83 41 31 42 86 43 80 44 79 45 32 47
REMARK SMILES IDX 66 48 45 49 65 50 46 51 49 52 64 53 84 54 47 55 48 56 63 58
REMARK SMILES IDX 85 59 50 60 33 61 34 62 43 63 35 64 36 65 42 66 44 67 37 68
REMARK SMILES IDX 38 69 39 70 40 71 41 72 67 73 68 74 77 75 69 76 70 77 76 78
REMARK SMILES IDX 78 79 71 80 72 81 73 82 74 83 75 84 51 85 52 86 61 87 53 88
REMARK SMILES IDX 54 89 60 90 62 91 55 92 56 93 57 94 58 95 59 96
REMARK H PARENT 17 5 6 15 9 17 21 27 83 46 49 57
REMARK Flexibility Score: inf
ROOT
ATOM      1  C   UNL A   1      38.625  22.473  26.133  1.00  0.00     0.117 C 
ENDROOT
BRANCH   1   2
ATOM      2  N   UNL A   1      37.776  21.362  25.754  1.00  0.00    -0.354 N 
ATOM      3  C   UNL A   1      36.489  21.350  25.308  1.00  0.00     0.249 C 
ATOM      4  O   UNL A   1      36.009  20.252  25.001  1.00  0.00    -0.272 OA
ATOM      5  H   UNL A   1      38.196  20.475  25.832  1.00  0.00     0.163 HD
BRANCH   3   6
ATOM      6  C   UNL A   1      35.610  22.623  25.256  1.00  0.00     0.207 C 
ATOM      7  C   UNL A   1      33.368  23.037  25.832  1.00  0.00     0.138 C 
ATOM      8  C   UNL A   1      33.384  22.689  24.354  1.00  0.00     0.037 C 
ATOM      9  O   UNL A   1      34.707  22.872  26.327  1.00  0.00    -0.363 OA
ATOM     10  C   UNL A   1      34.836  22.727  23.954  1.00  0.00     0.045 C 
BRANCH   7  11
ATOM     11  C   UNL A   1      32.822  24.448  26.106  1.00  0.00     0.149 C 
BRANCH  11  12
ATOM     12  N   UNL A   1      31.457  24.423  26.614  1.00  0.00    -0.336 N 
ATOM     13  N   UNL A   1      30.343  26.332  25.774  1.00  0.00    -0.335 N 
ATOM     14  C   UNL A   1      30.364  25.167  26.427  1.00  0.00     0.315 C 
ATOM     15  H   UNL A   1      29.430  26.659  25.600  1.00  0.00     0.165 HD
ATOM     16  O   UNL A   1      29.296  24.744  26.876  1.00  0.00    -0.249 OA
ATOM     17  H   UNL A   1      31.303  23.682  27.243  1.00  0.00     0.165 HD
BRANCH  13  18
ATOM     18  C   UNL A   1      31.375  27.225  25.262  1.00  0.00     0.083 C 
BRANCH  18  19
ATOM     19  C   UNL A   1      30.918  27.823  23.923  1.00  0.00     0.021 C 
ATOM     20  C   UNL A   1      29.536  27.349  23.501  1.00  0.00     0.006 C 
ENDBRANCH  18  19
BRANCH  18  21
ATOM     21  C   UNL A   1      31.773  28.256  26.336  1.00  0.00     0.021 C 
ATOM     22  C   UNL A   1      31.936  29.688  25.846  1.00  0.00     0.006 C 
ENDBRANCH  18  21
ENDBRANCH  13  18
ENDBRANCH  11  12
ENDBRANCH   7  11
ENDBRANCH   3   6
ENDBRANCH   1   2
BRANCH   1  23
ATOM     23  C   UNL A   1      39.947  22.011  26.736  1.00  0.00     0.042 C 
BRANCH  23  24
ATOM     24  C   UNL A   1      40.823  23.149  27.251  1.00  0.00     0.118 C 
BRANCH  24  25
ATOM     25  N   UNL A   1      41.283  24.018  26.178  1.00  0.00    -0.352 N 
ATOM     26  C   UNL A   1      41.357  25.385  26.095  1.00  0.00     0.251 C 
ATOM     27  H   UNL A   1      41.596  23.543  25.375  1.00  0.00     0.163 HD
ATOM     28  O   UNL A   1      41.592  25.894  25.001  1.00  0.00    -0.269 OA
BRANCH  26  29
ATOM     29  C   UNL A   1      41.149  26.250  27.279  1.00  0.00     0.039 A 
ATOM     30  C   UNL A   1      42.048  27.300  27.499  1.00  0.00     0.014 A 
ATOM     31  C   UNL A   1      40.134  26.006  28.209  1.00  0.00     0.014 A 
ATOM     32  C   UNL A   1      41.902  28.125  28.617  1.00  0.00     0.010 A 
ATOM     33  C   UNL A   1      39.943  26.875  29.283  1.00  0.00     0.010 A 
ATOM     34  C   UNL A   1      40.831  27.937  29.506  1.00  0.00    -0.014 A 
BRANCH  34  35
ATOM     35  C   UNL A   1      40.640  28.845  30.666  1.00  0.00     0.031 A 
ATOM     36  C   UNL A   1      41.487  28.699  31.903  1.00  0.00     0.074 A 
ATOM     37  C   UNL A   1      39.671  29.780  30.617  1.00  0.00     0.049 A 
ATOM     38  N   UNL A   1      41.455  29.393  33.011  1.00  0.00    -0.248 NA
ATOM     39  C   UNL A   1      42.482  27.614  31.905  1.00  0.00     0.031 C 
ATOM     40  C   UNL A   1      38.745  29.981  29.500  1.00  0.00     0.029 A 
ATOM     41  N   UNL A   1      39.304  30.740  31.526  1.00  0.00    -0.354 N 
ATOM     42  C   UNL A   1      42.412  28.824  33.845  1.00  0.00     0.074 A 
ATOM     43  C   UNL A   1      42.972  27.696  33.134  1.00  0.00     0.031 C 
ATOM     44  C   UNL A   1      37.937  31.016  29.776  1.00  0.00     0.029 A 
ATOM     45  C   UNL A   1      38.269  31.537  31.098  1.00  0.00     0.049 A 
ATOM     46  H   UNL A   1      39.740  30.847  32.403  1.00  0.00     0.167 HD
ATOM     47  C   UNL A   1      42.805  29.221  35.080  1.00  0.00     0.037 A 
ATOM     48  C   UNL A   1      37.658  32.575  31.701  1.00  0.00     0.037 A 
ATOM     49  C   UNL A   1      42.263  30.364  35.771  1.00  0.00     0.049 A 
ATOM     50  C   UNL A   1      38.139  33.022  33.053  1.00  0.00     0.074 A 
ATOM     51  C   UNL A   1      42.631  30.883  37.001  1.00  0.00     0.029 A 
ATOM     52  N   UNL A   1      41.238  31.167  35.291  1.00  0.00    -0.354 N 
ATOM     53  N   UNL A   1      39.088  32.509  33.801  1.00  0.00    -0.248 NA
ATOM     54  C   UNL A   1      37.478  34.196  33.636  1.00  0.00     0.031 C 
ATOM     55  C   UNL A   1      41.807  31.981  37.277  1.00  0.00     0.029 A 
ATOM     56  C   UNL A   1      40.954  32.170  36.204  1.00  0.00     0.049 A 
ATOM     57  H   UNL A   1      40.781  31.042  34.428  1.00  0.00     0.167 HD
ATOM     58  C   UNL A   1      39.152  33.312  34.934  1.00  0.00     0.074 A 
ATOM     59  C   UNL A   1      38.159  34.354  34.763  1.00  0.00     0.031 C 
ATOM     60  C   UNL A   1      39.959  33.196  36.019  1.00  0.00     0.037 A 
BRANCH  47  61
ATOM     61  C   UNL A   1      43.880  28.417  35.760  1.00  0.00     0.058 A 
ATOM     62  C   UNL A   1      45.242  28.712  35.583  1.00  0.00     0.135 A 
ATOM     63  C   UNL A   1      43.548  27.359  36.621  1.00  0.00     0.135 A 
ATOM     64  F   UNL A   1      45.618  29.704  34.760  1.00  0.00    -0.206 F 
ATOM     65  C   UNL A   1      46.236  27.967  36.210  1.00  0.00     0.059 A 
ATOM     66  C   UNL A   1      44.525  26.617  37.279  1.00  0.00     0.059 A 
ATOM     67  F   UNL A   1      42.262  27.033  36.828  1.00  0.00    -0.206 F 
ATOM     68  C   UNL A   1      45.868  26.919  37.054  1.00  0.00     0.060 A 
BRANCH  68  69
ATOM     69  S   UNL A   1      47.169  25.962  37.861  1.00  0.00     0.124 S 
ATOM     70  O   UNL A   1      46.559  24.636  37.918  1.00  0.00    -0.237 OA
ATOM     71  O   UNL A   1      48.285  26.105  36.933  1.00  0.00    -0.237 OA
ATOM     72  O   UNL A   1      47.337  26.632  39.147  1.00  0.00    -0.744 OA
ENDBRANCH  68  69
ENDBRANCH  47  61
BRANCH  48  73
ATOM     73  C   UNL A   1      36.552  33.287  31.008  1.00  0.00     0.058 A 
ATOM     74  C   UNL A   1      36.809  34.119  29.908  1.00  0.00     0.135 A 
ATOM     75  C   UNL A   1      35.218  33.130  31.414  1.00  0.00     0.135 A 
ATOM     76  F   UNL A   1      38.070  34.302  29.485  1.00  0.00    -0.206 F 
ATOM     77  C   UNL A   1      35.785  34.784  29.243  1.00  0.00     0.059 A 
ATOM     78  C   UNL A   1      34.174  33.766  30.749  1.00  0.00     0.059 A 
ATOM     79  F   UNL A   1      34.919  32.329  32.447  1.00  0.00    -0.206 F 
ATOM     80  C   UNL A   1      34.469  34.599  29.671  1.00  0.00     0.060 A 
BRANCH  80  81
ATOM     81  S   UNL A   1      33.138  35.419  28.765  1.00  0.00     0.124 S 
ATOM     82  O   UNL A   1      32.573  34.308  28.007  1.00  0.00    -0.237 OA
ATOM     83  O   UNL A   1      32.309  35.945  29.845  1.00  0.00    -0.237 OA
ATOM     84  O   UNL A   1      33.842  36.427  27.979  1.00  0.00    -0.744 OA
ENDBRANCH  80  81
ENDBRANCH  48  73
BRANCH  60  85
ATOM     85  C   UNL A   1      39.811  34.241  37.090  1.00  0.00     0.058 A 
ATOM     86  C   UNL A   1      38.940  34.063  38.177  1.00  0.00     0.135 A 
ATOM     87  C   UNL A   1      40.555  35.430  37.031  1.00  0.00     0.135 A 
ATOM     88  F   UNL A   1      38.203  32.946  38.276  1.00  0.00    -0.206 F 
ATOM     89  C   UNL A   1      38.781  35.047  39.146  1.00  0.00     0.059 A 
ATOM     90  C   UNL A   1      40.431  36.415  38.004  1.00  0.00     0.059 A 
ATOM     91  F   UNL A   1      41.411  35.643  36.019  1.00  0.00    -0.206 F 
ATOM     92  C   UNL A   1      39.525  36.225  39.047  1.00  0.00     0.060 A 
BRANCH  92  93
ATOM     93  S   UNL A   1      39.307  37.499  40.305  1.00  0.00     0.124 S 
ATOM     94  O   UNL A   1      38.269  38.328  39.704  1.00  0.00    -0.237 OA
ATOM     95  O   UNL A   1      38.901  36.724  41.474  1.00  0.00    -0.237 OA
ATOM     96  O   UNL A   1      40.628  38.113  40.397  1.00  0.00    -0.744 OA
ENDBRANCH  92  93
ENDBRANCH  60  85
ENDBRANCH  34  35
ENDBRANCH  26  29
ENDBRANCH  24  25
ENDBRANCH  23  24
ENDBRANCH   1  23
TORSDOF 18
ENDMDL
