MODEL 1
REMARK VINA RESULT:     -12.9      0.000      0.000
REMARK SMILES Cc1c(C[NH2+]Cc2cccc(F)c2)c(C(=O)NCCCNC(=O)c2ccc(-c3c4nc(c(-c5c(F)cc(S(=O)(=O)[O-])cc5F)c5ccc([nH]5)c(-c5c(F)cc(S(=O)(=O)[O-])cc5F)c5nc(c(-c6c(F)cc(S(=O)(=O)[O-])cc6F)c6ccc3[nH]6)C=C5)C=C4)cc2)c(C)n1Cc1c(F)cccc1Cl
REMARK SMILES IDX 18 1 17 2 15 3 16 4 14 6 1 7 2 8 3 9 92 10 90 11 91 12 4 13
REMARK SMILES IDX 5 14 6 17 7 18 8 19 13 20 9 21 11 22 10 23 12 24 93 25 94 26
REMARK SMILES IDX 95 27 100 28 96 29 97 30 99 31 101 32 98 33 19 34 20 35
REMARK SMILES IDX 21 36 22 37 23 39 24 40 25 41 89 42 26 43 88 44 27 45 28 46
REMARK SMILES IDX 29 47 82 48 30 49 87 50 81 51 83 52 31 53 86 54 80 55 79 56
REMARK SMILES IDX 32 58 66 59 45 60 65 61 46 62 49 63 64 64 84 65 47 66 48 67
REMARK SMILES IDX 63 69 85 70 50 71 33 72 34 73 43 74 35 75 36 76 42 77 44 78
REMARK SMILES IDX 37 79 38 80 39 81 40 82 41 83 67 84 68 85 77 86 69 87 70 88
REMARK SMILES IDX 76 89 78 90 71 91 72 92 73 93 74 94 75 95 51 96 52 97 61 98
REMARK SMILES IDX 53 99 54 100 60 101 62 102 55 103 56 104 57 105 58 106
REMARK SMILES IDX 59 107
REMARK H PARENT 17 5 5 15 5 16 21 38 83 57 49 68
REMARK Flexibility Score: inf
ROOT
ATOM      1  C   UNL A   1      34.523  28.959  27.076  1.00  0.00     0.118 C 
ENDROOT
BRANCH   1   2
ATOM      2  N   UNL A   1      33.305  28.408  27.640  1.00  0.00    -0.352 N 
ATOM      3  C   UNL A   1      32.200  27.736  27.182  1.00  0.00     0.253 C 
ATOM      4  O   UNL A   1      31.338  27.571  28.051  1.00  0.00    -0.269 OA
ATOM      5  H   UNL A   1      33.259  28.556  28.612  1.00  0.00     0.163 HD
BRANCH   3   6
ATOM      6  C   UNL A   1      31.970  27.319  25.782  1.00  0.00     0.069 A 
ATOM      7  C   UNL A   1      31.791  24.780  22.996  1.00  0.00     0.065 C 
ATOM      8  C   UNL A   1      31.763  25.918  23.958  1.00  0.00     0.025 A 
ATOM      9  C   UNL A   1      32.133  25.949  25.302  1.00  0.00     0.040 A 
ATOM     10  N   UNL A   1      31.355  27.197  23.628  1.00  0.00    -0.343 N 
ATOM     11  C   UNL A   1      31.848  28.058  24.603  1.00  0.00     0.028 A 
ATOM     12  C   UNL A   1      32.291  29.444  24.280  1.00  0.00     0.065 C 
BRANCH   9  13
ATOM     13  C   UNL A   1      32.689  24.786  26.093  1.00  0.00     0.300 C 
BRANCH  13  14
ATOM     14  N   UNL A   1      34.139  24.939  26.123  1.00  0.00    -0.339 N 
ATOM     15  H   UNL A   1      34.490  24.487  26.968  1.00  0.00     0.346 HD
ATOM     16  H   UNL A   1      34.326  25.941  26.100  1.00  0.00     0.346 HD
BRANCH  14  17
ATOM     17  C   UNL A   1      34.830  24.364  24.980  1.00  0.00     0.297 C 
BRANCH  17  18
ATOM     18  C   UNL A   1      36.112  23.608  25.272  1.00  0.00     0.009 A 
ATOM     19  C   UNL A   1      37.188  24.145  25.999  1.00  0.00     0.010 A 
ATOM     20  C   UNL A   1      36.203  22.268  24.855  1.00  0.00     0.048 A 
ATOM     21  C   UNL A   1      38.328  23.382  26.273  1.00  0.00     0.004 A 
ATOM     22  C   UNL A   1      37.339  21.515  25.139  1.00  0.00     0.123 A 
ATOM     23  C   UNL A   1      38.405  22.061  25.841  1.00  0.00     0.039 A 
ATOM     24  F   UNL A   1      37.404  20.238  24.736  1.00  0.00    -0.207 F 
ENDBRANCH  17  18
ENDBRANCH  14  17
ENDBRANCH  13  14
ENDBRANCH   9  13
BRANCH  10  25
ATOM     25  C   UNL A   1      30.711  27.595  22.365  1.00  0.00     0.162 C 
BRANCH  25  26
ATOM     26  C   UNL A   1      29.515  28.498  22.571  1.00  0.00     0.026 A 
ATOM     27  C   UNL A   1      29.530  29.788  22.023  1.00  0.00     0.129 A 
ATOM     28  C   UNL A   1      28.348  28.121  23.253  1.00  0.00     0.048 A 
ATOM     29  F   UNL A   1      30.555  30.180  21.260  1.00  0.00    -0.207 F 
ATOM     30  C   UNL A   1      28.480  30.690  22.186  1.00  0.00     0.040 A 
ATOM     31  C   UNL A   1      27.280  29.021  23.415  1.00  0.00     0.021 A 
ATOM     32  Cl  UNL A   1      28.106  26.526  23.870  1.00  0.00    -0.084 Cl
ATOM     33  C   UNL A   1      27.351  30.311  22.893  1.00  0.00     0.005 A 
ENDBRANCH  25  26
ENDBRANCH  10  25
ENDBRANCH   3   6
ENDBRANCH   1   2
BRANCH   1  34
ATOM     34  C   UNL A   1      35.310  29.871  28.025  1.00  0.00     0.042 C 
BRANCH  34  35
ATOM     35  C   UNL A   1      35.186  31.387  27.769  1.00  0.00     0.118 C 
BRANCH  35  36
ATOM     36  N   UNL A   1      34.709  32.122  28.924  1.00  0.00    -0.352 N 
ATOM     37  C   UNL A   1      35.228  32.203  30.198  1.00  0.00     0.251 C 
ATOM     38  H   UNL A   1      33.887  32.644  28.775  1.00  0.00     0.163 HD
ATOM     39  O   UNL A   1      34.539  32.764  31.049  1.00  0.00    -0.269 OA
BRANCH  37  40
ATOM     40  C   UNL A   1      36.504  31.531  30.613  1.00  0.00     0.039 A 
ATOM     41  C   UNL A   1      37.633  31.849  29.875  1.00  0.00     0.014 A 
ATOM     42  C   UNL A   1      36.600  30.448  31.505  1.00  0.00     0.014 A 
ATOM     43  C   UNL A   1      38.826  31.113  30.036  1.00  0.00     0.010 A 
ATOM     44  C   UNL A   1      37.797  29.637  31.592  1.00  0.00     0.010 A 
ATOM     45  C   UNL A   1      38.936  29.919  30.822  1.00  0.00    -0.014 A 
BRANCH  45  46
ATOM     46  C   UNL A   1      40.021  28.899  30.343  1.00  0.00     0.031 A 
ATOM     47  C   UNL A   1      41.125  28.994  31.351  1.00  0.00     0.074 A 
ATOM     48  C   UNL A   1      40.295  27.999  29.333  1.00  0.00     0.049 A 
ATOM     49  N   UNL A   1      41.680  30.127  31.683  1.00  0.00    -0.248 NA
ATOM     50  C   UNL A   1      41.383  27.884  32.277  1.00  0.00     0.031 C 
ATOM     51  C   UNL A   1      39.497  27.647  28.154  1.00  0.00     0.029 A 
ATOM     52  N   UNL A   1      41.412  27.146  29.152  1.00  0.00    -0.354 N 
ATOM     53  C   UNL A   1      42.574  29.819  32.674  1.00  0.00     0.074 A 
ATOM     54  C   UNL A   1      42.199  28.493  33.138  1.00  0.00     0.031 C 
ATOM     55  C   UNL A   1      40.066  26.615  27.464  1.00  0.00     0.029 A 
ATOM     56  C   UNL A   1      41.340  26.230  28.066  1.00  0.00     0.049 A 
ATOM     57  H   UNL A   1      42.195  27.186  29.747  1.00  0.00     0.167 HD
ATOM     58  C   UNL A   1      43.807  30.393  32.655  1.00  0.00     0.037 A 
ATOM     59  C   UNL A   1      42.259  25.286  27.650  1.00  0.00     0.037 A 
ATOM     60  C   UNL A   1      44.855  29.437  32.426  1.00  0.00     0.049 A 
ATOM     61  C   UNL A   1      43.571  25.649  28.219  1.00  0.00     0.074 A 
ATOM     62  C   UNL A   1      45.155  28.187  32.928  1.00  0.00     0.029 A 
ATOM     63  N   UNL A   1      45.473  29.510  31.191  1.00  0.00    -0.354 N 
ATOM     64  N   UNL A   1      44.263  26.656  27.787  1.00  0.00    -0.248 NA
ATOM     65  C   UNL A   1      44.235  24.820  29.226  1.00  0.00     0.031 C 
ATOM     66  C   UNL A   1      45.398  27.398  31.771  1.00  0.00     0.029 A 
ATOM     67  C   UNL A   1      45.498  28.237  30.663  1.00  0.00     0.049 A 
ATOM     68  H   UNL A   1      45.829  30.324  30.766  1.00  0.00     0.167 HD
ATOM     69  C   UNL A   1      45.203  26.842  28.751  1.00  0.00     0.074 A 
ATOM     70  C   UNL A   1      45.320  25.569  29.429  1.00  0.00     0.031 C 
ATOM     71  C   UNL A   1      45.401  28.096  29.225  1.00  0.00     0.037 A 
BRANCH  58  72
ATOM     72  C   UNL A   1      43.877  31.804  32.162  1.00  0.00     0.058 A 
ATOM     73  C   UNL A   1      43.398  32.208  30.901  1.00  0.00     0.135 A 
ATOM     74  C   UNL A   1      44.425  32.783  32.995  1.00  0.00     0.135 A 
ATOM     75  F   UNL A   1      42.954  31.296  30.023  1.00  0.00    -0.206 F 
ATOM     76  C   UNL A   1      43.405  33.540  30.505  1.00  0.00     0.059 A 
ATOM     77  C   UNL A   1      44.466  34.119  32.612  1.00  0.00     0.059 A 
ATOM     78  F   UNL A   1      44.939  32.442  34.190  1.00  0.00    -0.206 F 
ATOM     79  C   UNL A   1      43.926  34.493  31.379  1.00  0.00     0.060 A 
BRANCH  79  80
ATOM     80  S   UNL A   1      43.943  36.229  30.881  1.00  0.00     0.124 S 
ATOM     81  O   UNL A   1      45.325  36.436  30.484  1.00  0.00    -0.237 OA
ATOM     82  O   UNL A   1      42.953  36.243  29.803  1.00  0.00    -0.237 OA
ATOM     83  O   UNL A   1      43.540  36.928  32.098  1.00  0.00    -0.744 OA
ENDBRANCH  79  80
ENDBRANCH  58  72
BRANCH  59  84
ATOM     84  C   UNL A   1      42.401  24.069  26.733  1.00  0.00     0.058 A 
ATOM     85  C   UNL A   1      42.194  22.758  27.180  1.00  0.00     0.135 A 
ATOM     86  C   UNL A   1      43.177  24.166  25.533  1.00  0.00     0.135 A 
ATOM     87  F   UNL A   1      41.475  22.532  28.288  1.00  0.00    -0.206 F 
ATOM     88  C   UNL A   1      42.813  21.645  26.563  1.00  0.00     0.059 A 
ATOM     89  C   UNL A   1      43.834  23.086  24.932  1.00  0.00     0.059 A 
ATOM     90  F   UNL A   1      43.415  25.355  24.962  1.00  0.00    -0.206 F 
ATOM     91  C   UNL A   1      43.677  21.825  25.477  1.00  0.00     0.060 A 
BRANCH  91  92
ATOM     92  S   UNL A   1      44.694  20.443  24.879  1.00  0.00     0.124 S 
ATOM     93  O   UNL A   1      44.070  19.299  25.539  1.00  0.00    -0.237 OA
ATOM     94  O   UNL A   1      44.503  20.521  23.435  1.00  0.00    -0.237 OA
ATOM     95  O   UNL A   1      46.037  20.765  25.352  1.00  0.00    -0.744 OA
ENDBRANCH  91  92
ENDBRANCH  59  84
BRANCH  71  96
ATOM     96  C   UNL A   1      45.274  29.244  28.221  1.00  0.00     0.058 A 
ATOM     97  C   UNL A   1      43.997  29.779  27.990  1.00  0.00     0.135 A 
ATOM     98  C   UNL A   1      46.337  29.901  27.553  1.00  0.00     0.135 A 
ATOM     99  F   UNL A   1      42.919  29.183  28.525  1.00  0.00    -0.206 F 
ATOM    100  C   UNL A   1      43.786  30.928  27.222  1.00  0.00     0.059 A 
ATOM    101  C   UNL A   1      46.159  31.088  26.834  1.00  0.00     0.059 A 
ATOM    102  F   UNL A   1      47.585  29.411  27.558  1.00  0.00    -0.206 F 
ATOM    103  C   UNL A   1      44.879  31.603  26.683  1.00  0.00     0.060 A 
BRANCH 103 104
ATOM    104  S   UNL A   1      44.625  33.205  25.885  1.00  0.00     0.124 S 
ATOM    105  O   UNL A   1      43.853  32.846  24.705  1.00  0.00    -0.237 OA
ATOM    106  O   UNL A   1      43.904  33.956  26.911  1.00  0.00    -0.237 OA
ATOM    107  O   UNL A   1      45.983  33.680  25.627  1.00  0.00    -0.744 OA
ENDBRANCH 103 104
ENDBRANCH  71  96
ENDBRANCH  45  46
ENDBRANCH  37  40
ENDBRANCH  35  36
ENDBRANCH  34  35
ENDBRANCH   1  34
TORSDOF 19
ENDMDL
MODEL 2
REMARK VINA RESULT:     -12.9      1.442      4.732
REMARK SMILES Cc1c(C[NH2+]Cc2cccc(F)c2)c(C(=O)NCCCNC(=O)c2ccc(-c3c4nc(c(-c5c(F)cc(S(=O)(=O)[O-])cc5F)c5ccc([nH]5)c(-c5c(F)cc(S(=O)(=O)[O-])cc5F)c5nc(c(-c6c(F)cc(S(=O)(=O)[O-])cc6F)c6ccc3[nH]6)C=C5)C=C4)cc2)c(C)n1Cc1c(F)cccc1Cl
REMARK SMILES IDX 18 1 17 2 15 3 16 4 14 6 1 7 2 8 3 9 92 10 90 11 91 12 4 13
REMARK SMILES IDX 5 14 6 17 7 18 8 19 13 20 9 21 11 22 10 23 12 24 93 25 94 26
REMARK SMILES IDX 95 27 100 28 96 29 97 30 99 31 101 32 98 33 19 34 20 35
REMARK SMILES IDX 21 36 22 37 23 39 24 40 25 41 89 42 26 43 88 44 27 45 28 46
REMARK SMILES IDX 29 47 82 48 30 49 87 50 81 51 83 52 31 53 86 54 80 55 79 56
REMARK SMILES IDX 32 58 66 59 45 60 65 61 46 62 49 63 64 64 84 65 47 66 48 67
REMARK SMILES IDX 63 69 85 70 50 71 33 72 34 73 43 74 35 75 36 76 42 77 44 78
REMARK SMILES IDX 37 79 38 80 39 81 40 82 41 83 67 84 68 85 77 86 69 87 70 88
REMARK SMILES IDX 76 89 78 90 71 91 72 92 73 93 74 94 75 95 51 96 52 97 61 98
REMARK SMILES IDX 53 99 54 100 60 101 62 102 55 103 56 104 57 105 58 106
REMARK SMILES IDX 59 107
REMARK H PARENT 17 5 5 15 5 16 21 38 83 57 49 68
REMARK Flexibility Score: inf
ROOT
ATOM      1  C   UNL A   1      33.134  28.087  26.567  1.00  0.00     0.118 C 
ENDROOT
BRANCH   1   2
ATOM      2  N   UNL A   1      31.882  27.374  26.727  1.00  0.00    -0.352 N 
ATOM      3  C   UNL A   1      31.182  26.407  26.050  1.00  0.00     0.253 C 
ATOM      4  O   UNL A   1      30.064  26.193  26.528  1.00  0.00    -0.269 OA
ATOM      5  H   UNL A   1      31.404  27.661  27.539  1.00  0.00     0.163 HD
BRANCH   3   6
ATOM      6  C   UNL A   1      31.633  25.730  24.815  1.00  0.00     0.069 A 
ATOM      7  C   UNL A   1      32.672  25.651  21.188  1.00  0.00     0.065 C 
ATOM      8  C   UNL A   1      32.336  25.479  22.630  1.00  0.00     0.025 A 
ATOM      9  C   UNL A   1      31.849  26.413  23.543  1.00  0.00     0.040 A 
ATOM     10  N   UNL A   1      32.452  24.281  23.311  1.00  0.00    -0.343 N 
ATOM     11  C   UNL A   1      31.679  24.379  24.463  1.00  0.00     0.028 A 
ATOM     12  C   UNL A   1      30.945  23.208  25.023  1.00  0.00     0.065 C 
BRANCH   9  13
ATOM     13  C   UNL A   1      31.521  27.858  23.238  1.00  0.00     0.300 C 
BRANCH  13  14
ATOM     14  N   UNL A   1      30.231  27.873  22.558  1.00  0.00    -0.339 N 
ATOM     15  H   UNL A   1      29.950  26.907  22.388  1.00  0.00     0.346 HD
ATOM     16  H   UNL A   1      30.361  28.408  21.699  1.00  0.00     0.346 HD
BRANCH  14  17
ATOM     17  C   UNL A   1      29.167  28.533  23.297  1.00  0.00     0.297 C 
BRANCH  17  18
ATOM     18  C   UNL A   1      28.826  29.950  22.878  1.00  0.00     0.009 A 
ATOM     19  C   UNL A   1      29.058  31.080  23.680  1.00  0.00     0.010 A 
ATOM     20  C   UNL A   1      28.317  30.156  21.583  1.00  0.00     0.048 A 
ATOM     21  C   UNL A   1      28.762  32.367  23.219  1.00  0.00     0.004 A 
ATOM     22  C   UNL A   1      28.033  31.441  21.131  1.00  0.00     0.123 A 
ATOM     23  C   UNL A   1      28.246  32.549  21.940  1.00  0.00     0.039 A 
ATOM     24  F   UNL A   1      27.552  31.616  19.892  1.00  0.00    -0.207 F 
ENDBRANCH  17  18
ENDBRANCH  14  17
ENDBRANCH  13  14
ENDBRANCH   9  13
BRANCH  10  25
ATOM     25  C   UNL A   1      33.092  23.059  22.798  1.00  0.00     0.162 C 
BRANCH  25  26
ATOM     26  C   UNL A   1      34.090  22.464  23.766  1.00  0.00     0.026 A 
ATOM     27  C   UNL A   1      35.191  23.232  24.170  1.00  0.00     0.129 A 
ATOM     28  C   UNL A   1      33.977  21.185  24.333  1.00  0.00     0.048 A 
ATOM     29  F   UNL A   1      35.307  24.501  23.766  1.00  0.00    -0.207 F 
ATOM     30  C   UNL A   1      36.169  22.752  25.040  1.00  0.00     0.040 A 
ATOM     31  C   UNL A   1      34.953  20.695  25.218  1.00  0.00     0.021 A 
ATOM     32  Cl  UNL A   1      32.614  20.162  24.052  1.00  0.00    -0.084 Cl
ATOM     33  C   UNL A   1      36.057  21.473  25.561  1.00  0.00     0.005 A 
ENDBRANCH  25  26
ENDBRANCH  10  25
ENDBRANCH   3   6
ENDBRANCH   1   2
BRANCH   1  34
ATOM     34  C   UNL A   1      33.054  29.591  26.855  1.00  0.00     0.042 C 
BRANCH  34  35
ATOM     35  C   UNL A   1      34.322  30.238  27.452  1.00  0.00     0.118 C 
BRANCH  35  36
ATOM     36  N   UNL A   1      34.040  31.421  28.240  1.00  0.00    -0.352 N 
ATOM     37  C   UNL A   1      34.751  31.986  29.276  1.00  0.00     0.251 C 
ATOM     38  H   UNL A   1      33.211  31.894  27.997  1.00  0.00     0.163 HD
ATOM     39  O   UNL A   1      34.209  32.902  29.894  1.00  0.00    -0.269 OA
BRANCH  37  40
ATOM     40  C   UNL A   1      36.068  31.453  29.759  1.00  0.00     0.039 A 
ATOM     41  C   UNL A   1      37.144  31.605  28.899  1.00  0.00     0.014 A 
ATOM     42  C   UNL A   1      36.247  30.614  30.873  1.00  0.00     0.014 A 
ATOM     43  C   UNL A   1      38.366  30.947  29.155  1.00  0.00     0.010 A 
ATOM     44  C   UNL A   1      37.470  29.866  31.076  1.00  0.00     0.010 A 
ATOM     45  C   UNL A   1      38.556  29.977  30.193  1.00  0.00    -0.014 A 
BRANCH  45  46
ATOM     46  C   UNL A   1      39.644  28.890  29.903  1.00  0.00     0.031 A 
ATOM     47  C   UNL A   1      40.582  28.949  31.068  1.00  0.00     0.074 A 
ATOM     48  C   UNL A   1      40.020  27.955  28.960  1.00  0.00     0.049 A 
ATOM     49  N   UNL A   1      41.141  30.058  31.468  1.00  0.00    -0.248 NA
ATOM     50  C   UNL A   1      40.632  27.848  32.038  1.00  0.00     0.031 C 
ATOM     51  C   UNL A   1      39.395  27.620  27.676  1.00  0.00     0.029 A 
ATOM     52  N   UNL A   1      41.102  27.040  28.967  1.00  0.00    -0.354 N 
ATOM     53  C   UNL A   1      41.853  29.725  32.589  1.00  0.00     0.074 A 
ATOM     54  C   UNL A   1      41.337  28.432  33.007  1.00  0.00     0.031 C 
ATOM     55  C   UNL A   1      40.006  26.543  27.098  1.00  0.00     0.029 A 
ATOM     56  C   UNL A   1      41.148  26.105  27.896  1.00  0.00     0.049 A 
ATOM     57  H   UNL A   1      41.785  27.051  29.675  1.00  0.00     0.167 HD
ATOM     58  C   UNL A   1      43.104  30.232  32.755  1.00  0.00     0.037 A 
ATOM     59  C   UNL A   1      42.066  25.104  27.640  1.00  0.00     0.037 A 
ATOM     60  C   UNL A   1      44.120  29.218  32.705  1.00  0.00     0.049 A 
ATOM     61  C   UNL A   1      43.293  25.410  28.402  1.00  0.00     0.074 A 
ATOM     62  C   UNL A   1      44.268  27.965  33.264  1.00  0.00     0.029 A 
ATOM     63  N   UNL A   1      44.924  29.231  31.580  1.00  0.00    -0.354 N 
ATOM     64  N   UNL A   1      44.098  26.370  28.068  1.00  0.00    -0.248 NA
ATOM     65  C   UNL A   1      43.745  24.570  29.511  1.00  0.00     0.031 C 
ATOM     66  C   UNL A   1      44.642  27.138  32.170  1.00  0.00     0.029 A 
ATOM     67  C   UNL A   1      44.960  27.947  31.079  1.00  0.00     0.049 A 
ATOM     68  H   UNL A   1      45.386  30.014  31.205  1.00  0.00     0.167 HD
ATOM     69  C   UNL A   1      44.886  26.527  29.165  1.00  0.00     0.074 A 
ATOM     70  C   UNL A   1      44.826  25.265  29.870  1.00  0.00     0.031 C 
ATOM     71  C   UNL A   1      45.078  27.779  29.646  1.00  0.00     0.037 A 
BRANCH  58  72
ATOM     72  C   UNL A   1      43.327  31.626  32.259  1.00  0.00     0.058 A 
ATOM     73  C   UNL A   1      43.192  31.999  30.908  1.00  0.00     0.135 A 
ATOM     74  C   UNL A   1      43.669  32.622  33.178  1.00  0.00     0.135 A 
ATOM     75  F   UNL A   1      42.963  31.067  29.970  1.00  0.00    -0.206 F 
ATOM     76  C   UNL A   1      43.328  33.318  30.493  1.00  0.00     0.059 A 
ATOM     77  C   UNL A   1      43.835  33.945  32.783  1.00  0.00     0.059 A 
ATOM     78  F   UNL A   1      43.857  32.311  34.472  1.00  0.00    -0.206 F 
ATOM     79  C   UNL A   1      43.633  34.289  31.445  1.00  0.00     0.060 A 
BRANCH  79  80
ATOM     80  S   UNL A   1      43.814  36.009  30.923  1.00  0.00     0.124 S 
ATOM     81  O   UNL A   1      43.593  36.744  32.157  1.00  0.00    -0.237 OA
ATOM     82  O   UNL A   1      45.182  36.023  30.401  1.00  0.00    -0.237 OA
ATOM     83  O   UNL A   1      42.767  36.164  29.918  1.00  0.00    -0.744 OA
ENDBRANCH  79  80
ENDBRANCH  58  72
BRANCH  59  84
ATOM     84  C   UNL A   1      42.280  23.862  26.773  1.00  0.00     0.058 A 
ATOM     85  C   UNL A   1      42.226  22.561  27.290  1.00  0.00     0.135 A 
ATOM     86  C   UNL A   1      42.980  23.972  25.529  1.00  0.00     0.135 A 
ATOM     87  F   UNL A   1      41.590  22.324  28.446  1.00  0.00    -0.206 F 
ATOM     88  C   UNL A   1      42.919  21.483  26.691  1.00  0.00     0.059 A 
ATOM     89  C   UNL A   1      43.708  22.931  24.942  1.00  0.00     0.059 A 
ATOM     90  F   UNL A   1      43.070  25.148  24.892  1.00  0.00    -0.206 F 
ATOM     91  C   UNL A   1      43.705  21.689  25.552  1.00  0.00     0.060 A 
BRANCH  91  92
ATOM     92  S   UNL A   1      44.820  20.383  24.962  1.00  0.00     0.124 S 
ATOM     93  O   UNL A   1      44.243  19.190  25.577  1.00  0.00    -0.237 OA
ATOM     94  O   UNL A   1      44.673  20.481  23.514  1.00  0.00    -0.237 OA
ATOM     95  O   UNL A   1      46.126  20.772  25.487  1.00  0.00    -0.744 OA
ENDBRANCH  91  92
ENDBRANCH  59  84
BRANCH  71  96
ATOM     96  C   UNL A   1      45.172  28.909  28.619  1.00  0.00     0.058 A 
ATOM     97  C   UNL A   1      43.977  29.498  28.176  1.00  0.00     0.135 A 
ATOM     98  C   UNL A   1      46.360  29.501  28.124  1.00  0.00     0.135 A 
ATOM     99  F   UNL A   1      42.799  28.964  28.537  1.00  0.00    -0.206 F 
ATOM    100  C   UNL A   1      43.950  30.638  27.368  1.00  0.00     0.059 A 
ATOM    101  C   UNL A   1      46.360  30.680  27.369  1.00  0.00     0.059 A 
ATOM    102  F   UNL A   1      47.566  28.955  28.338  1.00  0.00    -0.206 F 
ATOM    103  C   UNL A   1      45.148  31.250  27.004  1.00  0.00     0.060 A 
BRANCH 103 104
ATOM    104  S   UNL A   1      45.106  32.845  26.154  1.00  0.00     0.124 S 
ATOM    105  O   UNL A   1      44.305  32.547  24.975  1.00  0.00    -0.237 OA
ATOM    106  O   UNL A   1      44.476  33.714  27.146  1.00  0.00    -0.237 OA
ATOM    107  O   UNL A   1      46.515  33.135  25.899  1.00  0.00    -0.744 OA
ENDBRANCH 103 104
ENDBRANCH  71  96
ENDBRANCH  45  46
ENDBRANCH  37  40
ENDBRANCH  35  36
ENDBRANCH  34  35
ENDBRANCH   1  34
TORSDOF 19
ENDMDL
MODEL 3
REMARK VINA RESULT:     -12.6      1.562      2.150
REMARK SMILES Cc1c(C[NH2+]Cc2cccc(F)c2)c(C(=O)NCCCNC(=O)c2ccc(-c3c4nc(c(-c5c(F)cc(S(=O)(=O)[O-])cc5F)c5ccc([nH]5)c(-c5c(F)cc(S(=O)(=O)[O-])cc5F)c5nc(c(-c6c(F)cc(S(=O)(=O)[O-])cc6F)c6ccc3[nH]6)C=C5)C=C4)cc2)c(C)n1Cc1c(F)cccc1Cl
REMARK SMILES IDX 18 1 17 2 15 3 16 4 14 6 1 7 2 8 3 9 92 10 90 11 91 12 4 13
REMARK SMILES IDX 5 14 6 17 7 18 8 19 13 20 9 21 11 22 10 23 12 24 93 25 94 26
REMARK SMILES IDX 95 27 100 28 96 29 97 30 99 31 101 32 98 33 19 34 20 35
REMARK SMILES IDX 21 36 22 37 23 39 24 40 25 41 89 42 26 43 88 44 27 45 28 46
REMARK SMILES IDX 29 47 82 48 30 49 87 50 81 51 83 52 31 53 86 54 80 55 79 56
REMARK SMILES IDX 32 58 66 59 45 60 65 61 46 62 49 63 64 64 84 65 47 66 48 67
REMARK SMILES IDX 63 69 85 70 50 71 33 72 34 73 43 74 35 75 36 76 42 77 44 78
REMARK SMILES IDX 37 79 38 80 39 81 40 82 41 83 67 84 68 85 77 86 69 87 70 88
REMARK SMILES IDX 76 89 78 90 71 91 72 92 73 93 74 94 75 95 51 96 52 97 61 98
REMARK SMILES IDX 53 99 54 100 60 101 62 102 55 103 56 104 57 105 58 106
REMARK SMILES IDX 59 107
REMARK H PARENT 17 5 5 15 5 16 21 38 83 57 49 68
REMARK Flexibility Score: inf
ROOT
ATOM      1  C   UNL A   1      34.114  29.780  27.384  1.00  0.00     0.118 C 
ENDROOT
BRANCH   1   2
ATOM      2  N   UNL A   1      33.051  28.911  27.849  1.00  0.00    -0.352 N 
ATOM      3  C   UNL A   1      32.173  28.013  27.296  1.00  0.00     0.253 C 
ATOM      4  O   UNL A   1      31.342  27.587  28.104  1.00  0.00    -0.269 OA
ATOM      5  H   UNL A   1      32.924  28.984  28.823  1.00  0.00     0.163 HD
BRANCH   3   6
ATOM      6  C   UNL A   1      32.119  27.635  25.867  1.00  0.00     0.069 A 
ATOM      7  C   UNL A   1      32.793  25.340  22.948  1.00  0.00     0.065 C 
ATOM      8  C   UNL A   1      32.397  26.355  23.966  1.00  0.00     0.025 A 
ATOM      9  C   UNL A   1      32.701  26.410  25.325  1.00  0.00     0.040 A 
ATOM     10  N   UNL A   1      31.632  27.471  23.684  1.00  0.00    -0.343 N 
ATOM     11  C   UNL A   1      31.815  28.377  24.723  1.00  0.00     0.028 A 
ATOM     12  C   UNL A   1      31.829  29.850  24.493  1.00  0.00     0.065 C 
BRANCH   9  13
ATOM     13  C   UNL A   1      33.559  25.419  26.080  1.00  0.00     0.300 C 
BRANCH  13  14
ATOM     14  N   UNL A   1      32.986  24.096  25.860  1.00  0.00    -0.339 N 
ATOM     15  H   UNL A   1      32.435  24.127  25.002  1.00  0.00     0.346 HD
ATOM     16  H   UNL A   1      32.428  23.880  26.685  1.00  0.00     0.346 HD
BRANCH  14  17
ATOM     17  C   UNL A   1      33.965  23.029  25.732  1.00  0.00     0.297 C 
BRANCH  17  18
ATOM     18  C   UNL A   1      33.464  21.712  25.170  1.00  0.00     0.009 A 
ATOM     19  C   UNL A   1      33.424  20.514  25.904  1.00  0.00     0.010 A 
ATOM     20  C   UNL A   1      32.942  21.702  23.865  1.00  0.00     0.048 A 
ATOM     21  C   UNL A   1      32.909  19.340  25.343  1.00  0.00     0.004 A 
ATOM     22  C   UNL A   1      32.426  20.531  23.318  1.00  0.00     0.123 A 
ATOM     23  C   UNL A   1      32.409  19.347  24.045  1.00  0.00     0.039 A 
ATOM     24  F   UNL A   1      31.929  20.544  22.073  1.00  0.00    -0.207 F 
ENDBRANCH  17  18
ENDBRANCH  14  17
ENDBRANCH  13  14
ENDBRANCH   9  13
BRANCH  10  25
ATOM     25  C   UNL A   1      30.935  27.738  22.414  1.00  0.00     0.162 C 
BRANCH  25  26
ATOM     26  C   UNL A   1      29.598  28.419  22.607  1.00  0.00     0.026 A 
ATOM     27  C   UNL A   1      29.383  29.679  22.031  1.00  0.00     0.129 A 
ATOM     28  C   UNL A   1      28.517  27.857  23.303  1.00  0.00     0.048 A 
ATOM     29  F   UNL A   1      30.321  30.228  21.254  1.00  0.00    -0.207 F 
ATOM     30  C   UNL A   1      28.190  30.384  22.179  1.00  0.00     0.040 A 
ATOM     31  C   UNL A   1      27.306  28.557  23.451  1.00  0.00     0.021 A 
ATOM     32  Cl  UNL A   1      28.563  26.259  23.957  1.00  0.00    -0.084 Cl
ATOM     33  C   UNL A   1      27.147  29.827  22.901  1.00  0.00     0.005 A 
ENDBRANCH  25  26
ENDBRANCH  10  25
ENDBRANCH   3   6
ENDBRANCH   1   2
BRANCH   1  34
ATOM     34  C   UNL A   1      33.802  31.278  27.480  1.00  0.00     0.042 C 
BRANCH  34  35
ATOM     35  C   UNL A   1      34.866  32.151  28.178  1.00  0.00     0.118 C 
BRANCH  35  36
ATOM     36  N   UNL A   1      34.358  32.841  29.347  1.00  0.00    -0.352 N 
ATOM     37  C   UNL A   1      34.797  32.813  30.653  1.00  0.00     0.251 C 
ATOM     38  H   UNL A   1      33.577  33.420  29.182  1.00  0.00     0.163 HD
ATOM     39  O   UNL A   1      34.086  33.362  31.495  1.00  0.00    -0.269 OA
BRANCH  37  40
ATOM     40  C   UNL A   1      36.003  32.042  31.101  1.00  0.00     0.039 A 
ATOM     41  C   UNL A   1      37.206  32.381  30.499  1.00  0.00     0.014 A 
ATOM     42  C   UNL A   1      35.978  30.870  31.876  1.00  0.00     0.014 A 
ATOM     43  C   UNL A   1      38.350  31.575  30.682  1.00  0.00     0.010 A 
ATOM     44  C   UNL A   1      37.129  29.998  31.978  1.00  0.00     0.010 A 
ATOM     45  C   UNL A   1      38.343  30.303  31.343  1.00  0.00    -0.014 A 
BRANCH  45  46
ATOM     46  C   UNL A   1      39.427  29.287  30.851  1.00  0.00     0.031 A 
ATOM     47  C   UNL A   1      40.390  29.157  31.991  1.00  0.00     0.074 A 
ATOM     48  C   UNL A   1      39.785  28.526  29.757  1.00  0.00     0.049 A 
ATOM     49  N   UNL A   1      40.955  30.186  32.558  1.00  0.00    -0.248 NA
ATOM     50  C   UNL A   1      40.464  27.909  32.761  1.00  0.00     0.031 C 
ATOM     51  C   UNL A   1      39.133  28.406  28.449  1.00  0.00     0.029 A 
ATOM     52  N   UNL A   1      40.869  27.629  29.588  1.00  0.00    -0.354 N 
ATOM     53  C   UNL A   1      41.692  29.675  33.593  1.00  0.00     0.074 A 
ATOM     54  C   UNL A   1      41.189  28.326  33.799  1.00  0.00     0.031 C 
ATOM     55  C   UNL A   1      39.734  27.446  27.686  1.00  0.00     0.029 A 
ATOM     56  C   UNL A   1      40.895  26.888  28.375  1.00  0.00     0.049 A 
ATOM     57  H   UNL A   1      41.568  27.526  30.274  1.00  0.00     0.167 HD
ATOM     58  C   UNL A   1      42.945  30.154  33.815  1.00  0.00     0.037 A 
ATOM     59  C   UNL A   1      41.810  25.949  27.936  1.00  0.00     0.037 A 
ATOM     60  C   UNL A   1      43.962  29.169  33.574  1.00  0.00     0.049 A 
ATOM     61  C   UNL A   1      43.051  26.131  28.712  1.00  0.00     0.074 A 
ATOM     62  C   UNL A   1      44.126  27.841  33.913  1.00  0.00     0.029 A 
ATOM     63  N   UNL A   1      44.742  29.375  32.451  1.00  0.00    -0.354 N 
ATOM     64  N   UNL A   1      43.847  27.138  28.527  1.00  0.00    -0.248 NA
ATOM     65  C   UNL A   1      43.530  25.120  29.655  1.00  0.00     0.031 C 
ATOM     66  C   UNL A   1      44.479  27.212  32.688  1.00  0.00     0.029 A 
ATOM     67  C   UNL A   1      44.770  28.194  31.741  1.00  0.00     0.049 A 
ATOM     68  H   UNL A   1      45.194  30.213  32.202  1.00  0.00     0.167 HD
ATOM     69  C   UNL A   1      44.658  27.114  29.618  1.00  0.00     0.074 A 
ATOM     70  C   UNL A   1      44.616  25.752  30.103  1.00  0.00     0.031 C 
ATOM     71  C   UNL A   1      44.857  28.269  30.298  1.00  0.00     0.037 A 
BRANCH  58  72
ATOM     72  C   UNL A   1      43.154  31.613  33.555  1.00  0.00     0.058 A 
ATOM     73  C   UNL A   1      43.069  32.192  32.275  1.00  0.00     0.135 A 
ATOM     74  C   UNL A   1      43.430  32.457  34.635  1.00  0.00     0.135 A 
ATOM     75  F   UNL A   1      42.906  31.416  31.192  1.00  0.00    -0.206 F 
ATOM     76  C   UNL A   1      43.189  33.563  32.079  1.00  0.00     0.059 A 
ATOM     77  C   UNL A   1      43.579  33.829  34.460  1.00  0.00     0.059 A 
ATOM     78  F   UNL A   1      43.568  31.949  35.871  1.00  0.00    -0.206 F 
ATOM     79  C   UNL A   1      43.427  34.376  33.184  1.00  0.00     0.060 A 
BRANCH  79  80
ATOM     80  S   UNL A   1      43.586  36.160  32.949  1.00  0.00     0.124 S 
ATOM     81  O   UNL A   1      42.531  36.691  33.795  1.00  0.00    -0.237 OA
ATOM     82  O   UNL A   1      44.957  36.402  33.400  1.00  0.00    -0.237 OA
ATOM     83  O   UNL A   1      43.369  36.328  31.515  1.00  0.00    -0.744 OA
ENDBRANCH  79  80
ENDBRANCH  58  72
BRANCH  59  84
ATOM     84  C   UNL A   1      42.007  24.871  26.869  1.00  0.00     0.058 A 
ATOM     85  C   UNL A   1      41.794  23.510  27.121  1.00  0.00     0.135 A 
ATOM     86  C   UNL A   1      42.839  25.136  25.733  1.00  0.00     0.135 A 
ATOM     87  F   UNL A   1      41.024  23.131  28.151  1.00  0.00    -0.206 F 
ATOM     88  C   UNL A   1      42.453  22.496  26.388  1.00  0.00     0.059 A 
ATOM     89  C   UNL A   1      43.535  24.151  25.022  1.00  0.00     0.059 A 
ATOM     90  F   UNL A   1      43.091  26.393  25.342  1.00  0.00    -0.206 F 
ATOM     91  C   UNL A   1      43.366  22.826  25.380  1.00  0.00     0.060 A 
BRANCH  91  92
ATOM     92  S   UNL A   1      44.424  21.544  24.648  1.00  0.00     0.124 S 
ATOM     93  O   UNL A   1      44.469  21.952  23.246  1.00  0.00    -0.237 OA
ATOM     94  O   UNL A   1      45.667  21.707  25.394  1.00  0.00    -0.237 OA
ATOM     95  O   UNL A   1      43.698  20.303  24.902  1.00  0.00    -0.744 OA
ENDBRANCH  91  92
ENDBRANCH  59  84
BRANCH  71  96
ATOM     96  C   UNL A   1      44.926  29.556  29.473  1.00  0.00     0.058 A 
ATOM     97  C   UNL A   1      46.189  30.121  29.237  1.00  0.00     0.135 A 
ATOM     98  C   UNL A   1      43.842  30.203  28.829  1.00  0.00     0.135 A 
ATOM     99  F   UNL A   1      47.269  29.618  29.858  1.00  0.00    -0.206 F 
ATOM    100  C   UNL A   1      46.386  31.197  28.367  1.00  0.00     0.059 A 
ATOM    101  C   UNL A   1      44.021  31.238  27.904  1.00  0.00     0.059 A 
ATOM    102  F   UNL A   1      42.568  29.869  29.082  1.00  0.00    -0.206 F 
ATOM    103  C   UNL A   1      45.301  31.722  27.669  1.00  0.00     0.060 A 
BRANCH 103 104
ATOM    104  S   UNL A   1      45.589  32.958  26.381  1.00  0.00     0.124 S 
ATOM    105  O   UNL A   1      45.069  34.172  26.994  1.00  0.00    -0.237 OA
ATOM    106  O   UNL A   1      47.040  32.903  26.213  1.00  0.00    -0.237 OA
ATOM    107  O   UNL A   1      44.826  32.452  25.243  1.00  0.00    -0.744 OA
ENDBRANCH 103 104
ENDBRANCH  71  96
ENDBRANCH  45  46
ENDBRANCH  37  40
ENDBRANCH  35  36
ENDBRANCH  34  35
ENDBRANCH   1  34
TORSDOF 19
ENDMDL
