MODEL 1
REMARK VINA RESULT:     -14.1      0.000      0.000
REMARK SMILES Cc1ccc(N2C(=O)[NH+]=C(NCCCNC(=O)c3ccc(-c4c5nc(c(-c6c(F)cc(S(=O)(=O)[O-])cc6F)c6ccc([nH]6)c(-c6c(F)cc(S(=O)(=O)[O-])cc6F)c6nc(c(-c7c(F)cc(S(=O)(=O)[O-])cc7F)c7ccc4[nH]7)C=C6)C=C5)cc3)/C(=C\c3ccccc3OCc3cccc(C(=O)[O-])c3)C2=O)cc1
REMARK SMILES IDX 12 1 11 2 6 3 7 4 103 5 8 6 9 7 84 8 104 9 10 10 85 12 5 14
REMARK SMILES IDX 1 15 2 16 3 17 106 18 4 19 105 20 86 21 87 22 91 23 88 24
REMARK SMILES IDX 90 25 89 26 92 27 93 28 94 29 95 30 102 31 96 32 98 33 97 34
REMARK SMILES IDX 99 35 100 36 101 37 13 38 14 39 15 40 16 41 17 43 18 44
REMARK SMILES IDX 19 45 83 46 20 47 82 48 21 49 22 50 23 51 76 52 24 53 81 54
REMARK SMILES IDX 75 55 77 56 25 57 80 58 74 59 73 60 26 62 60 63 39 64 59 65
REMARK SMILES IDX 40 66 43 67 58 68 78 69 41 70 42 71 57 73 79 74 44 75 27 76
REMARK SMILES IDX 28 77 37 78 29 79 30 80 36 81 38 82 31 83 32 84 33 85 34 86
REMARK SMILES IDX 35 87 61 88 62 89 71 90 63 91 64 92 70 93 72 94 65 95 66 96
REMARK SMILES IDX 67 97 68 98 69 99 45 100 46 101 55 102 47 103 48 104 54 105
REMARK SMILES IDX 56 106 49 107 50 108 51 109 52 110 53 111
REMARK H PARENT 9 11 11 13 15 42 77 61 43 72
REMARK Flexibility Score: inf
ROOT
ATOM      1  C   UNL A   1      32.601  27.638  26.035  1.00  0.00     0.195 C 
ENDROOT
BRANCH   1   2
ATOM      2  N   UNL A   1      33.147  27.131  24.766  1.00  0.00    -0.305 N 
ATOM      3  N   UNL A   1      35.495  23.679  24.697  1.00  0.00    -0.155 N 
ATOM      4  C   UNL A   1      35.377  24.529  25.809  1.00  0.00     0.448 C 
ATOM      5  C   UNL A   1      34.880  23.951  23.484  1.00  0.00     0.328 C 
ATOM      6  O   UNL A   1      35.949  24.294  26.873  1.00  0.00    -0.212 OA
ATOM      7  N   UNL A   1      34.657  25.685  25.711  1.00  0.00    -0.209 N 
ATOM      8  C   UNL A   1      33.814  24.971  23.580  1.00  0.00     0.129 C 
ATOM      9  O   UNL A   1      35.051  23.341  22.427  1.00  0.00    -0.249 OA
ATOM     10  C   UNL A   1      33.877  25.951  24.707  1.00  0.00     0.236 C 
ATOM     11  H   UNL A   1      34.732  26.348  26.435  1.00  0.00     0.270 HD
ATOM     12  C   UNL A   1      32.766  24.713  22.772  1.00  0.00     0.034 C 
ATOM     13  H   UNL A   1      32.990  27.640  23.939  1.00  0.00     0.256 HD
BRANCH   3  14
ATOM     14  C   UNL A   1      36.253  22.466  24.818  1.00  0.00     0.111 A 
ATOM     15  C   UNL A   1      38.538  18.825  25.258  1.00  0.00     0.044 C 
ATOM     16  C   UNL A   1      37.740  20.083  25.114  1.00  0.00    -0.051 A 
ATOM     17  C   UNL A   1      38.349  21.326  25.310  1.00  0.00     0.007 A 
ATOM     18  C   UNL A   1      36.383  20.035  24.794  1.00  0.00     0.007 A 
ATOM     19  C   UNL A   1      37.615  22.504  25.154  1.00  0.00     0.044 A 
ATOM     20  C   UNL A   1      35.647  21.213  24.653  1.00  0.00     0.044 A 
ENDBRANCH   3  14
BRANCH  12  21
ATOM     21  C   UNL A   1      31.497  25.415  22.808  1.00  0.00     0.018 A 
ATOM     22  C   UNL A   1      31.477  26.572  22.030  1.00  0.00     0.012 A 
ATOM     23  C   UNL A   1      30.449  25.138  23.701  1.00  0.00     0.127 A 
ATOM     24  C   UNL A   1      30.539  27.543  22.304  1.00  0.00     0.001 A 
ATOM     25  C   UNL A   1      29.483  26.110  23.930  1.00  0.00     0.047 A 
ATOM     26  C   UNL A   1      29.576  27.329  23.285  1.00  0.00     0.004 A 
BRANCH  23  27
ATOM     27  O   UNL A   1      30.375  24.117  24.596  1.00  0.00    -0.488 OA
BRANCH  27  28
ATOM     28  C   UNL A   1      30.876  24.285  25.910  1.00  0.00     0.265 C 
BRANCH  28  29
ATOM     29  C   UNL A   1      31.706  23.066  26.235  1.00  0.00    -0.010 A 
ATOM     30  C   UNL A   1      32.587  23.085  27.323  1.00  0.00     0.007 A 
ATOM     31  C   UNL A   1      31.633  21.911  25.437  1.00  0.00     0.017 A 
ATOM     32  C   UNL A   1      33.381  21.974  27.609  1.00  0.00     0.001 A 
ATOM     33  C   UNL A   1      32.443  20.805  25.705  1.00  0.00    -0.002 A 
ATOM     34  C   UNL A   1      33.319  20.841  26.796  1.00  0.00     0.010 A 
BRANCH  33  35
ATOM     35  C   UNL A   1      32.429  19.617  24.824  1.00  0.00     0.071 C 
ATOM     36  O   UNL A   1      32.489  19.640  23.597  1.00  0.00    -0.545 OA
ATOM     37  O   UNL A   1      32.321  18.472  25.508  1.00  0.00    -0.545 OA
ENDBRANCH  33  35
ENDBRANCH  28  29
ENDBRANCH  27  28
ENDBRANCH  23  27
ENDBRANCH  12  21
ENDBRANCH   1   2
BRANCH   1  38
ATOM     38  C   UNL A   1      32.560  29.161  26.109  1.00  0.00     0.059 C 
BRANCH  38  39
ATOM     39  C   UNL A   1      33.299  29.753  27.299  1.00  0.00     0.119 C 
BRANCH  39  40
ATOM     40  N   UNL A   1      34.133  30.914  27.016  1.00  0.00    -0.352 N 
ATOM     41  C   UNL A   1      35.203  31.362  27.785  1.00  0.00     0.251 C 
ATOM     42  H   UNL A   1      33.918  31.430  26.205  1.00  0.00     0.163 HD
ATOM     43  O   UNL A   1      35.407  32.555  27.976  1.00  0.00    -0.269 OA
BRANCH  41  44
ATOM     44  C   UNL A   1      36.210  30.353  28.198  1.00  0.00     0.039 A 
ATOM     45  C   UNL A   1      36.155  29.823  29.499  1.00  0.00     0.014 A 
ATOM     46  C   UNL A   1      37.312  30.096  27.399  1.00  0.00     0.014 A 
ATOM     47  C   UNL A   1      37.289  29.242  30.071  1.00  0.00     0.010 A 
ATOM     48  C   UNL A   1      38.452  29.614  27.984  1.00  0.00     0.010 A 
ATOM     49  C   UNL A   1      38.461  29.234  29.334  1.00  0.00    -0.014 A 
BRANCH  49  50
ATOM     50  C   UNL A   1      39.775  28.802  29.778  1.00  0.00     0.031 A 
ATOM     51  C   UNL A   1      40.241  27.495  29.270  1.00  0.00     0.074 A 
ATOM     52  C   UNL A   1      40.638  29.716  30.273  1.00  0.00     0.049 A 
ATOM     53  N   UNL A   1      41.401  27.006  29.507  1.00  0.00    -0.248 NA
ATOM     54  C   UNL A   1      39.426  26.634  28.413  1.00  0.00     0.031 C 
ATOM     55  C   UNL A   1      42.098  29.738  30.138  1.00  0.00     0.029 A 
ATOM     56  N   UNL A   1      40.401  30.873  30.979  1.00  0.00    -0.354 N 
ATOM     57  C   UNL A   1      41.599  25.939  28.663  1.00  0.00     0.074 A 
ATOM     58  C   UNL A   1      40.321  25.716  28.034  1.00  0.00     0.031 C 
ATOM     59  C   UNL A   1      42.608  30.712  30.917  1.00  0.00     0.029 A 
ATOM     60  C   UNL A   1      41.521  31.220  31.734  1.00  0.00     0.049 A 
ATOM     61  H   UNL A   1      39.559  31.383  30.956  1.00  0.00     0.167 HD
ATOM     62  C   UNL A   1      42.867  25.455  28.544  1.00  0.00     0.037 A 
ATOM     63  C   UNL A   1      41.446  31.110  33.100  1.00  0.00     0.037 A 
ATOM     64  C   UNL A   1      43.764  26.179  29.451  1.00  0.00     0.049 A 
ATOM     65  C   UNL A   1      42.221  29.905  33.617  1.00  0.00     0.074 A 
ATOM     66  C   UNL A   1      44.624  27.256  29.314  1.00  0.00     0.029 A 
ATOM     67  N   UNL A   1      43.570  26.021  30.808  1.00  0.00    -0.354 N 
ATOM     68  N   UNL A   1      42.849  29.064  32.840  1.00  0.00    -0.248 NA
ATOM     69  C   UNL A   1      42.330  29.524  35.022  1.00  0.00     0.031 C 
ATOM     70  C   UNL A   1      44.898  27.766  30.622  1.00  0.00     0.029 A 
ATOM     71  C   UNL A   1      44.216  26.991  31.545  1.00  0.00     0.049 A 
ATOM     72  H   UNL A   1      43.031  25.299  31.205  1.00  0.00     0.167 HD
ATOM     73  C   UNL A   1      43.373  28.040  33.567  1.00  0.00     0.074 A 
ATOM     74  C   UNL A   1      43.019  28.369  34.938  1.00  0.00     0.031 C 
ATOM     75  C   UNL A   1      44.039  26.995  32.992  1.00  0.00     0.037 A 
BRANCH  62  76
ATOM     76  C   UNL A   1      43.360  24.444  27.538  1.00  0.00     0.058 A 
ATOM     77  C   UNL A   1      42.979  23.091  27.680  1.00  0.00     0.135 A 
ATOM     78  C   UNL A   1      44.182  24.709  26.424  1.00  0.00     0.135 A 
ATOM     79  F   UNL A   1      42.177  22.686  28.673  1.00  0.00    -0.206 F 
ATOM     80  C   UNL A   1      43.405  22.083  26.817  1.00  0.00     0.059 A 
ATOM     81  C   UNL A   1      44.653  23.708  25.565  1.00  0.00     0.059 A 
ATOM     82  F   UNL A   1      44.531  25.953  26.080  1.00  0.00    -0.206 F 
ATOM     83  C   UNL A   1      44.253  22.396  25.769  1.00  0.00     0.060 A 
BRANCH  83  84
ATOM     84  S   UNL A   1      44.794  21.067  24.684  1.00  0.00     0.124 S 
ATOM     85  O   UNL A   1      44.641  21.673  23.365  1.00  0.00    -0.237 OA
ATOM     86  O   UNL A   1      46.166  20.852  25.129  1.00  0.00    -0.237 OA
ATOM     87  O   UNL A   1      43.861  19.984  24.981  1.00  0.00    -0.744 OA
ENDBRANCH  83  84
ENDBRANCH  62  76
BRANCH  63  88
ATOM     88  C   UNL A   1      40.106  31.598  33.586  1.00  0.00     0.058 A 
ATOM     89  C   UNL A   1      39.205  30.598  34.017  1.00  0.00     0.135 A 
ATOM     90  C   UNL A   1      39.998  32.864  34.188  1.00  0.00     0.135 A 
ATOM     91  F   UNL A   1      39.242  29.377  33.460  1.00  0.00    -0.206 F 
ATOM     92  C   UNL A   1      38.424  30.764  35.159  1.00  0.00     0.059 A 
ATOM     93  C   UNL A   1      39.204  33.054  35.324  1.00  0.00     0.059 A 
ATOM     94  F   UNL A   1      40.812  33.861  33.813  1.00  0.00    -0.206 F 
ATOM     95  C   UNL A   1      38.496  31.970  35.850  1.00  0.00     0.060 A 
BRANCH  95  96
ATOM     96  S   UNL A   1      37.814  32.023  37.528  1.00  0.00     0.124 S 
ATOM     97  O   UNL A   1      37.397  30.642  37.735  1.00  0.00    -0.237 OA
ATOM     98  O   UNL A   1      38.978  32.454  38.301  1.00  0.00    -0.237 OA
ATOM     99  O   UNL A   1      36.734  32.996  37.413  1.00  0.00    -0.744 OA
ENDBRANCH  95  96
ENDBRANCH  63  88
BRANCH  75 100
ATOM    100  C   UNL A   1      44.578  25.858  33.799  1.00  0.00     0.058 A 
ATOM    101  C   UNL A   1      45.949  25.577  33.841  1.00  0.00     0.135 A 
ATOM    102  C   UNL A   1      43.728  24.961  34.483  1.00  0.00     0.135 A 
ATOM    103  F   UNL A   1      46.825  26.330  33.155  1.00  0.00    -0.206 F 
ATOM    104  C   UNL A   1      46.457  24.524  34.593  1.00  0.00     0.059 A 
ATOM    105  C   UNL A   1      44.206  23.858  35.174  1.00  0.00     0.059 A 
ATOM    106  F   UNL A   1      42.401  25.151  34.544  1.00  0.00    -0.206 F 
ATOM    107  C   UNL A   1      45.577  23.676  35.262  1.00  0.00     0.060 A 
BRANCH 107 108
ATOM    108  S   UNL A   1      46.234  22.347  36.276  1.00  0.00     0.124 S 
ATOM    109  O   UNL A   1      47.671  22.455  36.046  1.00  0.00    -0.237 OA
ATOM    110  O   UNL A   1      45.773  22.747  37.602  1.00  0.00    -0.237 OA
ATOM    111  O   UNL A   1      45.603  21.153  35.724  1.00  0.00    -0.744 OA
ENDBRANCH 107 108
ENDBRANCH  75 100
ENDBRANCH  49  50
ENDBRANCH  41  44
ENDBRANCH  39  40
ENDBRANCH  38  39
ENDBRANCH   1  38
TORSDOF 18
ENDMDL
MODEL 2
REMARK VINA RESULT:     -14.0      1.977      3.780
REMARK SMILES Cc1ccc(N2C(=O)[NH+]=C(NCCCNC(=O)c3ccc(-c4c5nc(c(-c6c(F)cc(S(=O)(=O)[O-])cc6F)c6ccc([nH]6)c(-c6c(F)cc(S(=O)(=O)[O-])cc6F)c6nc(c(-c7c(F)cc(S(=O)(=O)[O-])cc7F)c7ccc4[nH]7)C=C6)C=C5)cc3)/C(=C\c3ccccc3OCc3cccc(C(=O)[O-])c3)C2=O)cc1
REMARK SMILES IDX 12 1 11 2 6 3 7 4 103 5 8 6 9 7 84 8 104 9 10 10 85 12 5 14
REMARK SMILES IDX 1 15 2 16 3 17 106 18 4 19 105 20 86 21 87 22 91 23 88 24
REMARK SMILES IDX 90 25 89 26 92 27 93 28 94 29 95 30 102 31 96 32 98 33 97 34
REMARK SMILES IDX 99 35 100 36 101 37 13 38 14 39 15 40 16 41 17 43 18 44
REMARK SMILES IDX 19 45 83 46 20 47 82 48 21 49 22 50 23 51 76 52 24 53 81 54
REMARK SMILES IDX 75 55 77 56 25 57 80 58 74 59 73 60 26 62 60 63 39 64 59 65
REMARK SMILES IDX 40 66 43 67 58 68 78 69 41 70 42 71 57 73 79 74 44 75 27 76
REMARK SMILES IDX 28 77 37 78 29 79 30 80 36 81 38 82 31 83 32 84 33 85 34 86
REMARK SMILES IDX 35 87 61 88 62 89 71 90 63 91 64 92 70 93 72 94 65 95 66 96
REMARK SMILES IDX 67 97 68 98 69 99 45 100 46 101 55 102 47 103 48 104 54 105
REMARK SMILES IDX 56 106 49 107 50 108 51 109 52 110 53 111
REMARK H PARENT 9 11 11 13 15 42 77 61 43 72
REMARK Flexibility Score: inf
ROOT
ATOM      1  C   UNL A   1      32.407  27.111  26.431  1.00  0.00     0.195 C 
ENDROOT
BRANCH   1   2
ATOM      2  N   UNL A   1      33.478  26.571  25.577  1.00  0.00    -0.305 N 
ATOM      3  N   UNL A   1      33.628  22.494  24.688  1.00  0.00    -0.155 N 
ATOM      4  C   UNL A   1      33.039  23.026  25.846  1.00  0.00     0.448 C 
ATOM      5  C   UNL A   1      34.277  23.287  23.753  1.00  0.00     0.328 C 
ATOM      6  O   UNL A   1      32.488  22.313  26.685  1.00  0.00    -0.212 OA
ATOM      7  N   UNL A   1      33.116  24.367  26.098  1.00  0.00    -0.209 N 
ATOM      8  C   UNL A   1      33.966  24.727  23.882  1.00  0.00     0.129 C 
ATOM      9  O   UNL A   1      34.942  22.887  22.795  1.00  0.00    -0.249 OA
ATOM     10  C   UNL A   1      33.514  25.231  25.215  1.00  0.00     0.236 C 
ATOM     11  H   UNL A   1      32.857  24.692  26.990  1.00  0.00     0.270 HD
ATOM     12  C   UNL A   1      33.881  25.354  22.692  1.00  0.00     0.034 C 
ATOM     13  H   UNL A   1      34.185  27.175  25.256  1.00  0.00     0.256 HD
BRANCH   3  14
ATOM     14  C   UNL A   1      33.535  21.084  24.437  1.00  0.00     0.111 A 
ATOM     15  C   UNL A   1      33.272  16.851  23.606  1.00  0.00     0.044 C 
ATOM     16  C   UNL A   1      33.373  18.318  23.889  1.00  0.00    -0.051 A 
ATOM     17  C   UNL A   1      32.390  19.192  23.415  1.00  0.00     0.007 A 
ATOM     18  C   UNL A   1      34.447  18.834  24.614  1.00  0.00     0.007 A 
ATOM     19  C   UNL A   1      32.467  20.558  23.695  1.00  0.00     0.044 A 
ATOM     20  C   UNL A   1      34.529  20.202  24.881  1.00  0.00     0.044 A 
ENDBRANCH   3  14
BRANCH  12  21
ATOM     21  C   UNL A   1      33.385  26.704  22.499  1.00  0.00     0.018 A 
ATOM     22  C   UNL A   1      34.384  27.676  22.537  1.00  0.00     0.012 A 
ATOM     23  C   UNL A   1      32.030  27.073  22.511  1.00  0.00     0.127 A 
ATOM     24  C   UNL A   1      34.035  28.980  22.808  1.00  0.00     0.001 A 
ATOM     25  C   UNL A   1      31.696  28.403  22.738  1.00  0.00     0.047 A 
ATOM     26  C   UNL A   1      32.696  29.330  22.955  1.00  0.00     0.004 A 
BRANCH  23  27
ATOM     27  O   UNL A   1      30.950  26.250  22.585  1.00  0.00    -0.488 OA
BRANCH  27  28
ATOM     28  C   UNL A   1      30.254  26.098  23.809  1.00  0.00     0.265 C 
BRANCH  28  29
ATOM     29  C   UNL A   1      28.981  26.905  23.705  1.00  0.00    -0.010 A 
ATOM     30  C   UNL A   1      27.780  26.390  24.209  1.00  0.00     0.007 A 
ATOM     31  C   UNL A   1      28.974  28.161  23.076  1.00  0.00     0.017 A 
ATOM     32  C   UNL A   1      26.595  27.115  24.087  1.00  0.00     0.001 A 
ATOM     33  C   UNL A   1      27.785  28.881  22.930  1.00  0.00    -0.002 A 
ATOM     34  C   UNL A   1      26.593  28.352  23.440  1.00  0.00     0.010 A 
BRANCH  33  35
ATOM     35  C   UNL A   1      27.756  30.167  22.201  1.00  0.00     0.071 C 
ATOM     36  O   UNL A   1      28.103  30.331  21.034  1.00  0.00    -0.545 OA
ATOM     37  O   UNL A   1      27.318  31.178  22.961  1.00  0.00    -0.545 OA
ENDBRANCH  33  35
ENDBRANCH  28  29
ENDBRANCH  27  28
ENDBRANCH  23  27
ENDBRANCH  12  21
ENDBRANCH   1   2
BRANCH   1  38
ATOM     38  C   UNL A   1      32.174  28.605  26.236  1.00  0.00     0.059 C 
BRANCH  38  39
ATOM     39  C   UNL A   1      32.752  29.481  27.338  1.00  0.00     0.119 C 
BRANCH  39  40
ATOM     40  N   UNL A   1      33.519  30.638  26.894  1.00  0.00    -0.352 N 
ATOM     41  C   UNL A   1      34.594  31.213  27.564  1.00  0.00     0.251 C 
ATOM     42  H   UNL A   1      33.250  31.050  26.041  1.00  0.00     0.163 HD
ATOM     43  O   UNL A   1      34.749  32.428  27.615  1.00  0.00    -0.269 OA
BRANCH  41  44
ATOM     44  C   UNL A   1      35.663  30.300  28.042  1.00  0.00     0.039 A 
ATOM     45  C   UNL A   1      35.627  29.840  29.370  1.00  0.00     0.014 A 
ATOM     46  C   UNL A   1      36.790  30.076  27.269  1.00  0.00     0.014 A 
ATOM     47  C   UNL A   1      36.790  29.370  29.984  1.00  0.00     0.010 A 
ATOM     48  C   UNL A   1      37.953  29.706  27.889  1.00  0.00     0.010 A 
ATOM     49  C   UNL A   1      37.969  29.402  29.258  1.00  0.00    -0.014 A 
BRANCH  49  50
ATOM     50  C   UNL A   1      39.304  29.086  29.738  1.00  0.00     0.031 A 
ATOM     51  C   UNL A   1      39.878  27.804  29.280  1.00  0.00     0.074 A 
ATOM     52  C   UNL A   1      40.085  30.079  30.217  1.00  0.00     0.049 A 
ATOM     53  N   UNL A   1      41.067  27.413  29.553  1.00  0.00    -0.248 NA
ATOM     54  C   UNL A   1      39.148  26.857  28.439  1.00  0.00     0.031 C 
ATOM     55  C   UNL A   1      41.541  30.209  30.106  1.00  0.00     0.029 A 
ATOM     56  N   UNL A   1      39.747  31.236  30.882  1.00  0.00    -0.354 N 
ATOM     57  C   UNL A   1      41.362  26.339  28.747  1.00  0.00     0.074 A 
ATOM     58  C   UNL A   1      40.117  25.999  28.104  1.00  0.00     0.031 C 
ATOM     59  C   UNL A   1      41.961  31.243  30.861  1.00  0.00     0.029 A 
ATOM     60  C   UNL A   1      40.823  31.691  31.643  1.00  0.00     0.049 A 
ATOM     61  H   UNL A   1      38.870  31.679  30.828  1.00  0.00     0.167 HD
ATOM     62  C   UNL A   1      42.665  25.951  28.664  1.00  0.00     0.037 A 
ATOM     63  C   UNL A   1      40.731  31.618  33.011  1.00  0.00     0.037 A 
ATOM     64  C   UNL A   1      43.487  26.769  29.562  1.00  0.00     0.049 A 
ATOM     65  C   UNL A   1      41.586  30.493  33.579  1.00  0.00     0.074 A 
ATOM     66  C   UNL A   1      44.265  27.904  29.405  1.00  0.00     0.029 A 
ATOM     67  N   UNL A   1      43.280  26.639  30.920  1.00  0.00    -0.354 N 
ATOM     68  N   UNL A   1      42.291  29.678  32.840  1.00  0.00    -0.248 NA
ATOM     69  C   UNL A   1      41.697  30.165  34.998  1.00  0.00     0.031 C 
ATOM     70  C   UNL A   1      44.475  28.474  30.700  1.00  0.00     0.029 A 
ATOM     71  C   UNL A   1      43.836  27.678  31.636  1.00  0.00     0.049 A 
ATOM     72  H   UNL A   1      42.791  25.890  31.331  1.00  0.00     0.167 HD
ATOM     73  C   UNL A   1      42.878  28.721  33.608  1.00  0.00     0.074 A 
ATOM     74  C   UNL A   1      42.473  29.065  34.962  1.00  0.00     0.031 C 
ATOM     75  C   UNL A   1      43.631  27.713  33.078  1.00  0.00     0.037 A 
BRANCH  62  76
ATOM     76  C   UNL A   1      43.254  24.949  27.700  1.00  0.00     0.058 A 
ATOM     77  C   UNL A   1      42.910  23.586  27.830  1.00  0.00     0.135 A 
ATOM     78  C   UNL A   1      44.132  25.235  26.635  1.00  0.00     0.135 A 
ATOM     79  F   UNL A   1      42.063  23.160  28.776  1.00  0.00    -0.206 F 
ATOM     80  C   UNL A   1      43.422  22.587  27.005  1.00  0.00     0.059 A 
ATOM     81  C   UNL A   1      44.689  24.245  25.816  1.00  0.00     0.059 A 
ATOM     82  F   UNL A   1      44.460  26.488  26.302  1.00  0.00    -0.206 F 
ATOM     83  C   UNL A   1      44.322  22.921  26.007  1.00  0.00     0.060 A 
BRANCH  83  84
ATOM     84  S   UNL A   1      44.973  21.603  24.970  1.00  0.00     0.124 S 
ATOM     85  O   UNL A   1      44.554  22.033  23.639  1.00  0.00    -0.237 OA
ATOM     86  O   UNL A   1      46.403  21.682  25.242  1.00  0.00    -0.237 OA
ATOM     87  O   UNL A   1      44.303  20.409  25.476  1.00  0.00    -0.744 OA
ENDBRANCH  83  84
ENDBRANCH  62  76
BRANCH  63  88
ATOM     88  C   UNL A   1      39.349  32.017  33.459  1.00  0.00     0.058 A 
ATOM     89  C   UNL A   1      39.038  33.391  33.348  1.00  0.00     0.135 A 
ATOM     90  C   UNL A   1      38.285  31.106  33.342  1.00  0.00     0.135 A 
ATOM     91  F   UNL A   1      40.008  34.311  33.478  1.00  0.00    -0.206 F 
ATOM     92  C   UNL A   1      37.796  33.823  32.887  1.00  0.00     0.059 A 
ATOM     93  C   UNL A   1      37.026  31.524  32.897  1.00  0.00     0.059 A 
ATOM     94  F   UNL A   1      38.510  29.789  33.453  1.00  0.00    -0.206 F 
ATOM     95  C   UNL A   1      36.825  32.871  32.587  1.00  0.00     0.060 A 
BRANCH  95  96
ATOM     96  S   UNL A   1      35.394  33.405  31.612  1.00  0.00     0.124 S 
ATOM     97  O   UNL A   1      35.950  33.486  30.267  1.00  0.00    -0.237 OA
ATOM     98  O   UNL A   1      34.459  32.304  31.843  1.00  0.00    -0.237 OA
ATOM     99  O   UNL A   1      35.037  34.679  32.223  1.00  0.00    -0.744 OA
ENDBRANCH  95  96
ENDBRANCH  63  88
BRANCH  75 100
ATOM    100  C   UNL A   1      44.241  26.646  33.931  1.00  0.00     0.058 A 
ATOM    101  C   UNL A   1      45.629  26.515  34.056  1.00  0.00     0.135 A 
ATOM    102  C   UNL A   1      43.452  25.668  34.576  1.00  0.00     0.135 A 
ATOM    103  F   UNL A   1      46.458  27.352  33.413  1.00  0.00    -0.206 F 
ATOM    104  C   UNL A   1      46.202  25.528  34.850  1.00  0.00     0.059 A 
ATOM    105  C   UNL A   1      44.004  24.628  35.309  1.00  0.00     0.059 A 
ATOM    106  F   UNL A   1      42.112  25.714  34.558  1.00  0.00    -0.206 F 
ATOM    107  C   UNL A   1      45.379  24.595  35.479  1.00  0.00     0.060 A 
BRANCH 107 108
ATOM    108  S   UNL A   1      46.113  23.351  36.547  1.00  0.00     0.124 S 
ATOM    109  O   UNL A   1      45.986  23.956  37.870  1.00  0.00    -0.237 OA
ATOM    110  O   UNL A   1      45.244  22.207  36.288  1.00  0.00    -0.237 OA
ATOM    111  O   UNL A   1      47.477  23.233  36.046  1.00  0.00    -0.744 OA
ENDBRANCH 107 108
ENDBRANCH  75 100
ENDBRANCH  49  50
ENDBRANCH  41  44
ENDBRANCH  39  40
ENDBRANCH  38  39
ENDBRANCH   1  38
TORSDOF 18
ENDMDL
MODEL 3
REMARK VINA RESULT:     -13.9      4.034     10.322
REMARK SMILES Cc1ccc(N2C(=O)[NH+]=C(NCCCNC(=O)c3ccc(-c4c5nc(c(-c6c(F)cc(S(=O)(=O)[O-])cc6F)c6ccc([nH]6)c(-c6c(F)cc(S(=O)(=O)[O-])cc6F)c6nc(c(-c7c(F)cc(S(=O)(=O)[O-])cc7F)c7ccc4[nH]7)C=C6)C=C5)cc3)/C(=C\c3ccccc3OCc3cccc(C(=O)[O-])c3)C2=O)cc1
REMARK SMILES IDX 12 1 11 2 6 3 7 4 103 5 8 6 9 7 84 8 104 9 10 10 85 12 5 14
REMARK SMILES IDX 1 15 2 16 3 17 106 18 4 19 105 20 86 21 87 22 91 23 88 24
REMARK SMILES IDX 90 25 89 26 92 27 93 28 94 29 95 30 102 31 96 32 98 33 97 34
REMARK SMILES IDX 99 35 100 36 101 37 13 38 14 39 15 40 16 41 17 43 18 44
REMARK SMILES IDX 19 45 83 46 20 47 82 48 21 49 22 50 23 51 76 52 24 53 81 54
REMARK SMILES IDX 75 55 77 56 25 57 80 58 74 59 73 60 26 62 60 63 39 64 59 65
REMARK SMILES IDX 40 66 43 67 58 68 78 69 41 70 42 71 57 73 79 74 44 75 27 76
REMARK SMILES IDX 28 77 37 78 29 79 30 80 36 81 38 82 31 83 32 84 33 85 34 86
REMARK SMILES IDX 35 87 61 88 62 89 71 90 63 91 64 92 70 93 72 94 65 95 66 96
REMARK SMILES IDX 67 97 68 98 69 99 45 100 46 101 55 102 47 103 48 104 54 105
REMARK SMILES IDX 56 106 49 107 50 108 51 109 52 110 53 111
REMARK H PARENT 9 11 11 13 15 42 77 61 43 72
REMARK Flexibility Score: inf
ROOT
ATOM      1  C   UNL A   1      35.412  23.160  24.735  1.00  0.00     0.195 C 
ENDROOT
BRANCH   1   2
ATOM      2  N   UNL A   1      34.275  23.406  25.637  1.00  0.00    -0.305 N 
ATOM      3  N   UNL A   1      32.849  27.284  26.241  1.00  0.00    -0.155 N 
ATOM      4  C   UNL A   1      34.170  26.979  25.874  1.00  0.00     0.448 C 
ATOM      5  C   UNL A   1      31.903  26.303  26.499  1.00  0.00     0.328 C 
ATOM      6  O   UNL A   1      35.010  27.856  25.674  1.00  0.00    -0.212 OA
ATOM      7  N   UNL A   1      34.571  25.677  25.787  1.00  0.00    -0.209 N 
ATOM      8  C   UNL A   1      32.287  24.967  25.994  1.00  0.00     0.129 C 
ATOM      9  O   UNL A   1      30.776  26.481  26.964  1.00  0.00    -0.249 OA
ATOM     10  C   UNL A   1      33.742  24.677  25.806  1.00  0.00     0.236 C 
ATOM     11  H   UNL A   1      35.533  25.486  25.704  1.00  0.00     0.270 HD
ATOM     12  C   UNL A   1      31.240  24.266  25.515  1.00  0.00     0.034 C 
ATOM     13  H   UNL A   1      33.884  22.652  26.133  1.00  0.00     0.256 HD
BRANCH   3  14
ATOM     14  C   UNL A   1      32.443  28.658  26.325  1.00  0.00     0.111 A 
ATOM     15  C   UNL A   1      31.289  32.817  26.549  1.00  0.00     0.044 C 
ATOM     16  C   UNL A   1      31.692  31.377  26.461  1.00  0.00    -0.051 A 
ATOM     17  C   UNL A   1      32.664  30.868  27.326  1.00  0.00     0.007 A 
ATOM     18  C   UNL A   1      31.116  30.531  25.513  1.00  0.00     0.007 A 
ATOM     19  C   UNL A   1      33.028  29.521  27.264  1.00  0.00     0.044 A 
ATOM     20  C   UNL A   1      31.491  29.188  25.443  1.00  0.00     0.044 A 
ENDBRANCH   3  14
BRANCH  12  21
ATOM     21  C   UNL A   1      31.342  23.026  24.769  1.00  0.00     0.018 A 
ATOM     22  C   UNL A   1      31.396  21.891  25.578  1.00  0.00     0.012 A 
ATOM     23  C   UNL A   1      31.607  22.933  23.393  1.00  0.00     0.127 A 
ATOM     24  C   UNL A   1      31.923  20.728  25.062  1.00  0.00     0.001 A 
ATOM     25  C   UNL A   1      32.093  21.737  22.879  1.00  0.00     0.047 A 
ATOM     26  C   UNL A   1      32.314  20.669  23.728  1.00  0.00     0.004 A 
BRANCH  23  27
ATOM     27  O   UNL A   1      31.700  23.954  22.499  1.00  0.00    -0.488 OA
BRANCH  27  28
ATOM     28  C   UNL A   1      32.948  24.576  22.257  1.00  0.00     0.265 C 
BRANCH  28  29
ATOM     29  C   UNL A   1      32.719  26.069  22.285  1.00  0.00    -0.010 A 
ATOM     30  C   UNL A   1      33.808  26.946  22.368  1.00  0.00     0.007 A 
ATOM     31  C   UNL A   1      31.418  26.599  22.260  1.00  0.00     0.017 A 
ATOM     32  C   UNL A   1      33.602  28.324  22.427  1.00  0.00     0.001 A 
ATOM     33  C   UNL A   1      31.206  27.978  22.343  1.00  0.00    -0.002 A 
ATOM     34  C   UNL A   1      32.305  28.840  22.426  1.00  0.00     0.010 A 
BRANCH  33  35
ATOM     35  C   UNL A   1      29.838  28.537  22.397  1.00  0.00     0.071 C 
ATOM     36  O   UNL A   1      28.923  28.114  23.100  1.00  0.00    -0.545 OA
ATOM     37  O   UNL A   1      29.674  29.573  21.566  1.00  0.00    -0.545 OA
ENDBRANCH  33  35
ENDBRANCH  28  29
ENDBRANCH  27  28
ENDBRANCH  23  27
ENDBRANCH  12  21
ENDBRANCH   1   2
BRANCH   1  38
ATOM     38  C   UNL A   1      36.379  22.103  25.256  1.00  0.00     0.059 C 
BRANCH  38  39
ATOM     39  C   UNL A   1      37.840  22.527  25.246  1.00  0.00     0.119 C 
BRANCH  39  40
ATOM     40  N   UNL A   1      38.641  22.073  26.376  1.00  0.00    -0.352 N 
ATOM     41  C   UNL A   1      39.806  22.672  26.847  1.00  0.00     0.251 C 
ATOM     42  H   UNL A   1      38.328  21.268  26.849  1.00  0.00     0.163 HD
ATOM     43  O   UNL A   1      40.763  22.010  27.231  1.00  0.00    -0.269 OA
BRANCH  41  44
ATOM     44  C   UNL A   1      39.775  24.141  27.061  1.00  0.00     0.039 A 
ATOM     45  C   UNL A   1      40.389  24.983  26.118  1.00  0.00     0.014 A 
ATOM     46  C   UNL A   1      39.343  24.663  28.269  1.00  0.00     0.014 A 
ATOM     47  C   UNL A   1      40.774  26.278  26.476  1.00  0.00     0.010 A 
ATOM     48  C   UNL A   1      39.800  25.894  28.656  1.00  0.00     0.010 A 
ATOM     49  C   UNL A   1      40.561  26.684  27.782  1.00  0.00    -0.014 A 
BRANCH  49  50
ATOM     50  C   UNL A   1      40.995  27.927  28.397  1.00  0.00     0.031 A 
ATOM     51  C   UNL A   1      39.958  28.963  28.585  1.00  0.00     0.074 A 
ATOM     52  C   UNL A   1      42.149  27.947  29.100  1.00  0.00     0.049 A 
ATOM     53  N   UNL A   1      40.160  30.081  29.175  1.00  0.00    -0.248 NA
ATOM     54  C   UNL A   1      38.576  28.800  28.135  1.00  0.00     0.031 C 
ATOM     55  C   UNL A   1      42.458  28.735  30.297  1.00  0.00     0.029 A 
ATOM     56  N   UNL A   1      43.309  27.227  28.928  1.00  0.00    -0.354 N 
ATOM     57  C   UNL A   1      38.940  30.664  29.422  1.00  0.00     0.074 A 
ATOM     58  C   UNL A   1      37.984  29.849  28.713  1.00  0.00     0.031 C 
ATOM     59  C   UNL A   1      43.765  28.610  30.595  1.00  0.00     0.029 A 
ATOM     60  C   UNL A   1      44.390  27.904  29.491  1.00  0.00     0.049 A 
ATOM     61  H   UNL A   1      43.367  26.356  28.471  1.00  0.00     0.167 HD
ATOM     62  C   UNL A   1      38.905  31.712  30.292  1.00  0.00     0.037 A 
ATOM     63  C   UNL A   1      45.335  28.437  28.650  1.00  0.00     0.037 A 
ATOM     64  C   UNL A   1      40.266  32.041  30.730  1.00  0.00     0.049 A 
ATOM     65  C   UNL A   1      45.215  29.953  28.549  1.00  0.00     0.074 A 
ATOM     66  C   UNL A   1      41.040  31.712  31.831  1.00  0.00     0.029 A 
ATOM     67  N   UNL A   1      41.143  32.536  29.787  1.00  0.00    -0.354 N 
ATOM     68  N   UNL A   1      44.297  30.647  29.166  1.00  0.00    -0.248 NA
ATOM     69  C   UNL A   1      46.078  30.804  27.734  1.00  0.00     0.031 C 
ATOM     70  C   UNL A   1      42.406  31.978  31.501  1.00  0.00     0.029 A 
ATOM     71  C   UNL A   1      42.454  32.478  30.210  1.00  0.00     0.049 A 
ATOM     72  H   UNL A   1      40.864  32.889  28.911  1.00  0.00     0.167 HD
ATOM     73  C   UNL A   1      44.377  31.960  28.820  1.00  0.00     0.074 A 
ATOM     74  C   UNL A   1      45.512  32.013  27.913  1.00  0.00     0.031 C 
ATOM     75  C   UNL A   1      43.500  32.897  29.286  1.00  0.00     0.037 A 
BRANCH  62  76
ATOM     76  C   UNL A   1      37.676  32.368  30.873  1.00  0.00     0.058 A 
ATOM     77  C   UNL A   1      36.887  33.201  30.049  1.00  0.00     0.135 A 
ATOM     78  C   UNL A   1      37.203  32.229  32.193  1.00  0.00     0.135 A 
ATOM     79  F   UNL A   1      37.191  33.410  28.762  1.00  0.00    -0.206 F 
ATOM     80  C   UNL A   1      35.752  33.868  30.502  1.00  0.00     0.059 A 
ATOM     81  C   UNL A   1      36.086  32.918  32.682  1.00  0.00     0.059 A 
ATOM     82  F   UNL A   1      37.765  31.383  33.064  1.00  0.00    -0.206 F 
ATOM     83  C   UNL A   1      35.363  33.734  31.825  1.00  0.00     0.060 A 
BRANCH  83  84
ATOM     84  S   UNL A   1      33.900  34.622  32.378  1.00  0.00     0.124 S 
ATOM     85  O   UNL A   1      33.290  35.015  31.111  1.00  0.00    -0.237 OA
ATOM     86  O   UNL A   1      33.191  33.595  33.133  1.00  0.00    -0.237 OA
ATOM     87  O   UNL A   1      34.446  35.719  33.171  1.00  0.00    -0.744 OA
ENDBRANCH  83  84
ENDBRANCH  62  76
BRANCH  63  88
ATOM     88  C   UNL A   1      45.629  27.477  27.527  1.00  0.00     0.058 A 
ATOM     89  C   UNL A   1      45.044  27.791  26.279  1.00  0.00     0.135 A 
ATOM     90  C   UNL A   1      46.845  26.772  27.508  1.00  0.00     0.135 A 
ATOM     91  F   UNL A   1      43.869  28.440  26.233  1.00  0.00    -0.206 F 
ATOM     92  C   UNL A   1      45.751  27.651  25.087  1.00  0.00     0.059 A 
ATOM     93  C   UNL A   1      47.560  26.605  26.318  1.00  0.00     0.059 A 
ATOM     94  F   UNL A   1      47.443  26.429  28.658  1.00  0.00    -0.206 F 
ATOM     95  C   UNL A   1      47.043  27.131  25.131  1.00  0.00     0.060 A 
BRANCH  95  96
ATOM     96  S   UNL A   1      48.086  27.339  23.665  1.00  0.00     0.124 S 
ATOM     97  O   UNL A   1      49.267  27.992  24.216  1.00  0.00    -0.237 OA
ATOM     98  O   UNL A   1      48.272  25.951  23.243  1.00  0.00    -0.237 OA
ATOM     99  O   UNL A   1      47.263  28.163  22.789  1.00  0.00    -0.744 OA
ENDBRANCH  95  96
ENDBRANCH  63  88
BRANCH  75 100
ATOM    100  C   UNL A   1      43.576  34.332  28.869  1.00  0.00     0.058 A 
ATOM    101  C   UNL A   1      43.470  34.708  27.524  1.00  0.00     0.135 A 
ATOM    102  C   UNL A   1      43.847  35.363  29.794  1.00  0.00     0.135 A 
ATOM    103  F   UNL A   1      43.291  33.785  26.565  1.00  0.00    -0.206 F 
ATOM    104  C   UNL A   1      43.535  36.039  27.130  1.00  0.00     0.059 A 
ATOM    105  C   UNL A   1      43.995  36.688  29.414  1.00  0.00     0.059 A 
ATOM    106  F   UNL A   1      43.931  35.127  31.112  1.00  0.00    -0.206 F 
ATOM    107  C   UNL A   1      43.790  37.022  28.085  1.00  0.00     0.060 A 
BRANCH 107 108
ATOM    108  S   UNL A   1      43.823  38.748  27.586  1.00  0.00     0.124 S 
ATOM    109  O   UNL A   1      44.193  39.427  28.824  1.00  0.00    -0.237 OA
ATOM    110  O   UNL A   1      44.849  38.723  26.547  1.00  0.00    -0.237 OA
ATOM    111  O   UNL A   1      42.463  38.996  27.122  1.00  0.00    -0.744 OA
ENDBRANCH 107 108
ENDBRANCH  75 100
ENDBRANCH  49  50
ENDBRANCH  41  44
ENDBRANCH  39  40
ENDBRANCH  38  39
ENDBRANCH   1  38
TORSDOF 18
ENDMDL
