MODEL 1
REMARK VINA RESULT:     -13.3      0.000      0.000
REMARK SMILES O=C(CNC(=O)[C@@H](CC1=c2ccccc2=NC1)N1C(=O)N=C2C=CC=C[C@H]2C1=O)NCCCNC(=O)c1ccc(-c2c3nc(c(-c4c(F)cc(S(=O)(=O)[O-])cc4F)c4ccc([nH]4)c(-c4c(F)cc(S(=O)(=O)[O-])cc4F)c4nc(c(-c5c(F)cc(S(=O)(=O)[O-])cc5F)c5ccc2[nH]5)C=C4)C=C3)cc1
REMARK SMILES IDX 31 1 30 2 1 3 2 4 3 6 4 7 5 8 6 10 7 11 8 12 9 13 10 14
REMARK SMILES IDX 17 15 11 16 15 17 16 18 12 19 14 20 13 21 18 22 19 23 28 24
REMARK SMILES IDX 21 25 20 26 27 27 29 28 22 29 26 30 23 31 25 32 24 33 32 34
REMARK SMILES IDX 33 35 34 36 35 37 36 39 37 40 38 41 102 42 39 43 101 44
REMARK SMILES IDX 40 45 41 46 42 47 95 48 43 49 100 50 94 51 96 52 44 53 99 54
REMARK SMILES IDX 93 55 92 56 45 58 79 59 58 60 78 61 59 62 62 63 77 64 97 65
REMARK SMILES IDX 60 66 61 67 76 69 98 70 63 71 46 72 47 73 56 74 48 75 49 76
REMARK SMILES IDX 55 77 57 78 50 79 51 80 52 81 53 82 54 83 80 84 81 85 90 86
REMARK SMILES IDX 82 87 83 88 89 89 91 90 84 91 85 92 86 93 87 94 88 95 64 96
REMARK SMILES IDX 65 97 74 98 66 99 67 100 73 101 75 102 68 103 69 104 70 105
REMARK SMILES IDX 71 106 72 107
REMARK H PARENT 30 5 4 9 34 38 96 57 62 68
REMARK Flexibility Score: inf
ROOT
ATOM      1  C   UNL A   1      40.026  21.600  26.540  1.00  0.00     0.117 C 
ENDROOT
BRANCH   1   2
ATOM      2  N   UNL A   1      39.088  22.612  26.082  1.00  0.00    -0.355 N 
ATOM      3  O   UNL A   1      37.532  21.148  25.226  1.00  0.00    -0.273 OA
ATOM      4  C   UNL A   1      37.877  22.296  25.490  1.00  0.00     0.239 C 
ATOM      5  H   UNL A   1      39.324  23.561  26.197  1.00  0.00     0.163 HD
BRANCH   4   6
ATOM      6  C   UNL A   1      36.926  23.489  25.273  1.00  0.00     0.216 C 
BRANCH   6   7
ATOM      7  N   UNL A   1      35.594  23.076  24.845  1.00  0.00    -0.345 N 
ATOM      8  C   UNL A   1      35.177  23.332  23.554  1.00  0.00     0.244 C 
ATOM      9  H   UNL A   1      34.993  22.616  25.475  1.00  0.00     0.164 HD
ATOM     10  O   UNL A   1      35.848  22.952  22.595  1.00  0.00    -0.273 OA
BRANCH   8  11
ATOM     11  C   UNL A   1      33.734  23.855  23.435  1.00  0.00     0.188 C 
BRANCH  11  12
ATOM     12  C   UNL A   1      32.540  22.953  23.858  1.00  0.00     0.069 C 
BRANCH  12  13
ATOM     13  C   UNL A   1      32.587  21.554  24.412  1.00  0.00    -0.037 C 
ATOM     14  C   UNL A   1      32.441  20.453  23.665  1.00  0.00     0.001 A 
ATOM     15  C   UNL A   1      32.894  21.151  25.821  1.00  0.00     0.174 C 
ATOM     16  C   UNL A   1      32.101  20.195  22.299  1.00  0.00     0.010 A 
ATOM     17  C   UNL A   1      32.825  19.361  24.574  1.00  0.00     0.065 A 
ATOM     18  N   UNL A   1      33.112  19.683  25.795  1.00  0.00    -0.280 NA
ATOM     19  C   UNL A   1      32.158  18.933  21.843  1.00  0.00     0.001 A 
ATOM     20  C   UNL A   1      32.904  18.005  23.990  1.00  0.00     0.028 A 
ATOM     21  C   UNL A   1      32.592  17.837  22.693  1.00  0.00     0.002 A 
ENDBRANCH  12  13
ENDBRANCH  11  12
BRANCH  11  22
ATOM     22  N   UNL A   1      33.593  25.272  23.825  1.00  0.00    -0.249 N 
ATOM     23  C   UNL A   1      33.516  26.202  22.797  1.00  0.00     0.351 C 
ATOM     24  C   UNL A   1      33.545  25.616  25.164  1.00  0.00     0.244 C 
ATOM     25  N   UNL A   1      33.190  27.492  23.068  1.00  0.00    -0.197 NA
ATOM     26  O   UNL A   1      33.667  25.864  21.618  1.00  0.00    -0.246 OA
ATOM     27  C   UNL A   1      33.523  27.101  25.483  1.00  0.00     0.151 C 
ATOM     28  O   UNL A   1      33.609  24.779  26.065  1.00  0.00    -0.273 OA
ATOM     29  C   UNL A   1      33.115  27.920  24.284  1.00  0.00     0.062 C 
ATOM     30  C   UNL A   1      32.642  27.446  26.664  1.00  0.00    -0.007 C 
ATOM     31  C   UNL A   1      32.589  29.291  24.489  1.00  0.00     0.025 C 
ATOM     32  C   UNL A   1      31.938  28.587  26.726  1.00  0.00    -0.003 C 
ATOM     33  C   UNL A   1      32.008  29.561  25.663  1.00  0.00     0.002 C 
ENDBRANCH  11  22
ENDBRANCH   8  11
ENDBRANCH   6   7
ENDBRANCH   4   6
ENDBRANCH   1   2
BRANCH   1  34
ATOM     34  C   UNL A   1      41.480  21.877  26.167  1.00  0.00     0.042 C 
BRANCH  34  35
ATOM     35  C   UNL A   1      42.059  23.189  26.691  1.00  0.00     0.118 C 
BRANCH  35  36
ATOM     36  N   UNL A   1      42.168  24.236  25.686  1.00  0.00    -0.352 N 
ATOM     37  C   UNL A   1      42.076  25.605  25.806  1.00  0.00     0.251 C 
ATOM     38  H   UNL A   1      42.333  23.912  24.771  1.00  0.00     0.163 HD
ATOM     39  O   UNL A   1      42.103  26.293  24.788  1.00  0.00    -0.269 OA
BRANCH  37  40
ATOM     40  C   UNL A   1      41.906  26.259  27.127  1.00  0.00     0.039 A 
ATOM     41  C   UNL A   1      40.826  25.971  27.965  1.00  0.00     0.014 A 
ATOM     42  C   UNL A   1      42.876  27.176  27.548  1.00  0.00     0.014 A 
ATOM     43  C   UNL A   1      40.629  26.714  29.133  1.00  0.00     0.010 A 
ATOM     44  C   UNL A   1      42.711  27.874  28.750  1.00  0.00     0.010 A 
ATOM     45  C   UNL A   1      41.555  27.694  29.525  1.00  0.00    -0.014 A 
BRANCH  45  46
ATOM     46  C   UNL A   1      41.287  28.562  30.708  1.00  0.00     0.031 A 
ATOM     47  C   UNL A   1      40.160  29.565  30.672  1.00  0.00     0.074 A 
ATOM     48  C   UNL A   1      42.025  28.437  31.829  1.00  0.00     0.049 A 
ATOM     49  N   UNL A   1      39.792  30.433  31.583  1.00  0.00    -0.248 NA
ATOM     50  C   UNL A   1      39.336  29.599  29.452  1.00  0.00     0.031 C 
ATOM     51  C   UNL A   1      43.129  27.495  32.012  1.00  0.00     0.029 A 
ATOM     52  N   UNL A   1      41.952  29.102  33.029  1.00  0.00    -0.354 N 
ATOM     53  C   UNL A   1      38.711  31.121  31.044  1.00  0.00     0.074 A 
ATOM     54  C   UNL A   1      38.500  30.594  29.713  1.00  0.00     0.031 C 
ATOM     55  C   UNL A   1      43.612  27.621  33.259  1.00  0.00     0.029 A 
ATOM     56  C   UNL A   1      42.890  28.689  33.948  1.00  0.00     0.049 A 
ATOM     57  H   UNL A   1      41.291  29.808  33.214  1.00  0.00     0.167 HD
ATOM     58  C   UNL A   1      37.950  32.092  31.608  1.00  0.00     0.037 A 
ATOM     59  C   UNL A   1      43.153  29.128  35.194  1.00  0.00     0.037 A 
ATOM     60  C   UNL A   1      38.146  32.612  32.938  1.00  0.00     0.049 A 
ATOM     61  C   UNL A   1      42.336  30.250  35.775  1.00  0.00     0.074 A 
ATOM     62  C   UNL A   1      37.416  33.587  33.596  1.00  0.00     0.029 A 
ATOM     63  N   UNL A   1      39.141  32.202  33.813  1.00  0.00    -0.354 N 
ATOM     64  N   UNL A   1      41.321  30.892  35.246  1.00  0.00    -0.248 NA
ATOM     65  C   UNL A   1      42.705  30.713  37.120  1.00  0.00     0.031 C 
ATOM     66  C   UNL A   1      37.995  33.797  34.852  1.00  0.00     0.029 A 
ATOM     67  C   UNL A   1      39.055  32.918  34.997  1.00  0.00     0.049 A 
ATOM     68  H   UNL A   1      39.809  31.505  33.622  1.00  0.00     0.167 HD
ATOM     69  C   UNL A   1      40.922  31.823  36.200  1.00  0.00     0.074 A 
ATOM     70  C   UNL A   1      41.792  31.647  37.345  1.00  0.00     0.031 C 
ATOM     71  C   UNL A   1      39.928  32.743  36.130  1.00  0.00     0.037 A 
BRANCH  58  72
ATOM     72  C   UNL A   1      36.827  32.667  30.787  1.00  0.00     0.058 A 
ATOM     73  C   UNL A   1      35.489  32.309  31.015  1.00  0.00     0.135 A 
ATOM     74  C   UNL A   1      37.086  33.631  29.797  1.00  0.00     0.135 A 
ATOM     75  F   UNL A   1      35.187  31.379  31.936  1.00  0.00    -0.206 F 
ATOM     76  C   UNL A   1      34.450  32.870  30.281  1.00  0.00     0.059 A 
ATOM     77  C   UNL A   1      36.060  34.225  29.067  1.00  0.00     0.059 A 
ATOM     78  F   UNL A   1      38.347  34.009  29.536  1.00  0.00    -0.206 F 
ATOM     79  C   UNL A   1      34.745  33.830  29.312  1.00  0.00     0.060 A 
BRANCH  79  80
ATOM     80  S   UNL A   1      33.381  34.556  28.377  1.00  0.00     0.124 S 
ATOM     81  O   UNL A   1      32.527  35.056  29.451  1.00  0.00    -0.237 OA
ATOM     82  O   UNL A   1      34.058  35.572  27.580  1.00  0.00    -0.237 OA
ATOM     83  O   UNL A   1      32.843  33.426  27.624  1.00  0.00    -0.744 OA
ENDBRANCH  79  80
ENDBRANCH  58  72
BRANCH  59  84
ATOM     84  C   UNL A   1      44.249  28.502  35.982  1.00  0.00     0.058 A 
ATOM     85  C   UNL A   1      45.566  28.973  35.882  1.00  0.00     0.135 A 
ATOM     86  C   UNL A   1      43.999  27.436  36.860  1.00  0.00     0.135 A 
ATOM     87  F   UNL A   1      45.856  29.981  35.045  1.00  0.00    -0.206 F 
ATOM     88  C   UNL A   1      46.598  28.409  36.623  1.00  0.00     0.059 A 
ATOM     89  C   UNL A   1      45.010  26.873  37.631  1.00  0.00     0.059 A 
ATOM     90  F   UNL A   1      42.753  26.955  36.996  1.00  0.00    -0.206 F 
ATOM     91  C   UNL A   1      46.308  27.364  37.501  1.00  0.00     0.060 A 
BRANCH  91  92
ATOM     92  S   UNL A   1      47.646  26.686  38.508  1.00  0.00     0.124 S 
ATOM     93  O   UNL A   1      48.125  25.595  37.667  1.00  0.00    -0.237 OA
ATOM     94  O   UNL A   1      48.539  27.833  38.638  1.00  0.00    -0.237 OA
ATOM     95  O   UNL A   1      46.970  26.286  39.738  1.00  0.00    -0.744 OA
ENDBRANCH  91  92
ENDBRANCH  59  84
BRANCH  71  96
ATOM     96  C   UNL A   1      39.714  33.624  37.332  1.00  0.00     0.058 A 
ATOM     97  C   UNL A   1      40.291  34.900  37.422  1.00  0.00     0.135 A 
ATOM     98  C   UNL A   1      38.893  33.201  38.391  1.00  0.00     0.135 A 
ATOM     99  F   UNL A   1      41.087  35.352  36.440  1.00  0.00    -0.206 F 
ATOM    100  C   UNL A   1      40.088  35.714  38.533  1.00  0.00     0.059 A 
ATOM    101  C   UNL A   1      38.653  34.009  39.498  1.00  0.00     0.059 A 
ATOM    102  F   UNL A   1      38.306  31.994  38.351  1.00  0.00    -0.206 F 
ATOM    103  C   UNL A   1      39.268  35.260  39.567  1.00  0.00     0.060 A 
BRANCH 103 104
ATOM    104  S   UNL A   1      39.006  36.331  40.996  1.00  0.00     0.124 S 
ATOM    105  O   UNL A   1      37.851  35.701  41.627  1.00  0.00    -0.237 OA
ATOM    106  O   UNL A   1      40.269  36.205  41.715  1.00  0.00    -0.237 OA
ATOM    107  O   UNL A   1      38.758  37.639  40.399  1.00  0.00    -0.744 OA
ENDBRANCH 103 104
ENDBRANCH  71  96
ENDBRANCH  45  46
ENDBRANCH  37  40
ENDBRANCH  35  36
ENDBRANCH  34  35
ENDBRANCH   1  34
TORSDOF 18
ENDMDL
MODEL 2
REMARK VINA RESULT:     -13.2      0.558      7.858
REMARK SMILES O=C(CNC(=O)[C@@H](CC1=c2ccccc2=NC1)N1C(=O)N=C2C=CC=C[C@H]2C1=O)NCCCNC(=O)c1ccc(-c2c3nc(c(-c4c(F)cc(S(=O)(=O)[O-])cc4F)c4ccc([nH]4)c(-c4c(F)cc(S(=O)(=O)[O-])cc4F)c4nc(c(-c5c(F)cc(S(=O)(=O)[O-])cc5F)c5ccc2[nH]5)C=C4)C=C3)cc1
REMARK SMILES IDX 31 1 30 2 1 3 2 4 3 6 4 7 5 8 6 10 7 11 8 12 9 13 10 14
REMARK SMILES IDX 17 15 11 16 15 17 16 18 12 19 14 20 13 21 18 22 19 23 28 24
REMARK SMILES IDX 21 25 20 26 27 27 29 28 22 29 26 30 23 31 25 32 24 33 32 34
REMARK SMILES IDX 33 35 34 36 35 37 36 39 37 40 38 41 102 42 39 43 101 44
REMARK SMILES IDX 40 45 41 46 42 47 95 48 43 49 100 50 94 51 96 52 44 53 99 54
REMARK SMILES IDX 93 55 92 56 45 58 79 59 58 60 78 61 59 62 62 63 77 64 97 65
REMARK SMILES IDX 60 66 61 67 76 69 98 70 63 71 46 72 47 73 56 74 48 75 49 76
REMARK SMILES IDX 55 77 57 78 50 79 51 80 52 81 53 82 54 83 80 84 81 85 90 86
REMARK SMILES IDX 82 87 83 88 89 89 91 90 84 91 85 92 86 93 87 94 88 95 64 96
REMARK SMILES IDX 65 97 74 98 66 99 67 100 73 101 75 102 68 103 69 104 70 105
REMARK SMILES IDX 71 106 72 107
REMARK H PARENT 30 5 4 9 34 38 96 57 62 68
REMARK Flexibility Score: inf
ROOT
ATOM      1  C   UNL A   1      40.090  21.608  26.563  1.00  0.00     0.117 C 
ENDROOT
BRANCH   1   2
ATOM      2  N   UNL A   1      39.100  22.640  26.302  1.00  0.00    -0.355 N 
ATOM      3  O   UNL A   1      37.726  21.348  24.982  1.00  0.00    -0.273 OA
ATOM      4  C   UNL A   1      37.958  22.409  25.555  1.00  0.00     0.239 C 
ATOM      5  H   UNL A   1      39.248  23.540  26.672  1.00  0.00     0.163 HD
BRANCH   4   6
ATOM      6  C   UNL A   1      36.924  23.552  25.571  1.00  0.00     0.216 C 
BRANCH   6   7
ATOM      7  N   UNL A   1      35.637  23.156  25.009  1.00  0.00    -0.345 N 
ATOM      8  C   UNL A   1      35.314  23.515  23.716  1.00  0.00     0.244 C 
ATOM      9  H   UNL A   1      35.001  22.634  25.550  1.00  0.00     0.164 HD
ATOM     10  O   UNL A   1      36.063  23.230  22.783  1.00  0.00    -0.273 OA
BRANCH   8  11
ATOM     11  C   UNL A   1      33.872  24.023  23.530  1.00  0.00     0.188 C 
BRANCH  11  12
ATOM     12  C   UNL A   1      32.669  23.104  23.884  1.00  0.00     0.069 C 
BRANCH  12  13
ATOM     13  C   UNL A   1      32.704  21.717  24.470  1.00  0.00    -0.037 C 
ATOM     14  C   UNL A   1      32.534  20.601  23.751  1.00  0.00     0.001 A 
ATOM     15  C   UNL A   1      33.023  21.344  25.884  1.00  0.00     0.174 C 
ATOM     16  C   UNL A   1      32.174  20.316  22.395  1.00  0.00     0.010 A 
ATOM     17  C   UNL A   1      32.915  19.526  24.680  1.00  0.00     0.065 A 
ATOM     18  N   UNL A   1      33.221  19.872  25.891  1.00  0.00    -0.280 NA
ATOM     19  C   UNL A   1      32.208  19.043  21.969  1.00  0.00     0.001 A 
ATOM     20  C   UNL A   1      32.968  18.155  24.128  1.00  0.00     0.028 A 
ATOM     21  C   UNL A   1      32.637  17.962  22.839  1.00  0.00     0.002 A 
ENDBRANCH  12  13
ENDBRANCH  11  12
BRANCH  11  22
ATOM     22  N   UNL A   1      33.695  25.434  23.929  1.00  0.00    -0.249 N 
ATOM     23  C   UNL A   1      33.617  26.370  22.906  1.00  0.00     0.351 C 
ATOM     24  C   UNL A   1      33.618  25.767  25.269  1.00  0.00     0.244 C 
ATOM     25  N   UNL A   1      33.259  27.651  23.181  1.00  0.00    -0.197 NA
ATOM     26  O   UNL A   1      33.795  26.044  21.728  1.00  0.00    -0.246 OA
ATOM     27  C   UNL A   1      33.560  27.249  25.598  1.00  0.00     0.151 C 
ATOM     28  O   UNL A   1      33.685  24.925  26.165  1.00  0.00    -0.273 OA
ATOM     29  C   UNL A   1      33.155  28.068  24.399  1.00  0.00     0.062 C 
ATOM     30  C   UNL A   1      32.653  27.566  26.767  1.00  0.00    -0.007 C 
ATOM     31  C   UNL A   1      32.598  29.427  24.605  1.00  0.00     0.025 C 
ATOM     32  C   UNL A   1      31.925  28.693  26.826  1.00  0.00    -0.003 C 
ATOM     33  C   UNL A   1      31.992  29.676  25.771  1.00  0.00     0.002 C 
ENDBRANCH  11  22
ENDBRANCH   8  11
ENDBRANCH   6   7
ENDBRANCH   4   6
ENDBRANCH   1   2
BRANCH   1  34
ATOM     34  C   UNL A   1      40.808  21.752  27.902  1.00  0.00     0.042 C 
BRANCH  34  35
ATOM     35  C   UNL A   1      42.020  22.680  27.906  1.00  0.00     0.118 C 
BRANCH  35  36
ATOM     36  N   UNL A   1      42.289  23.315  26.624  1.00  0.00    -0.352 N 
ATOM     37  C   UNL A   1      42.204  24.636  26.243  1.00  0.00     0.251 C 
ATOM     38  H   UNL A   1      42.579  22.698  25.912  1.00  0.00     0.163 HD
ATOM     39  O   UNL A   1      42.388  24.926  25.063  1.00  0.00    -0.269 OA
BRANCH  37  40
ATOM     40  C   UNL A   1      41.856  25.702  27.214  1.00  0.00     0.039 A 
ATOM     41  C   UNL A   1      42.589  26.887  27.311  1.00  0.00     0.014 A 
ATOM     42  C   UNL A   1      40.742  25.516  28.041  1.00  0.00     0.014 A 
ATOM     43  C   UNL A   1      42.315  27.799  28.335  1.00  0.00     0.010 A 
ATOM     44  C   UNL A   1      40.428  26.460  29.025  1.00  0.00     0.010 A 
ATOM     45  C   UNL A   1      41.248  27.583  29.222  1.00  0.00    -0.014 A 
BRANCH  45  46
ATOM     46  C   UNL A   1      41.027  28.495  30.380  1.00  0.00     0.031 A 
ATOM     47  C   UNL A   1      41.922  28.413  31.593  1.00  0.00     0.074 A 
ATOM     48  C   UNL A   1      40.048  29.422  30.343  1.00  0.00     0.049 A 
ATOM     49  N   UNL A   1      41.868  29.092  32.712  1.00  0.00    -0.248 NA
ATOM     50  C   UNL A   1      43.024  27.438  31.542  1.00  0.00     0.031 C 
ATOM     51  C   UNL A   1      39.123  29.629  29.229  1.00  0.00     0.029 A 
ATOM     52  N   UNL A   1      39.673  30.368  31.266  1.00  0.00    -0.354 N 
ATOM     53  C   UNL A   1      42.912  28.621  33.500  1.00  0.00     0.074 A 
ATOM     54  C   UNL A   1      43.565  27.573  32.745  1.00  0.00     0.031 C 
ATOM     55  C   UNL A   1      38.308  30.656  29.520  1.00  0.00     0.029 A 
ATOM     56  C   UNL A   1      38.613  31.146  30.862  1.00  0.00     0.049 A 
ATOM     57  H   UNL A   1      40.122  30.478  32.136  1.00  0.00     0.167 HD
ATOM     58  C   UNL A   1      43.305  29.030  34.731  1.00  0.00     0.037 A 
ATOM     59  C   UNL A   1      37.949  32.128  31.502  1.00  0.00     0.037 A 
ATOM     60  C   UNL A   1      42.667  30.082  35.482  1.00  0.00     0.049 A 
ATOM     61  C   UNL A   1      38.362  32.522  32.893  1.00  0.00     0.074 A 
ATOM     62  C   UNL A   1      43.004  30.571  36.733  1.00  0.00     0.029 A 
ATOM     63  N   UNL A   1      41.563  30.806  35.057  1.00  0.00    -0.354 N 
ATOM     64  N   UNL A   1      39.350  32.059  33.623  1.00  0.00    -0.248 NA
ATOM     65  C   UNL A   1      37.567  33.568  33.552  1.00  0.00     0.031 C 
ATOM     66  C   UNL A   1      42.080  31.562  37.081  1.00  0.00     0.029 A 
ATOM     67  C   UNL A   1      41.196  31.725  36.027  1.00  0.00     0.049 A 
ATOM     68  H   UNL A   1      41.108  30.686  34.192  1.00  0.00     0.167 HD
ATOM     69  C   UNL A   1      39.302  32.767  34.820  1.00  0.00     0.074 A 
ATOM     70  C   UNL A   1      38.202  33.703  34.707  1.00  0.00     0.031 C 
ATOM     71  C   UNL A   1      40.096  32.649  35.913  1.00  0.00     0.037 A 
BRANCH  58  72
ATOM     72  C   UNL A   1      44.485  28.336  35.356  1.00  0.00     0.058 A 
ATOM     73  C   UNL A   1      45.793  28.820  35.198  1.00  0.00     0.135 A 
ATOM     74  C   UNL A   1      44.301  27.205  36.170  1.00  0.00     0.135 A 
ATOM     75  F   UNL A   1      46.028  29.887  34.417  1.00  0.00    -0.206 F 
ATOM     76  C   UNL A   1      46.878  28.200  35.809  1.00  0.00     0.059 A 
ATOM     77  C   UNL A   1      45.368  26.582  36.811  1.00  0.00     0.059 A 
ATOM     78  F   UNL A   1      43.071  26.699  36.354  1.00  0.00    -0.206 F 
ATOM     79  C   UNL A   1      46.654  27.083  36.616  1.00  0.00     0.060 A 
BRANCH  79  80
ATOM     80  S   UNL A   1      48.075  26.299  37.409  1.00  0.00     0.124 S 
ATOM     81  O   UNL A   1      48.047  26.915  38.731  1.00  0.00    -0.237 OA
ATOM     82  O   UNL A   1      47.715  24.886  37.360  1.00  0.00    -0.237 OA
ATOM     83  O   UNL A   1      49.197  26.687  36.559  1.00  0.00    -0.744 OA
ENDBRANCH  79  80
ENDBRANCH  58  72
BRANCH  59  84
ATOM     84  C   UNL A   1      36.812  32.811  30.827  1.00  0.00     0.058 A 
ATOM     85  C   UNL A   1      35.486  32.504  31.164  1.00  0.00     0.135 A 
ATOM     86  C   UNL A   1      37.028  33.794  29.849  1.00  0.00     0.135 A 
ATOM     87  F   UNL A   1      35.228  31.561  32.083  1.00  0.00    -0.206 F 
ATOM     88  C   UNL A   1      34.413  33.144  30.554  1.00  0.00     0.059 A 
ATOM     89  C   UNL A   1      35.972  34.467  29.245  1.00  0.00     0.059 A 
ATOM     90  F   UNL A   1      38.280  34.130  29.498  1.00  0.00    -0.206 F 
ATOM     91  C   UNL A   1      34.667  34.131  29.600  1.00  0.00     0.060 A 
BRANCH  91  92
ATOM     92  S   UNL A   1      33.266  35.003  28.866  1.00  0.00     0.124 S 
ATOM     93  O   UNL A   1      32.498  35.376  30.047  1.00  0.00    -0.237 OA
ATOM     94  O   UNL A   1      33.927  36.096  28.160  1.00  0.00    -0.237 OA
ATOM     95  O   UNL A   1      32.655  33.992  28.008  1.00  0.00    -0.744 OA
ENDBRANCH  91  92
ENDBRANCH  59  84
BRANCH  71  96
ATOM     96  C   UNL A   1      39.816  33.564  37.075  1.00  0.00     0.058 A 
ATOM     97  C   UNL A   1      40.429  34.823  37.184  1.00  0.00     0.135 A 
ATOM     98  C   UNL A   1      38.899  33.195  38.072  1.00  0.00     0.135 A 
ATOM     99  F   UNL A   1      41.317  35.224  36.260  1.00  0.00    -0.206 F 
ATOM    100  C   UNL A   1      40.166  35.670  38.256  1.00  0.00     0.059 A 
ATOM    101  C   UNL A   1      38.599  34.038  39.139  1.00  0.00     0.059 A 
ATOM    102  F   UNL A   1      38.275  32.008  38.011  1.00  0.00    -0.206 F 
ATOM    103  C   UNL A   1      39.250  35.268  39.230  1.00  0.00     0.060 A 
BRANCH 103 104
ATOM    104  S   UNL A   1      38.911  36.382  40.609  1.00  0.00     0.124 S 
ATOM    105  O   UNL A   1      38.508  37.599  39.912  1.00  0.00    -0.237 OA
ATOM    106  O   UNL A   1      37.851  35.679  41.324  1.00  0.00    -0.237 OA
ATOM    107  O   UNL A   1      40.190  36.455  41.310  1.00  0.00    -0.744 OA
ENDBRANCH 103 104
ENDBRANCH  71  96
ENDBRANCH  45  46
ENDBRANCH  37  40
ENDBRANCH  35  36
ENDBRANCH  34  35
ENDBRANCH   1  34
TORSDOF 18
ENDMDL
MODEL 3
REMARK VINA RESULT:     -13.0      6.475     11.837
REMARK SMILES O=C(CNC(=O)[C@@H](CC1=c2ccccc2=NC1)N1C(=O)N=C2C=CC=C[C@H]2C1=O)NCCCNC(=O)c1ccc(-c2c3nc(c(-c4c(F)cc(S(=O)(=O)[O-])cc4F)c4ccc([nH]4)c(-c4c(F)cc(S(=O)(=O)[O-])cc4F)c4nc(c(-c5c(F)cc(S(=O)(=O)[O-])cc5F)c5ccc2[nH]5)C=C4)C=C3)cc1
REMARK SMILES IDX 31 1 30 2 1 3 2 4 3 6 4 7 5 8 6 10 7 11 8 12 9 13 10 14
REMARK SMILES IDX 17 15 11 16 15 17 16 18 12 19 14 20 13 21 18 22 19 23 28 24
REMARK SMILES IDX 21 25 20 26 27 27 29 28 22 29 26 30 23 31 25 32 24 33 32 34
REMARK SMILES IDX 33 35 34 36 35 37 36 39 37 40 38 41 102 42 39 43 101 44
REMARK SMILES IDX 40 45 41 46 42 47 95 48 43 49 100 50 94 51 96 52 44 53 99 54
REMARK SMILES IDX 93 55 92 56 45 58 79 59 58 60 78 61 59 62 62 63 77 64 97 65
REMARK SMILES IDX 60 66 61 67 76 69 98 70 63 71 46 72 47 73 56 74 48 75 49 76
REMARK SMILES IDX 55 77 57 78 50 79 51 80 52 81 53 82 54 83 80 84 81 85 90 86
REMARK SMILES IDX 82 87 83 88 89 89 91 90 84 91 85 92 86 93 87 94 88 95 64 96
REMARK SMILES IDX 65 97 74 98 66 99 67 100 73 101 75 102 68 103 69 104 70 105
REMARK SMILES IDX 71 106 72 107
REMARK H PARENT 30 5 4 9 34 38 96 57 62 68
REMARK Flexibility Score: inf
ROOT
ATOM      1  C   UNL A   1      33.379  29.370  26.230  1.00  0.00     0.117 C 
ENDROOT
BRANCH   1   2
ATOM      2  N   UNL A   1      32.233  28.514  25.966  1.00  0.00    -0.355 N 
ATOM      3  O   UNL A   1      32.444  28.502  23.675  1.00  0.00    -0.273 OA
ATOM      4  C   UNL A   1      31.879  28.109  24.692  1.00  0.00     0.239 C 
ATOM      5  H   UNL A   1      31.687  28.210  26.727  1.00  0.00     0.163 HD
BRANCH   4   6
ATOM      6  C   UNL A   1      30.778  27.033  24.630  1.00  0.00     0.216 C 
BRANCH   6   7
ATOM      7  N   UNL A   1      31.316  25.677  24.604  1.00  0.00    -0.345 N 
ATOM      8  C   UNL A   1      32.403  25.354  25.390  1.00  0.00     0.244 C 
ATOM      9  H   UNL A   1      30.904  24.994  24.027  1.00  0.00     0.164 HD
ATOM     10  O   UNL A   1      32.380  25.561  26.602  1.00  0.00    -0.273 OA
BRANCH   8  11
ATOM     11  C   UNL A   1      33.472  24.495  24.690  1.00  0.00     0.188 C 
BRANCH  11  12
ATOM     12  C   UNL A   1      34.953  24.553  25.163  1.00  0.00     0.069 C 
BRANCH  12  13
ATOM     13  C   UNL A   1      36.047  23.552  24.904  1.00  0.00    -0.037 C 
ATOM     14  C   UNL A   1      37.193  23.509  25.594  1.00  0.00     0.001 A 
ATOM     15  C   UNL A   1      36.013  22.408  23.939  1.00  0.00     0.174 C 
ATOM     16  C   UNL A   1      37.806  24.333  26.591  1.00  0.00     0.010 A 
ATOM     17  C   UNL A   1      37.803  22.236  25.177  1.00  0.00     0.065 A 
ATOM     18  N   UNL A   1      37.184  21.555  24.265  1.00  0.00    -0.280 NA
ATOM     19  C   UNL A   1      38.947  23.916  27.165  1.00  0.00     0.001 A 
ATOM     20  C   UNL A   1      39.036  21.825  25.882  1.00  0.00     0.028 A 
ATOM     21  C   UNL A   1      39.546  22.638  26.824  1.00  0.00     0.002 A 
ENDBRANCH  12  13
ENDBRANCH  11  12
BRANCH  11  22
ATOM     22  N   UNL A   1      32.998  23.140  24.346  1.00  0.00    -0.249 N 
ATOM     23  C   UNL A   1      32.701  22.899  23.011  1.00  0.00     0.351 C 
ATOM     24  C   UNL A   1      32.866  22.184  25.337  1.00  0.00     0.244 C 
ATOM     25  N   UNL A   1      32.450  21.633  22.586  1.00  0.00    -0.197 NA
ATOM     26  O   UNL A   1      32.732  23.809  22.176  1.00  0.00    -0.246 OA
ATOM     27  C   UNL A   1      32.256  20.855  24.921  1.00  0.00     0.151 C 
ATOM     28  O   UNL A   1      33.138  22.411  26.516  1.00  0.00    -0.273 OA
ATOM     29  C   UNL A   1      32.311  20.663  23.427  1.00  0.00     0.062 C 
ATOM     30  C   UNL A   1      32.885  19.667  25.616  1.00  0.00    -0.007 C 
ATOM     31  C   UNL A   1      32.209  19.293  22.870  1.00  0.00     0.025 C 
ATOM     32  C   UNL A   1      33.044  18.481  25.007  1.00  0.00    -0.003 C 
ATOM     33  C   UNL A   1      32.597  18.277  23.649  1.00  0.00     0.002 C 
ENDBRANCH  11  22
ENDBRANCH   8  11
ENDBRANCH   6   7
ENDBRANCH   4   6
ENDBRANCH   1   2
BRANCH   1  34
ATOM     34  C   UNL A   1      34.458  28.726  27.095  1.00  0.00     0.042 C 
BRANCH  34  35
ATOM     35  C   UNL A   1      35.473  29.685  27.710  1.00  0.00     0.118 C 
BRANCH  35  36
ATOM     36  N   UNL A   1      35.463  29.712  29.165  1.00  0.00    -0.352 N 
ATOM     37  C   UNL A   1      36.498  29.630  30.070  1.00  0.00     0.251 C 
ATOM     38  H   UNL A   1      34.569  29.804  29.568  1.00  0.00     0.163 HD
ATOM     39  O   UNL A   1      36.236  29.574  31.269  1.00  0.00    -0.269 OA
BRANCH  37  40
ATOM     40  C   UNL A   1      37.913  29.565  29.626  1.00  0.00     0.039 A 
ATOM     41  C   UNL A   1      38.275  29.663  28.281  1.00  0.00     0.014 A 
ATOM     42  C   UNL A   1      38.911  29.424  30.598  1.00  0.00     0.014 A 
ATOM     43  C   UNL A   1      39.603  29.453  27.897  1.00  0.00     0.010 A 
ATOM     44  C   UNL A   1      40.250  29.278  30.216  1.00  0.00     0.010 A 
ATOM     45  C   UNL A   1      40.602  29.231  28.858  1.00  0.00    -0.014 A 
BRANCH  45  46
ATOM     46  C   UNL A   1      41.995  28.896  28.442  1.00  0.00     0.031 A 
ATOM     47  C   UNL A   1      42.347  27.484  28.039  1.00  0.00     0.074 A 
ATOM     48  C   UNL A   1      42.942  29.853  28.391  1.00  0.00     0.049 A 
ATOM     49  N   UNL A   1      43.506  26.988  27.683  1.00  0.00    -0.248 NA
ATOM     50  C   UNL A   1      41.252  26.500  28.035  1.00  0.00     0.031 C 
ATOM     51  C   UNL A   1      42.739  31.262  28.731  1.00  0.00     0.029 A 
ATOM     52  N   UNL A   1      44.266  29.787  28.028  1.00  0.00    -0.354 N 
ATOM     53  C   UNL A   1      43.285  25.639  27.428  1.00  0.00     0.074 A 
ATOM     54  C   UNL A   1      41.887  25.385  27.702  1.00  0.00     0.031 C 
ATOM     55  C   UNL A   1      43.885  31.932  28.533  1.00  0.00     0.029 A 
ATOM     56  C   UNL A   1      44.921  30.994  28.104  1.00  0.00     0.049 A 
ATOM     57  H   UNL A   1      44.703  28.953  27.740  1.00  0.00     0.167 HD
ATOM     58  C   UNL A   1      44.159  24.698  26.991  1.00  0.00     0.037 A 
ATOM     59  C   UNL A   1      46.211  31.311  27.875  1.00  0.00     0.037 A 
ATOM     60  C   UNL A   1      45.549  24.948  26.704  1.00  0.00     0.049 A 
ATOM     61  C   UNL A   1      47.176  30.237  27.452  1.00  0.00     0.074 A 
ATOM     62  C   UNL A   1      46.506  24.058  26.245  1.00  0.00     0.029 A 
ATOM     63  N   UNL A   1      46.183  26.173  26.847  1.00  0.00    -0.354 N 
ATOM     64  N   UNL A   1      46.948  28.966  27.222  1.00  0.00    -0.248 NA
ATOM     65  C   UNL A   1      48.577  30.640  27.264  1.00  0.00     0.031 C 
ATOM     66  C   UNL A   1      47.726  24.734  26.151  1.00  0.00     0.029 A 
ATOM     67  C   UNL A   1      47.521  26.058  26.503  1.00  0.00     0.049 A 
ATOM     68  H   UNL A   1      45.747  27.003  27.147  1.00  0.00     0.167 HD
ATOM     69  C   UNL A   1      48.173  28.422  26.849  1.00  0.00     0.074 A 
ATOM     70  C   UNL A   1      49.133  29.506  26.863  1.00  0.00     0.031 C 
ATOM     71  C   UNL A   1      48.474  27.139  26.527  1.00  0.00     0.037 A 
BRANCH  58  72
ATOM     72  C   UNL A   1      43.641  23.299  26.796  1.00  0.00     0.058 A 
ATOM     73  C   UNL A   1      43.428  22.764  25.516  1.00  0.00     0.135 A 
ATOM     74  C   UNL A   1      43.408  22.462  27.901  1.00  0.00     0.135 A 
ATOM     75  F   UNL A   1      43.618  23.526  24.426  1.00  0.00    -0.206 F 
ATOM     76  C   UNL A   1      42.987  21.457  25.337  1.00  0.00     0.059 A 
ATOM     77  C   UNL A   1      42.990  21.143  27.745  1.00  0.00     0.059 A 
ATOM     78  F   UNL A   1      43.594  22.923  29.148  1.00  0.00    -0.206 F 
ATOM     79  C   UNL A   1      42.773  20.654  26.458  1.00  0.00     0.060 A 
BRANCH  79  80
ATOM     80  S   UNL A   1      42.211  18.956  26.204  1.00  0.00     0.124 S 
ATOM     81  O   UNL A   1      43.193  18.466  25.243  1.00  0.00    -0.237 OA
ATOM     82  O   UNL A   1      42.304  18.395  27.548  1.00  0.00    -0.237 OA
ATOM     83  O   UNL A   1      40.855  19.119  25.688  1.00  0.00    -0.744 OA
ENDBRANCH  79  80
ENDBRANCH  58  72
BRANCH  59  84
ATOM     84  C   UNL A   1      46.667  32.716  28.045  1.00  0.00     0.058 A 
ATOM     85  C   UNL A   1      46.500  33.656  27.017  1.00  0.00     0.135 A 
ATOM     86  C   UNL A   1      47.262  33.151  29.239  1.00  0.00     0.135 A 
ATOM     87  F   UNL A   1      45.950  33.285  25.851  1.00  0.00    -0.206 F 
ATOM     88  C   UNL A   1      46.908  34.977  27.166  1.00  0.00     0.059 A 
ATOM     89  C   UNL A   1      47.653  34.473  29.422  1.00  0.00     0.059 A 
ATOM     90  F   UNL A   1      47.437  32.291  30.255  1.00  0.00    -0.206 F 
ATOM     91  C   UNL A   1      47.476  35.378  28.376  1.00  0.00     0.060 A 
BRANCH  91  92
ATOM     92  S   UNL A   1      47.938  37.112  28.581  1.00  0.00     0.124 S 
ATOM     93  O   UNL A   1      47.791  37.619  27.222  1.00  0.00    -0.237 OA
ATOM     94  O   UNL A   1      46.950  37.577  29.548  1.00  0.00    -0.237 OA
ATOM     95  O   UNL A   1      49.307  37.037  29.083  1.00  0.00    -0.744 OA
ENDBRANCH  91  92
ENDBRANCH  59  84
BRANCH  71  96
ATOM     96  C   UNL A   1      49.898  26.836  26.148  1.00  0.00     0.058 A 
ATOM     97  C   UNL A   1      50.835  26.398  27.097  1.00  0.00     0.135 A 
ATOM     98  C   UNL A   1      50.324  26.951  24.814  1.00  0.00     0.135 A 
ATOM     99  F   UNL A   1      50.483  26.275  28.387  1.00  0.00    -0.206 F 
ATOM    100  C   UNL A   1      52.152  26.115  26.744  1.00  0.00     0.059 A 
ATOM    101  C   UNL A   1      51.627  26.646  24.433  1.00  0.00     0.059 A 
ATOM    102  F   UNL A   1      49.466  27.353  23.863  1.00  0.00    -0.206 F 
ATOM    103  C   UNL A   1      52.539  26.243  25.409  1.00  0.00     0.060 A 
BRANCH 103 104
ATOM    104  S   UNL A   1      54.246  25.861  24.964  1.00  0.00     0.124 S 
ATOM    105  O   UNL A   1      54.985  26.545  26.020  1.00  0.00    -0.237 OA
ATOM    106  O   UNL A   1      54.264  24.403  25.020  1.00  0.00    -0.237 OA
ATOM    107  O   UNL A   1      54.386  26.434  23.629  1.00  0.00    -0.744 OA
ENDBRANCH 103 104
ENDBRANCH  71  96
ENDBRANCH  45  46
ENDBRANCH  37  40
ENDBRANCH  35  36
ENDBRANCH  34  35
ENDBRANCH   1  34
TORSDOF 18
ENDMDL
