MODEL 1
REMARK VINA RESULT:     -10.8      0.000      0.000
REMARK SMILES O=C(N[C@H](CCBr)C(=O)NCCCNC(=O)c1ccc(-c2c3nc(c(-c4c(F)cc(S(=O)(=O)[O-])cc4F)c4ccc([nH]4)c(-c4c(F)cc(S(=O)(=O)[O-])cc4F)c4nc(c(-c5c(F)cc(S(=O)(=O)[O-])cc5F)c5ccc2[nH]5)C=C4)C=C3)cc1)OCc1ccccc1
REMARK SMILES IDX 11 1 10 2 8 3 9 4 4 6 3 7 1 8 2 9 83 11 84 12 85 13 86 14
REMARK SMILES IDX 90 15 87 16 89 17 88 18 5 19 6 20 7 21 12 22 13 23 14 24
REMARK SMILES IDX 15 25 16 27 17 28 18 29 82 30 19 31 81 32 20 33 21 34 22 35
REMARK SMILES IDX 75 36 23 37 80 38 74 39 76 40 24 41 79 42 73 43 72 44 25 46
REMARK SMILES IDX 59 47 38 48 58 49 39 50 42 51 57 52 77 53 40 54 41 55 56 57
REMARK SMILES IDX 78 58 43 59 26 60 27 61 36 62 28 63 29 64 35 65 37 66 30 67
REMARK SMILES IDX 31 68 32 69 33 70 34 71 60 72 61 73 70 74 62 75 63 76 69 77
REMARK SMILES IDX 71 78 64 79 65 80 66 81 67 82 68 83 44 84 45 85 54 86 46 87
REMARK SMILES IDX 47 88 53 89 55 90 48 91 49 92 50 93 51 94 52 95
REMARK H PARENT 10 5 3 10 14 26 76 45 42 56
REMARK Flexibility Score: inf
ROOT
ATOM      1  C   UNL A   1      31.859  27.979  25.444  1.00  0.00     0.117 C 
ENDROOT
BRANCH   1   2
ATOM      2  N   UNL A   1      30.718  27.176  25.074  1.00  0.00    -0.354 N 
ATOM      3  C   UNL A   1      30.131  26.952  23.876  1.00  0.00     0.242 C 
ATOM      4  O   UNL A   1      29.236  26.098  23.845  1.00  0.00    -0.273 OA
ATOM      5  H   UNL A   1      30.292  26.706  25.827  1.00  0.00     0.163 HD
BRANCH   3   6
ATOM      6  C   UNL A   1      30.494  27.719  22.595  1.00  0.00     0.175 C 
BRANCH   6   7
ATOM      7  N   UNL A   1      31.796  27.332  22.008  1.00  0.00    -0.310 N 
ATOM      8  O   UNL A   1      33.585  26.230  21.278  1.00  0.00    -0.225 OA
ATOM      9  C   UNL A   1      32.762  26.397  22.185  1.00  0.00     0.408 C 
ATOM     10  H   UNL A   1      32.032  27.933  21.265  1.00  0.00     0.167 HD
BRANCH   9  11
ATOM     11  O   UNL A   1      32.692  25.574  23.237  1.00  0.00    -0.445 OA
BRANCH  11  12
ATOM     12  C   UNL A   1      33.275  24.255  23.308  1.00  0.00     0.270 C 
BRANCH  12  13
ATOM     13  C   UNL A   1      34.652  23.997  23.882  1.00  0.00    -0.011 A 
ATOM     14  C   UNL A   1      35.086  24.444  25.134  1.00  0.00     0.007 A 
ATOM     15  C   UNL A   1      35.518  23.176  23.131  1.00  0.00     0.007 A 
ATOM     16  C   UNL A   1      36.260  23.940  25.697  1.00  0.00     0.000 A 
ATOM     17  C   UNL A   1      36.708  22.703  23.680  1.00  0.00     0.000 A 
ATOM     18  C   UNL A   1      37.060  23.056  24.979  1.00  0.00     0.000 A 
ENDBRANCH  12  13
ENDBRANCH  11  12
ENDBRANCH   9  11
ENDBRANCH   6   7
BRANCH   6  19
ATOM     19  C   UNL A   1      29.936  29.139  22.395  1.00  0.00     0.047 C 
BRANCH  19  20
ATOM     20  C   UNL A   1      29.608  30.084  23.536  1.00  0.00     0.083 C 
ATOM     21  Br  UNL A   1      28.392  31.513  23.076  1.00  0.00    -0.093 Br
ENDBRANCH  19  20
ENDBRANCH   6  19
ENDBRANCH   3   6
ENDBRANCH   1   2
BRANCH   1  22
ATOM     22  C   UNL A   1      32.374  27.688  26.840  1.00  0.00     0.042 C 
BRANCH  22  23
ATOM     23  C   UNL A   1      33.730  28.312  27.108  1.00  0.00     0.118 C 
BRANCH  23  24
ATOM     24  N   UNL A   1      33.614  29.720  27.464  1.00  0.00    -0.352 N 
ATOM     25  C   UNL A   1      34.494  30.523  28.141  1.00  0.00     0.251 C 
ATOM     26  H   UNL A   1      32.781  30.159  27.176  1.00  0.00     0.163 HD
ATOM     27  O   UNL A   1      34.123  31.610  28.574  1.00  0.00    -0.269 OA
BRANCH  25  28
ATOM     28  C   UNL A   1      35.878  30.061  28.352  1.00  0.00     0.039 A 
ATOM     29  C   UNL A   1      36.791  30.144  27.300  1.00  0.00     0.014 A 
ATOM     30  C   UNL A   1      36.271  29.555  29.595  1.00  0.00     0.014 A 
ATOM     31  C   UNL A   1      38.116  29.768  27.516  1.00  0.00     0.010 A 
ATOM     32  C   UNL A   1      37.609  29.283  29.836  1.00  0.00     0.010 A 
ATOM     33  C   UNL A   1      38.542  29.368  28.794  1.00  0.00    -0.014 A 
BRANCH  33  34
ATOM     34  C   UNL A   1      39.954  29.004  29.056  1.00  0.00     0.031 A 
ATOM     35  C   UNL A   1      40.893  30.031  29.632  1.00  0.00     0.074 A 
ATOM     36  C   UNL A   1      40.399  27.777  28.721  1.00  0.00     0.049 A 
ATOM     37  N   UNL A   1      42.174  29.932  29.872  1.00  0.00    -0.248 NA
ATOM     38  C   UNL A   1      40.325  31.352  29.951  1.00  0.00     0.031 C 
ATOM     39  C   UNL A   1      39.589  26.722  28.105  1.00  0.00     0.029 A 
ATOM     40  N   UNL A   1      41.643  27.212  28.842  1.00  0.00    -0.354 N 
ATOM     41  C   UNL A   1      42.565  31.176  30.354  1.00  0.00     0.074 A 
ATOM     42  C   UNL A   1      41.402  32.032  30.314  1.00  0.00     0.031 C 
ATOM     43  C   UNL A   1      40.350  25.630  27.928  1.00  0.00     0.029 A 
ATOM     44  C   UNL A   1      41.709  25.920  28.375  1.00  0.00     0.049 A 
ATOM     45  H   UNL A   1      42.414  27.687  29.227  1.00  0.00     0.167 HD
ATOM     46  C   UNL A   1      43.778  31.560  30.814  1.00  0.00     0.037 A 
ATOM     47  C   UNL A   1      42.752  25.070  28.307  1.00  0.00     0.037 A 
ATOM     48  C   UNL A   1      44.920  30.687  30.878  1.00  0.00     0.049 A 
ATOM     49  C   UNL A   1      44.091  25.522  28.826  1.00  0.00     0.074 A 
ATOM     50  C   UNL A   1      46.178  30.955  31.386  1.00  0.00     0.029 A 
ATOM     51  N   UNL A   1      44.943  29.378  30.418  1.00  0.00    -0.354 N 
ATOM     52  N   UNL A   1      44.425  26.679  29.346  1.00  0.00    -0.248 NA
ATOM     53  C   UNL A   1      45.192  24.553  28.756  1.00  0.00     0.031 C 
ATOM     54  C   UNL A   1      46.978  29.826  31.185  1.00  0.00     0.029 A 
ATOM     55  C   UNL A   1      46.202  28.834  30.608  1.00  0.00     0.049 A 
ATOM     56  H   UNL A   1      44.178  28.906  30.016  1.00  0.00     0.167 HD
ATOM     57  C   UNL A   1      45.768  26.567  29.693  1.00  0.00     0.074 A 
ATOM     58  C   UNL A   1      46.178  25.224  29.336  1.00  0.00     0.031 C 
ATOM     59  C   UNL A   1      46.587  27.490  30.255  1.00  0.00     0.037 A 
BRANCH  46  60
ATOM     60  C   UNL A   1      43.934  32.976  31.293  1.00  0.00     0.058 A 
ATOM     61  C   UNL A   1      43.671  33.340  32.624  1.00  0.00     0.135 A 
ATOM     62  C   UNL A   1      44.405  33.975  30.424  1.00  0.00     0.135 A 
ATOM     63  F   UNL A   1      43.200  32.433  33.493  1.00  0.00    -0.206 F 
ATOM     64  C   UNL A   1      43.851  34.645  33.071  1.00  0.00     0.059 A 
ATOM     65  C   UNL A   1      44.623  35.279  30.858  1.00  0.00     0.059 A 
ATOM     66  F   UNL A   1      44.667  33.684  29.140  1.00  0.00    -0.206 F 
ATOM     67  C   UNL A   1      44.334  35.606  32.181  1.00  0.00     0.060 A 
BRANCH  67  68
ATOM     68  S   UNL A   1      44.594  37.286  32.790  1.00  0.00     0.124 S 
ATOM     69  O   UNL A   1      43.859  38.070  31.802  1.00  0.00    -0.237 OA
ATOM     70  O   UNL A   1      44.002  37.229  34.122  1.00  0.00    -0.237 OA
ATOM     71  O   UNL A   1      46.045  37.438  32.758  1.00  0.00    -0.744 OA
ENDBRANCH  67  68
ENDBRANCH  46  60
BRANCH  47  72
ATOM     72  C   UNL A   1      42.572  23.708  27.735  1.00  0.00     0.058 A 
ATOM     73  C   UNL A   1      42.415  22.588  28.565  1.00  0.00     0.135 A 
ATOM     74  C   UNL A   1      42.556  23.497  26.347  1.00  0.00     0.135 A 
ATOM     75  F   UNL A   1      42.425  22.736  29.899  1.00  0.00    -0.206 F 
ATOM     76  C   UNL A   1      42.278  21.306  28.043  1.00  0.00     0.059 A 
ATOM     77  C   UNL A   1      42.390  22.229  25.800  1.00  0.00     0.059 A 
ATOM     78  F   UNL A   1      42.680  24.537  25.507  1.00  0.00    -0.206 F 
ATOM     79  C   UNL A   1      42.267  21.137  26.657  1.00  0.00     0.060 A 
BRANCH  79  80
ATOM     80  S   UNL A   1      42.064  19.472  25.988  1.00  0.00     0.124 S 
ATOM     81  O   UNL A   1      40.624  19.419  25.767  1.00  0.00    -0.237 OA
ATOM     82  O   UNL A   1      42.896  19.521  24.789  1.00  0.00    -0.237 OA
ATOM     83  O   UNL A   1      42.571  18.618  27.059  1.00  0.00    -0.744 OA
ENDBRANCH  79  80
ENDBRANCH  47  72
BRANCH  59  84
ATOM     84  C   UNL A   1      47.999  27.070  30.557  1.00  0.00     0.058 A 
ATOM     85  C   UNL A   1      49.058  27.351  29.680  1.00  0.00     0.135 A 
ATOM     86  C   UNL A   1      48.303  26.430  31.770  1.00  0.00     0.135 A 
ATOM     87  F   UNL A   1      48.820  27.955  28.505  1.00  0.00    -0.206 F 
ATOM     88  C   UNL A   1      50.366  26.990  29.984  1.00  0.00     0.059 A 
ATOM     89  C   UNL A   1      49.608  26.090  32.109  1.00  0.00     0.059 A 
ATOM     90  F   UNL A   1      47.328  26.148  32.650  1.00  0.00    -0.206 F 
ATOM     91  C   UNL A   1      50.631  26.363  31.203  1.00  0.00     0.060 A 
BRANCH  91  92
ATOM     92  S   UNL A   1      52.339  25.935  31.600  1.00  0.00     0.124 S 
ATOM     93  O   UNL A   1      52.983  26.057  30.296  1.00  0.00    -0.237 OA
ATOM     94  O   UNL A   1      52.695  26.954  32.582  1.00  0.00    -0.237 OA
ATOM     95  O   UNL A   1      52.236  24.576  32.124  1.00  0.00    -0.744 OA
ENDBRANCH  91  92
ENDBRANCH  59  84
ENDBRANCH  33  34
ENDBRANCH  25  28
ENDBRANCH  23  24
ENDBRANCH  22  23
ENDBRANCH   1  22
TORSDOF 19
ENDMDL
MODEL 2
REMARK VINA RESULT:     -10.4      3.001      4.844
REMARK SMILES O=C(N[C@H](CCBr)C(=O)NCCCNC(=O)c1ccc(-c2c3nc(c(-c4c(F)cc(S(=O)(=O)[O-])cc4F)c4ccc([nH]4)c(-c4c(F)cc(S(=O)(=O)[O-])cc4F)c4nc(c(-c5c(F)cc(S(=O)(=O)[O-])cc5F)c5ccc2[nH]5)C=C4)C=C3)cc1)OCc1ccccc1
REMARK SMILES IDX 11 1 10 2 8 3 9 4 4 6 3 7 1 8 2 9 83 11 84 12 85 13 86 14
REMARK SMILES IDX 90 15 87 16 89 17 88 18 5 19 6 20 7 21 12 22 13 23 14 24
REMARK SMILES IDX 15 25 16 27 17 28 18 29 82 30 19 31 81 32 20 33 21 34 22 35
REMARK SMILES IDX 75 36 23 37 80 38 74 39 76 40 24 41 79 42 73 43 72 44 25 46
REMARK SMILES IDX 59 47 38 48 58 49 39 50 42 51 57 52 77 53 40 54 41 55 56 57
REMARK SMILES IDX 78 58 43 59 26 60 27 61 36 62 28 63 29 64 35 65 37 66 30 67
REMARK SMILES IDX 31 68 32 69 33 70 34 71 60 72 61 73 70 74 62 75 63 76 69 77
REMARK SMILES IDX 71 78 64 79 65 80 66 81 67 82 68 83 44 84 45 85 54 86 46 87
REMARK SMILES IDX 47 88 53 89 55 90 48 91 49 92 50 93 51 94 52 95
REMARK H PARENT 10 5 3 10 14 26 76 45 42 56
REMARK Flexibility Score: inf
ROOT
ATOM      1  C   UNL A   1      33.905  29.457  26.638  1.00  0.00     0.117 C 
ENDROOT
BRANCH   1   2
ATOM      2  N   UNL A   1      32.696  29.065  27.323  1.00  0.00    -0.354 N 
ATOM      3  C   UNL A   1      31.919  27.963  27.210  1.00  0.00     0.242 C 
ATOM      4  O   UNL A   1      31.006  27.839  28.036  1.00  0.00    -0.273 OA
ATOM      5  H   UNL A   1      32.381  29.715  27.993  1.00  0.00     0.163 HD
BRANCH   3   6
ATOM      6  C   UNL A   1      32.097  26.908  26.107  1.00  0.00     0.175 C 
BRANCH   6   7
ATOM      7  N   UNL A   1      30.832  26.484  25.467  1.00  0.00    -0.310 N 
ATOM      8  O   UNL A   1      29.177  26.061  24.043  1.00  0.00    -0.225 OA
ATOM      9  C   UNL A   1      30.015  26.870  24.457  1.00  0.00     0.408 C 
ATOM     10  H   UNL A   1      30.478  25.677  25.907  1.00  0.00     0.167 HD
BRANCH   9  11
ATOM     11  O   UNL A   1      30.252  28.028  23.830  1.00  0.00    -0.445 OA
BRANCH  11  12
ATOM     12  C   UNL A   1      29.624  28.459  22.603  1.00  0.00     0.270 C 
BRANCH  12  13
ATOM     13  C   UNL A   1      28.872  29.768  22.484  1.00  0.00    -0.011 A 
ATOM     14  C   UNL A   1      28.013  30.281  23.462  1.00  0.00     0.007 A 
ATOM     15  C   UNL A   1      29.128  30.555  21.343  1.00  0.00     0.007 A 
ATOM     16  C   UNL A   1      27.576  31.605  23.393  1.00  0.00     0.000 A 
ATOM     17  C   UNL A   1      28.661  31.865  21.259  1.00  0.00     0.000 A 
ATOM     18  C   UNL A   1      27.916  32.402  22.304  1.00  0.00     0.000 A 
ENDBRANCH  12  13
ENDBRANCH  11  12
ENDBRANCH   9  11
ENDBRANCH   6   7
BRANCH   6  19
ATOM     19  C   UNL A   1      33.297  25.947  26.185  1.00  0.00     0.047 C 
BRANCH  19  20
ATOM     20  C   UNL A   1      34.157  25.574  24.992  1.00  0.00     0.083 C 
ATOM     21  Br  UNL A   1      35.358  24.092  25.295  1.00  0.00    -0.093 Br
ENDBRANCH  19  20
ENDBRANCH   6  19
ENDBRANCH   3   6
ENDBRANCH   1   2
BRANCH   1  22
ATOM     22  C   UNL A   1      35.150  29.330  27.493  1.00  0.00     0.042 C 
BRANCH  22  23
ATOM     23  C   UNL A   1      35.638  30.665  28.023  1.00  0.00     0.118 C 
BRANCH  23  24
ATOM     24  N   UNL A   1      35.516  30.745  29.473  1.00  0.00    -0.352 N 
ATOM     25  C   UNL A   1      36.403  30.362  30.445  1.00  0.00     0.251 C 
ATOM     26  H   UNL A   1      34.673  31.132  29.803  1.00  0.00     0.163 HD
ATOM     27  O   UNL A   1      36.030  30.266  31.610  1.00  0.00    -0.269 OA
BRANCH  25  28
ATOM     28  C   UNL A   1      37.796  30.056  30.071  1.00  0.00     0.039 A 
ATOM     29  C   UNL A   1      38.639  29.466  31.012  1.00  0.00     0.014 A 
ATOM     30  C   UNL A   1      38.261  30.348  28.785  1.00  0.00     0.014 A 
ATOM     31  C   UNL A   1      39.938  29.117  30.641  1.00  0.00     0.010 A 
ATOM     32  C   UNL A   1      39.514  29.905  28.389  1.00  0.00     0.010 A 
ATOM     33  C   UNL A   1      40.372  29.303  29.319  1.00  0.00    -0.014 A 
BRANCH  33  34
ATOM     34  C   UNL A   1      41.733  28.901  28.891  1.00  0.00     0.031 A 
ATOM     35  C   UNL A   1      42.829  29.932  28.827  1.00  0.00     0.074 A 
ATOM     36  C   UNL A   1      41.962  27.630  28.507  1.00  0.00     0.049 A 
ATOM     37  N   UNL A   1      44.062  29.798  28.418  1.00  0.00    -0.248 NA
ATOM     38  C   UNL A   1      42.484  31.301  29.249  1.00  0.00     0.031 C 
ATOM     39  C   UNL A   1      40.960  26.561  28.475  1.00  0.00     0.029 A 
ATOM     40  N   UNL A   1      43.107  27.023  28.059  1.00  0.00    -0.354 N 
ATOM     41  C   UNL A   1      44.633  31.061  28.519  1.00  0.00     0.074 A 
ATOM     42  C   UNL A   1      43.597  31.962  28.968  1.00  0.00     0.031 C 
ATOM     43  C   UNL A   1      41.541  25.425  28.059  1.00  0.00     0.029 A 
ATOM     44  C   UNL A   1      42.942  25.692  27.752  1.00  0.00     0.049 A 
ATOM     45  H   UNL A   1      43.966  27.495  27.967  1.00  0.00     0.167 HD
ATOM     46  C   UNL A   1      45.914  31.430  28.285  1.00  0.00     0.037 A 
ATOM     47  C   UNL A   1      43.821  24.794  27.267  1.00  0.00     0.037 A 
ATOM     48  C   UNL A   1      46.944  30.516  27.869  1.00  0.00     0.049 A 
ATOM     49  C   UNL A   1      45.240  25.230  27.016  1.00  0.00     0.074 A 
ATOM     50  C   UNL A   1      48.288  30.771  27.667  1.00  0.00     0.029 A 
ATOM     51  N   UNL A   1      46.745  29.171  27.591  1.00  0.00    -0.354 N 
ATOM     52  N   UNL A   1      45.781  26.413  27.187  1.00  0.00    -0.248 NA
ATOM     53  C   UNL A   1      46.169  24.210  26.513  1.00  0.00     0.031 C 
ATOM     54  C   UNL A   1      48.892  29.594  27.214  1.00  0.00     0.029 A 
ATOM     55  C   UNL A   1      47.937  28.590  27.194  1.00  0.00     0.049 A 
ATOM     56  H   UNL A   1      45.884  28.700  27.665  1.00  0.00     0.167 HD
ATOM     57  C   UNL A   1      47.121  26.272  26.841  1.00  0.00     0.074 A 
ATOM     58  C   UNL A   1      47.310  24.885  26.467  1.00  0.00     0.031 C 
ATOM     59  C   UNL A   1      48.106  27.204  26.835  1.00  0.00     0.037 A 
BRANCH  46  60
ATOM     60  C   UNL A   1      46.278  32.875  28.482  1.00  0.00     0.058 A 
ATOM     61  C   UNL A   1      46.190  33.809  27.437  1.00  0.00     0.135 A 
ATOM     62  C   UNL A   1      46.670  33.345  29.747  1.00  0.00     0.135 A 
ATOM     63  F   UNL A   1      45.841  33.413  26.203  1.00  0.00    -0.206 F 
ATOM     64  C   UNL A   1      46.493  35.152  27.633  1.00  0.00     0.059 A 
ATOM     65  C   UNL A   1      46.947  34.690  29.973  1.00  0.00     0.059 A 
ATOM     66  F   UNL A   1      46.776  32.496  30.780  1.00  0.00    -0.206 F 
ATOM     67  C   UNL A   1      46.865  35.584  28.907  1.00  0.00     0.060 A 
BRANCH  67  68
ATOM     68  S   UNL A   1      47.221  37.338  29.150  1.00  0.00     0.124 S 
ATOM     69  O   UNL A   1      45.979  37.953  28.694  1.00  0.00    -0.237 OA
ATOM     70  O   UNL A   1      47.473  37.407  30.586  1.00  0.00    -0.237 OA
ATOM     71  O   UNL A   1      48.385  37.569  28.300  1.00  0.00    -0.744 OA
ENDBRANCH  67  68
ENDBRANCH  46  60
BRANCH  47  72
ATOM     72  C   UNL A   1      43.390  23.395  26.997  1.00  0.00     0.058 A 
ATOM     73  C   UNL A   1      43.186  22.484  28.044  1.00  0.00     0.135 A 
ATOM     74  C   UNL A   1      43.176  22.940  25.686  1.00  0.00     0.135 A 
ATOM     75  F   UNL A   1      43.380  22.869  29.315  1.00  0.00    -0.206 F 
ATOM     76  C   UNL A   1      42.815  21.165  27.802  1.00  0.00     0.059 A 
ATOM     77  C   UNL A   1      42.775  21.634  25.420  1.00  0.00     0.059 A 
ATOM     78  F   UNL A   1      43.336  23.776  24.648  1.00  0.00    -0.206 F 
ATOM     79  C   UNL A   1      42.612  20.750  26.485  1.00  0.00     0.060 A 
BRANCH  79  80
ATOM     80  S   UNL A   1      42.105  19.043  26.182  1.00  0.00     0.124 S 
ATOM     81  O   UNL A   1      40.700  19.212  25.831  1.00  0.00    -0.237 OA
ATOM     82  O   UNL A   1      42.995  18.649  25.094  1.00  0.00    -0.237 OA
ATOM     83  O   UNL A   1      42.363  18.387  27.460  1.00  0.00    -0.744 OA
ENDBRANCH  79  80
ENDBRANCH  47  72
BRANCH  59  84
ATOM     84  C   UNL A   1      49.486  26.750  26.447  1.00  0.00     0.058 A 
ATOM     85  C   UNL A   1      50.328  26.086  27.352  1.00  0.00     0.135 A 
ATOM     86  C   UNL A   1      49.947  26.930  25.132  1.00  0.00     0.135 A 
ATOM     87  F   UNL A   1      49.938  25.893  28.621  1.00  0.00    -0.206 F 
ATOM     88  C   UNL A   1      51.589  25.638  26.973  1.00  0.00     0.059 A 
ATOM     89  C   UNL A   1      51.191  26.462  24.723  1.00  0.00     0.059 A 
ATOM     90  F   UNL A   1      49.176  27.550  24.223  1.00  0.00    -0.206 F 
ATOM     91  C   UNL A   1      52.010  25.827  25.655  1.00  0.00     0.060 A 
BRANCH  91  92
ATOM     92  S   UNL A   1      53.634  25.208  25.170  1.00  0.00     0.124 S 
ATOM     93  O   UNL A   1      54.505  25.890  26.121  1.00  0.00    -0.237 OA
ATOM     94  O   UNL A   1      53.488  23.768  25.362  1.00  0.00    -0.237 OA
ATOM     95  O   UNL A   1      53.762  25.639  23.781  1.00  0.00    -0.744 OA
ENDBRANCH  91  92
ENDBRANCH  59  84
ENDBRANCH  33  34
ENDBRANCH  25  28
ENDBRANCH  23  24
ENDBRANCH  22  23
ENDBRANCH   1  22
TORSDOF 19
ENDMDL
MODEL 3
REMARK VINA RESULT:     -10.4      4.977     10.606
REMARK SMILES O=C(N[C@H](CCBr)C(=O)NCCCNC(=O)c1ccc(-c2c3nc(c(-c4c(F)cc(S(=O)(=O)[O-])cc4F)c4ccc([nH]4)c(-c4c(F)cc(S(=O)(=O)[O-])cc4F)c4nc(c(-c5c(F)cc(S(=O)(=O)[O-])cc5F)c5ccc2[nH]5)C=C4)C=C3)cc1)OCc1ccccc1
REMARK SMILES IDX 11 1 10 2 8 3 9 4 4 6 3 7 1 8 2 9 83 11 84 12 85 13 86 14
REMARK SMILES IDX 90 15 87 16 89 17 88 18 5 19 6 20 7 21 12 22 13 23 14 24
REMARK SMILES IDX 15 25 16 27 17 28 18 29 82 30 19 31 81 32 20 33 21 34 22 35
REMARK SMILES IDX 75 36 23 37 80 38 74 39 76 40 24 41 79 42 73 43 72 44 25 46
REMARK SMILES IDX 59 47 38 48 58 49 39 50 42 51 57 52 77 53 40 54 41 55 56 57
REMARK SMILES IDX 78 58 43 59 26 60 27 61 36 62 28 63 29 64 35 65 37 66 30 67
REMARK SMILES IDX 31 68 32 69 33 70 34 71 60 72 61 73 70 74 62 75 63 76 69 77
REMARK SMILES IDX 71 78 64 79 65 80 66 81 67 82 68 83 44 84 45 85 54 86 46 87
REMARK SMILES IDX 47 88 53 89 55 90 48 91 49 92 50 93 51 94 52 95
REMARK H PARENT 10 5 3 10 14 26 76 45 42 56
REMARK Flexibility Score: inf
ROOT
ATOM      1  C   UNL A   1      36.932  23.647  24.400  1.00  0.00     0.117 C 
ENDROOT
BRANCH   1   2
ATOM      2  N   UNL A   1      35.841  22.866  23.869  1.00  0.00    -0.354 N 
ATOM      3  C   UNL A   1      34.500  23.036  23.936  1.00  0.00     0.242 C 
ATOM      4  O   UNL A   1      33.807  22.266  23.261  1.00  0.00    -0.273 OA
ATOM      5  H   UNL A   1      36.122  22.066  23.368  1.00  0.00     0.163 HD
BRANCH   3   6
ATOM      6  C   UNL A   1      33.822  24.095  24.820  1.00  0.00     0.175 C 
BRANCH   6   7
ATOM      7  N   UNL A   1      33.914  25.473  24.288  1.00  0.00    -0.310 N 
ATOM      8  O   UNL A   1      33.941  27.681  24.028  1.00  0.00    -0.225 OA
ATOM      9  C   UNL A   1      33.374  26.696  24.513  1.00  0.00     0.408 C 
ATOM     10  H   UNL A   1      34.564  25.514  23.550  1.00  0.00     0.167 HD
BRANCH   9  11
ATOM     11  O   UNL A   1      32.367  26.817  25.385  1.00  0.00    -0.445 OA
BRANCH  11  12
ATOM     12  C   UNL A   1      32.450  27.455  26.677  1.00  0.00     0.270 C 
BRANCH  12  13
ATOM     13  C   UNL A   1      33.029  28.841  26.871  1.00  0.00    -0.011 A 
ATOM     14  C   UNL A   1      32.312  30.030  26.703  1.00  0.00     0.007 A 
ATOM     15  C   UNL A   1      34.357  28.923  27.336  1.00  0.00     0.007 A 
ATOM     16  C   UNL A   1      32.836  31.241  27.159  1.00  0.00     0.000 A 
ATOM     17  C   UNL A   1      34.892  30.139  27.757  1.00  0.00     0.000 A 
ATOM     18  C   UNL A   1      34.116  31.293  27.703  1.00  0.00     0.000 A 
ENDBRANCH  12  13
ENDBRANCH  11  12
ENDBRANCH   9  11
ENDBRANCH   6   7
BRANCH   6  19
ATOM     19  C   UNL A   1      33.720  23.845  26.335  1.00  0.00     0.047 C 
BRANCH  19  20
ATOM     20  C   UNL A   1      32.580  23.088  26.989  1.00  0.00     0.083 C 
ATOM     21  Br  UNL A   1      31.058  22.771  25.842  1.00  0.00    -0.093 Br
ENDBRANCH  19  20
ENDBRANCH   6  19
ENDBRANCH   3   6
ENDBRANCH   1   2
BRANCH   1  22
ATOM     22  C   UNL A   1      37.401  23.180  25.763  1.00  0.00     0.042 C 
BRANCH  22  23
ATOM     23  C   UNL A   1      38.263  24.207  26.473  1.00  0.00     0.118 C 
BRANCH  23  24
ATOM     24  N   UNL A   1      39.681  23.996  26.209  1.00  0.00    -0.352 N 
ATOM     25  C   UNL A   1      40.759  24.755  26.581  1.00  0.00     0.251 C 
ATOM     26  H   UNL A   1      39.895  23.189  25.686  1.00  0.00     0.163 HD
ATOM     27  O   UNL A   1      41.851  24.566  26.056  1.00  0.00    -0.269 OA
BRANCH  25  28
ATOM     28  C   UNL A   1      40.586  25.801  27.605  1.00  0.00     0.039 A 
ATOM     29  C   UNL A   1      39.626  25.627  28.602  1.00  0.00     0.014 A 
ATOM     30  C   UNL A   1      41.383  26.950  27.580  1.00  0.00     0.014 A 
ATOM     31  C   UNL A   1      39.506  26.585  29.609  1.00  0.00     0.010 A 
ATOM     32  C   UNL A   1      41.334  27.846  28.638  1.00  0.00     0.010 A 
ATOM     33  C   UNL A   1      40.381  27.683  29.652  1.00  0.00    -0.014 A 
BRANCH  33  34
ATOM     34  C   UNL A   1      40.299  28.690  30.735  1.00  0.00     0.031 A 
ATOM     35  C   UNL A   1      41.179  28.554  31.949  1.00  0.00     0.074 A 
ATOM     36  C   UNL A   1      39.395  29.686  30.651  1.00  0.00     0.049 A 
ATOM     37  N   UNL A   1      41.212  29.288  33.029  1.00  0.00    -0.248 NA
ATOM     38  C   UNL A   1      42.125  27.424  31.966  1.00  0.00     0.031 C 
ATOM     39  C   UNL A   1      38.453  29.883  29.546  1.00  0.00     0.029 A 
ATOM     40  N   UNL A   1      39.113  30.715  31.513  1.00  0.00    -0.354 N 
ATOM     41  C   UNL A   1      42.166  28.704  33.855  1.00  0.00     0.074 A 
ATOM     42  C   UNL A   1      42.645  27.519  33.180  1.00  0.00     0.031 C 
ATOM     43  C   UNL A   1      37.717  30.981  29.784  1.00  0.00     0.029 A 
ATOM     44  C   UNL A   1      38.103  31.540  31.076  1.00  0.00     0.049 A 
ATOM     45  H   UNL A   1      39.590  30.850  32.364  1.00  0.00     0.167 HD
ATOM     46  C   UNL A   1      42.621  29.133  35.055  1.00  0.00     0.037 A 
ATOM     47  C   UNL A   1      37.544  32.618  31.659  1.00  0.00     0.037 A 
ATOM     48  C   UNL A   1      42.159  30.332  35.701  1.00  0.00     0.049 A 
ATOM     49  C   UNL A   1      38.070  33.075  32.994  1.00  0.00     0.074 A 
ATOM     50  C   UNL A   1      42.599  30.893  36.886  1.00  0.00     0.029 A 
ATOM     51  N   UNL A   1      41.151  31.155  35.217  1.00  0.00    -0.354 N 
ATOM     52  N   UNL A   1      39.024  32.552  33.726  1.00  0.00    -0.248 NA
ATOM     53  C   UNL A   1      37.449  34.271  33.578  1.00  0.00     0.031 C 
ATOM     54  C   UNL A   1      41.821  32.025  37.147  1.00  0.00     0.029 A 
ATOM     55  C   UNL A   1      40.938  32.205  36.094  1.00  0.00     0.049 A 
ATOM     56  H   UNL A   1      40.660  31.012  34.376  1.00  0.00     0.167 HD
ATOM     57  C   UNL A   1      39.138  33.372  34.844  1.00  0.00     0.074 A 
ATOM     58  C   UNL A   1      38.166  34.434  34.682  1.00  0.00     0.031 C 
ATOM     59  C   UNL A   1      39.971  33.258  35.908  1.00  0.00     0.037 A 
BRANCH  46  60
ATOM     60  C   UNL A   1      43.676  28.312  35.743  1.00  0.00     0.058 A 
ATOM     61  C   UNL A   1      43.346  27.293  36.650  1.00  0.00     0.135 A 
ATOM     62  C   UNL A   1      45.036  28.511  35.450  1.00  0.00     0.135 A 
ATOM     63  F   UNL A   1      42.064  27.072  36.982  1.00  0.00    -0.206 F 
ATOM     64  C   UNL A   1      44.324  26.512  37.256  1.00  0.00     0.059 A 
ATOM     65  C   UNL A   1      46.030  27.721  36.020  1.00  0.00     0.059 A 
ATOM     66  F   UNL A   1      45.410  29.474  34.594  1.00  0.00    -0.206 F 
ATOM     67  C   UNL A   1      45.664  26.730  36.930  1.00  0.00     0.060 A 
BRANCH  67  68
ATOM     68  S   UNL A   1      46.917  25.683  37.701  1.00  0.00     0.124 S 
ATOM     69  O   UNL A   1      47.618  26.644  38.547  1.00  0.00    -0.237 OA
ATOM     70  O   UNL A   1      46.106  24.694  38.403  1.00  0.00    -0.237 OA
ATOM     71  O   UNL A   1      47.679  25.173  36.566  1.00  0.00    -0.744 OA
ENDBRANCH  67  68
ENDBRANCH  46  60
BRANCH  47  72
ATOM     72  C   UNL A   1      36.435  33.344  30.983  1.00  0.00     0.058 A 
ATOM     73  C   UNL A   1      36.668  34.120  29.837  1.00  0.00     0.135 A 
ATOM     74  C   UNL A   1      35.120  33.280  31.470  1.00  0.00     0.135 A 
ATOM     75  F   UNL A   1      37.908  34.215  29.333  1.00  0.00    -0.206 F 
ATOM     76  C   UNL A   1      35.645  34.829  29.215  1.00  0.00     0.059 A 
ATOM     77  C   UNL A   1      34.074  33.956  30.849  1.00  0.00     0.059 A 
ATOM     78  F   UNL A   1      34.837  32.536  32.551  1.00  0.00    -0.206 F 
ATOM     79  C   UNL A   1      34.350  34.740  29.730  1.00  0.00     0.060 A 
BRANCH  79  80
ATOM     80  S   UNL A   1      33.024  35.644  28.902  1.00  0.00     0.124 S 
ATOM     81  O   UNL A   1      33.778  36.592  28.091  1.00  0.00    -0.237 OA
ATOM     82  O   UNL A   1      32.338  34.581  28.173  1.00  0.00    -0.237 OA
ATOM     83  O   UNL A   1      32.270  36.220  30.011  1.00  0.00    -0.744 OA
ENDBRANCH  79  80
ENDBRANCH  47  72
BRANCH  59  84
ATOM     84  C   UNL A   1      39.898  34.328  36.963  1.00  0.00     0.058 A 
ATOM     85  C   UNL A   1      39.038  34.221  38.067  1.00  0.00     0.135 A 
ATOM     86  C   UNL A   1      40.745  35.446  36.896  1.00  0.00     0.135 A 
ATOM     87  F   UNL A   1      38.205  33.174  38.175  1.00  0.00    -0.206 F 
ATOM     88  C   UNL A   1      39.003  35.198  39.055  1.00  0.00     0.059 A 
ATOM     89  C   UNL A   1      40.750  36.419  37.890  1.00  0.00     0.059 A 
ATOM     90  F   UNL A   1      41.595  35.591  35.866  1.00  0.00    -0.206 F 
ATOM     91  C   UNL A   1      39.866  36.292  38.960  1.00  0.00     0.060 A 
BRANCH  91  92
ATOM     92  S   UNL A   1      39.835  37.533  40.270  1.00  0.00     0.124 S 
ATOM     93  O   UNL A   1      40.262  36.751  41.425  1.00  0.00    -0.237 OA
ATOM     94  O   UNL A   1      40.792  38.522  39.784  1.00  0.00    -0.237 OA
ATOM     95  O   UNL A   1      38.443  37.972  40.289  1.00  0.00    -0.744 OA
ENDBRANCH  91  92
ENDBRANCH  59  84
ENDBRANCH  33  34
ENDBRANCH  25  28
ENDBRANCH  23  24
ENDBRANCH  22  23
ENDBRANCH   1  22
TORSDOF 19
ENDMDL
