MODEL 1
REMARK VINA RESULT:     -12.6      0.000      0.000
REMARK SMILES Cc1cc(Cl)ccc1-c1ccc(C(=O)NCCCNC(=O)c2ccc(-c3c4nc(c(-c5c(F)cc(S(=O)(=O)[O-])cc5F)c5ccc([nH]5)c(-c5c(F)cc(S(=O)(=O)[O-])cc5F)c5nc(c(-c6c(F)cc(S(=O)(=O)[O-])cc6F)c6ccc3[nH]6)C=C5)C=C4)cc2)c(Cl)c1
REMARK SMILES IDX 18 1 17 2 16 3 15 4 13 5 14 6 12 8 9 9 10 10 90 11 11 12
REMARK SMILES IDX 88 13 89 14 8 15 1 16 2 17 3 18 4 19 7 20 5 21 6 22 19 23
REMARK SMILES IDX 20 24 21 26 22 27 23 28 87 29 24 30 86 31 25 32 26 33 27 34
REMARK SMILES IDX 80 35 28 36 85 37 79 38 81 39 29 40 84 41 78 42 77 43 30 45
REMARK SMILES IDX 64 46 43 47 63 48 44 49 47 50 62 51 82 52 45 53 46 54 61 56
REMARK SMILES IDX 83 57 48 58 31 59 32 60 41 61 33 62 34 63 40 64 42 65 35 66
REMARK SMILES IDX 36 67 37 68 38 69 39 70 65 71 66 72 75 73 67 74 68 75 74 76
REMARK SMILES IDX 76 77 69 78 70 79 71 80 72 81 73 82 49 83 50 84 59 85 51 86
REMARK SMILES IDX 52 87 58 88 60 89 53 90 54 91 55 92 56 93 57 94
REMARK H PARENT 15 7 19 25 81 44 47 55
REMARK Flexibility Score: inf
ROOT
ATOM      1  C   UNL A   1      40.727  23.081  27.223  1.00  0.00     0.118 C 
ENDROOT
BRANCH   1   2
ATOM      2  C   UNL A   1      39.686  22.111  26.685  1.00  0.00     0.042 C 
BRANCH   2   3
ATOM      3  C   UNL A   1      38.425  22.766  26.117  1.00  0.00     0.118 C 
BRANCH   3   4
ATOM      4  N   UNL A   1      37.486  21.754  25.665  1.00  0.00    -0.352 N 
ATOM      5  C   UNL A   1      36.143  21.765  25.402  1.00  0.00     0.252 C 
ATOM      6  O   UNL A   1      35.641  20.693  25.054  1.00  0.00    -0.269 OA
ATOM      7  H   UNL A   1      37.904  20.875  25.516  1.00  0.00     0.163 HD
BRANCH   5   8
ATOM      8  C   UNL A   1      35.270  22.972  25.390  1.00  0.00     0.058 A 
ATOM      9  C   UNL A   1      33.555  25.194  24.916  1.00  0.00    -0.017 A 
ATOM     10  C   UNL A   1      34.460  24.788  23.937  1.00  0.00     0.009 A 
ATOM     11  C   UNL A   1      33.530  24.495  26.127  1.00  0.00     0.030 A 
ATOM     12  C   UNL A   1      35.312  23.703  24.179  1.00  0.00     0.016 A 
ATOM     13  C   UNL A   1      34.332  23.367  26.347  1.00  0.00     0.054 A 
ATOM     14  Cl  UNL A   1      33.891  22.486  27.755  1.00  0.00    -0.083 Cl
BRANCH   9  15
ATOM     15  C   UNL A   1      32.562  26.252  24.699  1.00  0.00    -0.015 A 
ATOM     16  C   UNL A   1      34.012  28.024  25.866  1.00  0.00     0.045 C 
ATOM     17  C   UNL A   1      32.799  27.592  25.081  1.00  0.00    -0.042 A 
ATOM     18  C   UNL A   1      31.872  28.585  24.720  1.00  0.00     0.024 A 
ATOM     19  C   UNL A   1      30.739  28.263  23.975  1.00  0.00     0.041 A 
ATOM     20  C   UNL A   1      31.401  25.948  23.964  1.00  0.00     0.010 A 
ATOM     21  Cl  UNL A   1      29.644  29.502  23.501  1.00  0.00    -0.084 Cl
ATOM     22  C   UNL A   1      30.496  26.947  23.600  1.00  0.00     0.021 A 
ENDBRANCH   9  15
ENDBRANCH   5   8
ENDBRANCH   3   4
ENDBRANCH   2   3
ENDBRANCH   1   2
BRANCH   1  23
ATOM     23  N   UNL A   1      41.309  23.892  26.171  1.00  0.00    -0.352 N 
ATOM     24  C   UNL A   1      41.482  25.252  26.093  1.00  0.00     0.251 C 
ATOM     25  H   UNL A   1      41.630  23.388  25.389  1.00  0.00     0.163 HD
ATOM     26  O   UNL A   1      41.764  25.743  25.001  1.00  0.00    -0.269 OA
BRANCH  24  27
ATOM     27  C   UNL A   1      41.336  26.133  27.280  1.00  0.00     0.039 A 
ATOM     28  C   UNL A   1      40.209  25.969  28.092  1.00  0.00     0.014 A 
ATOM     29  C   UNL A   1      42.235  27.168  27.562  1.00  0.00     0.014 A 
ATOM     30  C   UNL A   1      39.997  26.817  29.183  1.00  0.00     0.010 A 
ATOM     31  C   UNL A   1      42.068  27.960  28.700  1.00  0.00     0.010 A 
ATOM     32  C   UNL A   1      40.933  27.813  29.508  1.00  0.00    -0.014 A 
BRANCH  32  33
ATOM     33  C   UNL A   1      40.705  28.720  30.664  1.00  0.00     0.031 A 
ATOM     34  C   UNL A   1      41.540  28.590  31.912  1.00  0.00     0.074 A 
ATOM     35  C   UNL A   1      39.733  29.651  30.596  1.00  0.00     0.049 A 
ATOM     36  N   UNL A   1      41.500  29.301  33.011  1.00  0.00    -0.248 NA
ATOM     37  C   UNL A   1      42.533  27.503  31.943  1.00  0.00     0.031 C 
ATOM     38  C   UNL A   1      38.817  29.835  29.469  1.00  0.00     0.029 A 
ATOM     39  N   UNL A   1      39.354  30.620  31.491  1.00  0.00    -0.354 N 
ATOM     40  C   UNL A   1      42.447  28.742  33.863  1.00  0.00     0.074 A 
ATOM     41  C   UNL A   1      43.009  27.600  33.175  1.00  0.00     0.031 C 
ATOM     42  C   UNL A   1      38.007  30.874  29.723  1.00  0.00     0.029 A 
ATOM     43  C   UNL A   1      38.328  31.415  31.041  1.00  0.00     0.049 A 
ATOM     44  H   UNL A   1      39.778  30.735  32.372  1.00  0.00     0.167 HD
ATOM     45  C   UNL A   1      42.834  29.158  35.093  1.00  0.00     0.037 A 
ATOM     46  C   UNL A   1      37.719  32.470  31.619  1.00  0.00     0.037 A 
ATOM     47  C   UNL A   1      42.295  30.315  35.760  1.00  0.00     0.049 A 
ATOM     48  C   UNL A   1      38.196  32.940  32.966  1.00  0.00     0.074 A 
ATOM     49  C   UNL A   1      42.658  30.856  36.981  1.00  0.00     0.029 A 
ATOM     50  N   UNL A   1      41.277  31.113  35.257  1.00  0.00    -0.354 N 
ATOM     51  N   UNL A   1      39.140  32.438  33.727  1.00  0.00    -0.248 NA
ATOM     52  C   UNL A   1      37.538  34.126  33.525  1.00  0.00     0.031 C 
ATOM     53  C   UNL A   1      41.839  31.963  37.231  1.00  0.00     0.029 A 
ATOM     54  C   UNL A   1      40.993  32.136  36.147  1.00  0.00     0.049 A 
ATOM     55  H   UNL A   1      40.824  30.974  34.394  1.00  0.00     0.167 HD
ATOM     56  C   UNL A   1      39.202  33.260  34.846  1.00  0.00     0.074 A 
ATOM     57  C   UNL A   1      38.214  34.302  34.652  1.00  0.00     0.031 C 
ATOM     58  C   UNL A   1      40.001  33.161  35.937  1.00  0.00     0.037 A 
BRANCH  45  59
ATOM     59  C   UNL A   1      43.902  28.360  35.795  1.00  0.00     0.058 A 
ATOM     60  C   UNL A   1      45.267  28.631  35.607  1.00  0.00     0.135 A 
ATOM     61  C   UNL A   1      43.558  27.332  36.688  1.00  0.00     0.135 A 
ATOM     62  F   UNL A   1      45.654  29.593  34.753  1.00  0.00    -0.206 F 
ATOM     63  C   UNL A   1      46.253  27.892  36.252  1.00  0.00     0.059 A 
ATOM     64  C   UNL A   1      44.528  26.597  37.366  1.00  0.00     0.059 A 
ATOM     65  F   UNL A   1      42.269  27.030  36.908  1.00  0.00    -0.206 F 
ATOM     66  C   UNL A   1      45.874  26.874  37.129  1.00  0.00     0.060 A 
BRANCH  66  67
ATOM     67  S   UNL A   1      47.163  25.924  37.962  1.00  0.00     0.124 S 
ATOM     68  O   UNL A   1      48.352  26.718  37.658  1.00  0.00    -0.237 OA
ATOM     69  O   UNL A   1      46.725  25.954  39.356  1.00  0.00    -0.237 OA
ATOM     70  O   UNL A   1      47.097  24.620  37.317  1.00  0.00    -0.744 OA
ENDBRANCH  66  67
ENDBRANCH  45  59
BRANCH  46  71
ATOM     71  C   UNL A   1      36.625  33.178  30.904  1.00  0.00     0.058 A 
ATOM     72  C   UNL A   1      35.295  33.072  31.336  1.00  0.00     0.135 A 
ATOM     73  C   UNL A   1      36.888  33.992  29.791  1.00  0.00     0.135 A 
ATOM     74  F   UNL A   1      34.992  32.303  32.392  1.00  0.00    -0.206 F 
ATOM     75  C   UNL A   1      34.260  33.734  30.682  1.00  0.00     0.059 A 
ATOM     76  C   UNL A   1      35.875  34.683  29.135  1.00  0.00     0.059 A 
ATOM     77  F   UNL A   1      38.148  34.141  29.351  1.00  0.00    -0.206 F 
ATOM     78  C   UNL A   1      34.562  34.540  29.582  1.00  0.00     0.060 A 
BRANCH  78  79
ATOM     79  S   UNL A   1      33.221  35.440  28.773  1.00  0.00     0.124 S 
ATOM     80  O   UNL A   1      32.579  34.381  28.004  1.00  0.00    -0.237 OA
ATOM     81  O   UNL A   1      32.464  35.954  29.910  1.00  0.00    -0.237 OA
ATOM     82  O   UNL A   1      33.924  36.453  27.990  1.00  0.00    -0.744 OA
ENDBRANCH  78  79
ENDBRANCH  46  71
BRANCH  58  83
ATOM     83  C   UNL A   1      39.852  34.223  36.990  1.00  0.00     0.058 A 
ATOM     84  C   UNL A   1      40.478  35.473  36.870  1.00  0.00     0.135 A 
ATOM     85  C   UNL A   1      39.058  33.992  38.126  1.00  0.00     0.135 A 
ATOM     86  F   UNL A   1      41.251  35.741  35.805  1.00  0.00    -0.206 F 
ATOM     87  C   UNL A   1      40.357  36.444  37.857  1.00  0.00     0.059 A 
ATOM     88  C   UNL A   1      38.901  34.960  39.113  1.00  0.00     0.059 A 
ATOM     89  F   UNL A   1      38.426  32.819  38.283  1.00  0.00    -0.206 F 
ATOM     90  C   UNL A   1      39.570  36.176  38.979  1.00  0.00     0.060 A 
BRANCH  90  91
ATOM     91  S   UNL A   1      39.417  37.443  40.255  1.00  0.00     0.124 S 
ATOM     92  O   UNL A   1      38.492  38.380  39.627  1.00  0.00    -0.237 OA
ATOM     93  O   UNL A   1      38.886  36.689  41.386  1.00  0.00    -0.237 OA
ATOM     94  O   UNL A   1      40.786  37.925  40.419  1.00  0.00    -0.744 OA
ENDBRANCH  90  91
ENDBRANCH  58  83
ENDBRANCH  32  33
ENDBRANCH  24  27
ENDBRANCH   1  23
TORSDOF 14
ENDMDL
MODEL 2
REMARK VINA RESULT:     -12.5      6.620     12.304
REMARK SMILES Cc1cc(Cl)ccc1-c1ccc(C(=O)NCCCNC(=O)c2ccc(-c3c4nc(c(-c5c(F)cc(S(=O)(=O)[O-])cc5F)c5ccc([nH]5)c(-c5c(F)cc(S(=O)(=O)[O-])cc5F)c5nc(c(-c6c(F)cc(S(=O)(=O)[O-])cc6F)c6ccc3[nH]6)C=C5)C=C4)cc2)c(Cl)c1
REMARK SMILES IDX 18 1 17 2 16 3 15 4 13 5 14 6 12 8 9 9 10 10 90 11 11 12
REMARK SMILES IDX 88 13 89 14 8 15 1 16 2 17 3 18 4 19 7 20 5 21 6 22 19 23
REMARK SMILES IDX 20 24 21 26 22 27 23 28 87 29 24 30 86 31 25 32 26 33 27 34
REMARK SMILES IDX 80 35 28 36 85 37 79 38 81 39 29 40 84 41 78 42 77 43 30 45
REMARK SMILES IDX 64 46 43 47 63 48 44 49 47 50 62 51 82 52 45 53 46 54 61 56
REMARK SMILES IDX 83 57 48 58 31 59 32 60 41 61 33 62 34 63 40 64 42 65 35 66
REMARK SMILES IDX 36 67 37 68 38 69 39 70 65 71 66 72 75 73 67 74 68 75 74 76
REMARK SMILES IDX 76 77 69 78 70 79 71 80 72 81 73 82 49 83 50 84 59 85 51 86
REMARK SMILES IDX 52 87 58 88 60 89 53 90 54 91 55 92 56 93 57 94
REMARK H PARENT 15 7 19 25 81 44 47 55
REMARK Flexibility Score: inf
ROOT
ATOM      1  C   UNL A   1      35.718  31.609  28.618  1.00  0.00     0.118 C 
ENDROOT
BRANCH   1   2
ATOM      2  C   UNL A   1      34.419  31.365  27.866  1.00  0.00     0.042 C 
BRANCH   2   3
ATOM      3  C   UNL A   1      34.398  30.102  27.002  1.00  0.00     0.118 C 
BRANCH   3   4
ATOM      4  N   UNL A   1      33.238  30.102  26.129  1.00  0.00    -0.352 N 
ATOM      5  C   UNL A   1      32.729  29.196  25.239  1.00  0.00     0.252 C 
ATOM      6  O   UNL A   1      31.715  29.537  24.624  1.00  0.00    -0.269 OA
ATOM      7  H   UNL A   1      32.705  30.928  26.190  1.00  0.00     0.163 HD
BRANCH   5   8
ATOM      8  C   UNL A   1      33.223  27.805  25.036  1.00  0.00     0.058 A 
ATOM      9  C   UNL A   1      33.806  25.021  24.909  1.00  0.00    -0.017 A 
ATOM     10  C   UNL A   1      33.243  25.566  26.062  1.00  0.00     0.009 A 
ATOM     11  C   UNL A   1      34.087  25.878  23.840  1.00  0.00     0.030 A 
ATOM     12  C   UNL A   1      32.970  26.939  26.126  1.00  0.00     0.016 A 
ATOM     13  C   UNL A   1      33.752  27.239  23.874  1.00  0.00     0.054 A 
ATOM     14  Cl  UNL A   1      33.881  28.007  22.343  1.00  0.00    -0.083 Cl
BRANCH   9  15
ATOM     15  C   UNL A   1      34.024  23.583  24.727  1.00  0.00    -0.015 A 
ATOM     16  C   UNL A   1      36.394  23.692  25.717  1.00  0.00     0.045 C 
ATOM     17  C   UNL A   1      35.207  22.943  25.165  1.00  0.00    -0.042 A 
ATOM     18  C   UNL A   1      35.299  21.542  25.092  1.00  0.00     0.024 A 
ATOM     19  C   UNL A   1      34.232  20.783  24.614  1.00  0.00     0.041 A 
ATOM     20  C   UNL A   1      32.968  22.796  24.230  1.00  0.00     0.010 A 
ATOM     21  Cl  UNL A   1      34.348  19.068  24.582  1.00  0.00    -0.084 Cl
ATOM     22  C   UNL A   1      33.068  21.405  24.178  1.00  0.00     0.021 A 
ENDBRANCH   9  15
ENDBRANCH   5   8
ENDBRANCH   3   4
ENDBRANCH   2   3
ENDBRANCH   1   2
BRANCH   1  23
ATOM     23  N   UNL A   1      35.640  31.163  29.996  1.00  0.00    -0.352 N 
ATOM     24  C   UNL A   1      36.495  30.370  30.721  1.00  0.00     0.251 C 
ATOM     25  H   UNL A   1      34.849  31.478  30.490  1.00  0.00     0.163 HD
ATOM     26  O   UNL A   1      36.100  29.913  31.793  1.00  0.00    -0.269 OA
BRANCH  24  27
ATOM     27  C   UNL A   1      37.867  30.052  30.247  1.00  0.00     0.039 A 
ATOM     28  C   UNL A   1      38.091  29.982  28.868  1.00  0.00     0.014 A 
ATOM     29  C   UNL A   1      38.911  29.741  31.124  1.00  0.00     0.014 A 
ATOM     30  C   UNL A   1      39.350  29.624  28.376  1.00  0.00     0.010 A 
ATOM     31  C   UNL A   1      40.190  29.467  30.634  1.00  0.00     0.010 A 
ATOM     32  C   UNL A   1      40.417  29.377  29.254  1.00  0.00    -0.014 A 
BRANCH  32  33
ATOM     33  C   UNL A   1      41.755  28.990  28.733  1.00  0.00     0.031 A 
ATOM     34  C   UNL A   1      42.862  30.009  28.638  1.00  0.00     0.074 A 
ATOM     35  C   UNL A   1      41.968  27.723  28.327  1.00  0.00     0.049 A 
ATOM     36  N   UNL A   1      44.096  29.854  28.228  1.00  0.00    -0.248 NA
ATOM     37  C   UNL A   1      42.535  31.390  29.030  1.00  0.00     0.031 C 
ATOM     38  C   UNL A   1      40.960  26.661  28.310  1.00  0.00     0.029 A 
ATOM     39  N   UNL A   1      43.102  27.110  27.854  1.00  0.00    -0.354 N 
ATOM     40  C   UNL A   1      44.684  31.112  28.301  1.00  0.00     0.074 A 
ATOM     41  C   UNL A   1      43.658  32.031  28.743  1.00  0.00     0.031 C 
ATOM     42  C   UNL A   1      41.527  25.521  27.885  1.00  0.00     0.029 A 
ATOM     43  C   UNL A   1      42.931  25.775  27.576  1.00  0.00     0.049 A 
ATOM     44  H   UNL A   1      43.956  27.582  27.727  1.00  0.00     0.167 HD
ATOM     45  C   UNL A   1      45.968  31.466  28.050  1.00  0.00     0.037 A 
ATOM     46  C   UNL A   1      43.810  24.855  27.131  1.00  0.00     0.037 A 
ATOM     47  C   UNL A   1      46.994  30.541  27.642  1.00  0.00     0.049 A 
ATOM     48  C   UNL A   1      45.240  25.262  26.901  1.00  0.00     0.074 A 
ATOM     49  C   UNL A   1      48.338  30.785  27.419  1.00  0.00     0.029 A 
ATOM     50  N   UNL A   1      46.788  29.190  27.400  1.00  0.00    -0.354 N 
ATOM     51  N   UNL A   1      45.793  26.444  27.040  1.00  0.00    -0.248 NA
ATOM     52  C   UNL A   1      46.167  24.208  26.471  1.00  0.00     0.031 C 
ATOM     53  C   UNL A   1      48.938  29.588  27.011  1.00  0.00     0.029 A 
ATOM     54  C   UNL A   1      47.977  28.590  27.020  1.00  0.00     0.049 A 
ATOM     55  H   UNL A   1      45.924  28.725  27.486  1.00  0.00     0.167 HD
ATOM     56  C   UNL A   1      47.137  26.272  26.733  1.00  0.00     0.074 A 
ATOM     57  C   UNL A   1      47.316  24.868  26.420  1.00  0.00     0.031 C 
ATOM     58  C   UNL A   1      48.134  27.191  26.708  1.00  0.00     0.037 A 
BRANCH  45  59
ATOM     59  C   UNL A   1      46.338  32.916  28.220  1.00  0.00     0.058 A 
ATOM     60  C   UNL A   1      46.799  33.419  29.448  1.00  0.00     0.135 A 
ATOM     61  C   UNL A   1      46.260  33.807  27.138  1.00  0.00     0.135 A 
ATOM     62  F   UNL A   1      46.879  32.615  30.520  1.00  0.00    -0.206 F 
ATOM     63  C   UNL A   1      47.137  34.758  29.606  1.00  0.00     0.059 A 
ATOM     64  C   UNL A   1      46.619  35.147  27.266  1.00  0.00     0.059 A 
ATOM     65  F   UNL A   1      45.828  33.382  25.941  1.00  0.00    -0.206 F 
ATOM     66  C   UNL A   1      47.042  35.617  28.509  1.00  0.00     0.060 A 
BRANCH  66  67
ATOM     67  S   UNL A   1      47.486  37.353  28.728  1.00  0.00     0.124 S 
ATOM     68  O   UNL A   1      47.799  37.748  27.356  1.00  0.00    -0.237 OA
ATOM     69  O   UNL A   1      46.260  37.923  29.284  1.00  0.00    -0.237 OA
ATOM     70  O   UNL A   1      48.619  37.304  29.641  1.00  0.00    -0.744 OA
ENDBRANCH  66  67
ENDBRANCH  45  59
BRANCH  46  71
ATOM     71  C   UNL A   1      43.369  23.451  26.918  1.00  0.00     0.058 A 
ATOM     72  C   UNL A   1      43.176  22.944  25.624  1.00  0.00     0.135 A 
ATOM     73  C   UNL A   1      43.154  22.583  27.999  1.00  0.00     0.135 A 
ATOM     74  F   UNL A   1      43.366  23.736  24.558  1.00  0.00    -0.206 F 
ATOM     75  C   UNL A   1      42.771  21.630  25.409  1.00  0.00     0.059 A 
ATOM     76  C   UNL A   1      42.772  21.259  27.809  1.00  0.00     0.059 A 
ATOM     77  F   UNL A   1      43.343  23.016  29.256  1.00  0.00    -0.206 F 
ATOM     78  C   UNL A   1      42.573  20.795  26.509  1.00  0.00     0.060 A 
BRANCH  78  79
ATOM     79  S   UNL A   1      42.101  19.075  26.219  1.00  0.00     0.124 S 
ATOM     80  O   UNL A   1      42.374  18.473  27.518  1.00  0.00    -0.237 OA
ATOM     81  O   UNL A   1      40.694  19.199  25.853  1.00  0.00    -0.237 OA
ATOM     82  O   UNL A   1      42.988  18.665  25.133  1.00  0.00    -0.744 OA
ENDBRANCH  78  79
ENDBRANCH  46  71
BRANCH  58  83
ATOM     83  C   UNL A   1      49.508  26.697  26.353  1.00  0.00     0.058 A 
ATOM     84  C   UNL A   1      50.026  26.830  25.055  1.00  0.00     0.135 A 
ATOM     85  C   UNL A   1      50.324  26.099  27.327  1.00  0.00     0.135 A 
ATOM     86  F   UNL A   1      49.284  27.392  24.087  1.00  0.00    -0.206 F 
ATOM     87  C   UNL A   1      51.289  26.351  24.725  1.00  0.00     0.059 A 
ATOM     88  C   UNL A   1      51.601  25.637  27.025  1.00  0.00     0.059 A 
ATOM     89  F   UNL A   1      49.882  25.960  28.588  1.00  0.00    -0.206 F 
ATOM     90  C   UNL A   1      52.067  25.750  25.716  1.00  0.00     0.060 A 
BRANCH  90  91
ATOM     91  S   UNL A   1      53.705  25.132  25.277  1.00  0.00     0.124 S 
ATOM     92  O   UNL A   1      54.534  25.746  26.309  1.00  0.00    -0.237 OA
ATOM     93  O   UNL A   1      53.534  23.686  25.377  1.00  0.00    -0.237 OA
ATOM     94  O   UNL A   1      53.907  25.640  23.923  1.00  0.00    -0.744 OA
ENDBRANCH  90  91
ENDBRANCH  58  83
ENDBRANCH  32  33
ENDBRANCH  24  27
ENDBRANCH   1  23
TORSDOF 14
ENDMDL
MODEL 3
REMARK VINA RESULT:     -12.5      5.007     10.605
REMARK SMILES Cc1cc(Cl)ccc1-c1ccc(C(=O)NCCCNC(=O)c2ccc(-c3c4nc(c(-c5c(F)cc(S(=O)(=O)[O-])cc5F)c5ccc([nH]5)c(-c5c(F)cc(S(=O)(=O)[O-])cc5F)c5nc(c(-c6c(F)cc(S(=O)(=O)[O-])cc6F)c6ccc3[nH]6)C=C5)C=C4)cc2)c(Cl)c1
REMARK SMILES IDX 18 1 17 2 16 3 15 4 13 5 14 6 12 8 9 9 10 10 90 11 11 12
REMARK SMILES IDX 88 13 89 14 8 15 1 16 2 17 3 18 4 19 7 20 5 21 6 22 19 23
REMARK SMILES IDX 20 24 21 26 22 27 23 28 87 29 24 30 86 31 25 32 26 33 27 34
REMARK SMILES IDX 80 35 28 36 85 37 79 38 81 39 29 40 84 41 78 42 77 43 30 45
REMARK SMILES IDX 64 46 43 47 63 48 44 49 47 50 62 51 82 52 45 53 46 54 61 56
REMARK SMILES IDX 83 57 48 58 31 59 32 60 41 61 33 62 34 63 40 64 42 65 35 66
REMARK SMILES IDX 36 67 37 68 38 69 39 70 65 71 66 72 75 73 67 74 68 75 74 76
REMARK SMILES IDX 76 77 69 78 70 79 71 80 72 81 73 82 49 83 50 84 59 85 51 86
REMARK SMILES IDX 52 87 58 88 60 89 53 90 54 91 55 92 56 93 57 94
REMARK H PARENT 15 7 19 25 81 44 47 55
REMARK Flexibility Score: inf
ROOT
ATOM      1  C   UNL A   1      33.508  28.204  27.199  1.00  0.00     0.118 C 
ENDROOT
BRANCH   1   2
ATOM      2  C   UNL A   1      33.795  27.922  25.732  1.00  0.00     0.042 C 
BRANCH   2   3
ATOM      3  C   UNL A   1      32.556  27.775  24.847  1.00  0.00     0.118 C 
BRANCH   3   4
ATOM      4  N   UNL A   1      31.452  27.216  25.606  1.00  0.00    -0.352 N 
ATOM      5  C   UNL A   1      31.005  25.939  25.818  1.00  0.00     0.252 C 
ATOM      6  O   UNL A   1      29.992  25.818  26.512  1.00  0.00    -0.269 OA
ATOM      7  H   UNL A   1      30.911  27.898  26.066  1.00  0.00     0.163 HD
BRANCH   5   8
ATOM      8  C   UNL A   1      31.695  24.693  25.382  1.00  0.00     0.058 A 
ATOM      9  C   UNL A   1      32.772  22.105  24.882  1.00  0.00    -0.017 A 
ATOM     10  C   UNL A   1      32.449  22.490  26.182  1.00  0.00     0.009 A 
ATOM     11  C   UNL A   1      32.569  23.026  23.849  1.00  0.00     0.030 A 
ATOM     12  C   UNL A   1      31.932  23.769  26.426  1.00  0.00     0.016 A 
ATOM     13  C   UNL A   1      31.988  24.281  24.079  1.00  0.00     0.054 A 
ATOM     14  Cl  UNL A   1      31.533  25.092  22.635  1.00  0.00    -0.083 Cl
BRANCH   9  15
ATOM     15  C   UNL A   1      33.218  20.752  24.535  1.00  0.00    -0.015 A 
ATOM     16  C   UNL A   1      35.577  21.157  25.469  1.00  0.00     0.045 C 
ATOM     17  C   UNL A   1      34.508  20.280  24.868  1.00  0.00    -0.042 A 
ATOM     18  C   UNL A   1      34.829  18.931  24.636  1.00  0.00     0.024 A 
ATOM     19  C   UNL A   1      33.883  18.057  24.103  1.00  0.00     0.041 A 
ATOM     20  C   UNL A   1      32.286  19.855  23.980  1.00  0.00     0.010 A 
ATOM     21  Cl  UNL A   1      34.281  16.400  23.875  1.00  0.00    -0.084 Cl
ATOM     22  C   UNL A   1      32.614  18.515  23.769  1.00  0.00     0.021 A 
ENDBRANCH   9  15
ENDBRANCH   5   8
ENDBRANCH   3   4
ENDBRANCH   2   3
ENDBRANCH   1   2
BRANCH   1  23
ATOM     23  N   UNL A   1      33.439  29.626  27.475  1.00  0.00    -0.352 N 
ATOM     24  C   UNL A   1      34.364  30.464  28.046  1.00  0.00     0.251 C 
ATOM     25  H   UNL A   1      32.595  30.060  27.212  1.00  0.00     0.163 HD
ATOM     26  O   UNL A   1      33.994  31.578  28.415  1.00  0.00    -0.269 OA
BRANCH  24  27
ATOM     27  C   UNL A   1      35.783  30.062  28.230  1.00  0.00     0.039 A 
ATOM     28  C   UNL A   1      36.185  29.612  29.493  1.00  0.00     0.014 A 
ATOM     29  C   UNL A   1      36.739  30.198  27.218  1.00  0.00     0.014 A 
ATOM     30  C   UNL A   1      37.524  29.284  29.730  1.00  0.00     0.010 A 
ATOM     31  C   UNL A   1      38.057  29.790  27.430  1.00  0.00     0.010 A 
ATOM     32  C   UNL A   1      38.472  29.355  28.696  1.00  0.00    -0.014 A 
BRANCH  32  33
ATOM     33  C   UNL A   1      39.896  29.012  28.949  1.00  0.00     0.031 A 
ATOM     34  C   UNL A   1      40.825  30.019  29.578  1.00  0.00     0.074 A 
ATOM     35  C   UNL A   1      40.359  27.796  28.596  1.00  0.00     0.049 A 
ATOM     36  N   UNL A   1      42.089  29.895  29.892  1.00  0.00    -0.248 NA
ATOM     37  C   UNL A   1      40.267  31.350  29.870  1.00  0.00     0.031 C 
ATOM     38  C   UNL A   1      39.576  26.757  27.924  1.00  0.00     0.029 A 
ATOM     39  N   UNL A   1      41.597  27.227  28.755  1.00  0.00    -0.354 N 
ATOM     40  C   UNL A   1      42.480  31.128  30.402  1.00  0.00     0.074 A 
ATOM     41  C   UNL A   1      41.333  32.005  30.308  1.00  0.00     0.031 C 
ATOM     42  C   UNL A   1      40.340  25.666  27.760  1.00  0.00     0.029 A 
ATOM     43  C   UNL A   1      41.673  25.934  28.292  1.00  0.00     0.049 A 
ATOM     44  H   UNL A   1      42.359  27.698  29.163  1.00  0.00     0.167 HD
ATOM     45  C   UNL A   1      43.675  31.491  30.928  1.00  0.00     0.037 A 
ATOM     46  C   UNL A   1      42.698  25.059  28.303  1.00  0.00     0.037 A 
ATOM     47  C   UNL A   1      44.804  30.604  31.050  1.00  0.00     0.049 A 
ATOM     48  C   UNL A   1      44.002  25.470  28.932  1.00  0.00     0.074 A 
ATOM     49  C   UNL A   1      46.040  30.854  31.621  1.00  0.00     0.029 A 
ATOM     50  N   UNL A   1      44.832  29.293  30.597  1.00  0.00    -0.354 N 
ATOM     51  N   UNL A   1      44.331  26.621  29.471  1.00  0.00    -0.248 NA
ATOM     52  C   UNL A   1      45.067  24.460  28.969  1.00  0.00     0.031 C 
ATOM     53  C   UNL A   1      46.826  29.703  31.483  1.00  0.00     0.029 A 
ATOM     54  C   UNL A   1      46.066  28.724  30.865  1.00  0.00     0.049 A 
ATOM     55  H   UNL A   1      44.083  28.834  30.151  1.00  0.00     0.167 HD
ATOM     56  C   UNL A   1      45.634  26.466  29.928  1.00  0.00     0.074 A 
ATOM     57  C   UNL A   1      46.025  25.105  29.620  1.00  0.00     0.031 C 
ATOM     58  C   UNL A   1      46.437  27.368  30.546  1.00  0.00     0.037 A 
BRANCH  45  59
ATOM     59  C   UNL A   1      43.820  32.906  31.422  1.00  0.00     0.058 A 
ATOM     60  C   UNL A   1      44.300  33.931  30.588  1.00  0.00     0.135 A 
ATOM     61  C   UNL A   1      43.452  33.250  32.732  1.00  0.00     0.135 A 
ATOM     62  F   UNL A   1      44.681  33.656  29.331  1.00  0.00    -0.206 F 
ATOM     63  C   UNL A   1      44.438  35.237  31.045  1.00  0.00     0.059 A 
ATOM     64  C   UNL A   1      43.556  34.557  33.202  1.00  0.00     0.059 A 
ATOM     65  F   UNL A   1      42.987  32.313  33.572  1.00  0.00    -0.206 F 
ATOM     66  C   UNL A   1      44.065  35.541  32.355  1.00  0.00     0.060 A 
BRANCH  66  67
ATOM     67  S   UNL A   1      44.247  37.242  32.935  1.00  0.00     0.124 S 
ATOM     68  O   UNL A   1      43.995  37.995  31.709  1.00  0.00    -0.237 OA
ATOM     69  O   UNL A   1      43.208  37.337  33.959  1.00  0.00    -0.237 OA
ATOM     70  O   UNL A   1      45.615  37.288  33.431  1.00  0.00    -0.744 OA
ENDBRANCH  66  67
ENDBRANCH  45  59
BRANCH  46  71
ATOM     71  C   UNL A   1      42.515  23.696  27.741  1.00  0.00     0.058 A 
ATOM     72  C   UNL A   1      42.602  23.468  26.359  1.00  0.00     0.135 A 
ATOM     73  C   UNL A   1      42.274  22.591  28.572  1.00  0.00     0.135 A 
ATOM     74  F   UNL A   1      42.827  24.492  25.523  1.00  0.00    -0.206 F 
ATOM     75  C   UNL A   1      42.440  22.196  25.818  1.00  0.00     0.059 A 
ATOM     76  C   UNL A   1      42.132  21.306  28.057  1.00  0.00     0.059 A 
ATOM     77  F   UNL A   1      42.201  22.754  29.902  1.00  0.00    -0.206 F 
ATOM     78  C   UNL A   1      42.207  21.121  26.677  1.00  0.00     0.060 A 
BRANCH  78  79
ATOM     79  S   UNL A   1      42.054  19.465  25.972  1.00  0.00     0.124 S 
ATOM     80  O   UNL A   1      42.522  18.632  27.073  1.00  0.00    -0.237 OA
ATOM     81  O   UNL A   1      40.628  19.387  25.673  1.00  0.00    -0.237 OA
ATOM     82  O   UNL A   1      42.928  19.517  24.803  1.00  0.00    -0.744 OA
ENDBRANCH  78  79
ENDBRANCH  46  71
BRANCH  58  83
ATOM     83  C   UNL A   1      47.807  26.900  30.946  1.00  0.00     0.058 A 
ATOM     84  C   UNL A   1      48.899  26.979  30.066  1.00  0.00     0.135 A 
ATOM     85  C   UNL A   1      48.035  26.380  32.231  1.00  0.00     0.135 A 
ATOM     86  F   UNL A   1      48.732  27.464  28.826  1.00  0.00    -0.206 F 
ATOM     87  C   UNL A   1      50.160  26.523  30.432  1.00  0.00     0.059 A 
ATOM     88  C   UNL A   1      49.295  25.943  32.626  1.00  0.00     0.059 A 
ATOM     89  F   UNL A   1      47.029  26.295  33.115  1.00  0.00    -0.206 F 
ATOM     90  C   UNL A   1      50.347  26.001  31.713  1.00  0.00     0.060 A 
BRANCH  90  91
ATOM     91  S   UNL A   1      51.988  25.412  32.179  1.00  0.00     0.124 S 
ATOM     92  O   UNL A   1      52.181  26.071  33.466  1.00  0.00    -0.237 OA
ATOM     93  O   UNL A   1      51.802  23.965  32.229  1.00  0.00    -0.237 OA
ATOM     94  O   UNL A   1      52.840  25.890  31.093  1.00  0.00    -0.744 OA
ENDBRANCH  90  91
ENDBRANCH  58  83
ENDBRANCH  32  33
ENDBRANCH  24  27
ENDBRANCH   1  23
TORSDOF 14
ENDMDL
