MODEL 1
REMARK VINA RESULT:     -12.7      0.000      0.000
REMARK SMILES COc1cc(C(=O)NC2(C(=O)NCCCNC(=O)c3ccc(-c4c5nc(c(-c6c(F)cc(S(=O)(=O)[O-])cc6F)c6ccc([nH]6)c(-c6c(F)cc(S(=O)(=O)[O-])cc6F)c6nc(c(-c7c(F)cc(S(=O)(=O)[O-])cc7F)c7ccc4[nH]7)C=C6)C=C5)cc3)CCCCC2)cc2c1OCCO2
REMARK SMILES IDX 14 1 13 2 12 3 10 4 11 5 9 7 85 8 89 9 86 10 88 11 87 12
REMARK SMILES IDX 8 13 6 14 7 15 5 17 3 18 4 19 92 20 91 21 93 22 90 23 96 24
REMARK SMILES IDX 94 25 95 26 2 27 1 28 15 29 16 30 17 31 18 33 19 34 20 35
REMARK SMILES IDX 84 36 21 37 83 38 22 39 23 40 24 41 77 42 25 43 82 44 76 45
REMARK SMILES IDX 78 46 26 47 81 48 75 49 74 50 27 52 61 53 40 54 60 55 41 56
REMARK SMILES IDX 44 57 59 58 79 59 42 60 43 61 58 63 80 64 45 65 28 66 29 67
REMARK SMILES IDX 38 68 30 69 31 70 37 71 39 72 32 73 33 74 34 75 35 76 36 77
REMARK SMILES IDX 62 78 63 79 72 80 64 81 65 82 71 83 73 84 66 85 67 86 68 87
REMARK SMILES IDX 69 88 70 89 46 90 47 91 56 92 48 93 49 94 55 95 57 96 50 97
REMARK SMILES IDX 51 98 52 99 53 100 54 101
REMARK H PARENT 12 6 8 16 16 32 78 51 44 62
REMARK Flexibility Score: inf
ROOT
ATOM      1  C   UNL A   1      34.305  31.181  27.551  1.00  0.00     0.042 C 
ENDROOT
BRANCH   1   2
ATOM      2  C   UNL A   1      33.394  30.323  26.694  1.00  0.00     0.117 C 
BRANCH   2   3
ATOM      3  N   UNL A   1      32.486  29.538  27.488  1.00  0.00    -0.354 N 
ATOM      4  C   UNL A   1      31.887  28.347  27.267  1.00  0.00     0.245 C 
ATOM      5  O   UNL A   1      31.077  28.026  28.153  1.00  0.00    -0.272 OA
ATOM      6  H   UNL A   1      32.259  29.946  28.355  1.00  0.00     0.163 HD
BRANCH   4   7
ATOM      7  C   UNL A   1      32.063  27.445  25.978  1.00  0.00     0.119 C 
ATOM      8  C   UNL A   1      33.456  27.240  25.349  1.00  0.00     0.038 C 
ATOM      9  C   UNL A   1      31.064  27.934  24.906  1.00  0.00     0.038 C 
ATOM     10  C   UNL A   1      33.907  28.014  24.107  1.00  0.00     0.003 C 
ATOM     11  C   UNL A   1      31.581  29.075  24.041  1.00  0.00     0.003 C 
ATOM     12  C   UNL A   1      32.848  28.720  23.288  1.00  0.00     0.000 C 
BRANCH   7  13
ATOM     13  N   UNL A   1      31.510  26.136  26.513  1.00  0.00    -0.338 N 
ATOM     14  C   UNL A   1      31.915  24.822  26.563  1.00  0.00     0.252 C 
ATOM     15  O   UNL A   1      31.282  24.042  27.274  1.00  0.00    -0.269 OA
ATOM     16  H   UNL A   1      30.629  26.260  26.934  1.00  0.00     0.164 HD
BRANCH  14  17
ATOM     17  C   UNL A   1      32.994  24.267  25.716  1.00  0.00     0.047 A 
ATOM     18  C   UNL A   1      33.741  23.093  23.751  1.00  0.00     0.165 A 
ATOM     19  C   UNL A   1      32.819  23.936  24.377  1.00  0.00     0.064 A 
ATOM     20  C   UNL A   1      34.970  22.823  24.357  1.00  0.00     0.203 A 
ATOM     21  C   UNL A   1      35.238  23.374  25.615  1.00  0.00     0.166 A 
ATOM     22  O   UNL A   1      35.880  22.052  23.676  1.00  0.00    -0.483 OA
ATOM     23  C   UNL A   1      34.237  24.036  26.320  1.00  0.00     0.064 A 
ATOM     24  O   UNL A   1      36.467  23.278  26.222  1.00  0.00    -0.486 OA
ATOM     25  C   UNL A   1      37.042  21.753  24.455  1.00  0.00     0.271 C 
ATOM     26  C   UNL A   1      37.471  22.976  25.245  1.00  0.00     0.271 C 
BRANCH  18  27
ATOM     27  O   UNL A   1      33.343  22.542  22.558  1.00  0.00    -0.493 OA
ATOM     28  C   UNL A   1      32.200  21.693  22.723  1.00  0.00     0.278 C 
ENDBRANCH  18  27
ENDBRANCH  14  17
ENDBRANCH   7  13
ENDBRANCH   4   7
ENDBRANCH   2   3
ENDBRANCH   1   2
BRANCH   1  29
ATOM     29  C   UNL A   1      35.267  30.361  28.387  1.00  0.00     0.118 C 
BRANCH  29  30
ATOM     30  N   UNL A   1      35.438  30.914  29.724  1.00  0.00    -0.352 N 
ATOM     31  C   UNL A   1      36.487  30.811  30.607  1.00  0.00     0.251 C 
ATOM     32  H   UNL A   1      34.678  31.450  30.049  1.00  0.00     0.163 HD
ATOM     33  O   UNL A   1      36.326  31.150  31.773  1.00  0.00    -0.269 OA
BRANCH  31  34
ATOM     34  C   UNL A   1      37.791  30.274  30.157  1.00  0.00     0.039 A 
ATOM     35  C   UNL A   1      38.154  30.400  28.813  1.00  0.00     0.014 A 
ATOM     36  C   UNL A   1      38.652  29.640  31.052  1.00  0.00     0.014 A 
ATOM     37  C   UNL A   1      39.411  29.955  28.394  1.00  0.00     0.010 A 
ATOM     38  C   UNL A   1      39.946  29.323  30.664  1.00  0.00     0.010 A 
ATOM     39  C   UNL A   1      40.334  29.454  29.325  1.00  0.00    -0.014 A 
BRANCH  39  40
ATOM     40  C   UNL A   1      41.699  29.026  28.924  1.00  0.00     0.031 A 
ATOM     41  C   UNL A   1      42.822  30.031  28.899  1.00  0.00     0.074 A 
ATOM     42  C   UNL A   1      41.910  27.758  28.514  1.00  0.00     0.049 A 
ATOM     43  N   UNL A   1      44.055  29.883  28.491  1.00  0.00    -0.248 NA
ATOM     44  C   UNL A   1      42.508  31.396  29.357  1.00  0.00     0.031 C 
ATOM     45  C   UNL A   1      40.889  26.710  28.436  1.00  0.00     0.029 A 
ATOM     46  N   UNL A   1      43.052  27.137  28.074  1.00  0.00    -0.354 N 
ATOM     47  C   UNL A   1      44.650  31.133  28.620  1.00  0.00     0.074 A 
ATOM     48  C   UNL A   1      43.629  32.044  29.080  1.00  0.00     0.031 C 
ATOM     49  C   UNL A   1      41.457  25.570  28.012  1.00  0.00     0.029 A 
ATOM     50  C   UNL A   1      42.869  25.814  27.741  1.00  0.00     0.049 A 
ATOM     51  H   UNL A   1      43.921  27.594  28.005  1.00  0.00     0.167 HD
ATOM     52  C   UNL A   1      45.940  31.483  28.406  1.00  0.00     0.037 A 
ATOM     53  C   UNL A   1      43.741  24.906  27.264  1.00  0.00     0.037 A 
ATOM     54  C   UNL A   1      46.960  30.558  27.994  1.00  0.00     0.049 A 
ATOM     55  C   UNL A   1      45.173  25.318  27.044  1.00  0.00     0.074 A 
ATOM     56  C   UNL A   1      48.312  30.791  27.818  1.00  0.00     0.029 A 
ATOM     57  N   UNL A   1      46.742  29.220  27.695  1.00  0.00    -0.354 N 
ATOM     58  N   UNL A   1      45.733  26.488  27.241  1.00  0.00    -0.248 NA
ATOM     59  C   UNL A   1      46.093  24.287  26.544  1.00  0.00     0.031 C 
ATOM     60  C   UNL A   1      48.903  29.608  27.364  1.00  0.00     0.029 A 
ATOM     61  C   UNL A   1      47.931  28.621  27.314  1.00  0.00     0.049 A 
ATOM     62  H   UNL A   1      45.871  28.765  27.747  1.00  0.00     0.167 HD
ATOM     63  C   UNL A   1      47.077  26.325  26.920  1.00  0.00     0.074 A 
ATOM     64  C   UNL A   1      47.247  24.940  26.530  1.00  0.00     0.031 C 
ATOM     65  C   UNL A   1      48.080  27.237  26.945  1.00  0.00     0.037 A 
BRANCH  52  66
ATOM     66  C   UNL A   1      46.327  32.920  28.628  1.00  0.00     0.058 A 
ATOM     67  C   UNL A   1      46.276  33.868  27.593  1.00  0.00     0.135 A 
ATOM     68  C   UNL A   1      46.706  33.368  29.904  1.00  0.00     0.135 A 
ATOM     69  F   UNL A   1      45.940  33.493  26.348  1.00  0.00    -0.206 F 
ATOM     70  C   UNL A   1      46.607  35.202  27.808  1.00  0.00     0.059 A 
ATOM     71  C   UNL A   1      47.010  34.704  30.151  1.00  0.00     0.059 A 
ATOM     72  F   UNL A   1      46.776  32.506  30.930  1.00  0.00    -0.206 F 
ATOM     73  C   UNL A   1      46.968  35.612  29.093  1.00  0.00     0.060 A 
BRANCH  73  74
ATOM     74  S   UNL A   1      47.363  37.352  29.360  1.00  0.00     0.124 S 
ATOM     75  O   UNL A   1      48.601  37.489  28.599  1.00  0.00    -0.237 OA
ATOM     76  O   UNL A   1      46.197  38.025  28.797  1.00  0.00    -0.237 OA
ATOM     77  O   UNL A   1      47.504  37.451  30.809  1.00  0.00    -0.744 OA
ENDBRANCH  73  74
ENDBRANCH  52  66
BRANCH  53  78
ATOM     78  C   UNL A   1      43.297  23.513  26.980  1.00  0.00     0.058 A 
ATOM     79  C   UNL A   1      43.075  22.600  28.023  1.00  0.00     0.135 A 
ATOM     80  C   UNL A   1      43.090  23.064  25.667  1.00  0.00     0.135 A 
ATOM     81  F   UNL A   1      43.261  22.978  29.296  1.00  0.00    -0.206 F 
ATOM     82  C   UNL A   1      42.694  21.285  27.773  1.00  0.00     0.059 A 
ATOM     83  C   UNL A   1      42.680  21.762  25.393  1.00  0.00     0.059 A 
ATOM     84  F   UNL A   1      43.267  23.902  24.634  1.00  0.00    -0.206 F 
ATOM     85  C   UNL A   1      42.500  20.875  26.452  1.00  0.00     0.060 A 
BRANCH  85  86
ATOM     86  S   UNL A   1      41.981  19.174  26.142  1.00  0.00     0.124 S 
ATOM     87  O   UNL A   1      40.549  19.340  25.920  1.00  0.00    -0.237 OA
ATOM     88  O   UNL A   1      42.773  18.821  24.968  1.00  0.00    -0.237 OA
ATOM     89  O   UNL A   1      42.353  18.480  27.371  1.00  0.00    -0.744 OA
ENDBRANCH  85  86
ENDBRANCH  53  78
BRANCH  65  90
ATOM     90  C   UNL A   1      49.460  26.760  26.585  1.00  0.00     0.058 A 
ATOM     91  C   UNL A   1      50.324  26.202  27.539  1.00  0.00     0.135 A 
ATOM     92  C   UNL A   1      49.899  26.809  25.251  1.00  0.00     0.135 A 
ATOM     93  F   UNL A   1      49.955  26.137  28.828  1.00  0.00    -0.206 F 
ATOM     94  C   UNL A   1      51.585  25.733  27.189  1.00  0.00     0.059 A 
ATOM     95  C   UNL A   1      51.142  26.317  24.873  1.00  0.00     0.059 A 
ATOM     96  F   UNL A   1      49.105  27.322  24.296  1.00  0.00    -0.206 F 
ATOM     97  C   UNL A   1      51.984  25.790  25.852  1.00  0.00     0.060 A 
BRANCH  97  98
ATOM     98  S   UNL A   1      53.609  25.146  25.407  1.00  0.00     0.124 S 
ATOM     99  O   UNL A   1      53.864  25.837  24.148  1.00  0.00    -0.237 OA
ATOM    100  O   UNL A   1      54.431  25.564  26.538  1.00  0.00    -0.237 OA
ATOM    101  O   UNL A   1      53.388  23.706  25.299  1.00  0.00    -0.744 OA
ENDBRANCH  97  98
ENDBRANCH  65  90
ENDBRANCH  39  40
ENDBRANCH  31  34
ENDBRANCH  29  30
ENDBRANCH   1  29
TORSDOF 16
ENDMDL
MODEL 2
REMARK VINA RESULT:     -12.5      6.198     11.721
REMARK SMILES COc1cc(C(=O)NC2(C(=O)NCCCNC(=O)c3ccc(-c4c5nc(c(-c6c(F)cc(S(=O)(=O)[O-])cc6F)c6ccc([nH]6)c(-c6c(F)cc(S(=O)(=O)[O-])cc6F)c6nc(c(-c7c(F)cc(S(=O)(=O)[O-])cc7F)c7ccc4[nH]7)C=C6)C=C5)cc3)CCCCC2)cc2c1OCCO2
REMARK SMILES IDX 14 1 13 2 12 3 10 4 11 5 9 7 85 8 89 9 86 10 88 11 87 12
REMARK SMILES IDX 8 13 6 14 7 15 5 17 3 18 4 19 92 20 91 21 93 22 90 23 96 24
REMARK SMILES IDX 94 25 95 26 2 27 1 28 15 29 16 30 17 31 18 33 19 34 20 35
REMARK SMILES IDX 84 36 21 37 83 38 22 39 23 40 24 41 77 42 25 43 82 44 76 45
REMARK SMILES IDX 78 46 26 47 81 48 75 49 74 50 27 52 61 53 40 54 60 55 41 56
REMARK SMILES IDX 44 57 59 58 79 59 42 60 43 61 58 63 80 64 45 65 28 66 29 67
REMARK SMILES IDX 38 68 30 69 31 70 37 71 39 72 32 73 33 74 34 75 35 76 36 77
REMARK SMILES IDX 62 78 63 79 72 80 64 81 65 82 71 83 73 84 66 85 67 86 68 87
REMARK SMILES IDX 69 88 70 89 46 90 47 91 56 92 48 93 49 94 55 95 57 96 50 97
REMARK SMILES IDX 51 98 52 99 53 100 54 101
REMARK H PARENT 12 6 8 16 16 32 78 51 44 62
REMARK Flexibility Score: inf
ROOT
ATOM      1  C   UNL A   1      39.249  22.185  26.226  1.00  0.00     0.042 C 
ENDROOT
BRANCH   1   2
ATOM      2  C   UNL A   1      37.784  22.437  25.919  1.00  0.00     0.117 C 
BRANCH   2   3
ATOM      3  N   UNL A   1      37.557  22.657  24.515  1.00  0.00    -0.354 N 
ATOM      4  C   UNL A   1      36.440  22.955  23.815  1.00  0.00     0.245 C 
ATOM      5  O   UNL A   1      36.614  22.973  22.585  1.00  0.00    -0.272 OA
ATOM      6  H   UNL A   1      38.367  22.575  23.961  1.00  0.00     0.163 HD
BRANCH   4   7
ATOM      7  C   UNL A   1      34.993  23.164  24.421  1.00  0.00     0.119 C 
ATOM      8  C   UNL A   1      34.809  23.840  25.795  1.00  0.00     0.038 C 
ATOM      9  C   UNL A   1      34.257  21.807  24.395  1.00  0.00     0.038 C 
ATOM     10  C   UNL A   1      34.546  23.030  27.068  1.00  0.00     0.003 C 
ATOM     11  C   UNL A   1      34.517  20.928  25.611  1.00  0.00     0.003 C 
ATOM     12  C   UNL A   1      34.113  21.588  26.915  1.00  0.00     0.000 C 
BRANCH   7  13
ATOM     13  N   UNL A   1      34.379  24.005  23.316  1.00  0.00    -0.338 N 
ATOM     14  C   UNL A   1      33.813  25.254  23.202  1.00  0.00     0.252 C 
ATOM     15  O   UNL A   1      33.599  25.698  22.074  1.00  0.00    -0.269 OA
ATOM     16  H   UNL A   1      34.387  23.531  22.453  1.00  0.00     0.164 HD
BRANCH  14  17
ATOM     17  C   UNL A   1      33.335  26.043  24.359  1.00  0.00     0.047 A 
ATOM     18  C   UNL A   1      31.646  26.596  25.983  1.00  0.00     0.165 A 
ATOM     19  C   UNL A   1      32.267  25.653  25.160  1.00  0.00     0.064 A 
ATOM     20  C   UNL A   1      32.257  27.826  26.228  1.00  0.00     0.203 A 
ATOM     21  C   UNL A   1      33.475  28.112  25.602  1.00  0.00     0.166 A 
ATOM     22  O   UNL A   1      31.651  28.696  27.103  1.00  0.00    -0.483 OA
ATOM     23  C   UNL A   1      33.980  27.258  24.624  1.00  0.00     0.064 A 
ATOM     24  O   UNL A   1      34.215  29.233  25.890  1.00  0.00    -0.486 OA
ATOM     25  C   UNL A   1      32.316  29.961  27.171  1.00  0.00     0.271 C 
ATOM     26  C   UNL A   1      33.820  29.764  27.162  1.00  0.00     0.271 C 
BRANCH  18  27
ATOM     27  O   UNL A   1      30.414  26.245  26.480  1.00  0.00    -0.493 OA
ATOM     28  C   UNL A   1      29.668  25.460  25.541  1.00  0.00     0.278 C 
ENDBRANCH  18  27
ENDBRANCH  14  17
ENDBRANCH   7  13
ENDBRANCH   4   7
ENDBRANCH   2   3
ENDBRANCH   1   2
BRANCH   1  29
ATOM     29  C   UNL A   1      39.942  23.400  26.810  1.00  0.00     0.118 C 
BRANCH  29  30
ATOM     30  N   UNL A   1      41.011  23.886  25.947  1.00  0.00    -0.352 N 
ATOM     31  C   UNL A   1      41.717  25.066  25.976  1.00  0.00     0.251 C 
ATOM     32  H   UNL A   1      41.271  23.269  25.225  1.00  0.00     0.163 HD
ATOM     33  O   UNL A   1      42.406  25.377  25.012  1.00  0.00    -0.269 OA
BRANCH  31  34
ATOM     34  C   UNL A   1      41.627  25.960  27.151  1.00  0.00     0.039 A 
ATOM     35  C   UNL A   1      42.344  27.160  27.154  1.00  0.00     0.014 A 
ATOM     36  C   UNL A   1      40.845  25.617  28.254  1.00  0.00     0.014 A 
ATOM     37  C   UNL A   1      42.213  28.040  28.231  1.00  0.00     0.010 A 
ATOM     38  C   UNL A   1      40.612  26.548  29.256  1.00  0.00     0.010 A 
ATOM     39  C   UNL A   1      41.310  27.761  29.270  1.00  0.00    -0.014 A 
BRANCH  39  40
ATOM     40  C   UNL A   1      41.102  28.701  30.402  1.00  0.00     0.031 A 
ATOM     41  C   UNL A   1      41.959  28.586  31.637  1.00  0.00     0.074 A 
ATOM     42  C   UNL A   1      40.102  29.604  30.348  1.00  0.00     0.049 A 
ATOM     43  N   UNL A   1      41.876  29.242  32.764  1.00  0.00    -0.248 NA
ATOM     44  C   UNL A   1      43.027  27.570  31.618  1.00  0.00     0.031 C 
ATOM     45  C   UNL A   1      39.168  29.771  29.231  1.00  0.00     0.029 A 
ATOM     46  N   UNL A   1      39.695  30.547  31.259  1.00  0.00    -0.354 N 
ATOM     47  C   UNL A   1      42.857  28.704  33.590  1.00  0.00     0.074 A 
ATOM     48  C   UNL A   1      43.480  27.625  32.861  1.00  0.00     0.031 C 
ATOM     49  C   UNL A   1      38.322  30.777  29.508  1.00  0.00     0.029 A 
ATOM     50  C   UNL A   1      38.620  31.295  30.839  1.00  0.00     0.049 A 
ATOM     51  H   UNL A   1      40.132  30.675  32.132  1.00  0.00     0.167 HD
ATOM     52  C   UNL A   1      43.229  29.097  34.830  1.00  0.00     0.037 A 
ATOM     53  C   UNL A   1      37.947  32.283  31.460  1.00  0.00     0.037 A 
ATOM     54  C   UNL A   1      42.634  30.205  35.529  1.00  0.00     0.049 A 
ATOM     55  C   UNL A   1      38.387  32.708  32.837  1.00  0.00     0.074 A 
ATOM     56  C   UNL A   1      42.983  30.733  36.758  1.00  0.00     0.029 A 
ATOM     57  N   UNL A   1      41.568  30.958  35.057  1.00  0.00    -0.354 N 
ATOM     58  N   UNL A   1      39.366  32.234  33.572  1.00  0.00    -0.248 NA
ATOM     59  C   UNL A   1      37.638  33.804  33.465  1.00  0.00     0.031 C 
ATOM     60  C   UNL A   1      42.096  31.772  37.054  1.00  0.00     0.029 A 
ATOM     61  C   UNL A   1      41.232  31.932  35.982  1.00  0.00     0.049 A 
ATOM     62  H   UNL A   1      41.118  30.820  34.193  1.00  0.00     0.167 HD
ATOM     63  C   UNL A   1      39.370  32.997  34.735  1.00  0.00     0.074 A 
ATOM     64  C   UNL A   1      38.305  33.970  34.599  1.00  0.00     0.031 C 
ATOM     65  C   UNL A   1      40.179  32.901  35.819  1.00  0.00     0.037 A 
BRANCH  52  66
ATOM     66  C   UNL A   1      44.337  28.338  35.508  1.00  0.00     0.058 A 
ATOM     67  C   UNL A   1      45.688  28.673  35.317  1.00  0.00     0.135 A 
ATOM     68  C   UNL A   1      44.044  27.295  36.401  1.00  0.00     0.135 A 
ATOM     69  F   UNL A   1      46.029  29.649  34.460  1.00  0.00    -0.206 F 
ATOM     70  C   UNL A   1      46.708  27.988  35.968  1.00  0.00     0.059 A 
ATOM     71  C   UNL A   1      45.047  26.616  37.089  1.00  0.00     0.059 A 
ATOM     72  F   UNL A   1      42.772  26.928  36.620  1.00  0.00    -0.206 F 
ATOM     73  C   UNL A   1      46.377  26.964  36.857  1.00  0.00     0.060 A 
BRANCH  73  74
ATOM     74  S   UNL A   1      47.713  26.107  37.716  1.00  0.00     0.124 S 
ATOM     75  O   UNL A   1      47.278  26.208  39.106  1.00  0.00    -0.237 OA
ATOM     76  O   UNL A   1      47.653  24.771  37.130  1.00  0.00    -0.237 OA
ATOM     77  O   UNL A   1      48.897  26.889  37.372  1.00  0.00    -0.744 OA
ENDBRANCH  73  74
ENDBRANCH  52  66
BRANCH  53  78
ATOM     78  C   UNL A   1      36.803  32.954  30.784  1.00  0.00     0.058 A 
ATOM     79  C   UNL A   1      37.017  33.923  29.792  1.00  0.00     0.135 A 
ATOM     80  C   UNL A   1      35.474  32.648  31.118  1.00  0.00     0.135 A 
ATOM     81  F   UNL A   1      38.268  34.254  29.438  1.00  0.00    -0.206 F 
ATOM     82  C   UNL A   1      35.959  34.585  29.177  1.00  0.00     0.059 A 
ATOM     83  C   UNL A   1      34.399  33.275  30.496  1.00  0.00     0.059 A 
ATOM     84  F   UNL A   1      35.212  31.714  32.046  1.00  0.00    -0.206 F 
ATOM     85  C   UNL A   1      34.651  34.254  29.537  1.00  0.00     0.060 A 
BRANCH  85  86
ATOM     86  S   UNL A   1      33.286  35.100  28.713  1.00  0.00     0.124 S 
ATOM     87  O   UNL A   1      32.713  34.024  27.913  1.00  0.00    -0.237 OA
ATOM     88  O   UNL A   1      32.481  35.555  29.843  1.00  0.00    -0.237 OA
ATOM     89  O   UNL A   1      33.953  36.159  27.962  1.00  0.00    -0.744 OA
ENDBRANCH  85  86
ENDBRANCH  53  78
BRANCH  65  90
ATOM     90  C   UNL A   1      39.979  33.900  36.924  1.00  0.00     0.058 A 
ATOM     91  C   UNL A   1      40.604  35.156  36.910  1.00  0.00     0.135 A 
ATOM     92  C   UNL A   1      39.100  33.616  37.984  1.00  0.00     0.135 A 
ATOM     93  F   UNL A   1      41.456  35.475  35.924  1.00  0.00    -0.206 F 
ATOM     94  C   UNL A   1      40.385  36.086  37.920  1.00  0.00     0.059 A 
ATOM     95  C   UNL A   1      38.842  34.543  38.987  1.00  0.00     0.059 A 
ATOM     96  F   UNL A   1      38.466  32.433  38.038  1.00  0.00    -0.206 F 
ATOM     97  C   UNL A   1      39.500  35.773  38.953  1.00  0.00     0.060 A 
BRANCH  97  98
ATOM     98  S   UNL A   1      39.198  37.003  40.238  1.00  0.00     0.124 S 
ATOM     99  O   UNL A   1      40.555  37.295  40.687  1.00  0.00    -0.237 OA
ATOM    100  O   UNL A   1      38.532  38.069  39.497  1.00  0.00    -0.237 OA
ATOM    101  O   UNL A   1      38.358  36.294  41.199  1.00  0.00    -0.744 OA
ENDBRANCH  97  98
ENDBRANCH  65  90
ENDBRANCH  39  40
ENDBRANCH  31  34
ENDBRANCH  29  30
ENDBRANCH   1  29
TORSDOF 16
ENDMDL
MODEL 3
REMARK VINA RESULT:     -11.9      2.919      3.865
REMARK SMILES COc1cc(C(=O)NC2(C(=O)NCCCNC(=O)c3ccc(-c4c5nc(c(-c6c(F)cc(S(=O)(=O)[O-])cc6F)c6ccc([nH]6)c(-c6c(F)cc(S(=O)(=O)[O-])cc6F)c6nc(c(-c7c(F)cc(S(=O)(=O)[O-])cc7F)c7ccc4[nH]7)C=C6)C=C5)cc3)CCCCC2)cc2c1OCCO2
REMARK SMILES IDX 14 1 13 2 12 3 10 4 11 5 9 7 85 8 89 9 86 10 88 11 87 12
REMARK SMILES IDX 8 13 6 14 7 15 5 17 3 18 4 19 92 20 91 21 93 22 90 23 96 24
REMARK SMILES IDX 94 25 95 26 2 27 1 28 15 29 16 30 17 31 18 33 19 34 20 35
REMARK SMILES IDX 84 36 21 37 83 38 22 39 23 40 24 41 77 42 25 43 82 44 76 45
REMARK SMILES IDX 78 46 26 47 81 48 75 49 74 50 27 52 61 53 40 54 60 55 41 56
REMARK SMILES IDX 44 57 59 58 79 59 42 60 43 61 58 63 80 64 45 65 28 66 29 67
REMARK SMILES IDX 38 68 30 69 31 70 37 71 39 72 32 73 33 74 34 75 35 76 36 77
REMARK SMILES IDX 62 78 63 79 72 80 64 81 65 82 71 83 73 84 66 85 67 86 68 87
REMARK SMILES IDX 69 88 70 89 46 90 47 91 56 92 48 93 49 94 55 95 57 96 50 97
REMARK SMILES IDX 51 98 52 99 53 100 54 101
REMARK H PARENT 12 6 8 16 16 32 78 51 44 62
REMARK Flexibility Score: inf
ROOT
ATOM      1  C   UNL A   1      33.017  28.538  25.268  1.00  0.00     0.042 C 
ENDROOT
BRANCH   1   2
ATOM      2  C   UNL A   1      31.674  28.075  25.800  1.00  0.00     0.117 C 
BRANCH   2   3
ATOM      3  N   UNL A   1      30.828  27.557  24.757  1.00  0.00    -0.354 N 
ATOM      4  C   UNL A   1      30.799  26.363  24.124  1.00  0.00     0.245 C 
ATOM      5  O   UNL A   1      29.979  26.314  23.193  1.00  0.00    -0.272 OA
ATOM      6  H   UNL A   1      30.143  28.192  24.446  1.00  0.00     0.163 HD
BRANCH   4   7
ATOM      7  C   UNL A   1      31.760  25.138  24.410  1.00  0.00     0.119 C 
ATOM      8  C   UNL A   1      33.253  25.368  24.718  1.00  0.00     0.038 C 
ATOM      9  C   UNL A   1      31.608  24.124  23.254  1.00  0.00     0.038 C 
ATOM     10  C   UNL A   1      34.341  25.171  23.658  1.00  0.00     0.003 C 
ATOM     11  C   UNL A   1      32.502  24.402  22.054  1.00  0.00     0.003 C 
ATOM     12  C   UNL A   1      33.977  24.405  22.404  1.00  0.00     0.000 C 
BRANCH   7  13
ATOM     13  N   UNL A   1      31.045  24.534  25.606  1.00  0.00    -0.338 N 
ATOM     14  C   UNL A   1      31.256  23.494  26.480  1.00  0.00     0.252 C 
ATOM     15  O   UNL A   1      30.546  23.419  27.483  1.00  0.00    -0.269 OA
ATOM     16  H   UNL A   1      30.210  25.014  25.808  1.00  0.00     0.164 HD
BRANCH  14  17
ATOM     17  C   UNL A   1      32.207  22.389  26.222  1.00  0.00     0.047 A 
ATOM     18  C   UNL A   1      34.438  21.574  25.830  1.00  0.00     0.165 A 
ATOM     19  C   UNL A   1      33.577  22.498  26.428  1.00  0.00     0.064 A 
ATOM     20  C   UNL A   1      33.931  20.395  25.282  1.00  0.00     0.203 A 
ATOM     21  C   UNL A   1      32.549  20.179  25.304  1.00  0.00     0.166 A 
ATOM     22  O   UNL A   1      34.817  19.477  24.771  1.00  0.00    -0.483 OA
ATOM     23  C   UNL A   1      31.686  21.194  25.709  1.00  0.00     0.064 A 
ATOM     24  O   UNL A   1      31.975  18.992  24.917  1.00  0.00    -0.486 OA
ATOM     25  C   UNL A   1      34.162  18.374  24.136  1.00  0.00     0.271 C 
ATOM     26  C   UNL A   1      32.953  17.945  24.945  1.00  0.00     0.271 C 
BRANCH  18  27
ATOM     27  O   UNL A   1      35.766  21.923  25.791  1.00  0.00    -0.493 OA
ATOM     28  C   UNL A   1      35.978  23.254  26.281  1.00  0.00     0.278 C 
ENDBRANCH  18  27
ENDBRANCH  14  17
ENDBRANCH   7  13
ENDBRANCH   4   7
ENDBRANCH   2   3
ENDBRANCH   1   2
BRANCH   1  29
ATOM     29  C   UNL A   1      34.046  28.731  26.364  1.00  0.00     0.118 C 
BRANCH  29  30
ATOM     30  N   UNL A   1      33.898  30.019  27.030  1.00  0.00    -0.352 N 
ATOM     31  C   UNL A   1      34.698  30.642  27.960  1.00  0.00     0.251 C 
ATOM     32  H   UNL A   1      33.095  30.526  26.773  1.00  0.00     0.163 HD
ATOM     33  O   UNL A   1      34.266  31.612  28.570  1.00  0.00    -0.269 OA
BRANCH  31  34
ATOM     34  C   UNL A   1      36.059  30.131  28.234  1.00  0.00     0.039 A 
ATOM     35  C   UNL A   1      37.046  30.253  27.251  1.00  0.00     0.014 A 
ATOM     36  C   UNL A   1      36.365  29.526  29.453  1.00  0.00     0.014 A 
ATOM     37  C   UNL A   1      38.350  29.832  27.527  1.00  0.00     0.010 A 
ATOM     38  C   UNL A   1      37.683  29.234  29.772  1.00  0.00     0.010 A 
ATOM     39  C   UNL A   1      38.689  29.362  28.806  1.00  0.00    -0.014 A 
BRANCH  39  40
ATOM     40  C   UNL A   1      40.078  28.961  29.151  1.00  0.00     0.031 A 
ATOM     41  C   UNL A   1      40.994  29.947  29.829  1.00  0.00     0.074 A 
ATOM     42  C   UNL A   1      40.532  27.743  28.792  1.00  0.00     0.049 A 
ATOM     43  N   UNL A   1      42.262  29.827  30.126  1.00  0.00    -0.248 NA
ATOM     44  C   UNL A   1      40.422  31.258  30.183  1.00  0.00     0.031 C 
ATOM     45  C   UNL A   1      39.757  26.724  28.078  1.00  0.00     0.029 A 
ATOM     46  N   UNL A   1      41.761  27.157  28.967  1.00  0.00    -0.354 N 
ATOM     47  C   UNL A   1      42.639  31.047  30.676  1.00  0.00     0.074 A 
ATOM     48  C   UNL A   1      41.489  31.917  30.611  1.00  0.00     0.031 C 
ATOM     49  C   UNL A   1      40.516  25.629  27.910  1.00  0.00     0.029 A 
ATOM     50  C   UNL A   1      41.844  25.882  28.457  1.00  0.00     0.049 A 
ATOM     51  H   UNL A   1      42.512  27.607  29.417  1.00  0.00     0.167 HD
ATOM     52  C   UNL A   1      43.828  31.400  31.217  1.00  0.00     0.037 A 
ATOM     53  C   UNL A   1      42.878  25.019  28.429  1.00  0.00     0.037 A 
ATOM     54  C   UNL A   1      44.954  30.511  31.321  1.00  0.00     0.049 A 
ATOM     55  C   UNL A   1      44.188  25.433  29.047  1.00  0.00     0.074 A 
ATOM     56  C   UNL A   1      46.181  30.743  31.915  1.00  0.00     0.029 A 
ATOM     57  N   UNL A   1      44.990  29.217  30.820  1.00  0.00    -0.354 N 
ATOM     58  N   UNL A   1      44.503  26.566  29.627  1.00  0.00    -0.248 NA
ATOM     59  C   UNL A   1      45.279  24.450  29.013  1.00  0.00     0.031 C 
ATOM     60  C   UNL A   1      46.977  29.609  31.729  1.00  0.00     0.029 A 
ATOM     61  C   UNL A   1      46.226  28.648  31.072  1.00  0.00     0.049 A 
ATOM     62  H   UNL A   1      44.246  28.772  30.354  1.00  0.00     0.167 HD
ATOM     63  C   UNL A   1      45.818  26.420  30.056  1.00  0.00     0.074 A 
ATOM     64  C   UNL A   1      46.233  25.084  29.680  1.00  0.00     0.031 C 
ATOM     65  C   UNL A   1      46.612  27.310  30.702  1.00  0.00     0.037 A 
BRANCH  52  66
ATOM     66  C   UNL A   1      43.972  32.799  31.754  1.00  0.00     0.058 A 
ATOM     67  C   UNL A   1      43.672  33.114  33.089  1.00  0.00     0.135 A 
ATOM     68  C   UNL A   1      44.464  33.829  30.936  1.00  0.00     0.135 A 
ATOM     69  F   UNL A   1      43.180  32.173  33.912  1.00  0.00    -0.206 F 
ATOM     70  C   UNL A   1      43.834  34.401  33.589  1.00  0.00     0.059 A 
ATOM     71  C   UNL A   1      44.665  35.118  31.423  1.00  0.00     0.059 A 
ATOM     72  F   UNL A   1      44.763  33.588  29.650  1.00  0.00    -0.206 F 
ATOM     73  C   UNL A   1      44.337  35.396  32.749  1.00  0.00     0.060 A 
BRANCH  73  74
ATOM     74  S   UNL A   1      44.570  37.053  33.424  1.00  0.00     0.124 S 
ATOM     75  O   UNL A   1      43.332  37.711  33.014  1.00  0.00    -0.237 OA
ATOM     76  O   UNL A   1      44.704  36.791  34.853  1.00  0.00    -0.237 OA
ATOM     77  O   UNL A   1      45.780  37.526  32.759  1.00  0.00    -0.744 OA
ENDBRANCH  73  74
ENDBRANCH  52  66
BRANCH  53  78
ATOM     78  C   UNL A   1      42.716  23.672  27.815  1.00  0.00     0.058 A 
ATOM     79  C   UNL A   1      42.452  22.544  28.607  1.00  0.00     0.135 A 
ATOM     80  C   UNL A   1      42.828  23.482  26.429  1.00  0.00     0.135 A 
ATOM     81  F   UNL A   1      42.338  22.671  29.938  1.00  0.00    -0.206 F 
ATOM     82  C   UNL A   1      42.334  21.273  28.052  1.00  0.00     0.059 A 
ATOM     83  C   UNL A   1      42.685  22.225  25.847  1.00  0.00     0.059 A 
ATOM     84  F   UNL A   1      43.060  24.529  25.622  1.00  0.00    -0.206 F 
ATOM     85  C   UNL A   1      42.453  21.124  26.669  1.00  0.00     0.060 A 
BRANCH  85  86
ATOM     86  S   UNL A   1      42.272  19.475  25.958  1.00  0.00     0.124 S 
ATOM     87  O   UNL A   1      40.844  19.436  25.665  1.00  0.00    -0.237 OA
ATOM     88  O   UNL A   1      43.160  19.541  24.801  1.00  0.00    -0.237 OA
ATOM     89  O   UNL A   1      42.721  18.596  27.033  1.00  0.00    -0.744 OA
ENDBRANCH  85  86
ENDBRANCH  53  78
BRANCH  65  90
ATOM     90  C   UNL A   1      47.993  26.856  31.085  1.00  0.00     0.058 A 
ATOM     91  C   UNL A   1      48.233  26.114  32.252  1.00  0.00     0.135 A 
ATOM     92  C   UNL A   1      49.084  27.119  30.238  1.00  0.00     0.135 A 
ATOM     93  F   UNL A   1      47.227  25.841  33.097  1.00  0.00    -0.206 F 
ATOM     94  C   UNL A   1      49.509  25.671  32.579  1.00  0.00     0.059 A 
ATOM     95  C   UNL A   1      50.362  26.657  30.530  1.00  0.00     0.059 A 
ATOM     96  F   UNL A   1      48.907  27.813  29.102  1.00  0.00    -0.206 F 
ATOM     97  C   UNL A   1      50.567  25.943  31.710  1.00  0.00     0.060 A 
BRANCH  97  98
ATOM     98  S   UNL A   1      52.211  25.330  32.130  1.00  0.00     0.124 S 
ATOM     99  O   UNL A   1      52.500  26.077  33.350  1.00  0.00    -0.237 OA
ATOM    100  O   UNL A   1      51.975  23.900  32.304  1.00  0.00    -0.237 OA
ATOM    101  O   UNL A   1      53.018  25.690  30.968  1.00  0.00    -0.744 OA
ENDBRANCH  97  98
ENDBRANCH  65  90
ENDBRANCH  39  40
ENDBRANCH  31  34
ENDBRANCH  29  30
ENDBRANCH   1  29
TORSDOF 16
ENDMDL
