MODEL 1
REMARK VINA RESULT:     -10.6      0.000      0.000
REMARK SMILES C[NH2+]C[C@H](C)C(=O)N[C@H](Cc1ccccc1)C(=O)NCCCNC(=O)c1ccc(-c2c3nc(c(-c4c(F)cc(S(=O)(=O)[O-])cc4F)c4ccc([nH]4)c(-c4c(F)cc(S(=O)(=O)[O-])cc4F)c4nc(c(-c5c(F)cc(S(=O)(=O)[O-])cc5F)c5ccc2[nH]5)C=C4)C=C3)cc1
REMARK SMILES IDX 20 1 19 2 17 3 18 4 9 6 8 7 6 8 7 9 4 11 5 12 3 13 2 14 1 15
REMARK SMILES IDX 10 18 11 19 12 20 16 21 13 22 15 23 14 24 21 25 22 26 23 27
REMARK SMILES IDX 24 28 25 30 26 31 27 32 91 33 28 34 90 35 29 36 30 37 31 38
REMARK SMILES IDX 84 39 32 40 89 41 83 42 85 43 33 44 88 45 82 46 81 47 34 49
REMARK SMILES IDX 68 50 47 51 67 52 48 53 51 54 66 55 86 56 49 57 50 58 65 60
REMARK SMILES IDX 87 61 52 62 35 63 36 64 45 65 37 66 38 67 44 68 46 69 39 70
REMARK SMILES IDX 40 71 41 72 42 73 43 74 69 75 70 76 79 77 71 78 72 79 78 80
REMARK SMILES IDX 80 81 73 82 74 83 75 84 76 85 77 86 53 87 54 88 63 89 55 90
REMARK SMILES IDX 56 91 62 92 64 93 57 94 58 95 59 96 60 97 61 98
REMARK H PARENT 19 5 8 10 2 16 2 17 23 29 85 48 51 59
REMARK Flexibility Score: inf
ROOT
ATOM      1  C   UNL A   1      31.491  27.257  26.511  1.00  0.00     0.117 C 
ENDROOT
BRANCH   1   2
ATOM      2  N   UNL A   1      31.108  25.943  27.036  1.00  0.00    -0.354 N 
ATOM      3  C   UNL A   1      31.569  24.682  26.707  1.00  0.00     0.242 C 
ATOM      4  O   UNL A   1      31.112  23.713  27.315  1.00  0.00    -0.273 OA
ATOM      5  H   UNL A   1      30.412  25.961  27.731  1.00  0.00     0.163 HD
BRANCH   3   6
ATOM      6  C   UNL A   1      32.645  24.511  25.579  1.00  0.00     0.175 C 
BRANCH   6   7
ATOM      7  N   UNL A   1      31.715  24.490  24.408  1.00  0.00    -0.344 N 
ATOM      8  C   UNL A   1      31.431  25.106  23.250  1.00  0.00     0.229 C 
ATOM      9  O   UNL A   1      30.452  24.672  22.630  1.00  0.00    -0.275 OA
ATOM     10  H   UNL A   1      31.075  23.753  24.534  1.00  0.00     0.164 HD
BRANCH   8  11
ATOM     11  C   UNL A   1      32.237  26.220  22.656  1.00  0.00     0.130 C 
ATOM     12  C   UNL A   1      32.977  25.650  21.448  1.00  0.00     0.024 C 
BRANCH  11  13
ATOM     13  C   UNL A   1      31.382  27.483  22.475  1.00  0.00     0.273 C 
BRANCH  13  14
ATOM     14  N   UNL A   1      32.143  28.736  22.366  1.00  0.00    -0.348 N 
ATOM     15  C   UNL A   1      33.140  28.894  23.405  1.00  0.00     0.330 C 
ATOM     16  H   UNL A   1      32.614  28.750  21.460  1.00  0.00     0.346 HD
ATOM     17  H   UNL A   1      31.478  29.503  22.464  1.00  0.00     0.346 HD
ENDBRANCH  13  14
ENDBRANCH  11  13
ENDBRANCH   8  11
ENDBRANCH   6   7
BRANCH   6  18
ATOM     18  C   UNL A   1      33.523  23.324  26.088  1.00  0.00     0.070 C 
BRANCH  18  19
ATOM     19  C   UNL A   1      34.689  22.657  25.350  1.00  0.00    -0.045 A 
ATOM     20  C   UNL A   1      35.568  21.734  25.919  1.00  0.00     0.004 A 
ATOM     21  C   UNL A   1      35.072  23.180  24.099  1.00  0.00     0.004 A 
ATOM     22  C   UNL A   1      36.789  21.386  25.326  1.00  0.00     0.000 A 
ATOM     23  C   UNL A   1      36.286  22.831  23.490  1.00  0.00     0.000 A 
ATOM     24  C   UNL A   1      37.157  21.947  24.113  1.00  0.00     0.000 A 
ENDBRANCH  18  19
ENDBRANCH   6  18
ENDBRANCH   3   6
ENDBRANCH   1   2
BRANCH   1  25
ATOM     25  C   UNL A   1      31.986  28.222  27.581  1.00  0.00     0.042 C 
BRANCH  25  26
ATOM     26  C   UNL A   1      33.378  28.775  27.317  1.00  0.00     0.118 C 
BRANCH  26  27
ATOM     27  N   UNL A   1      33.496  30.197  27.625  1.00  0.00    -0.352 N 
ATOM     28  C   UNL A   1      34.543  30.913  28.158  1.00  0.00     0.251 C 
ATOM     29  H   UNL A   1      32.695  30.731  27.418  1.00  0.00     0.163 HD
ATOM     30  O   UNL A   1      34.366  32.092  28.469  1.00  0.00    -0.269 OA
BRANCH  28  31
ATOM     31  C   UNL A   1      35.860  30.280  28.392  1.00  0.00     0.039 A 
ATOM     32  C   UNL A   1      36.795  30.261  27.352  1.00  0.00     0.014 A 
ATOM     33  C   UNL A   1      36.186  29.708  29.624  1.00  0.00     0.014 A 
ATOM     34  C   UNL A   1      38.082  29.765  27.580  1.00  0.00     0.010 A 
ATOM     35  C   UNL A   1      37.493  29.297  29.876  1.00  0.00     0.010 A 
ATOM     36  C   UNL A   1      38.461  29.335  28.862  1.00  0.00    -0.014 A 
BRANCH  36  37
ATOM     37  C   UNL A   1      39.871  28.975  29.174  1.00  0.00     0.031 A 
ATOM     38  C   UNL A   1      40.809  29.994  29.764  1.00  0.00     0.074 A 
ATOM     39  C   UNL A   1      40.325  27.748  28.843  1.00  0.00     0.049 A 
ATOM     40  N   UNL A   1      42.087  29.885  30.019  1.00  0.00    -0.248 NA
ATOM     41  C   UNL A   1      40.246  31.316  30.089  1.00  0.00     0.031 C 
ATOM     42  C   UNL A   1      39.528  26.690  28.216  1.00  0.00     0.029 A 
ATOM     43  N   UNL A   1      41.571  27.185  28.971  1.00  0.00    -0.354 N 
ATOM     44  C   UNL A   1      42.485  31.122  30.515  1.00  0.00     0.074 A 
ATOM     45  C   UNL A   1      41.321  31.980  30.489  1.00  0.00     0.031 C 
ATOM     46  C   UNL A   1      40.296  25.604  28.035  1.00  0.00     0.029 A 
ATOM     47  C   UNL A   1      41.651  25.899  28.486  1.00  0.00     0.049 A 
ATOM     48  H   UNL A   1      42.337  27.657  29.372  1.00  0.00     0.167 HD
ATOM     49  C   UNL A   1      43.705  31.499  30.964  1.00  0.00     0.037 A 
ATOM     50  C   UNL A   1      42.700  25.058  28.394  1.00  0.00     0.037 A 
ATOM     51  C   UNL A   1      44.851  30.628  31.019  1.00  0.00     0.049 A 
ATOM     52  C   UNL A   1      44.048  25.513  28.888  1.00  0.00     0.074 A 
ATOM     53  C   UNL A   1      46.104  30.892  31.544  1.00  0.00     0.029 A 
ATOM     54  N   UNL A   1      44.889  29.332  30.528  1.00  0.00    -0.354 N 
ATOM     55  N   UNL A   1      44.380  26.656  29.440  1.00  0.00    -0.248 NA
ATOM     56  C   UNL A   1      45.164  24.568  28.746  1.00  0.00     0.031 C 
ATOM     57  C   UNL A   1      46.919  29.778  31.314  1.00  0.00     0.029 A 
ATOM     58  C   UNL A   1      46.157  28.798  30.699  1.00  0.00     0.049 A 
ATOM     59  H   UNL A   1      44.128  28.860  30.117  1.00  0.00     0.167 HD
ATOM     60  C   UNL A   1      45.736  26.557  29.732  1.00  0.00     0.074 A 
ATOM     61  C   UNL A   1      46.157  25.235  29.316  1.00  0.00     0.031 C 
ATOM     62  C   UNL A   1      46.560  27.478  30.286  1.00  0.00     0.037 A 
BRANCH  49  63
ATOM     63  C   UNL A   1      43.883  32.914  31.444  1.00  0.00     0.058 A 
ATOM     64  C   UNL A   1      44.442  33.906  30.624  1.00  0.00     0.135 A 
ATOM     65  C   UNL A   1      43.397  33.302  32.704  1.00  0.00     0.135 A 
ATOM     66  F   UNL A   1      44.936  33.588  29.418  1.00  0.00    -0.206 F 
ATOM     67  C   UNL A   1      44.515  35.233  31.037  1.00  0.00     0.059 A 
ATOM     68  C   UNL A   1      43.435  34.627  33.127  1.00  0.00     0.059 A 
ATOM     69  F   UNL A   1      42.856  32.392  33.529  1.00  0.00    -0.206 F 
ATOM     70  C   UNL A   1      43.999  35.586  32.287  1.00  0.00     0.060 A 
BRANCH  70  71
ATOM     71  S   UNL A   1      44.054  37.321  32.780  1.00  0.00     0.124 S 
ATOM     72  O   UNL A   1      43.550  37.982  31.580  1.00  0.00    -0.237 OA
ATOM     73  O   UNL A   1      43.165  37.343  33.936  1.00  0.00    -0.237 OA
ATOM     74  O   UNL A   1      45.466  37.547  33.073  1.00  0.00    -0.744 OA
ENDBRANCH  70  71
ENDBRANCH  49  63
BRANCH  50  75
ATOM     75  C   UNL A   1      42.534  23.702  27.801  1.00  0.00     0.058 A 
ATOM     76  C   UNL A   1      42.420  22.566  28.618  1.00  0.00     0.135 A 
ATOM     77  C   UNL A   1      42.520  23.508  26.411  1.00  0.00     0.135 A 
ATOM     78  F   UNL A   1      42.434  22.697  29.953  1.00  0.00    -0.206 F 
ATOM     79  C   UNL A   1      42.336  21.285  28.081  1.00  0.00     0.059 A 
ATOM     80  C   UNL A   1      42.405  22.240  25.850  1.00  0.00     0.059 A 
ATOM     81  F   UNL A   1      42.610  24.560  25.583  1.00  0.00    -0.206 F 
ATOM     82  C   UNL A   1      42.334  21.133  26.693  1.00  0.00     0.060 A 
BRANCH  82  83
ATOM     83  S   UNL A   1      42.222  19.467  26.005  1.00  0.00     0.124 S 
ATOM     84  O   UNL A   1      43.085  19.576  24.834  1.00  0.00    -0.237 OA
ATOM     85  O   UNL A   1      42.730  18.647  27.099  1.00  0.00    -0.237 OA
ATOM     86  O   UNL A   1      40.797  19.315  25.726  1.00  0.00    -0.744 OA
ENDBRANCH  82  83
ENDBRANCH  50  75
BRANCH  62  87
ATOM     87  C   UNL A   1      47.997  27.086  30.499  1.00  0.00     0.058 A 
ATOM     88  C   UNL A   1      48.982  27.353  29.535  1.00  0.00     0.135 A 
ATOM     89  C   UNL A   1      48.402  26.486  31.702  1.00  0.00     0.135 A 
ATOM     90  F   UNL A   1      48.645  27.917  28.364  1.00  0.00    -0.206 F 
ATOM     91  C   UNL A   1      50.315  27.018  29.747  1.00  0.00     0.059 A 
ATOM     92  C   UNL A   1      49.736  26.171  31.947  1.00  0.00     0.059 A 
ATOM     93  F   UNL A   1      47.503  26.216  32.661  1.00  0.00    -0.206 F 
ATOM     94  C   UNL A   1      50.683  26.432  30.959  1.00  0.00     0.060 A 
BRANCH  94  95
ATOM     95  S   UNL A   1      52.424  26.040  31.235  1.00  0.00     0.124 S 
ATOM     96  O   UNL A   1      52.963  26.126  29.882  1.00  0.00    -0.237 OA
ATOM     97  O   UNL A   1      52.838  27.098  32.152  1.00  0.00    -0.237 OA
ATOM     98  O   UNL A   1      52.384  24.700  31.811  1.00  0.00    -0.744 OA
ENDBRANCH  94  95
ENDBRANCH  62  87
ENDBRANCH  36  37
ENDBRANCH  28  31
ENDBRANCH  26  27
ENDBRANCH  25  26
ENDBRANCH   1  25
TORSDOF 19
ENDMDL
MODEL 2
REMARK VINA RESULT:     -10.6      2.773      4.441
REMARK SMILES C[NH2+]C[C@H](C)C(=O)N[C@H](Cc1ccccc1)C(=O)NCCCNC(=O)c1ccc(-c2c3nc(c(-c4c(F)cc(S(=O)(=O)[O-])cc4F)c4ccc([nH]4)c(-c4c(F)cc(S(=O)(=O)[O-])cc4F)c4nc(c(-c5c(F)cc(S(=O)(=O)[O-])cc5F)c5ccc2[nH]5)C=C4)C=C3)cc1
REMARK SMILES IDX 20 1 19 2 17 3 18 4 9 6 8 7 6 8 7 9 4 11 5 12 3 13 2 14 1 15
REMARK SMILES IDX 10 18 11 19 12 20 16 21 13 22 15 23 14 24 21 25 22 26 23 27
REMARK SMILES IDX 24 28 25 30 26 31 27 32 91 33 28 34 90 35 29 36 30 37 31 38
REMARK SMILES IDX 84 39 32 40 89 41 83 42 85 43 33 44 88 45 82 46 81 47 34 49
REMARK SMILES IDX 68 50 47 51 67 52 48 53 51 54 66 55 86 56 49 57 50 58 65 60
REMARK SMILES IDX 87 61 52 62 35 63 36 64 45 65 37 66 38 67 44 68 46 69 39 70
REMARK SMILES IDX 40 71 41 72 42 73 43 74 69 75 70 76 79 77 71 78 72 79 78 80
REMARK SMILES IDX 80 81 73 82 74 83 75 84 76 85 77 86 53 87 54 88 63 89 55 90
REMARK SMILES IDX 56 91 62 92 64 93 57 94 58 95 59 96 60 97 61 98
REMARK H PARENT 19 5 8 10 2 16 2 17 23 29 85 48 51 59
REMARK Flexibility Score: inf
ROOT
ATOM      1  C   UNL A   1      33.994  28.441  26.292  1.00  0.00     0.117 C 
ENDROOT
BRANCH   1   2
ATOM      2  N   UNL A   1      34.125  28.959  24.926  1.00  0.00    -0.354 N 
ATOM      3  C   UNL A   1      33.453  28.605  23.771  1.00  0.00     0.242 C 
ATOM      4  O   UNL A   1      33.716  29.212  22.731  1.00  0.00    -0.273 OA
ATOM      5  H   UNL A   1      34.797  29.668  24.814  1.00  0.00     0.163 HD
BRANCH   3   6
ATOM      6  C   UNL A   1      32.389  27.453  23.804  1.00  0.00     0.175 C 
BRANCH   6   7
ATOM      7  N   UNL A   1      32.722  26.828  22.487  1.00  0.00    -0.344 N 
ATOM      8  C   UNL A   1      33.080  25.673  21.906  1.00  0.00     0.229 C 
ATOM      9  O   UNL A   1      33.280  25.717  20.686  1.00  0.00    -0.275 OA
ATOM     10  H   UNL A   1      32.653  27.519  21.789  1.00  0.00     0.164 HD
BRANCH   8  11
ATOM     11  C   UNL A   1      33.199  24.360  22.618  1.00  0.00     0.130 C 
ATOM     12  C   UNL A   1      34.373  24.475  23.587  1.00  0.00     0.024 C 
BRANCH  11  13
ATOM     13  C   UNL A   1      31.836  23.899  23.155  1.00  0.00     0.273 C 
BRANCH  13  14
ATOM     14  N   UNL A   1      31.442  22.538  22.761  1.00  0.00    -0.348 N 
ATOM     15  C   UNL A   1      32.363  21.519  23.221  1.00  0.00     0.330 C 
ATOM     16  H   UNL A   1      30.520  22.342  23.153  1.00  0.00     0.346 HD
ATOM     17  H   UNL A   1      31.440  22.508  21.742  1.00  0.00     0.346 HD
ENDBRANCH  13  14
ENDBRANCH  11  13
ENDBRANCH   8  11
ENDBRANCH   6   7
BRANCH   6  18
ATOM     18  C   UNL A   1      31.063  28.192  24.172  1.00  0.00     0.070 C 
BRANCH  18  19
ATOM     19  C   UNL A   1      30.013  28.739  23.199  1.00  0.00    -0.045 A 
ATOM     20  C   UNL A   1      30.233  29.772  22.286  1.00  0.00     0.004 A 
ATOM     21  C   UNL A   1      28.667  28.368  23.393  1.00  0.00     0.004 A 
ATOM     22  C   UNL A   1      29.188  30.450  21.643  1.00  0.00     0.000 A 
ATOM     23  C   UNL A   1      27.614  29.031  22.747  1.00  0.00     0.000 A 
ATOM     24  C   UNL A   1      27.873  30.088  21.884  1.00  0.00     0.000 A 
ENDBRANCH  18  19
ENDBRANCH   6  18
ENDBRANCH   3   6
ENDBRANCH   1   2
BRANCH   1  25
ATOM     25  C   UNL A   1      33.841  29.530  27.346  1.00  0.00     0.042 C 
BRANCH  25  26
ATOM     26  C   UNL A   1      35.109  30.333  27.592  1.00  0.00     0.118 C 
BRANCH  26  27
ATOM     27  N   UNL A   1      35.174  30.900  28.936  1.00  0.00    -0.352 N 
ATOM     28  C   UNL A   1      36.149  30.801  29.902  1.00  0.00     0.251 C 
ATOM     29  H   UNL A   1      34.393  31.441  29.193  1.00  0.00     0.163 HD
ATOM     30  O   UNL A   1      35.924  31.247  31.028  1.00  0.00    -0.269 OA
BRANCH  28  31
ATOM     31  C   UNL A   1      37.443  30.140  29.617  1.00  0.00     0.039 A 
ATOM     32  C   UNL A   1      37.865  30.027  28.288  1.00  0.00     0.014 A 
ATOM     33  C   UNL A   1      38.244  29.632  30.642  1.00  0.00     0.014 A 
ATOM     34  C   UNL A   1      39.129  29.504  28.001  1.00  0.00     0.010 A 
ATOM     35  C   UNL A   1      39.536  29.194  30.363  1.00  0.00     0.010 A 
ATOM     36  C   UNL A   1      40.000  29.139  29.040  1.00  0.00    -0.014 A 
BRANCH  36  37
ATOM     37  C   UNL A   1      41.411  28.751  28.769  1.00  0.00     0.031 A 
ATOM     38  C   UNL A   1      42.507  29.784  28.792  1.00  0.00     0.074 A 
ATOM     39  C   UNL A   1      41.689  27.478  28.418  1.00  0.00     0.049 A 
ATOM     40  N   UNL A   1      43.774  29.646  28.496  1.00  0.00    -0.248 NA
ATOM     41  C   UNL A   1      42.128  31.156  29.172  1.00  0.00     0.031 C 
ATOM     42  C   UNL A   1      40.705  26.396  28.308  1.00  0.00     0.029 A 
ATOM     43  N   UNL A   1      42.874  26.877  28.074  1.00  0.00    -0.354 N 
ATOM     44  C   UNL A   1      44.338  30.909  28.637  1.00  0.00     0.074 A 
ATOM     45  C   UNL A   1      43.270  31.810  29.006  1.00  0.00     0.031 C 
ATOM     46  C   UNL A   1      41.329  25.265  27.945  1.00  0.00     0.029 A 
ATOM     47  C   UNL A   1      42.746  25.545  27.748  1.00  0.00     0.049 A 
ATOM     48  H   UNL A   1      43.735  27.354  28.060  1.00  0.00     0.167 HD
ATOM     49  C   UNL A   1      45.633  31.276  28.486  1.00  0.00     0.037 A 
ATOM     50  C   UNL A   1      43.662  24.654  27.319  1.00  0.00     0.037 A 
ATOM     51  C   UNL A   1      46.698  30.366  28.152  1.00  0.00     0.049 A 
ATOM     52  C   UNL A   1      45.091  25.099  27.147  1.00  0.00     0.074 A 
ATOM     53  C   UNL A   1      48.055  30.628  28.068  1.00  0.00     0.029 A 
ATOM     54  N   UNL A   1      46.530  29.026  27.839  1.00  0.00    -0.354 N 
ATOM     55  N   UNL A   1      45.621  26.277  27.375  1.00  0.00    -0.248 NA
ATOM     56  C   UNL A   1      46.046  24.096  26.656  1.00  0.00     0.031 C 
ATOM     57  C   UNL A   1      48.700  29.462  27.644  1.00  0.00     0.029 A 
ATOM     58  C   UNL A   1      47.754  28.458  27.521  1.00  0.00     0.049 A 
ATOM     59  H   UNL A   1      45.670  28.548  27.843  1.00  0.00     0.167 HD
ATOM     60  C   UNL A   1      46.973  26.149  27.080  1.00  0.00     0.074 A 
ATOM     61  C   UNL A   1      47.185  24.774  26.677  1.00  0.00     0.031 C 
ATOM     62  C   UNL A   1      47.951  27.086  27.129  1.00  0.00     0.037 A 
BRANCH  49  63
ATOM     63  C   UNL A   1      45.992  32.725  28.684  1.00  0.00     0.058 A 
ATOM     64  C   UNL A   1      45.965  33.643  27.623  1.00  0.00     0.135 A 
ATOM     65  C   UNL A   1      46.267  33.217  29.971  1.00  0.00     0.135 A 
ATOM     66  F   UNL A   1      45.723  33.224  26.371  1.00  0.00    -0.206 F 
ATOM     67  C   UNL A   1      46.203  34.998  27.830  1.00  0.00     0.059 A 
ATOM     68  C   UNL A   1      46.482  34.572  30.205  1.00  0.00     0.059 A 
ATOM     69  F   UNL A   1      46.308  32.381  31.020  1.00  0.00    -0.206 F 
ATOM     70  C   UNL A   1      46.450  35.455  29.127  1.00  0.00     0.060 A 
BRANCH  70  71
ATOM     71  S   UNL A   1      46.701  37.224  29.381  1.00  0.00     0.124 S 
ATOM     72  O   UNL A   1      47.145  37.260  30.771  1.00  0.00    -0.237 OA
ATOM     73  O   UNL A   1      47.717  37.540  28.383  1.00  0.00    -0.237 OA
ATOM     74  O   UNL A   1      45.381  37.795  29.131  1.00  0.00    -0.744 OA
ENDBRANCH  70  71
ENDBRANCH  49  63
BRANCH  50  75
ATOM     75  C   UNL A   1      43.267  23.253  27.008  1.00  0.00     0.058 A 
ATOM     76  C   UNL A   1      42.925  22.355  28.032  1.00  0.00     0.135 A 
ATOM     77  C   UNL A   1      43.255  22.771  25.689  1.00  0.00     0.135 A 
ATOM     78  F   UNL A   1      42.926  22.763  29.310  1.00  0.00    -0.206 F 
ATOM     79  C   UNL A   1      42.622  21.023  27.765  1.00  0.00     0.059 A 
ATOM     80  C   UNL A   1      42.925  21.452  25.394  1.00  0.00     0.059 A 
ATOM     81  F   UNL A   1      43.558  23.590  24.671  1.00  0.00    -0.206 F 
ATOM     82  C   UNL A   1      42.630  20.580  26.441  1.00  0.00     0.060 A 
BRANCH  82  83
ATOM     83  S   UNL A   1      42.233  18.851  26.103  1.00  0.00     0.124 S 
ATOM     84  O   UNL A   1      40.806  18.930  25.812  1.00  0.00    -0.237 OA
ATOM     85  O   UNL A   1      43.101  18.552  24.969  1.00  0.00    -0.237 OA
ATOM     86  O   UNL A   1      42.587  18.177  27.349  1.00  0.00    -0.744 OA
ENDBRANCH  82  83
ENDBRANCH  50  75
BRANCH  62  87
ATOM     87  C   UNL A   1      49.344  26.655  26.760  1.00  0.00     0.058 A 
ATOM     88  C   UNL A   1      50.175  25.992  27.678  1.00  0.00     0.135 A 
ATOM     89  C   UNL A   1      49.834  26.857  25.460  1.00  0.00     0.135 A 
ATOM     90  F   UNL A   1      49.758  25.782  28.937  1.00  0.00    -0.206 F 
ATOM     91  C   UNL A   1      51.450  25.565  27.326  1.00  0.00     0.059 A 
ATOM     92  C   UNL A   1      51.095  26.410  25.077  1.00  0.00     0.059 A 
ATOM     93  F   UNL A   1      49.077  27.477  24.540  1.00  0.00    -0.206 F 
ATOM     94  C   UNL A   1      51.900  25.775  26.021  1.00  0.00     0.060 A 
BRANCH  94  95
ATOM     95  S   UNL A   1      53.543  25.179  25.568  1.00  0.00     0.124 S 
ATOM     96  O   UNL A   1      53.834  25.986  24.388  1.00  0.00    -0.237 OA
ATOM     97  O   UNL A   1      54.326  25.491  26.760  1.00  0.00    -0.237 OA
ATOM     98  O   UNL A   1      53.332  23.757  25.318  1.00  0.00    -0.744 OA
ENDBRANCH  94  95
ENDBRANCH  62  87
ENDBRANCH  36  37
ENDBRANCH  28  31
ENDBRANCH  26  27
ENDBRANCH  25  26
ENDBRANCH   1  25
TORSDOF 19
ENDMDL
MODEL 3
REMARK VINA RESULT:     -10.6      5.795     11.188
REMARK SMILES C[NH2+]C[C@H](C)C(=O)N[C@H](Cc1ccccc1)C(=O)NCCCNC(=O)c1ccc(-c2c3nc(c(-c4c(F)cc(S(=O)(=O)[O-])cc4F)c4ccc([nH]4)c(-c4c(F)cc(S(=O)(=O)[O-])cc4F)c4nc(c(-c5c(F)cc(S(=O)(=O)[O-])cc5F)c5ccc2[nH]5)C=C4)C=C3)cc1
REMARK SMILES IDX 20 1 19 2 17 3 18 4 9 6 8 7 6 8 7 9 4 11 5 12 3 13 2 14 1 15
REMARK SMILES IDX 10 18 11 19 12 20 16 21 13 22 15 23 14 24 21 25 22 26 23 27
REMARK SMILES IDX 24 28 25 30 26 31 27 32 91 33 28 34 90 35 29 36 30 37 31 38
REMARK SMILES IDX 84 39 32 40 89 41 83 42 85 43 33 44 88 45 82 46 81 47 34 49
REMARK SMILES IDX 68 50 47 51 67 52 48 53 51 54 66 55 86 56 49 57 50 58 65 60
REMARK SMILES IDX 87 61 52 62 35 63 36 64 45 65 37 66 38 67 44 68 46 69 39 70
REMARK SMILES IDX 40 71 41 72 42 73 43 74 69 75 70 76 79 77 71 78 72 79 78 80
REMARK SMILES IDX 80 81 73 82 74 83 75 84 76 85 77 86 53 87 54 88 63 89 55 90
REMARK SMILES IDX 56 91 62 92 64 93 57 94 58 95 59 96 60 97 61 98
REMARK H PARENT 19 5 8 10 2 16 2 17 23 29 85 48 51 59
REMARK Flexibility Score: inf
ROOT
ATOM      1  C   UNL A   1      39.747  21.740  25.992  1.00  0.00     0.117 C 
ENDROOT
BRANCH   1   2
ATOM      2  N   UNL A   1      40.889  20.833  26.145  1.00  0.00    -0.354 N 
ATOM      3  C   UNL A   1      42.245  21.102  26.162  1.00  0.00     0.242 C 
ATOM      4  O   UNL A   1      43.026  20.166  26.339  1.00  0.00    -0.273 OA
ATOM      5  H   UNL A   1      40.653  19.884  26.252  1.00  0.00     0.163 HD
BRANCH   3   6
ATOM      6  C   UNL A   1      42.755  22.570  25.955  1.00  0.00     0.175 C 
BRANCH   6   7
ATOM      7  N   UNL A   1      43.255  22.418  24.554  1.00  0.00    -0.344 N 
ATOM      8  C   UNL A   1      44.371  22.338  23.813  1.00  0.00     0.229 C 
ATOM      9  O   UNL A   1      44.207  22.245  22.591  1.00  0.00    -0.275 OA
ATOM     10  H   UNL A   1      42.478  22.351  23.953  1.00  0.00     0.164 HD
BRANCH   8  11
ATOM     11  C   UNL A   1      45.762  22.306  24.368  1.00  0.00     0.130 C 
ATOM     12  C   UNL A   1      46.135  23.739  24.742  1.00  0.00     0.024 C 
BRANCH  11  13
ATOM     13  C   UNL A   1      45.908  21.201  25.425  1.00  0.00     0.273 C 
BRANCH  13  14
ATOM     14  N   UNL A   1      46.426  19.922  24.918  1.00  0.00    -0.348 N 
ATOM     15  C   UNL A   1      45.490  19.226  24.057  1.00  0.00     0.330 C 
ATOM     16  H   UNL A   1      47.279  20.106  24.388  1.00  0.00     0.346 HD
ATOM     17  H   UNL A   1      46.598  19.324  25.726  1.00  0.00     0.346 HD
ENDBRANCH  13  14
ENDBRANCH  11  13
ENDBRANCH   8  11
ENDBRANCH   6   7
BRANCH   6  18
ATOM     18  C   UNL A   1      43.623  22.838  27.225  1.00  0.00     0.070 C 
BRANCH  18  19
ATOM     19  C   UNL A   1      43.829  24.182  27.934  1.00  0.00    -0.045 A 
ATOM     20  C   UNL A   1      44.495  25.279  27.385  1.00  0.00     0.004 A 
ATOM     21  C   UNL A   1      43.562  24.254  29.316  1.00  0.00     0.004 A 
ATOM     22  C   UNL A   1      44.934  26.362  28.158  1.00  0.00     0.000 A 
ATOM     23  C   UNL A   1      43.986  25.338  30.098  1.00  0.00     0.000 A 
ATOM     24  C   UNL A   1      44.691  26.387  29.521  1.00  0.00     0.000 A 
ENDBRANCH  18  19
ENDBRANCH   6  18
ENDBRANCH   3   6
ENDBRANCH   1   2
BRANCH   1  25
ATOM     25  C   UNL A   1      39.637  22.779  27.101  1.00  0.00     0.042 C 
BRANCH  25  26
ATOM     26  C   UNL A   1      39.242  24.164  26.612  1.00  0.00     0.118 C 
BRANCH  26  27
ATOM     27  N   UNL A   1      40.252  24.775  25.752  1.00  0.00    -0.352 N 
ATOM     28  C   UNL A   1      41.049  25.878  25.954  1.00  0.00     0.251 C 
ATOM     29  H   UNL A   1      40.382  24.324  24.886  1.00  0.00     0.163 HD
ATOM     30  O   UNL A   1      41.733  26.301  25.021  1.00  0.00    -0.269 OA
BRANCH  28  31
ATOM     31  C   UNL A   1      41.068  26.578  27.258  1.00  0.00     0.039 A 
ATOM     32  C   UNL A   1      41.729  27.806  27.355  1.00  0.00     0.014 A 
ATOM     33  C   UNL A   1      40.441  26.040  28.384  1.00  0.00     0.014 A 
ATOM     34  C   UNL A   1      41.671  28.537  28.545  1.00  0.00     0.010 A 
ATOM     35  C   UNL A   1      40.309  26.806  29.539  1.00  0.00     0.010 A 
ATOM     36  C   UNL A   1      40.909  28.071  29.628  1.00  0.00    -0.014 A 
BRANCH  36  37
ATOM     37  C   UNL A   1      40.683  28.911  30.836  1.00  0.00     0.031 A 
ATOM     38  C   UNL A   1      39.596  29.952  30.852  1.00  0.00     0.074 A 
ATOM     39  C   UNL A   1      41.519  28.790  31.888  1.00  0.00     0.049 A 
ATOM     40  N   UNL A   1      39.312  30.831  31.780  1.00  0.00    -0.248 NA
ATOM     41  C   UNL A   1      38.730  30.037  29.664  1.00  0.00     0.031 C 
ATOM     42  C   UNL A   1      42.645  27.854  31.972  1.00  0.00     0.029 A 
ATOM     43  N   UNL A   1      41.566  29.463  33.084  1.00  0.00    -0.354 N 
ATOM     44  C   UNL A   1      38.251  31.580  31.283  1.00  0.00     0.074 A 
ATOM     45  C   UNL A   1      37.965  31.080  29.956  1.00  0.00     0.031 C 
ATOM     46  C   UNL A   1      43.254  27.999  33.159  1.00  0.00     0.029 A 
ATOM     47  C   UNL A   1      42.599  29.067  33.903  1.00  0.00     0.049 A 
ATOM     48  H   UNL A   1      40.922  30.165  33.332  1.00  0.00     0.167 HD
ATOM     49  C   UNL A   1      37.568  32.582  31.888  1.00  0.00     0.037 A 
ATOM     50  C   UNL A   1      42.989  29.526  35.110  1.00  0.00     0.037 A 
ATOM     51  C   UNL A   1      37.836  33.050  33.223  1.00  0.00     0.049 A 
ATOM     52  C   UNL A   1      42.218  30.652  35.748  1.00  0.00     0.074 A 
ATOM     53  C   UNL A   1      37.139  33.997  33.954  1.00  0.00     0.029 A 
ATOM     54  N   UNL A   1      38.882  32.619  34.023  1.00  0.00    -0.354 N 
ATOM     55  N   UNL A   1      41.159  31.283  35.301  1.00  0.00    -0.248 NA
ATOM     56  C   UNL A   1      42.696  31.129  37.053  1.00  0.00     0.031 C 
ATOM     57  C   UNL A   1      37.801  34.182  35.172  1.00  0.00     0.029 A 
ATOM     58  C   UNL A   1      38.875  33.309  35.225  1.00  0.00     0.049 A 
ATOM     59  H   UNL A   1      39.534  31.924  33.775  1.00  0.00     0.167 HD
ATOM     60  C   UNL A   1      40.831  32.215  36.279  1.00  0.00     0.074 A 
ATOM     61  C   UNL A   1      41.790  32.049  37.352  1.00  0.00     0.031 C 
ATOM     62  C   UNL A   1      39.832  33.130  36.286  1.00  0.00     0.037 A 
BRANCH  49  63
ATOM     63  C   UNL A   1      36.455  33.249  31.125  1.00  0.00     0.058 A 
ATOM     64  C   UNL A   1      35.108  33.054  31.466  1.00  0.00     0.135 A 
ATOM     65  C   UNL A   1      36.748  34.171  30.106  1.00  0.00     0.135 A 
ATOM     66  F   UNL A   1      34.771  32.173  32.420  1.00  0.00    -0.206 F 
ATOM     67  C   UNL A   1      34.089  33.748  30.821  1.00  0.00     0.059 A 
ATOM     68  C   UNL A   1      35.747  34.896  29.467  1.00  0.00     0.059 A 
ATOM     69  F   UNL A   1      38.020  34.392  29.739  1.00  0.00    -0.206 F 
ATOM     70  C   UNL A   1      34.419  34.675  29.829  1.00  0.00     0.060 A 
BRANCH  70  71
ATOM     71  S   UNL A   1      33.086  35.605  29.044  1.00  0.00     0.124 S 
ATOM     72  O   UNL A   1      32.423  34.563  28.265  1.00  0.00    -0.237 OA
ATOM     73  O   UNL A   1      32.341  36.109  30.192  1.00  0.00    -0.237 OA
ATOM     74  O   UNL A   1      33.791  36.617  28.263  1.00  0.00    -0.744 OA
ENDBRANCH  70  71
ENDBRANCH  49  63
BRANCH  50  75
ATOM     75  C   UNL A   1      44.171  28.937  35.798  1.00  0.00     0.058 A 
ATOM     76  C   UNL A   1      45.465  29.421  35.551  1.00  0.00     0.135 A 
ATOM     77  C   UNL A   1      44.038  27.858  36.686  1.00  0.00     0.135 A 
ATOM     78  F   UNL A   1      45.648  30.446  34.705  1.00  0.00    -0.206 F 
ATOM     79  C   UNL A   1      46.587  28.835  36.131  1.00  0.00     0.059 A 
ATOM     80  C   UNL A   1      45.141  27.277  37.303  1.00  0.00     0.059 A 
ATOM     81  F   UNL A   1      42.822  27.366  36.970  1.00  0.00    -0.206 F 
ATOM     82  C   UNL A   1      46.414  27.759  37.003  1.00  0.00     0.060 A 
BRANCH  82  83
ATOM     83  S   UNL A   1      47.875  27.008  37.752  1.00  0.00     0.124 S 
ATOM     84  O   UNL A   1      47.538  25.589  37.689  1.00  0.00    -0.237 OA
ATOM     85  O   UNL A   1      48.941  27.452  36.861  1.00  0.00    -0.237 OA
ATOM     86  O   UNL A   1      47.902  27.590  39.090  1.00  0.00    -0.744 OA
ENDBRANCH  82  83
ENDBRANCH  50  75
BRANCH  62  87
ATOM     87  C   UNL A   1      39.706  34.011  37.500  1.00  0.00     0.058 A 
ATOM     88  C   UNL A   1      40.272  35.294  37.538  1.00  0.00     0.135 A 
ATOM     89  C   UNL A   1      38.966  33.587  38.615  1.00  0.00     0.135 A 
ATOM     90  F   UNL A   1      40.997  35.744  36.500  1.00  0.00    -0.206 F 
ATOM     91  C   UNL A   1      40.127  36.119  38.648  1.00  0.00     0.059 A 
ATOM     92  C   UNL A   1      38.782  34.408  39.724  1.00  0.00     0.059 A 
ATOM     93  F   UNL A   1      38.396  32.372  38.628  1.00  0.00    -0.206 F 
ATOM     94  C   UNL A   1      39.377  35.669  39.735  1.00  0.00     0.060 A 
BRANCH  94  95
ATOM     95  S   UNL A   1      39.164  36.767  41.152  1.00  0.00     0.124 S 
ATOM     96  O   UNL A   1      40.522  36.829  41.682  1.00  0.00    -0.237 OA
ATOM     97  O   UNL A   1      38.670  37.990  40.526  1.00  0.00    -0.237 OA
ATOM     98  O   UNL A   1      38.196  36.062  41.986  1.00  0.00    -0.744 OA
ENDBRANCH  94  95
ENDBRANCH  62  87
ENDBRANCH  36  37
ENDBRANCH  28  31
ENDBRANCH  26  27
ENDBRANCH  25  26
ENDBRANCH   1  25
TORSDOF 19
ENDMDL
