MODEL 1
REMARK VINA RESULT:     -12.5      0.000      0.000
REMARK SMILES O=C(NCCCNC(=O)[C@@H]1C[C@@H]1C(=O)Nc1cc(F)ccc1F)c1ccc(-c2c3nc(c(-c4c(F)cc(S(=O)(=O)[O-])cc4F)c4ccc([nH]4)c(-c4c(F)cc(S(=O)(=O)[O-])cc4F)c4nc(c(-c5c(F)cc(S(=O)(=O)[O-])cc5F)c5ccc2[nH]5)C=C4)C=C3)cc1
REMARK SMILES IDX 4 1 3 2 1 3 2 4 24 6 25 7 89 8 26 9 88 10 27 11 28 12 29 13
REMARK SMILES IDX 82 14 30 15 87 16 81 17 83 18 31 19 86 20 80 21 79 22 32 24
REMARK SMILES IDX 66 25 45 26 65 27 46 28 49 29 64 30 84 31 47 32 48 33 63 35
REMARK SMILES IDX 85 36 50 37 33 38 34 39 43 40 35 41 36 42 42 43 44 44 37 45
REMARK SMILES IDX 38 46 39 47 40 48 41 49 67 50 68 51 77 52 69 53 70 54 76 55
REMARK SMILES IDX 78 56 71 57 72 58 73 59 74 60 75 61 51 62 52 63 61 64 53 65
REMARK SMILES IDX 54 66 60 67 62 68 55 69 56 70 57 71 58 72 59 73 5 74 6 75
REMARK SMILES IDX 7 76 8 77 9 79 10 80 11 81 12 82 13 83 14 84 15 85 16 87
REMARK SMILES IDX 17 88 22 89 18 90 21 91 23 92 19 93 20 94
REMARK H PARENT 3 5 83 23 49 34 7 78 15 86
REMARK Flexibility Score: inf
ROOT
ATOM      1  C   UNL A   1      39.845  23.356  26.959  1.00  0.00     0.118 C 
ENDROOT
BRANCH   1   2
ATOM      2  N   UNL A   1      40.736  24.040  26.026  1.00  0.00    -0.352 N 
ATOM      3  O   UNL A   1      41.841  25.746  25.054  1.00  0.00    -0.269 OA
ATOM      4  C   UNL A   1      41.222  25.329  26.029  1.00  0.00     0.251 C 
ATOM      5  H   UNL A   1      41.040  23.489  25.270  1.00  0.00     0.163 HD
BRANCH   4   6
ATOM      6  C   UNL A   1      40.968  26.219  27.182  1.00  0.00     0.039 A 
ATOM      7  C   UNL A   1      41.663  27.418  27.315  1.00  0.00     0.014 A 
ATOM      8  C   UNL A   1      40.026  25.856  28.151  1.00  0.00     0.014 A 
ATOM      9  C   UNL A   1      41.599  28.123  28.506  1.00  0.00     0.010 A 
ATOM     10  C   UNL A   1      39.847  26.656  29.286  1.00  0.00     0.010 A 
ATOM     11  C   UNL A   1      40.663  27.776  29.494  1.00  0.00    -0.014 A 
BRANCH  11  12
ATOM     12  C   UNL A   1      40.526  28.668  30.676  1.00  0.00     0.031 A 
ATOM     13  C   UNL A   1      41.465  28.581  31.848  1.00  0.00     0.074 A 
ATOM     14  C   UNL A   1      39.572  29.623  30.638  1.00  0.00     0.049 A 
ATOM     15  N   UNL A   1      41.501  29.324  32.925  1.00  0.00    -0.248 NA
ATOM     16  C   UNL A   1      42.488  27.523  31.820  1.00  0.00     0.031 C 
ATOM     17  C   UNL A   1      38.591  29.789  29.558  1.00  0.00     0.029 A 
ATOM     18  N   UNL A   1      39.290  30.654  31.494  1.00  0.00    -0.354 N 
ATOM     19  C   UNL A   1      42.530  28.815  33.711  1.00  0.00     0.074 A 
ATOM     20  C   UNL A   1      43.081  27.685  32.996  1.00  0.00     0.031 C 
ATOM     21  C   UNL A   1      37.877  30.900  29.775  1.00  0.00     0.029 A 
ATOM     22  C   UNL A   1      38.280  31.475  31.050  1.00  0.00     0.049 A 
ATOM     23  H   UNL A   1      39.766  30.795  32.345  1.00  0.00     0.167 HD
ATOM     24  C   UNL A   1      42.972  29.258  34.912  1.00  0.00     0.037 A 
ATOM     25  C   UNL A   1      37.718  32.560  31.613  1.00  0.00     0.037 A 
ATOM     26  C   UNL A   1      42.425  30.401  35.603  1.00  0.00     0.049 A 
ATOM     27  C   UNL A   1      38.227  33.023  32.946  1.00  0.00     0.074 A 
ATOM     28  C   UNL A   1      42.814  30.941  36.817  1.00  0.00     0.029 A 
ATOM     29  N   UNL A   1      41.376  31.184  35.140  1.00  0.00    -0.354 N 
ATOM     30  N   UNL A   1      39.204  32.528  33.668  1.00  0.00    -0.248 NA
ATOM     31  C   UNL A   1      37.553  34.179  33.546  1.00  0.00     0.031 C 
ATOM     32  C   UNL A   1      41.978  32.024  37.106  1.00  0.00     0.029 A 
ATOM     33  C   UNL A   1      41.095  32.190  36.050  1.00  0.00     0.049 A 
ATOM     34  H   UNL A   1      40.902  31.044  34.288  1.00  0.00     0.167 HD
ATOM     35  C   UNL A   1      39.262  33.314  34.811  1.00  0.00     0.074 A 
ATOM     36  C   UNL A   1      38.246  34.337  34.665  1.00  0.00     0.031 C 
ATOM     37  C   UNL A   1      40.074  33.194  35.889  1.00  0.00     0.037 A 
BRANCH  24  38
ATOM     38  C   UNL A   1      44.095  28.508  35.575  1.00  0.00     0.058 A 
ATOM     39  C   UNL A   1      45.441  28.832  35.338  1.00  0.00     0.135 A 
ATOM     40  C   UNL A   1      43.823  27.502  36.517  1.00  0.00     0.135 A 
ATOM     41  F   UNL A   1      45.760  29.773  34.436  1.00  0.00    -0.206 F 
ATOM     42  C   UNL A   1      46.475  28.180  36.003  1.00  0.00     0.059 A 
ATOM     43  C   UNL A   1      44.840  26.851  37.211  1.00  0.00     0.059 A 
ATOM     44  F   UNL A   1      42.555  27.151  36.782  1.00  0.00    -0.206 F 
ATOM     45  C   UNL A   1      46.164  27.192  36.942  1.00  0.00     0.060 A 
BRANCH  45  46
ATOM     46  S   UNL A   1      47.518  26.376  37.815  1.00  0.00     0.124 S 
ATOM     47  O   UNL A   1      48.387  25.988  36.708  1.00  0.00    -0.237 OA
ATOM     48  O   UNL A   1      48.025  27.443  38.672  1.00  0.00    -0.237 OA
ATOM     49  O   UNL A   1      46.860  25.276  38.512  1.00  0.00    -0.744 OA
ENDBRANCH  45  46
ENDBRANCH  24  38
BRANCH  25  50
ATOM     50  C   UNL A   1      36.591  33.250  30.933  1.00  0.00     0.058 A 
ATOM     51  C   UNL A   1      35.272  33.118  31.392  1.00  0.00     0.135 A 
ATOM     52  C   UNL A   1      36.817  34.071  29.817  1.00  0.00     0.135 A 
ATOM     53  F   UNL A   1      35.006  32.344  32.455  1.00  0.00    -0.206 F 
ATOM     54  C   UNL A   1      34.214  33.757  30.754  1.00  0.00     0.059 A 
ATOM     55  C   UNL A   1      35.780  34.745  29.183  1.00  0.00     0.059 A 
ATOM     56  F   UNL A   1      38.064  34.249  29.353  1.00  0.00    -0.206 F 
ATOM     57  C   UNL A   1      34.479  34.568  29.648  1.00  0.00     0.060 A 
BRANCH  57  58
ATOM     58  S   UNL A   1      33.107  35.420  28.842  1.00  0.00     0.124 S 
ATOM     59  O   UNL A   1      32.509  34.339  28.068  1.00  0.00    -0.237 OA
ATOM     60  O   UNL A   1      32.329  35.900  29.979  1.00  0.00    -0.237 OA
ATOM     61  O   UNL A   1      33.773  36.462  28.064  1.00  0.00    -0.744 OA
ENDBRANCH  57  58
ENDBRANCH  25  50
BRANCH  37  62
ATOM     62  C   UNL A   1      39.896  34.206  36.983  1.00  0.00     0.058 A 
ATOM     63  C   UNL A   1      39.084  33.945  38.098  1.00  0.00     0.135 A 
ATOM     64  C   UNL A   1      40.548  35.447  36.919  1.00  0.00     0.135 A 
ATOM     65  F   UNL A   1      38.432  32.776  38.199  1.00  0.00    -0.206 F 
ATOM     66  C   UNL A   1      38.895  34.894  39.095  1.00  0.00     0.059 A 
ATOM     67  C   UNL A   1      40.395  36.401  37.918  1.00  0.00     0.059 A 
ATOM     68  F   UNL A   1      41.342  35.742  35.877  1.00  0.00    -0.206 F 
ATOM     69  C   UNL A   1      39.552  36.122  38.994  1.00  0.00     0.060 A 
BRANCH  69  70
ATOM     70  S   UNL A   1      39.305  37.346  40.297  1.00  0.00     0.124 S 
ATOM     71  O   UNL A   1      38.595  36.563  41.304  1.00  0.00    -0.237 OA
ATOM     72  O   UNL A   1      40.673  37.724  40.638  1.00  0.00    -0.237 OA
ATOM     73  O   UNL A   1      38.519  38.386  39.641  1.00  0.00    -0.744 OA
ENDBRANCH  69  70
ENDBRANCH  37  62
ENDBRANCH  11  12
ENDBRANCH   4   6
ENDBRANCH   1   2
BRANCH   1  74
ATOM     74  C   UNL A   1      39.360  22.008  26.451  1.00  0.00     0.042 C 
BRANCH  74  75
ATOM     75  C   UNL A   1      38.121  22.097  25.581  1.00  0.00     0.117 C 
BRANCH  75  76
ATOM     76  N   UNL A   1      36.894  21.894  26.322  1.00  0.00    -0.356 N 
ATOM     77  C   UNL A   1      35.627  21.712  25.859  1.00  0.00     0.223 C 
ATOM     78  H   UNL A   1      36.991  21.885  27.302  1.00  0.00     0.163 HD
ATOM     79  O   UNL A   1      34.707  21.517  26.648  1.00  0.00    -0.275 OA
BRANCH  77  80
ATOM     80  C   UNL A   1      35.337  21.832  24.412  1.00  0.00     0.091 C 
ATOM     81  C   UNL A   1      34.979  23.226  23.928  1.00  0.00     0.028 C 
ATOM     82  C   UNL A   1      33.989  22.106  23.778  1.00  0.00     0.092 C 
BRANCH  82  83
ATOM     83  C   UNL A   1      32.728  22.094  24.564  1.00  0.00     0.228 C 
ATOM     84  O   UNL A   1      32.224  23.144  24.953  1.00  0.00    -0.274 OA
ATOM     85  N   UNL A   1      32.072  20.908  24.796  1.00  0.00    -0.323 N 
ATOM     86  H   UNL A   1      31.195  21.011  25.231  1.00  0.00     0.170 HD
BRANCH  85  87
ATOM     87  C   UNL A   1      32.426  19.571  24.525  1.00  0.00     0.080 A 
ATOM     88  C   UNL A   1      32.850  18.653  25.484  1.00  0.00     0.068 A 
ATOM     89  C   UNL A   1      32.340  19.151  23.189  1.00  0.00     0.146 A 
ATOM     90  C   UNL A   1      33.267  17.382  25.087  1.00  0.00     0.125 A 
ATOM     91  C   UNL A   1      32.769  17.886  22.793  1.00  0.00     0.044 A 
ATOM     92  F   UNL A   1      31.896  20.006  22.255  1.00  0.00    -0.205 F 
ATOM     93  F   UNL A   1      33.705  16.520  26.012  1.00  0.00    -0.207 F 
ATOM     94  C   UNL A   1      33.253  16.999  23.750  1.00  0.00     0.042 A 
ENDBRANCH  85  87
ENDBRANCH  82  83
ENDBRANCH  77  80
ENDBRANCH  75  76
ENDBRANCH  74  75
ENDBRANCH   1  74
TORSDOF 15
ENDMDL
MODEL 2
REMARK VINA RESULT:     -12.4      0.196      1.488
REMARK SMILES O=C(NCCCNC(=O)[C@@H]1C[C@@H]1C(=O)Nc1cc(F)ccc1F)c1ccc(-c2c3nc(c(-c4c(F)cc(S(=O)(=O)[O-])cc4F)c4ccc([nH]4)c(-c4c(F)cc(S(=O)(=O)[O-])cc4F)c4nc(c(-c5c(F)cc(S(=O)(=O)[O-])cc5F)c5ccc2[nH]5)C=C4)C=C3)cc1
REMARK SMILES IDX 4 1 3 2 1 3 2 4 24 6 25 7 89 8 26 9 88 10 27 11 28 12 29 13
REMARK SMILES IDX 82 14 30 15 87 16 81 17 83 18 31 19 86 20 80 21 79 22 32 24
REMARK SMILES IDX 66 25 45 26 65 27 46 28 49 29 64 30 84 31 47 32 48 33 63 35
REMARK SMILES IDX 85 36 50 37 33 38 34 39 43 40 35 41 36 42 42 43 44 44 37 45
REMARK SMILES IDX 38 46 39 47 40 48 41 49 67 50 68 51 77 52 69 53 70 54 76 55
REMARK SMILES IDX 78 56 71 57 72 58 73 59 74 60 75 61 51 62 52 63 61 64 53 65
REMARK SMILES IDX 54 66 60 67 62 68 55 69 56 70 57 71 58 72 59 73 5 74 6 75
REMARK SMILES IDX 7 76 8 77 9 79 10 80 11 81 12 82 13 83 14 84 15 85 16 87
REMARK SMILES IDX 17 88 22 89 18 90 21 91 23 92 19 93 20 94
REMARK H PARENT 3 5 83 23 49 34 7 78 15 86
REMARK Flexibility Score: inf
ROOT
ATOM      1  C   UNL A   1      40.138  23.291  27.037  1.00  0.00     0.118 C 
ENDROOT
BRANCH   1   2
ATOM      2  N   UNL A   1      40.895  24.043  26.041  1.00  0.00    -0.352 N 
ATOM      3  O   UNL A   1      41.763  25.832  24.982  1.00  0.00    -0.269 OA
ATOM      4  C   UNL A   1      41.253  25.372  25.999  1.00  0.00     0.251 C 
ATOM      5  H   UNL A   1      41.201  23.512  25.271  1.00  0.00     0.163 HD
BRANCH   4   6
ATOM      6  C   UNL A   1      40.991  26.252  27.159  1.00  0.00     0.039 A 
ATOM      7  C   UNL A   1      41.756  27.395  27.366  1.00  0.00     0.014 A 
ATOM      8  C   UNL A   1      39.968  25.933  28.060  1.00  0.00     0.014 A 
ATOM      9  C   UNL A   1      41.667  28.076  28.569  1.00  0.00     0.010 A 
ATOM     10  C   UNL A   1      39.775  26.718  29.203  1.00  0.00     0.010 A 
ATOM     11  C   UNL A   1      40.651  27.773  29.490  1.00  0.00    -0.014 A 
BRANCH  11  12
ATOM     12  C   UNL A   1      40.503  28.646  30.685  1.00  0.00     0.031 A 
ATOM     13  C   UNL A   1      41.425  28.531  31.868  1.00  0.00     0.074 A 
ATOM     14  C   UNL A   1      39.556  29.607  30.651  1.00  0.00     0.049 A 
ATOM     15  N   UNL A   1      41.451  29.256  32.959  1.00  0.00    -0.248 NA
ATOM     16  C   UNL A   1      42.442  27.467  31.836  1.00  0.00     0.031 C 
ATOM     17  C   UNL A   1      38.592  29.798  29.560  1.00  0.00     0.029 A 
ATOM     18  N   UNL A   1      39.269  30.625  31.520  1.00  0.00    -0.354 N 
ATOM     19  C   UNL A   1      42.465  28.726  33.750  1.00  0.00     0.074 A 
ATOM     20  C   UNL A   1      43.019  27.605  33.024  1.00  0.00     0.031 C 
ATOM     21  C   UNL A   1      37.881  30.910  29.786  1.00  0.00     0.029 A 
ATOM     22  C   UNL A   1      38.270  31.460  31.076  1.00  0.00     0.049 A 
ATOM     23  H   UNL A   1      39.733  30.748  32.380  1.00  0.00     0.167 HD
ATOM     24  C   UNL A   1      42.892  29.145  34.965  1.00  0.00     0.037 A 
ATOM     25  C   UNL A   1      37.707  32.539  31.650  1.00  0.00     0.037 A 
ATOM     26  C   UNL A   1      42.343  30.280  35.667  1.00  0.00     0.049 A 
ATOM     27  C   UNL A   1      38.200  32.975  32.998  1.00  0.00     0.074 A 
ATOM     28  C   UNL A   1      42.719  30.796  36.897  1.00  0.00     0.029 A 
ATOM     29  N   UNL A   1      41.307  31.077  35.203  1.00  0.00    -0.354 N 
ATOM     30  N   UNL A   1      39.163  32.461  33.725  1.00  0.00    -0.248 NA
ATOM     31  C   UNL A   1      37.525  34.125  33.608  1.00  0.00     0.031 C 
ATOM     32  C   UNL A   1      41.886  31.879  37.192  1.00  0.00     0.029 A 
ATOM     33  C   UNL A   1      41.019  32.069  36.127  1.00  0.00     0.049 A 
ATOM     34  H   UNL A   1      40.844  30.956  34.343  1.00  0.00     0.167 HD
ATOM     35  C   UNL A   1      39.211  33.227  34.882  1.00  0.00     0.074 A 
ATOM     36  C   UNL A   1      38.203  34.259  34.740  1.00  0.00     0.031 C 
ATOM     37  C   UNL A   1      40.007  33.083  35.969  1.00  0.00     0.037 A 
BRANCH  24  38
ATOM     38  C   UNL A   1      44.002  28.376  35.630  1.00  0.00     0.058 A 
ATOM     39  C   UNL A   1      45.353  28.678  35.396  1.00  0.00     0.135 A 
ATOM     40  C   UNL A   1      43.710  27.375  36.572  1.00  0.00     0.135 A 
ATOM     41  F   UNL A   1      45.690  29.613  34.495  1.00  0.00    -0.206 F 
ATOM     42  C   UNL A   1      46.374  28.008  36.063  1.00  0.00     0.059 A 
ATOM     43  C   UNL A   1      44.715  26.707  37.268  1.00  0.00     0.059 A 
ATOM     44  F   UNL A   1      42.436  27.046  36.834  1.00  0.00    -0.206 F 
ATOM     45  C   UNL A   1      46.045  27.026  37.001  1.00  0.00     0.060 A 
BRANCH  45  46
ATOM     46  S   UNL A   1      47.384  26.188  37.878  1.00  0.00     0.124 S 
ATOM     47  O   UNL A   1      47.579  27.070  39.025  1.00  0.00    -0.237 OA
ATOM     48  O   UNL A   1      46.795  24.886  38.175  1.00  0.00    -0.237 OA
ATOM     49  O   UNL A   1      48.472  26.174  36.905  1.00  0.00    -0.744 OA
ENDBRANCH  45  46
ENDBRANCH  24  38
BRANCH  25  50
ATOM     50  C   UNL A   1      36.594  33.248  30.967  1.00  0.00     0.058 A 
ATOM     51  C   UNL A   1      36.826  34.057  29.845  1.00  0.00     0.135 A 
ATOM     52  C   UNL A   1      35.271  33.117  31.418  1.00  0.00     0.135 A 
ATOM     53  F   UNL A   1      38.073  34.214  29.377  1.00  0.00    -0.206 F 
ATOM     54  C   UNL A   1      35.788  34.728  29.207  1.00  0.00     0.059 A 
ATOM     55  C   UNL A   1      34.214  33.752  30.778  1.00  0.00     0.059 A 
ATOM     56  F   UNL A   1      34.994  32.337  32.475  1.00  0.00    -0.206 F 
ATOM     57  C   UNL A   1      34.484  34.570  29.683  1.00  0.00     0.060 A 
BRANCH  57  58
ATOM     58  S   UNL A   1      33.136  35.419  28.834  1.00  0.00     0.124 S 
ATOM     59  O   UNL A   1      33.865  36.402  28.041  1.00  0.00    -0.237 OA
ATOM     60  O   UNL A   1      32.508  34.334  28.088  1.00  0.00    -0.237 OA
ATOM     61  O   UNL A   1      32.338  35.958  29.932  1.00  0.00    -0.744 OA
ENDBRANCH  57  58
ENDBRANCH  25  50
BRANCH  37  62
ATOM     62  C   UNL A   1      39.820  34.077  37.078  1.00  0.00     0.058 A 
ATOM     63  C   UNL A   1      40.420  35.346  37.033  1.00  0.00     0.135 A 
ATOM     64  C   UNL A   1      39.028  33.763  38.193  1.00  0.00     0.135 A 
ATOM     65  F   UNL A   1      41.195  35.690  35.992  1.00  0.00    -0.206 F 
ATOM     66  C   UNL A   1      40.272  36.255  38.073  1.00  0.00     0.059 A 
ATOM     67  C   UNL A   1      38.843  34.667  39.232  1.00  0.00     0.059 A 
ATOM     68  F   UNL A   1      38.426  32.566  38.279  1.00  0.00    -0.206 F 
ATOM     69  C   UNL A   1      39.485  35.904  39.172  1.00  0.00     0.060 A 
BRANCH  69  70
ATOM     70  S   UNL A   1      39.294  37.094  40.515  1.00  0.00     0.124 S 
ATOM     71  O   UNL A   1      40.684  37.377  40.856  1.00  0.00    -0.237 OA
ATOM     72  O   UNL A   1      38.565  38.183  39.870  1.00  0.00    -0.237 OA
ATOM     73  O   UNL A   1      38.538  36.353  41.520  1.00  0.00    -0.744 OA
ENDBRANCH  69  70
ENDBRANCH  37  62
ENDBRANCH  11  12
ENDBRANCH   4   6
ENDBRANCH   1   2
BRANCH   1  74
ATOM     74  C   UNL A   1      39.286  22.184  26.438  1.00  0.00     0.042 C 
BRANCH  74  75
ATOM     75  C   UNL A   1      38.037  22.688  25.741  1.00  0.00     0.117 C 
BRANCH  75  76
ATOM     76  N   UNL A   1      36.818  22.313  26.425  1.00  0.00    -0.356 N 
ATOM     77  C   UNL A   1      35.634  21.885  25.905  1.00  0.00     0.223 C 
ATOM     78  H   UNL A   1      36.850  22.375  27.407  1.00  0.00     0.163 HD
ATOM     79  O   UNL A   1      34.712  21.574  26.654  1.00  0.00    -0.275 OA
BRANCH  77  80
ATOM     80  C   UNL A   1      35.424  21.872  24.440  1.00  0.00     0.091 C 
ATOM     81  C   UNL A   1      35.076  23.211  23.815  1.00  0.00     0.028 C 
ATOM     82  C   UNL A   1      34.110  22.065  23.712  1.00  0.00     0.092 C 
BRANCH  82  83
ATOM     83  C   UNL A   1      32.807  22.098  24.425  1.00  0.00     0.228 C 
ATOM     84  O   UNL A   1      32.307  23.169  24.760  1.00  0.00    -0.274 OA
ATOM     85  N   UNL A   1      32.114  20.932  24.649  1.00  0.00    -0.323 N 
ATOM     86  H   UNL A   1      31.216  21.065  25.032  1.00  0.00     0.170 HD
BRANCH  85  87
ATOM     87  C   UNL A   1      32.451  19.582  24.431  1.00  0.00     0.080 A 
ATOM     88  C   UNL A   1      32.861  18.696  25.426  1.00  0.00     0.068 A 
ATOM     89  C   UNL A   1      32.365  19.113  23.111  1.00  0.00     0.146 A 
ATOM     90  C   UNL A   1      33.264  17.407  25.079  1.00  0.00     0.125 A 
ATOM     91  C   UNL A   1      32.781  17.829  22.765  1.00  0.00     0.044 A 
ATOM     92  F   UNL A   1      31.935  19.936  22.143  1.00  0.00    -0.205 F 
ATOM     93  F   UNL A   1      33.688  16.575  26.039  1.00  0.00    -0.207 F 
ATOM     94  C   UNL A   1      33.250  16.973  23.758  1.00  0.00     0.042 A 
ENDBRANCH  85  87
ENDBRANCH  82  83
ENDBRANCH  77  80
ENDBRANCH  75  76
ENDBRANCH  74  75
ENDBRANCH   1  74
TORSDOF 15
ENDMDL
MODEL 3
REMARK VINA RESULT:     -12.3      7.387     12.653
REMARK SMILES O=C(NCCCNC(=O)[C@@H]1C[C@@H]1C(=O)Nc1cc(F)ccc1F)c1ccc(-c2c3nc(c(-c4c(F)cc(S(=O)(=O)[O-])cc4F)c4ccc([nH]4)c(-c4c(F)cc(S(=O)(=O)[O-])cc4F)c4nc(c(-c5c(F)cc(S(=O)(=O)[O-])cc5F)c5ccc2[nH]5)C=C4)C=C3)cc1
REMARK SMILES IDX 4 1 3 2 1 3 2 4 24 6 25 7 89 8 26 9 88 10 27 11 28 12 29 13
REMARK SMILES IDX 82 14 30 15 87 16 81 17 83 18 31 19 86 20 80 21 79 22 32 24
REMARK SMILES IDX 66 25 45 26 65 27 46 28 49 29 64 30 84 31 47 32 48 33 63 35
REMARK SMILES IDX 85 36 50 37 33 38 34 39 43 40 35 41 36 42 42 43 44 44 37 45
REMARK SMILES IDX 38 46 39 47 40 48 41 49 67 50 68 51 77 52 69 53 70 54 76 55
REMARK SMILES IDX 78 56 71 57 72 58 73 59 74 60 75 61 51 62 52 63 61 64 53 65
REMARK SMILES IDX 54 66 60 67 62 68 55 69 56 70 57 71 58 72 59 73 5 74 6 75
REMARK SMILES IDX 7 76 8 77 9 79 10 80 11 81 12 82 13 83 14 84 15 85 16 87
REMARK SMILES IDX 17 88 22 89 18 90 21 91 23 92 19 93 20 94
REMARK H PARENT 3 5 83 23 49 34 7 78 15 86
REMARK Flexibility Score: inf
ROOT
ATOM      1  C   UNL A   1      35.658  31.392  28.433  1.00  0.00     0.118 C 
ENDROOT
BRANCH   1   2
ATOM      2  N   UNL A   1      35.595  31.004  29.838  1.00  0.00    -0.352 N 
ATOM      3  O   UNL A   1      36.143  29.929  31.741  1.00  0.00    -0.269 OA
ATOM      4  C   UNL A   1      36.470  30.272  30.609  1.00  0.00     0.251 C 
ATOM      5  H   UNL A   1      34.793  31.318  30.315  1.00  0.00     0.163 HD
BRANCH   4   6
ATOM      6  C   UNL A   1      37.784  29.866  30.063  1.00  0.00     0.039 A 
ATOM      7  C   UNL A   1      38.765  29.342  30.899  1.00  0.00     0.014 A 
ATOM      8  C   UNL A   1      38.047  30.012  28.696  1.00  0.00     0.014 A 
ATOM      9  C   UNL A   1      40.061  29.192  30.432  1.00  0.00     0.010 A 
ATOM     10  C   UNL A   1      39.319  29.709  28.194  1.00  0.00     0.010 A 
ATOM     11  C   UNL A   1      40.350  29.336  29.066  1.00  0.00    -0.014 A 
BRANCH  11  12
ATOM     12  C   UNL A   1      41.722  29.000  28.600  1.00  0.00     0.031 A 
ATOM     13  C   UNL A   1      42.842  30.002  28.645  1.00  0.00     0.074 A 
ATOM     14  C   UNL A   1      41.959  27.732  28.200  1.00  0.00     0.049 A 
ATOM     15  N   UNL A   1      44.100  29.840  28.320  1.00  0.00    -0.248 NA
ATOM     16  C   UNL A   1      42.516  31.364  29.101  1.00  0.00     0.031 C 
ATOM     17  C   UNL A   1      40.941  26.679  28.097  1.00  0.00     0.029 A 
ATOM     18  N   UNL A   1      43.120  27.097  27.847  1.00  0.00    -0.354 N 
ATOM     19  C   UNL A   1      44.711  31.075  28.510  1.00  0.00     0.074 A 
ATOM     20  C   UNL A   1      43.681  31.986  28.959  1.00  0.00     0.031 C 
ATOM     21  C   UNL A   1      41.534  25.518  27.791  1.00  0.00     0.029 A 
ATOM     22  C   UNL A   1      42.954  25.757  27.585  1.00  0.00     0.049 A 
ATOM     23  H   UNL A   1      43.990  27.556  27.789  1.00  0.00     0.167 HD
ATOM     24  C   UNL A   1      46.011  31.409  28.331  1.00  0.00     0.037 A 
ATOM     25  C   UNL A   1      43.840  24.822  27.196  1.00  0.00     0.037 A 
ATOM     26  C   UNL A   1      47.032  30.483  27.903  1.00  0.00     0.049 A 
ATOM     27  C   UNL A   1      45.272  25.225  27.002  1.00  0.00     0.074 A 
ATOM     28  C   UNL A   1      48.382  30.720  27.708  1.00  0.00     0.029 A 
ATOM     29  N   UNL A   1      46.818  29.144  27.609  1.00  0.00    -0.354 N 
ATOM     30  N   UNL A   1      45.827  26.399  27.192  1.00  0.00    -0.248 NA
ATOM     31  C   UNL A   1      46.193  24.186  26.531  1.00  0.00     0.031 C 
ATOM     32  C   UNL A   1      48.976  29.536  27.260  1.00  0.00     0.029 A 
ATOM     33  C   UNL A   1      48.007  28.547  27.219  1.00  0.00     0.049 A 
ATOM     34  H   UNL A   1      45.949  28.685  27.670  1.00  0.00     0.167 HD
ATOM     35  C   UNL A   1      47.166  26.239  26.863  1.00  0.00     0.074 A 
ATOM     36  C   UNL A   1      47.342  24.848  26.497  1.00  0.00     0.031 C 
ATOM     37  C   UNL A   1      48.158  27.162  26.852  1.00  0.00     0.037 A 
BRANCH  24  38
ATOM     38  C   UNL A   1      46.417  32.836  28.583  1.00  0.00     0.058 A 
ATOM     39  C   UNL A   1      46.364  33.809  27.572  1.00  0.00     0.135 A 
ATOM     40  C   UNL A   1      46.791  33.254  29.871  1.00  0.00     0.135 A 
ATOM     41  F   UNL A   1      46.029  33.464  26.319  1.00  0.00    -0.206 F 
ATOM     42  C   UNL A   1      46.677  35.141  27.826  1.00  0.00     0.059 A 
ATOM     43  C   UNL A   1      47.087  34.586  30.154  1.00  0.00     0.059 A 
ATOM     44  F   UNL A   1      46.860  32.366  30.875  1.00  0.00    -0.206 F 
ATOM     45  C   UNL A   1      47.034  35.521  29.122  1.00  0.00     0.060 A 
BRANCH  45  46
ATOM     46  S   UNL A   1      47.410  37.259  29.440  1.00  0.00     0.124 S 
ATOM     47  O   UNL A   1      46.093  37.782  29.790  1.00  0.00    -0.237 OA
ATOM     48  O   UNL A   1      48.369  37.176  30.536  1.00  0.00    -0.237 OA
ATOM     49  O   UNL A   1      47.953  37.727  28.169  1.00  0.00    -0.744 OA
ENDBRANCH  45  46
ENDBRANCH  24  38
BRANCH  25  50
ATOM     50  C   UNL A   1      43.386  23.432  26.931  1.00  0.00     0.058 A 
ATOM     51  C   UNL A   1      43.247  22.948  25.623  1.00  0.00     0.135 A 
ATOM     52  C   UNL A   1      43.095  22.555  27.988  1.00  0.00     0.135 A 
ATOM     53  F   UNL A   1      43.512  23.748  24.579  1.00  0.00    -0.206 F 
ATOM     54  C   UNL A   1      42.815  21.650  25.371  1.00  0.00     0.059 A 
ATOM     55  C   UNL A   1      42.694  21.245  27.763  1.00  0.00     0.059 A 
ATOM     56  F   UNL A   1      43.234  22.964  29.260  1.00  0.00    -0.206 F 
ATOM     57  C   UNL A   1      42.539  20.805  26.449  1.00  0.00     0.060 A 
BRANCH  57  58
ATOM     58  S   UNL A   1      42.008  19.112  26.119  1.00  0.00     0.124 S 
ATOM     59  O   UNL A   1      42.879  18.746  25.009  1.00  0.00    -0.237 OA
ATOM     60  O   UNL A   1      42.279  18.449  27.390  1.00  0.00    -0.237 OA
ATOM     61  O   UNL A   1      40.594  19.265  25.790  1.00  0.00    -0.744 OA
ENDBRANCH  57  58
ENDBRANCH  25  50
BRANCH  37  62
ATOM     62  C   UNL A   1      49.520  26.682  26.442  1.00  0.00     0.058 A 
ATOM     63  C   UNL A   1      49.971  26.802  25.117  1.00  0.00     0.135 A 
ATOM     64  C   UNL A   1      50.385  26.102  27.382  1.00  0.00     0.135 A 
ATOM     65  F   UNL A   1      49.176  27.341  24.179  1.00  0.00    -0.206 F 
ATOM     66  C   UNL A   1      51.220  26.329  24.731  1.00  0.00     0.059 A 
ATOM     67  C   UNL A   1      51.649  25.648  27.025  1.00  0.00     0.059 A 
ATOM     68  F   UNL A   1      50.004  25.973  28.663  1.00  0.00    -0.206 F 
ATOM     69  C   UNL A   1      52.051  25.750  25.693  1.00  0.00     0.060 A 
BRANCH  69  70
ATOM     70  S   UNL A   1      53.673  25.145  25.183  1.00  0.00     0.124 S 
ATOM     71  O   UNL A   1      53.518  23.705  25.360  1.00  0.00    -0.237 OA
ATOM     72  O   UNL A   1      53.761  25.607  23.801  1.00  0.00    -0.237 OA
ATOM     73  O   UNL A   1      54.586  25.799  26.114  1.00  0.00    -0.744 OA
ENDBRANCH  69  70
ENDBRANCH  37  62
ENDBRANCH  11  12
ENDBRANCH   4   6
ENDBRANCH   1   2
BRANCH   1  74
ATOM     74  C   UNL A   1      34.353  31.170  27.686  1.00  0.00     0.042 C 
BRANCH  74  75
ATOM     75  C   UNL A   1      34.176  29.751  27.180  1.00  0.00     0.117 C 
BRANCH  75  76
ATOM     76  N   UNL A   1      34.025  29.679  25.743  1.00  0.00    -0.356 N 
ATOM     77  C   UNL A   1      32.971  29.230  25.007  1.00  0.00     0.223 C 
ATOM     78  H   UNL A   1      34.796  30.001  25.221  1.00  0.00     0.163 HD
ATOM     79  O   UNL A   1      33.011  29.279  23.782  1.00  0.00    -0.275 OA
BRANCH  77  80
ATOM     80  C   UNL A   1      31.808  28.603  25.677  1.00  0.00     0.091 C 
ATOM     81  C   UNL A   1      32.042  27.210  26.232  1.00  0.00     0.028 C 
ATOM     82  C   UNL A   1      30.998  27.427  25.173  1.00  0.00     0.092 C 
BRANCH  82  83
ATOM     83  C   UNL A   1      31.174  26.873  23.805  1.00  0.00     0.228 C 
ATOM     84  O   UNL A   1      31.934  25.929  23.607  1.00  0.00    -0.274 OA
ATOM     85  N   UNL A   1      30.426  27.365  22.761  1.00  0.00    -0.323 N 
ATOM     86  H   UNL A   1      30.534  26.867  21.919  1.00  0.00     0.170 HD
BRANCH  85  87
ATOM     87  C   UNL A   1      29.534  28.453  22.676  1.00  0.00     0.080 A 
ATOM     88  C   UNL A   1      29.867  29.714  22.184  1.00  0.00     0.068 A 
ATOM     89  C   UNL A   1      28.223  28.233  23.123  1.00  0.00     0.146 A 
ATOM     90  C   UNL A   1      28.928  30.745  22.237  1.00  0.00     0.125 A 
ATOM     91  C   UNL A   1      27.291  29.267  23.187  1.00  0.00     0.044 A 
ATOM     92  F   UNL A   1      27.870  27.016  23.563  1.00  0.00    -0.205 F 
ATOM     93  F   UNL A   1      29.269  31.961  21.794  1.00  0.00    -0.207 F 
ATOM     94  C   UNL A   1      27.653  30.539  22.754  1.00  0.00     0.042 A 
ENDBRANCH  85  87
ENDBRANCH  82  83
ENDBRANCH  77  80
ENDBRANCH  75  76
ENDBRANCH  74  75
ENDBRANCH   1  74
TORSDOF 15
ENDMDL
