MODEL 1
REMARK VINA RESULT:     -12.7      0.000      0.000
REMARK SMILES Cc1ccc(-c2cnnc(-n3nc(C)c4c3NC(=O)C[C@@H]4c3ccc(C(=O)NCCCNC(=O)c4ccc(-c5c6nc(c(-c7c(F)cc(S(=O)(=O)[O-])cc7F)c7ccc([nH]7)c(-c7c(F)cc(S(=O)(=O)[O-])cc7F)c7nc(c(-c8c(F)cc(S(=O)(=O)[O-])cc8F)c8ccc5[nH]8)C=C7)C=C6)cc4)cc3)n2)cc1
REMARK SMILES IDX 30 1 29 2 28 3 26 4 27 5 25 7 22 8 23 9 102 10 24 11 101 12
REMARK SMILES IDX 21 13 11 14 12 15 16 16 13 17 15 18 17 19 14 20 18 21 20 23
REMARK SMILES IDX 19 24 10 25 6 26 7 27 103 28 8 29 9 30 5 31 1 32 2 33 3 34
REMARK SMILES IDX 105 35 4 36 104 37 31 38 32 39 33 40 34 42 35 43 36 44
REMARK SMILES IDX 100 45 37 46 99 47 38 48 39 49 40 50 93 51 41 52 98 53 92 54
REMARK SMILES IDX 94 55 42 56 97 57 91 58 90 59 43 61 77 62 56 63 76 64 57 65
REMARK SMILES IDX 60 66 75 67 95 68 58 69 59 70 74 72 96 73 61 74 44 75 45 76
REMARK SMILES IDX 54 77 46 78 47 79 53 80 55 81 48 82 49 83 50 84 51 85 52 86
REMARK SMILES IDX 78 87 79 88 88 89 80 90 81 91 87 92 89 93 82 94 83 95 84 96
REMARK SMILES IDX 85 97 86 98 62 99 63 100 72 101 64 102 65 103 71 104 73 105
REMARK SMILES IDX 66 106 67 107 68 108 69 109 70 110
REMARK H PARENT 28 6 17 22 32 41 94 60 60 71
REMARK Flexibility Score: inf
ROOT
ATOM      1  C   UNL A   1      35.700  32.490  29.459  1.00  0.00     0.042 C 
ENDROOT
BRANCH   1   2
ATOM      2  C   UNL A   1      37.164  32.500  29.886  1.00  0.00     0.118 C 
BRANCH   2   3
ATOM      3  N   UNL A   1      37.406  33.197  31.148  1.00  0.00    -0.352 N 
ATOM      4  C   UNL A   1      38.446  34.032  31.491  1.00  0.00     0.251 C 
ATOM      5  O   UNL A   1      38.390  34.757  32.479  1.00  0.00    -0.269 OA
ATOM      6  H   UNL A   1      36.733  33.049  31.851  1.00  0.00     0.163 HD
BRANCH   4   7
ATOM      7  C   UNL A   1      39.640  34.095  30.628  1.00  0.00     0.039 A 
ATOM      8  C   UNL A   1      42.029  34.421  29.202  1.00  0.00    -0.040 A 
ATOM      9  C   UNL A   1      41.908  33.425  30.195  1.00  0.00     0.005 A 
ATOM     10  C   UNL A   1      40.883  35.139  28.834  1.00  0.00     0.005 A 
ATOM     11  C   UNL A   1      40.721  33.262  30.906  1.00  0.00     0.014 A 
ATOM     12  C   UNL A   1      39.695  34.971  29.544  1.00  0.00     0.014 A 
BRANCH   8  13
ATOM     13  C   UNL A   1      43.404  34.666  28.626  1.00  0.00     0.064 C 
ATOM     14  N   UNL A   1      44.677  38.009  28.063  1.00  0.00    -0.180 N 
ATOM     15  N   UNL A   1      44.282  38.222  29.346  1.00  0.00    -0.168 NA
ATOM     16  C   UNL A   1      44.087  36.859  27.574  1.00  0.00     0.143 A 
ATOM     17  C   UNL A   1      43.771  37.055  29.748  1.00  0.00     0.066 A 
ATOM     18  C   UNL A   1      43.733  36.119  28.681  1.00  0.00     0.026 A 
ATOM     19  N   UNL A   1      43.899  36.375  26.296  1.00  0.00    -0.310 N 
ATOM     20  C   UNL A   1      43.313  36.923  31.157  1.00  0.00     0.069 C 
ATOM     21  C   UNL A   1      43.397  35.048  26.120  1.00  0.00     0.226 C 
ATOM     22  H   UNL A   1      44.108  36.938  25.514  1.00  0.00     0.171 HD
ATOM     23  C   UNL A   1      43.620  34.065  27.240  1.00  0.00     0.113 C 
ATOM     24  O   UNL A   1      42.986  34.758  25.008  1.00  0.00    -0.275 OA
BRANCH  14  25
ATOM     25  C   UNL A   1      45.769  38.730  27.495  1.00  0.00     0.272 A 
ATOM     26  C   UNL A   1      46.725  39.932  25.801  1.00  0.00     0.095 A 
ATOM     27  C   UNL A   1      47.976  39.551  26.259  1.00  0.00     0.164 A 
ATOM     28  N   UNL A   1      45.577  39.499  26.391  1.00  0.00    -0.208 NA
ATOM     29  N   UNL A   1      48.112  38.798  27.357  1.00  0.00    -0.153 NA
ATOM     30  N   UNL A   1      46.991  38.414  28.000  1.00  0.00    -0.109 NA
BRANCH  26  31
ATOM     31  C   UNL A   1      46.618  40.920  24.722  1.00  0.00     0.002 A 
ATOM     32  C   UNL A   1      46.830  44.077  21.765  1.00  0.00     0.044 C 
ATOM     33  C   UNL A   1      46.725  42.979  22.782  1.00  0.00    -0.051 A 
ATOM     34  C   UNL A   1      47.236  41.709  22.497  1.00  0.00     0.004 A 
ATOM     35  C   UNL A   1      46.130  43.205  24.026  1.00  0.00     0.004 A 
ATOM     36  C   UNL A   1      47.183  40.691  23.455  1.00  0.00     0.011 A 
ATOM     37  C   UNL A   1      46.072  42.186  24.981  1.00  0.00     0.011 A 
ENDBRANCH  26  31
ENDBRANCH  14  25
ENDBRANCH   8  13
ENDBRANCH   4   7
ENDBRANCH   2   3
ENDBRANCH   1   2
BRANCH   1  38
ATOM     38  C   UNL A   1      35.478  31.887  28.080  1.00  0.00     0.118 C 
BRANCH  38  39
ATOM     39  N   UNL A   1      34.986  30.517  28.138  1.00  0.00    -0.352 N 
ATOM     40  C   UNL A   1      35.722  29.383  27.831  1.00  0.00     0.251 C 
ATOM     41  H   UNL A   1      34.051  30.386  28.420  1.00  0.00     0.163 HD
ATOM     42  O   UNL A   1      35.241  28.372  27.352  1.00  0.00    -0.269 OA
BRANCH  40  43
ATOM     43  C   UNL A   1      37.132  29.414  28.270  1.00  0.00     0.039 A 
ATOM     44  C   UNL A   1      38.111  29.705  27.312  1.00  0.00     0.014 A 
ATOM     45  C   UNL A   1      37.467  28.877  29.509  1.00  0.00     0.014 A 
ATOM     46  C   UNL A   1      39.425  29.307  27.539  1.00  0.00     0.010 A 
ATOM     47  C   UNL A   1      38.745  28.391  29.686  1.00  0.00     0.010 A 
ATOM     48  C   UNL A   1      39.716  28.579  28.692  1.00  0.00    -0.014 A 
BRANCH  48  49
ATOM     49  C   UNL A   1      40.987  27.912  28.938  1.00  0.00     0.031 A 
ATOM     50  C   UNL A   1      41.174  26.505  28.524  1.00  0.00     0.074 A 
ATOM     51  C   UNL A   1      42.035  28.623  29.409  1.00  0.00     0.049 A 
ATOM     52  N   UNL A   1      42.085  25.726  29.002  1.00  0.00    -0.248 NA
ATOM     53  C   UNL A   1      40.320  25.848  27.537  1.00  0.00     0.031 C 
ATOM     54  C   UNL A   1      43.442  28.239  29.379  1.00  0.00     0.029 A 
ATOM     55  N   UNL A   1      42.010  29.782  30.188  1.00  0.00    -0.354 N 
ATOM     56  C   UNL A   1      42.125  24.601  28.212  1.00  0.00     0.074 A 
ATOM     57  C   UNL A   1      40.972  24.697  27.348  1.00  0.00     0.031 C 
ATOM     58  C   UNL A   1      44.114  28.968  30.282  1.00  0.00     0.029 A 
ATOM     59  C   UNL A   1      43.136  29.734  31.033  1.00  0.00     0.049 A 
ATOM     60  H   UNL A   1      41.333  30.497  30.153  1.00  0.00     0.167 HD
ATOM     61  C   UNL A   1      43.205  23.772  28.267  1.00  0.00     0.037 A 
ATOM     62  C   UNL A   1      42.994  29.689  32.391  1.00  0.00     0.037 A 
ATOM     63  C   UNL A   1      44.179  24.229  29.251  1.00  0.00     0.049 A 
ATOM     64  C   UNL A   1      43.547  28.428  33.019  1.00  0.00     0.074 A 
ATOM     65  C   UNL A   1      45.325  24.999  29.140  1.00  0.00     0.029 A 
ATOM     66  N   UNL A   1      43.859  24.196  30.604  1.00  0.00    -0.354 N 
ATOM     67  N   UNL A   1      43.804  27.335  32.354  1.00  0.00    -0.248 NA
ATOM     68  C   UNL A   1      43.863  28.296  34.438  1.00  0.00     0.031 C 
ATOM     69  C   UNL A   1      45.663  25.480  30.427  1.00  0.00     0.029 A 
ATOM     70  C   UNL A   1      44.733  24.988  31.325  1.00  0.00     0.049 A 
ATOM     71  H   UNL A   1      43.115  23.682  30.993  1.00  0.00     0.167 HD
ATOM     72  C   UNL A   1      44.285  26.373  33.206  1.00  0.00     0.074 A 
ATOM     73  C   UNL A   1      44.322  27.033  34.498  1.00  0.00     0.031 C 
ATOM     74  C   UNL A   1      44.613  25.118  32.771  1.00  0.00     0.037 A 
BRANCH  61  75
ATOM     75  C   UNL A   1      43.480  22.743  27.198  1.00  0.00     0.058 A 
ATOM     76  C   UNL A   1      42.745  21.540  27.137  1.00  0.00     0.135 A 
ATOM     77  C   UNL A   1      44.502  22.869  26.236  1.00  0.00     0.135 A 
ATOM     78  F   UNL A   1      41.706  21.310  27.949  1.00  0.00    -0.206 F 
ATOM     79  C   UNL A   1      43.064  20.503  26.262  1.00  0.00     0.059 A 
ATOM     80  C   UNL A   1      44.872  21.824  25.383  1.00  0.00     0.059 A 
ATOM     81  F   UNL A   1      45.173  24.023  26.097  1.00  0.00    -0.206 F 
ATOM     82  C   UNL A   1      44.151  20.638  25.409  1.00  0.00     0.060 A 
BRANCH  82  83
ATOM     83  S   UNL A   1      44.611  19.236  24.373  1.00  0.00     0.124 S 
ATOM     84  O   UNL A   1      46.007  19.021  24.745  1.00  0.00    -0.237 OA
ATOM     85  O   UNL A   1      43.672  18.212  24.815  1.00  0.00    -0.237 OA
ATOM     86  O   UNL A   1      44.406  19.737  23.016  1.00  0.00    -0.744 OA
ENDBRANCH  82  83
ENDBRANCH  61  75
BRANCH  62  87
ATOM     87  C   UNL A   1      41.829  30.483  32.874  1.00  0.00     0.058 A 
ATOM     88  C   UNL A   1      40.629  29.781  33.113  1.00  0.00     0.135 A 
ATOM     89  C   UNL A   1      42.004  31.703  33.541  1.00  0.00     0.135 A 
ATOM     90  F   UNL A   1      40.397  28.618  32.481  1.00  0.00    -0.206 F 
ATOM     91  C   UNL A   1      39.738  30.168  34.110  1.00  0.00     0.059 A 
ATOM     92  C   UNL A   1      41.115  32.116  34.539  1.00  0.00     0.059 A 
ATOM     93  F   UNL A   1      43.118  32.424  33.347  1.00  0.00    -0.206 F 
ATOM     94  C   UNL A   1      40.036  31.295  34.872  1.00  0.00     0.060 A 
BRANCH  94  95
ATOM     95  S   UNL A   1      39.085  31.565  36.390  1.00  0.00     0.124 S 
ATOM     96  O   UNL A   1      38.188  32.649  36.004  1.00  0.00    -0.237 OA
ATOM     97  O   UNL A   1      38.442  30.266  36.594  1.00  0.00    -0.237 OA
ATOM     98  O   UNL A   1      40.107  31.910  37.370  1.00  0.00    -0.744 OA
ENDBRANCH  94  95
ENDBRANCH  62  87
BRANCH  74  99
ATOM     99  C   UNL A   1      44.962  23.919  33.629  1.00  0.00     0.058 A 
ATOM    100  C   UNL A   1      44.039  22.941  34.037  1.00  0.00     0.135 A 
ATOM    101  C   UNL A   1      46.316  23.641  33.953  1.00  0.00     0.135 A 
ATOM    102  F   UNL A   1      42.744  23.020  33.702  1.00  0.00    -0.206 F 
ATOM    103  C   UNL A   1      44.417  21.809  34.765  1.00  0.00     0.059 A 
ATOM    104  C   UNL A   1      46.721  22.492  34.626  1.00  0.00     0.059 A 
ATOM    105  F   UNL A   1      47.307  24.478  33.610  1.00  0.00    -0.206 F 
ATOM    106  C   UNL A   1      45.761  21.591  35.053  1.00  0.00     0.060 A 
BRANCH 106 107
ATOM    107  S   UNL A   1      46.266  20.098  35.926  1.00  0.00     0.124 S 
ATOM    108  O   UNL A   1      47.719  20.227  35.904  1.00  0.00    -0.237 OA
ATOM    109  O   UNL A   1      45.637  20.258  37.234  1.00  0.00    -0.237 OA
ATOM    110  O   UNL A   1      45.712  19.028  35.101  1.00  0.00    -0.744 OA
ENDBRANCH 106 107
ENDBRANCH  74  99
ENDBRANCH  48  49
ENDBRANCH  40  43
ENDBRANCH  38  39
ENDBRANCH   1  38
TORSDOF 16
ENDMDL
MODEL 2
REMARK VINA RESULT:     -12.3      4.513     13.193
REMARK SMILES Cc1ccc(-c2cnnc(-n3nc(C)c4c3NC(=O)C[C@@H]4c3ccc(C(=O)NCCCNC(=O)c4ccc(-c5c6nc(c(-c7c(F)cc(S(=O)(=O)[O-])cc7F)c7ccc([nH]7)c(-c7c(F)cc(S(=O)(=O)[O-])cc7F)c7nc(c(-c8c(F)cc(S(=O)(=O)[O-])cc8F)c8ccc5[nH]8)C=C7)C=C6)cc4)cc3)n2)cc1
REMARK SMILES IDX 30 1 29 2 28 3 26 4 27 5 25 7 22 8 23 9 102 10 24 11 101 12
REMARK SMILES IDX 21 13 11 14 12 15 16 16 13 17 15 18 17 19 14 20 18 21 20 23
REMARK SMILES IDX 19 24 10 25 6 26 7 27 103 28 8 29 9 30 5 31 1 32 2 33 3 34
REMARK SMILES IDX 105 35 4 36 104 37 31 38 32 39 33 40 34 42 35 43 36 44
REMARK SMILES IDX 100 45 37 46 99 47 38 48 39 49 40 50 93 51 41 52 98 53 92 54
REMARK SMILES IDX 94 55 42 56 97 57 91 58 90 59 43 61 77 62 56 63 76 64 57 65
REMARK SMILES IDX 60 66 75 67 95 68 58 69 59 70 74 72 96 73 61 74 44 75 45 76
REMARK SMILES IDX 54 77 46 78 47 79 53 80 55 81 48 82 49 83 50 84 51 85 52 86
REMARK SMILES IDX 78 87 79 88 88 89 80 90 81 91 87 92 89 93 82 94 83 95 84 96
REMARK SMILES IDX 85 97 86 98 62 99 63 100 72 101 64 102 65 103 71 104 73 105
REMARK SMILES IDX 66 106 67 107 68 108 69 109 70 110
REMARK H PARENT 28 6 17 22 32 41 94 60 60 71
REMARK Flexibility Score: inf
ROOT
ATOM      1  C   UNL A   1      43.397  24.067  28.705  1.00  0.00     0.042 C 
ENDROOT
BRANCH   1   2
ATOM      2  C   UNL A   1      43.610  25.025  29.871  1.00  0.00     0.118 C 
BRANCH   2   3
ATOM      3  N   UNL A   1      45.000  25.111  30.318  1.00  0.00    -0.352 N 
ATOM      4  C   UNL A   1      45.491  25.429  31.564  1.00  0.00     0.251 C 
ATOM      5  O   UNL A   1      46.657  25.205  31.872  1.00  0.00    -0.269 OA
ATOM      6  H   UNL A   1      45.678  24.915  29.633  1.00  0.00     0.163 HD
BRANCH   4   7
ATOM      7  C   UNL A   1      44.586  26.009  32.574  1.00  0.00     0.039 A 
ATOM      8  C   UNL A   1      43.130  27.166  34.668  1.00  0.00    -0.040 A 
ATOM      9  C   UNL A   1      43.645  27.959  33.621  1.00  0.00     0.005 A 
ATOM     10  C   UNL A   1      43.225  25.772  34.560  1.00  0.00     0.005 A 
ATOM     11  C   UNL A   1      44.371  27.385  32.578  1.00  0.00     0.014 A 
ATOM     12  C   UNL A   1      43.948  25.200  33.513  1.00  0.00     0.014 A 
BRANCH   8  13
ATOM     13  C   UNL A   1      42.536  27.885  35.858  1.00  0.00     0.064 C 
ATOM     14  N   UNL A   1      40.890  31.094  35.530  1.00  0.00    -0.180 N 
ATOM     15  N   UNL A   1      40.210  30.483  34.525  1.00  0.00    -0.168 NA
ATOM     16  C   UNL A   1      42.014  30.356  35.855  1.00  0.00     0.143 A 
ATOM     17  C   UNL A   1      40.690  29.236  34.491  1.00  0.00     0.066 A 
ATOM     18  C   UNL A   1      41.766  29.077  35.404  1.00  0.00     0.026 A 
ATOM     19  N   UNL A   1      43.166  30.663  36.547  1.00  0.00    -0.310 N 
ATOM     20  C   UNL A   1      40.090  28.265  33.538  1.00  0.00     0.069 C 
ATOM     21  C   UNL A   1      44.085  29.617  36.871  1.00  0.00     0.226 C 
ATOM     22  H   UNL A   1      43.354  31.593  36.816  1.00  0.00     0.171 HD
ATOM     23  C   UNL A   1      43.540  28.214  36.958  1.00  0.00     0.113 C 
ATOM     24  O   UNL A   1      45.201  29.956  37.228  1.00  0.00    -0.275 OA
BRANCH  14  25
ATOM     25  C   UNL A   1      40.304  32.154  36.283  1.00  0.00     0.272 A 
ATOM     26  C   UNL A   1      38.745  32.961  37.748  1.00  0.00     0.095 A 
ATOM     27  C   UNL A   1      38.912  34.223  37.203  1.00  0.00     0.164 A 
ATOM     28  N   UNL A   1      39.417  31.875  37.274  1.00  0.00    -0.208 NA
ATOM     29  N   UNL A   1      39.805  34.448  36.233  1.00  0.00    -0.153 NA
ATOM     30  N   UNL A   1      40.534  33.401  35.795  1.00  0.00    -0.109 NA
BRANCH  26  31
ATOM     31  C   UNL A   1      37.910  32.790  38.942  1.00  0.00     0.002 A 
ATOM     32  C   UNL A   1      35.665  31.701  42.482  1.00  0.00     0.044 C 
ATOM     33  C   UNL A   1      36.423  32.103  41.251  1.00  0.00    -0.051 A 
ATOM     34  C   UNL A   1      37.660  32.745  41.369  1.00  0.00     0.004 A 
ATOM     35  C   UNL A   1      35.917  31.839  39.975  1.00  0.00     0.004 A 
ATOM     36  C   UNL A   1      38.395  33.084  40.228  1.00  0.00     0.011 A 
ATOM     37  C   UNL A   1      36.649  32.184  38.835  1.00  0.00     0.011 A 
ENDBRANCH  26  31
ENDBRANCH  14  25
ENDBRANCH   8  13
ENDBRANCH   4   7
ENDBRANCH   2   3
ENDBRANCH   1   2
BRANCH   1  38
ATOM     38  C   UNL A   1      42.763  24.728  27.489  1.00  0.00     0.118 C 
BRANCH  38  39
ATOM     39  N   UNL A   1      41.666  23.946  26.932  1.00  0.00    -0.352 N 
ATOM     40  C   UNL A   1      40.344  24.006  27.345  1.00  0.00     0.251 C 
ATOM     41  H   UNL A   1      41.883  23.324  26.201  1.00  0.00     0.163 HD
ATOM     42  O   UNL A   1      39.582  23.056  27.316  1.00  0.00    -0.269 OA
BRANCH  40  43
ATOM     43  C   UNL A   1      39.855  25.357  27.689  1.00  0.00     0.039 A 
ATOM     44  C   UNL A   1      40.161  26.407  26.815  1.00  0.00     0.014 A 
ATOM     45  C   UNL A   1      39.380  25.598  28.973  1.00  0.00     0.014 A 
ATOM     46  C   UNL A   1      40.141  27.715  27.289  1.00  0.00     0.010 A 
ATOM     47  C   UNL A   1      39.461  26.881  29.469  1.00  0.00     0.010 A 
ATOM     48  C   UNL A   1      39.869  27.935  28.639  1.00  0.00    -0.014 A 
BRANCH  48  49
ATOM     49  C   UNL A   1      40.038  29.217  29.307  1.00  0.00     0.031 A 
ATOM     50  C   UNL A   1      38.960  30.229  29.244  1.00  0.00     0.074 A 
ATOM     51  C   UNL A   1      41.112  29.423  30.101  1.00  0.00     0.049 A 
ATOM     52  N   UNL A   1      39.137  31.487  29.469  1.00  0.00    -0.248 NA
ATOM     53  C   UNL A   1      37.581  29.897  28.893  1.00  0.00     0.031 C 
ATOM     54  C   UNL A   1      41.272  30.464  31.111  1.00  0.00     0.029 A 
ATOM     55  N   UNL A   1      42.369  28.821  30.022  1.00  0.00    -0.354 N 
ATOM     56  C   UNL A   1      37.894  32.067  29.577  1.00  0.00     0.074 A 
ATOM     57  C   UNL A   1      36.959  31.050  29.156  1.00  0.00     0.031 C 
ATOM     58  C   UNL A   1      42.577  30.612  31.383  1.00  0.00     0.029 A 
ATOM     59  C   UNL A   1      43.311  29.780  30.446  1.00  0.00     0.049 A 
ATOM     60  H   UNL A   1      42.562  27.902  29.726  1.00  0.00     0.167 HD
ATOM     61  C   UNL A   1      37.767  33.298  30.145  1.00  0.00     0.037 A 
ATOM     62  C   UNL A   1      44.279  30.238  29.598  1.00  0.00     0.037 A 
ATOM     63  C   UNL A   1      39.064  33.844  30.531  1.00  0.00     0.049 A 
ATOM     64  C   UNL A   1      44.186  31.721  29.314  1.00  0.00     0.074 A 
ATOM     65  C   UNL A   1      39.756  33.843  31.731  1.00  0.00     0.029 A 
ATOM     66  N   UNL A   1      39.983  34.195  29.548  1.00  0.00    -0.354 N 
ATOM     67  N   UNL A   1      43.120  32.441  29.536  1.00  0.00    -0.248 NA
ATOM     68  C   UNL A   1      45.282  32.516  28.767  1.00  0.00     0.031 C 
ATOM     69  C   UNL A   1      41.113  34.138  31.459  1.00  0.00     0.029 A 
ATOM     70  C   UNL A   1      41.244  34.337  30.097  1.00  0.00     0.049 A 
ATOM     71  H   UNL A   1      39.767  34.324  28.596  1.00  0.00     0.167 HD
ATOM     72  C   UNL A   1      43.351  33.742  29.166  1.00  0.00     0.074 A 
ATOM     73  C   UNL A   1      44.728  33.741  28.710  1.00  0.00     0.031 C 
ATOM     74  C   UNL A   1      42.386  34.707  29.273  1.00  0.00     0.037 A 
BRANCH  61  75
ATOM     75  C   UNL A   1      36.435  33.830  30.616  1.00  0.00     0.058 A 
ATOM     76  C   UNL A   1      35.468  34.290  29.698  1.00  0.00     0.135 A 
ATOM     77  C   UNL A   1      36.082  33.961  31.974  1.00  0.00     0.135 A 
ATOM     78  F   UNL A   1      35.642  34.171  28.375  1.00  0.00    -0.206 F 
ATOM     79  C   UNL A   1      34.290  34.922  30.093  1.00  0.00     0.059 A 
ATOM     80  C   UNL A   1      34.932  34.636  32.395  1.00  0.00     0.059 A 
ATOM     81  F   UNL A   1      36.851  33.430  32.937  1.00  0.00    -0.206 F 
ATOM     82  C   UNL A   1      34.044  35.122  31.445  1.00  0.00     0.060 A 
BRANCH  82  83
ATOM     83  S   UNL A   1      32.571  36.048  31.923  1.00  0.00     0.124 S 
ATOM     84  O   UNL A   1      33.107  37.012  32.879  1.00  0.00    -0.237 OA
ATOM     85  O   UNL A   1      32.133  36.598  30.646  1.00  0.00    -0.237 OA
ATOM     86  O   UNL A   1      31.702  35.025  32.500  1.00  0.00    -0.744 OA
ENDBRANCH  82  83
ENDBRANCH  61  75
BRANCH  62  87
ATOM     87  C   UNL A   1      44.770  29.185  28.665  1.00  0.00     0.058 A 
ATOM     88  C   UNL A   1      44.283  29.222  27.342  1.00  0.00     0.135 A 
ATOM     89  C   UNL A   1      45.989  28.528  28.883  1.00  0.00     0.135 A 
ATOM     90  F   UNL A   1      43.108  29.817  27.078  1.00  0.00    -0.206 F 
ATOM     91  C   UNL A   1      45.057  28.805  26.262  1.00  0.00     0.059 A 
ATOM     92  C   UNL A   1      46.777  28.092  27.813  1.00  0.00     0.059 A 
ATOM     93  F   UNL A   1      46.499  28.448  30.121  1.00  0.00    -0.206 F 
ATOM     94  C   UNL A   1      46.338  28.316  26.507  1.00  0.00     0.060 A 
BRANCH  94  95
ATOM     95  S   UNL A   1      47.460  28.138  25.096  1.00  0.00     0.124 S 
ATOM     96  O   UNL A   1      47.477  26.694  24.895  1.00  0.00    -0.237 OA
ATOM     97  O   UNL A   1      46.778  28.907  24.053  1.00  0.00    -0.237 OA
ATOM     98  O   UNL A   1      48.704  28.723  25.580  1.00  0.00    -0.744 OA
ENDBRANCH  94  95
ENDBRANCH  62  87
BRANCH  74  99
ATOM     99  C   UNL A   1      42.445  36.118  28.723  1.00  0.00     0.058 A 
ATOM    100  C   UNL A   1      43.040  37.204  29.388  1.00  0.00     0.135 A 
ATOM    101  C   UNL A   1      42.012  36.388  27.398  1.00  0.00     0.135 A 
ATOM    102  F   UNL A   1      43.592  37.062  30.601  1.00  0.00    -0.206 F 
ATOM    103  C   UNL A   1      43.140  38.474  28.813  1.00  0.00     0.059 A 
ATOM    104  C   UNL A   1      42.155  37.629  26.785  1.00  0.00     0.059 A 
ATOM    105  F   UNL A   1      41.442  35.440  26.638  1.00  0.00    -0.206 F 
ATOM    106  C   UNL A   1      42.698  38.677  27.509  1.00  0.00     0.060 A 
BRANCH 106 107
ATOM    107  S   UNL A   1      42.890  40.291  26.732  1.00  0.00     0.124 S 
ATOM    108  O   UNL A   1      43.185  41.135  27.884  1.00  0.00    -0.237 OA
ATOM    109  O   UNL A   1      43.999  40.075  25.806  1.00  0.00    -0.237 OA
ATOM    110  O   UNL A   1      41.593  40.511  26.099  1.00  0.00    -0.744 OA
ENDBRANCH 106 107
ENDBRANCH  74  99
ENDBRANCH  48  49
ENDBRANCH  40  43
ENDBRANCH  38  39
ENDBRANCH   1  38
TORSDOF 16
ENDMDL
MODEL 3
REMARK VINA RESULT:     -12.2      4.237     12.231
REMARK SMILES Cc1ccc(-c2cnnc(-n3nc(C)c4c3NC(=O)C[C@@H]4c3ccc(C(=O)NCCCNC(=O)c4ccc(-c5c6nc(c(-c7c(F)cc(S(=O)(=O)[O-])cc7F)c7ccc([nH]7)c(-c7c(F)cc(S(=O)(=O)[O-])cc7F)c7nc(c(-c8c(F)cc(S(=O)(=O)[O-])cc8F)c8ccc5[nH]8)C=C7)C=C6)cc4)cc3)n2)cc1
REMARK SMILES IDX 30 1 29 2 28 3 26 4 27 5 25 7 22 8 23 9 102 10 24 11 101 12
REMARK SMILES IDX 21 13 11 14 12 15 16 16 13 17 15 18 17 19 14 20 18 21 20 23
REMARK SMILES IDX 19 24 10 25 6 26 7 27 103 28 8 29 9 30 5 31 1 32 2 33 3 34
REMARK SMILES IDX 105 35 4 36 104 37 31 38 32 39 33 40 34 42 35 43 36 44
REMARK SMILES IDX 100 45 37 46 99 47 38 48 39 49 40 50 93 51 41 52 98 53 92 54
REMARK SMILES IDX 94 55 42 56 97 57 91 58 90 59 43 61 77 62 56 63 76 64 57 65
REMARK SMILES IDX 60 66 75 67 95 68 58 69 59 70 74 72 96 73 61 74 44 75 45 76
REMARK SMILES IDX 54 77 46 78 47 79 53 80 55 81 48 82 49 83 50 84 51 85 52 86
REMARK SMILES IDX 78 87 79 88 88 89 80 90 81 91 87 92 89 93 82 94 83 95 84 96
REMARK SMILES IDX 85 97 86 98 62 99 63 100 72 101 64 102 65 103 71 104 73 105
REMARK SMILES IDX 66 106 67 107 68 108 69 109 70 110
REMARK H PARENT 28 6 17 22 32 41 94 60 60 71
REMARK Flexibility Score: inf
ROOT
ATOM      1  C   UNL A   1      48.523  26.164  27.824  1.00  0.00     0.042 C 
ENDROOT
BRANCH   1   2
ATOM      2  C   UNL A   1      47.726  26.236  26.526  1.00  0.00     0.118 C 
BRANCH   2   3
ATOM      3  N   UNL A   1      47.304  24.930  26.019  1.00  0.00    -0.352 N 
ATOM      4  C   UNL A   1      46.047  24.509  25.650  1.00  0.00     0.251 C 
ATOM      5  O   UNL A   1      45.877  23.486  24.996  1.00  0.00    -0.269 OA
ATOM      6  H   UNL A   1      48.019  24.259  25.930  1.00  0.00     0.163 HD
BRANCH   4   7
ATOM      7  C   UNL A   1      44.874  25.329  26.008  1.00  0.00     0.039 A 
ATOM      8  C   UNL A   1      42.470  26.670  26.528  1.00  0.00    -0.040 A 
ATOM      9  C   UNL A   1      42.948  25.674  27.406  1.00  0.00     0.005 A 
ATOM     10  C   UNL A   1      43.298  27.086  25.477  1.00  0.00     0.005 A 
ATOM     11  C   UNL A   1      44.144  25.004  27.148  1.00  0.00     0.014 A 
ATOM     12  C   UNL A   1      44.496  26.418  25.223  1.00  0.00     0.014 A 
BRANCH   8  13
ATOM     13  C   UNL A   1      41.075  27.199  26.768  1.00  0.00     0.064 C 
ATOM     14  N   UNL A   1      40.153  28.830  29.867  1.00  0.00    -0.180 N 
ATOM     15  N   UNL A   1      41.276  29.564  29.649  1.00  0.00    -0.168 NA
ATOM     16  C   UNL A   1      40.169  27.699  29.072  1.00  0.00     0.143 A 
ATOM     17  C   UNL A   1      41.777  29.098  28.502  1.00  0.00     0.066 A 
ATOM     18  C   UNL A   1      41.034  27.980  28.037  1.00  0.00     0.026 A 
ATOM     19  N   UNL A   1      39.470  26.512  29.123  1.00  0.00    -0.310 N 
ATOM     20  C   UNL A   1      42.983  29.752  27.929  1.00  0.00     0.069 C 
ATOM     21  C   UNL A   1      39.587  25.587  28.038  1.00  0.00     0.226 C 
ATOM     22  H   UNL A   1      38.896  26.303  29.896  1.00  0.00     0.171 HD
ATOM     23  C   UNL A   1      39.980  26.138  26.692  1.00  0.00     0.113 C 
ATOM     24  O   UNL A   1      39.188  24.451  28.238  1.00  0.00    -0.275 OA
BRANCH  14  25
ATOM     25  C   UNL A   1      39.043  29.369  30.582  1.00  0.00     0.272 A 
ATOM     26  C   UNL A   1      38.100  30.256  32.467  1.00  0.00     0.095 A 
ATOM     27  C   UNL A   1      36.860  29.820  32.031  1.00  0.00     0.164 A 
ATOM     28  N   UNL A   1      39.240  30.009  31.765  1.00  0.00    -0.208 NA
ATOM     29  N   UNL A   1      36.717  29.200  30.854  1.00  0.00    -0.153 NA
ATOM     30  N   UNL A   1      37.822  29.006  30.107  1.00  0.00    -0.109 NA
BRANCH  26  31
ATOM     31  C   UNL A   1      38.193  31.107  33.658  1.00  0.00     0.002 A 
ATOM     32  C   UNL A   1      38.074  33.213  37.441  1.00  0.00     0.044 C 
ATOM     33  C   UNL A   1      38.126  32.510  36.116  1.00  0.00    -0.051 A 
ATOM     34  C   UNL A   1      39.152  31.597  35.848  1.00  0.00     0.004 A 
ATOM     35  C   UNL A   1      37.156  32.744  35.138  1.00  0.00     0.004 A 
ATOM     36  C   UNL A   1      39.185  30.904  34.633  1.00  0.00     0.011 A 
ATOM     37  C   UNL A   1      37.193  32.056  33.922  1.00  0.00     0.011 A 
ENDBRANCH  26  31
ENDBRANCH  14  25
ENDBRANCH   8  13
ENDBRANCH   4   7
ENDBRANCH   2   3
ENDBRANCH   1   2
BRANCH   1  38
ATOM     38  C   UNL A   1      48.892  27.531  28.381  1.00  0.00     0.118 C 
BRANCH  38  39
ATOM     39  N   UNL A   1      50.009  28.144  27.675  1.00  0.00    -0.352 N 
ATOM     40  C   UNL A   1      49.965  29.347  26.986  1.00  0.00     0.251 C 
ATOM     41  H   UNL A   1      50.868  27.663  27.688  1.00  0.00     0.163 HD
ATOM     42  O   UNL A   1      50.635  29.586  25.998  1.00  0.00    -0.269 OA
BRANCH  40  43
ATOM     43  C   UNL A   1      49.152  30.403  27.622  1.00  0.00     0.039 A 
ATOM     44  C   UNL A   1      49.543  30.859  28.887  1.00  0.00     0.014 A 
ATOM     45  C   UNL A   1      47.895  30.695  27.103  1.00  0.00     0.014 A 
ATOM     46  C   UNL A   1      48.605  31.481  29.706  1.00  0.00     0.010 A 
ATOM     47  C   UNL A   1      46.942  31.214  27.953  1.00  0.00     0.010 A 
ATOM     48  C   UNL A   1      47.287  31.580  29.262  1.00  0.00    -0.014 A 
BRANCH  48  49
ATOM     49  C   UNL A   1      46.172  31.996  30.101  1.00  0.00     0.031 A 
ATOM     50  C   UNL A   1      45.331  30.978  30.768  1.00  0.00     0.074 A 
ATOM     51  C   UNL A   1      45.999  33.306  30.382  1.00  0.00     0.049 A 
ATOM     52  N   UNL A   1      44.141  31.203  31.213  1.00  0.00    -0.248 NA
ATOM     53  C   UNL A   1      45.766  29.597  30.968  1.00  0.00     0.031 C 
ATOM     54  C   UNL A   1      45.193  33.874  31.458  1.00  0.00     0.029 A 
ATOM     55  N   UNL A   1      46.387  34.410  29.621  1.00  0.00    -0.354 N 
ATOM     56  C   UNL A   1      43.777  30.126  31.987  1.00  0.00     0.074 A 
ATOM     57  C   UNL A   1      44.796  29.129  31.759  1.00  0.00     0.031 C 
ATOM     58  C   UNL A   1      44.929  35.158  31.175  1.00  0.00     0.029 A 
ATOM     59  C   UNL A   1      45.424  35.416  29.834  1.00  0.00     0.049 A 
ATOM     60  H   UNL A   1      47.184  34.473  29.045  1.00  0.00     0.167 HD
ATOM     61  C   UNL A   1      42.731  30.235  32.852  1.00  0.00     0.037 A 
ATOM     62  C   UNL A   1      44.661  35.888  28.805  1.00  0.00     0.037 A 
ATOM     63  C   UNL A   1      42.109  31.552  32.774  1.00  0.00     0.049 A 
ATOM     64  C   UNL A   1      43.179  35.638  28.982  1.00  0.00     0.074 A 
ATOM     65  C   UNL A   1      42.277  32.708  33.517  1.00  0.00     0.029 A 
ATOM     66  N   UNL A   1      41.426  31.923  31.620  1.00  0.00    -0.354 N 
ATOM     67  N   UNL A   1      42.682  34.767  29.816  1.00  0.00    -0.248 NA
ATOM     68  C   UNL A   1      42.140  36.352  28.245  1.00  0.00     0.031 C 
ATOM     69  C   UNL A   1      41.744  33.791  32.778  1.00  0.00     0.029 A 
ATOM     70  C   UNL A   1      41.234  33.292  31.593  1.00  0.00     0.049 A 
ATOM     71  H   UNL A   1      41.122  31.300  30.921  1.00  0.00     0.167 HD
ATOM     72  C   UNL A   1      41.311  34.773  29.733  1.00  0.00     0.074 A 
ATOM     73  C   UNL A   1      41.021  35.799  28.750  1.00  0.00     0.031 C 
ATOM     74  C   UNL A   1      40.537  33.933  30.487  1.00  0.00     0.037 A 
BRANCH  61  75
ATOM     75  C   UNL A   1      42.506  29.242  33.966  1.00  0.00     0.058 A 
ATOM     76  C   UNL A   1      42.971  29.495  35.274  1.00  0.00     0.135 A 
ATOM     77  C   UNL A   1      41.885  27.991  33.783  1.00  0.00     0.135 A 
ATOM     78  F   UNL A   1      43.526  30.667  35.608  1.00  0.00    -0.206 F 
ATOM     79  C   UNL A   1      42.915  28.546  36.293  1.00  0.00     0.059 A 
ATOM     80  C   UNL A   1      41.863  27.004  34.775  1.00  0.00     0.059 A 
ATOM     81  F   UNL A   1      41.274  27.691  32.627  1.00  0.00    -0.206 F 
ATOM     82  C   UNL A   1      42.390  27.289  36.028  1.00  0.00     0.060 A 
BRANCH  82  83
ATOM     83  S   UNL A   1      42.440  26.042  37.330  1.00  0.00     0.124 S 
ATOM     84  O   UNL A   1      43.464  26.572  38.227  1.00  0.00    -0.237 OA
ATOM     85  O   UNL A   1      41.073  26.079  37.836  1.00  0.00    -0.237 OA
ATOM     86  O   UNL A   1      42.816  24.824  36.618  1.00  0.00    -0.744 OA
ENDBRANCH  82  83
ENDBRANCH  61  75
BRANCH  62  87
ATOM     87  C   UNL A   1      45.405  35.936  27.514  1.00  0.00     0.058 A 
ATOM     88  C   UNL A   1      46.267  37.033  27.311  1.00  0.00     0.135 A 
ATOM     89  C   UNL A   1      45.659  34.772  26.775  1.00  0.00     0.135 A 
ATOM     90  F   UNL A   1      46.056  38.182  27.973  1.00  0.00    -0.206 F 
ATOM     91  C   UNL A   1      47.437  36.919  26.565  1.00  0.00     0.059 A 
ATOM     92  C   UNL A   1      46.823  34.640  26.011  1.00  0.00     0.059 A 
ATOM     93  F   UNL A   1      44.867  33.699  26.914  1.00  0.00    -0.206 F 
ATOM     94  C   UNL A   1      47.744  35.690  25.987  1.00  0.00     0.060 A 
BRANCH  94  95
ATOM     95  S   UNL A   1      49.424  35.449  25.353  1.00  0.00     0.124 S 
ATOM     96  O   UNL A   1      49.466  36.375  24.227  1.00  0.00    -0.237 OA
ATOM     97  O   UNL A   1      50.251  35.825  26.502  1.00  0.00    -0.237 OA
ATOM     98  O   UNL A   1      49.454  34.033  25.008  1.00  0.00    -0.744 OA
ENDBRANCH  94  95
ENDBRANCH  62  87
BRANCH  74  99
ATOM     99  C   UNL A   1      39.046  33.702  30.351  1.00  0.00     0.058 A 
ATOM    100  C   UNL A   1      38.466  32.741  29.507  1.00  0.00     0.135 A 
ATOM    101  C   UNL A   1      38.137  34.377  31.209  1.00  0.00     0.135 A 
ATOM    102  F   UNL A   1      39.218  31.954  28.725  1.00  0.00    -0.206 F 
ATOM    103  C   UNL A   1      37.088  32.508  29.468  1.00  0.00     0.059 A 
ATOM    104  C   UNL A   1      36.769  34.119  31.228  1.00  0.00     0.059 A 
ATOM    105  F   UNL A   1      38.552  35.308  32.081  1.00  0.00    -0.206 F 
ATOM    106  C   UNL A   1      36.247  33.200  30.334  1.00  0.00     0.060 A 
BRANCH 106 107
ATOM    107  S   UNL A   1      34.479  32.854  30.343  1.00  0.00     0.124 S 
ATOM    108  O   UNL A   1      34.297  32.307  31.683  1.00  0.00    -0.237 OA
ATOM    109  O   UNL A   1      33.890  34.170  30.113  1.00  0.00    -0.237 OA
ATOM    110  O   UNL A   1      34.320  31.907  29.244  1.00  0.00    -0.744 OA
ENDBRANCH 106 107
ENDBRANCH  74  99
ENDBRANCH  48  49
ENDBRANCH  40  43
ENDBRANCH  38  39
ENDBRANCH   1  38
TORSDOF 16
ENDMDL
