MODEL 1
REMARK VINA RESULT:     -12.0      0.000      0.000
REMARK SMILES Cc1ccc([C@@H](C[NH+](C)C)N2C[C@@H](C(=O)NCCCNC(=O)c3ccc(-c4c5nc(c(-c6c(F)cc(S(=O)(=O)[O-])cc6F)c6ccc([nH]6)c(-c6c(F)cc(S(=O)(=O)[O-])cc6F)c6nc(c(-c7c(F)cc(S(=O)(=O)[O-])cc7F)c7ccc4[nH]7)C=C6)C=C5)cc3)CC2=O)cc1C
REMARK SMILES IDX 18 1 17 2 16 3 14 4 15 5 13 7 11 8 12 9 90 10 89 11 91 12
REMARK SMILES IDX 6 13 5 14 1 15 2 16 3 17 93 18 4 19 92 20 94 21 7 22 8 23
REMARK SMILES IDX 9 24 10 25 19 27 20 28 21 29 22 31 23 32 24 33 88 34 25 35
REMARK SMILES IDX 87 36 26 37 27 38 28 39 81 40 29 41 86 42 80 43 82 44 30 45
REMARK SMILES IDX 85 46 79 47 78 48 31 50 65 51 44 52 64 53 45 54 48 55 63 56
REMARK SMILES IDX 83 57 46 58 47 59 62 61 84 62 49 63 32 64 33 65 42 66 34 67
REMARK SMILES IDX 35 68 41 69 43 70 36 71 37 72 38 73 39 74 40 75 66 76 67 77
REMARK SMILES IDX 76 78 68 79 69 80 75 81 77 82 70 83 71 84 72 85 73 86 74 87
REMARK SMILES IDX 50 88 51 89 60 90 52 91 53 92 59 93 61 94 54 95 55 96 56 97
REMARK SMILES IDX 57 98 58 99
REMARK H PARENT 16 6 8 26 20 30 82 49 48 60
REMARK Flexibility Score: inf
ROOT
ATOM      1  C   UNL A   1      40.913  22.466  27.752  1.00  0.00     0.042 C 
ENDROOT
BRANCH   1   2
ATOM      2  C   UNL A   1      39.702  22.750  26.879  1.00  0.00     0.117 C 
BRANCH   2   3
ATOM      3  N   UNL A   1      39.292  21.599  26.092  1.00  0.00    -0.356 N 
ATOM      4  C   UNL A   1      38.183  21.389  25.337  1.00  0.00     0.225 C 
ATOM      5  O   UNL A   1      38.101  20.317  24.732  1.00  0.00    -0.275 OA
ATOM      6  H   UNL A   1      39.924  20.845  26.109  1.00  0.00     0.163 HD
BRANCH   4   7
ATOM      7  C   UNL A   1      37.073  22.412  25.210  1.00  0.00     0.107 C 
ATOM      8  N   UNL A   1      34.773  22.277  24.704  1.00  0.00    -0.329 N 
ATOM      9  C   UNL A   1      35.733  21.900  25.714  1.00  0.00     0.134 C 
ATOM     10  C   UNL A   1      35.344  23.024  23.684  1.00  0.00     0.224 C 
ATOM     11  C   UNL A   1      36.842  22.918  23.793  1.00  0.00     0.115 C 
ATOM     12  O   UNL A   1      34.762  23.651  22.820  1.00  0.00    -0.275 OA
BRANCH   8  13
ATOM     13  C   UNL A   1      33.318  22.080  24.829  1.00  0.00     0.170 C 
BRANCH  13  14
ATOM     14  C   UNL A   1      32.929  20.605  24.799  1.00  0.00    -0.020 A 
ATOM     15  C   UNL A   1      32.506  16.299  24.682  1.00  0.00     0.044 C 
ATOM     16  C   UNL A   1      32.576  17.800  24.697  1.00  0.00    -0.048 A 
ATOM     17  C   UNL A   1      32.783  18.460  25.920  1.00  0.00     0.004 A 
ATOM     18  C   UNL A   1      32.487  18.561  23.518  1.00  0.00    -0.048 A 
ATOM     19  C   UNL A   1      32.966  19.842  25.970  1.00  0.00     0.006 A 
ATOM     20  C   UNL A   1      32.627  19.956  23.594  1.00  0.00     0.009 A 
ATOM     21  C   UNL A   1      32.373  17.949  22.147  1.00  0.00     0.044 C 
ENDBRANCH  13  14
BRANCH  13  22
ATOM     22  C   UNL A   1      32.617  22.835  26.032  1.00  0.00     0.292 C 
BRANCH  22  23
ATOM     23  N   UNL A   1      32.164  24.230  25.791  1.00  0.00    -0.338 N 
ATOM     24  C   UNL A   1      33.238  25.196  26.035  1.00  0.00     0.332 C 
ATOM     25  C   UNL A   1      31.668  24.434  24.422  1.00  0.00     0.332 C 
ATOM     26  H   UNL A   1      31.400  24.384  26.449  1.00  0.00     0.347 HD
ENDBRANCH  22  23
ENDBRANCH  13  22
ENDBRANCH   8  13
ENDBRANCH   4   7
ENDBRANCH   2   3
ENDBRANCH   1   2
BRANCH   1  27
ATOM     27  C   UNL A   1      42.159  23.240  27.356  1.00  0.00     0.118 C 
BRANCH  27  28
ATOM     28  N   UNL A   1      41.955  24.077  26.181  1.00  0.00    -0.352 N 
ATOM     29  C   UNL A   1      41.544  25.385  26.090  1.00  0.00     0.251 C 
ATOM     30  H   UNL A   1      42.142  23.638  25.319  1.00  0.00     0.163 HD
ATOM     31  O   UNL A   1      41.262  25.852  24.989  1.00  0.00    -0.269 OA
BRANCH  29  32
ATOM     32  C   UNL A   1      41.415  26.218  27.306  1.00  0.00     0.039 A 
ATOM     33  C   UNL A   1      42.392  27.180  27.574  1.00  0.00     0.014 A 
ATOM     34  C   UNL A   1      40.342  26.052  28.187  1.00  0.00     0.014 A 
ATOM     35  C   UNL A   1      42.257  28.015  28.686  1.00  0.00     0.010 A 
ATOM     36  C   UNL A   1      40.157  26.947  29.235  1.00  0.00     0.010 A 
ATOM     37  C   UNL A   1      41.118  27.933  29.505  1.00  0.00    -0.014 A 
BRANCH  37  38
ATOM     38  C   UNL A   1      40.921  28.858  30.651  1.00  0.00     0.031 A 
ATOM     39  C   UNL A   1      41.775  28.727  31.884  1.00  0.00     0.074 A 
ATOM     40  C   UNL A   1      39.934  29.775  30.606  1.00  0.00     0.049 A 
ATOM     41  N   UNL A   1      41.721  29.404  33.003  1.00  0.00    -0.248 NA
ATOM     42  C   UNL A   1      42.809  27.679  31.871  1.00  0.00     0.031 C 
ATOM     43  C   UNL A   1      39.006  29.966  29.489  1.00  0.00     0.029 A 
ATOM     44  N   UNL A   1      39.542  30.716  31.525  1.00  0.00    -0.354 N 
ATOM     45  C   UNL A   1      42.696  28.855  33.828  1.00  0.00     0.074 A 
ATOM     46  C   UNL A   1      43.288  27.751  33.104  1.00  0.00     0.031 C 
ATOM     47  C   UNL A   1      38.176  30.983  29.774  1.00  0.00     0.029 A 
ATOM     48  C   UNL A   1      38.482  31.488  31.108  1.00  0.00     0.049 A 
ATOM     49  H   UNL A   1      39.979  30.829  32.400  1.00  0.00     0.167 HD
ATOM     50  C   UNL A   1      43.083  29.249  35.065  1.00  0.00     0.037 A 
ATOM     51  C   UNL A   1      37.826  32.486  31.733  1.00  0.00     0.037 A 
ATOM     52  C   UNL A   1      42.506  30.366  35.768  1.00  0.00     0.049 A 
ATOM     53  C   UNL A   1      38.269  32.903  33.110  1.00  0.00     0.074 A 
ATOM     54  C   UNL A   1      42.868  30.887  36.998  1.00  0.00     0.029 A 
ATOM     55  N   UNL A   1      41.442  31.129  35.310  1.00  0.00    -0.354 N 
ATOM     56  N   UNL A   1      39.243  32.419  33.845  1.00  0.00    -0.248 NA
ATOM     57  C   UNL A   1      37.530  34.004  33.741  1.00  0.00     0.031 C 
ATOM     58  C   UNL A   1      41.988  31.931  37.307  1.00  0.00     0.029 A 
ATOM     59  C   UNL A   1      41.117  32.100  36.242  1.00  0.00     0.049 A 
ATOM     60  H   UNL A   1      40.984  30.999  34.447  1.00  0.00     0.167 HD
ATOM     61  C   UNL A   1      39.254  33.180  35.010  1.00  0.00     0.074 A 
ATOM     62  C   UNL A   1      38.197  34.162  34.875  1.00  0.00     0.031 C 
ATOM     63  C   UNL A   1      40.067  33.077  36.091  1.00  0.00     0.037 A 
BRANCH  50  64
ATOM     64  C   UNL A   1      44.181  28.468  35.737  1.00  0.00     0.058 A 
ATOM     65  C   UNL A   1      43.905  27.392  36.597  1.00  0.00     0.135 A 
ATOM     66  C   UNL A   1      45.529  28.781  35.497  1.00  0.00     0.135 A 
ATOM     67  F   UNL A   1      42.635  27.055  36.875  1.00  0.00    -0.206 F 
ATOM     68  C   UNL A   1      44.923  26.678  37.220  1.00  0.00     0.059 A 
ATOM     69  C   UNL A   1      46.564  28.060  36.085  1.00  0.00     0.059 A 
ATOM     70  F   UNL A   1      45.852  29.799  34.684  1.00  0.00    -0.206 F 
ATOM     71  C   UNL A   1      46.251  27.020  36.959  1.00  0.00     0.060 A 
BRANCH  71  72
ATOM     72  S   UNL A   1      47.558  26.084  37.779  1.00  0.00     0.124 S 
ATOM     73  O   UNL A   1      48.341  27.154  38.391  1.00  0.00    -0.237 OA
ATOM     74  O   UNL A   1      46.806  25.241  38.703  1.00  0.00    -0.237 OA
ATOM     75  O   UNL A   1      48.213  25.379  36.681  1.00  0.00    -0.744 OA
ENDBRANCH  71  72
ENDBRANCH  50  64
BRANCH  51  76
ATOM     76  C   UNL A   1      36.702  33.182  31.051  1.00  0.00     0.058 A 
ATOM     77  C   UNL A   1      35.371  32.931  31.419  1.00  0.00     0.135 A 
ATOM     78  C   UNL A   1      36.930  34.114  30.027  1.00  0.00     0.135 A 
ATOM     79  F   UNL A   1      35.099  32.044  32.389  1.00  0.00    -0.206 F 
ATOM     80  C   UNL A   1      34.306  33.563  30.785  1.00  0.00     0.059 A 
ATOM     81  C   UNL A   1      35.883  34.781  29.397  1.00  0.00     0.059 A 
ATOM     82  F   UNL A   1      38.185  34.404  29.648  1.00  0.00    -0.206 F 
ATOM     83  C   UNL A   1      34.573  34.490  29.776  1.00  0.00     0.060 A 
BRANCH  83  84
ATOM     84  S   UNL A   1      33.184  35.334  28.991  1.00  0.00     0.124 S 
ATOM     85  O   UNL A   1      32.649  34.285  28.131  1.00  0.00    -0.237 OA
ATOM     86  O   UNL A   1      32.360  35.701  30.140  1.00  0.00    -0.237 OA
ATOM     87  O   UNL A   1      33.819  36.455  28.301  1.00  0.00    -0.744 OA
ENDBRANCH  83  84
ENDBRANCH  51  76
BRANCH  63  88
ATOM     88  C   UNL A   1      39.877  34.078  37.199  1.00  0.00     0.058 A 
ATOM     89  C   UNL A   1      40.422  35.371  37.133  1.00  0.00     0.135 A 
ATOM     90  C   UNL A   1      39.100  33.751  38.323  1.00  0.00     0.135 A 
ATOM     91  F   UNL A   1      41.177  35.733  36.085  1.00  0.00    -0.206 F 
ATOM     92  C   UNL A   1      40.226  36.293  38.157  1.00  0.00     0.059 A 
ATOM     93  C   UNL A   1      38.865  34.668  39.341  1.00  0.00     0.059 A 
ATOM     94  F   UNL A   1      38.545  32.533  38.431  1.00  0.00    -0.206 F 
ATOM     95  C   UNL A   1      39.444  35.933  39.256  1.00  0.00     0.060 A 
BRANCH  95  96
ATOM     96  S   UNL A   1      39.176  37.149  40.563  1.00  0.00     0.124 S 
ATOM     97  O   UNL A   1      40.529  37.652  40.779  1.00  0.00    -0.237 OA
ATOM     98  O   UNL A   1      38.246  38.082  39.935  1.00  0.00    -0.237 OA
ATOM     99  O   UNL A   1      38.619  36.358  41.656  1.00  0.00    -0.744 OA
ENDBRANCH  95  96
ENDBRANCH  63  88
ENDBRANCH  37  38
ENDBRANCH  29  32
ENDBRANCH  27  28
ENDBRANCH   1  27
TORSDOF 17
ENDMDL
MODEL 2
REMARK VINA RESULT:     -11.8      3.102      9.418
REMARK SMILES Cc1ccc([C@@H](C[NH+](C)C)N2C[C@@H](C(=O)NCCCNC(=O)c3ccc(-c4c5nc(c(-c6c(F)cc(S(=O)(=O)[O-])cc6F)c6ccc([nH]6)c(-c6c(F)cc(S(=O)(=O)[O-])cc6F)c6nc(c(-c7c(F)cc(S(=O)(=O)[O-])cc7F)c7ccc4[nH]7)C=C6)C=C5)cc3)CC2=O)cc1C
REMARK SMILES IDX 18 1 17 2 16 3 14 4 15 5 13 7 11 8 12 9 90 10 89 11 91 12
REMARK SMILES IDX 6 13 5 14 1 15 2 16 3 17 93 18 4 19 92 20 94 21 7 22 8 23
REMARK SMILES IDX 9 24 10 25 19 27 20 28 21 29 22 31 23 32 24 33 88 34 25 35
REMARK SMILES IDX 87 36 26 37 27 38 28 39 81 40 29 41 86 42 80 43 82 44 30 45
REMARK SMILES IDX 85 46 79 47 78 48 31 50 65 51 44 52 64 53 45 54 48 55 63 56
REMARK SMILES IDX 83 57 46 58 47 59 62 61 84 62 49 63 32 64 33 65 42 66 34 67
REMARK SMILES IDX 35 68 41 69 43 70 36 71 37 72 38 73 39 74 40 75 66 76 67 77
REMARK SMILES IDX 76 78 68 79 69 80 75 81 77 82 70 83 71 84 72 85 73 86 74 87
REMARK SMILES IDX 50 88 51 89 60 90 52 91 53 92 59 93 61 94 54 95 55 96 56 97
REMARK SMILES IDX 57 98 58 99
REMARK H PARENT 16 6 8 26 20 30 82 49 48 60
REMARK Flexibility Score: inf
ROOT
ATOM      1  C   UNL A   1      31.836  32.431  26.994  1.00  0.00     0.042 C 
ENDROOT
BRANCH   1   2
ATOM      2  C   UNL A   1      32.204  30.967  26.825  1.00  0.00     0.117 C 
BRANCH   2   3
ATOM      3  N   UNL A   1      33.617  30.712  27.046  1.00  0.00    -0.356 N 
ATOM      4  C   UNL A   1      34.316  29.548  27.074  1.00  0.00     0.225 C 
ATOM      5  O   UNL A   1      35.536  29.620  27.247  1.00  0.00    -0.275 OA
ATOM      6  H   UNL A   1      34.159  31.518  27.203  1.00  0.00     0.163 HD
BRANCH   4   7
ATOM      7  C   UNL A   1      33.661  28.195  26.891  1.00  0.00     0.107 C 
ATOM      8  N   UNL A   1      32.155  27.306  25.308  1.00  0.00    -0.329 N 
ATOM      9  C   UNL A   1      33.505  27.804  25.430  1.00  0.00     0.134 C 
ATOM     10  C   UNL A   1      31.491  27.271  26.526  1.00  0.00     0.224 C 
ATOM     11  C   UNL A   1      32.283  28.072  27.526  1.00  0.00     0.115 C 
ATOM     12  O   UNL A   1      30.438  26.715  26.771  1.00  0.00    -0.275 OA
BRANCH   8  13
ATOM     13  C   UNL A   1      31.600  26.708  24.081  1.00  0.00     0.170 C 
BRANCH  13  14
ATOM     14  C   UNL A   1      30.671  27.665  23.339  1.00  0.00    -0.020 A 
ATOM     15  C   UNL A   1      28.129  30.801  21.777  1.00  0.00     0.044 C 
ATOM     16  C   UNL A   1      28.974  29.659  22.270  1.00  0.00    -0.048 A 
ATOM     17  C   UNL A   1      30.360  29.692  22.045  1.00  0.00     0.004 A 
ATOM     18  C   UNL A   1      28.423  28.584  22.990  1.00  0.00    -0.048 A 
ATOM     19  C   UNL A   1      31.199  28.713  22.580  1.00  0.00     0.006 A 
ATOM     20  C   UNL A   1      29.279  27.583  23.481  1.00  0.00     0.009 A 
ATOM     21  C   UNL A   1      26.972  28.506  23.377  1.00  0.00     0.044 C 
ENDBRANCH  13  14
BRANCH  13  22
ATOM     22  C   UNL A   1      32.649  26.047  23.096  1.00  0.00     0.292 C 
BRANCH  22  23
ATOM     23  N   UNL A   1      32.979  24.614  23.312  1.00  0.00    -0.338 N 
ATOM     24  C   UNL A   1      33.052  23.879  22.047  1.00  0.00     0.332 C 
ATOM     25  C   UNL A   1      34.254  24.428  24.022  1.00  0.00     0.332 C 
ATOM     26  H   UNL A   1      32.221  24.245  23.887  1.00  0.00     0.347 HD
ENDBRANCH  22  23
ENDBRANCH  13  22
ENDBRANCH   8  13
ENDBRANCH   4   7
ENDBRANCH   2   3
ENDBRANCH   1   2
BRANCH   1  27
ATOM     27  C   UNL A   1      33.016  33.336  27.310  1.00  0.00     0.118 C 
BRANCH  27  28
ATOM     28  N   UNL A   1      32.617  34.580  27.954  1.00  0.00    -0.352 N 
ATOM     29  C   UNL A   1      33.045  35.139  29.135  1.00  0.00     0.251 C 
ATOM     30  H   UNL A   1      31.939  35.103  27.468  1.00  0.00     0.163 HD
ATOM     31  O   UNL A   1      32.449  36.112  29.590  1.00  0.00    -0.269 OA
BRANCH  29  32
ATOM     32  C   UNL A   1      34.193  34.561  29.867  1.00  0.00     0.039 A 
ATOM     33  C   UNL A   1      33.962  33.901  31.076  1.00  0.00     0.014 A 
ATOM     34  C   UNL A   1      35.497  34.672  29.373  1.00  0.00     0.014 A 
ATOM     35  C   UNL A   1      35.026  33.298  31.753  1.00  0.00     0.010 A 
ATOM     36  C   UNL A   1      36.537  33.988  29.995  1.00  0.00     0.010 A 
ATOM     37  C   UNL A   1      36.317  33.303  31.198  1.00  0.00    -0.014 A 
BRANCH  37  38
ATOM     38  C   UNL A   1      37.449  32.608  31.866  1.00  0.00     0.031 A 
ATOM     39  C   UNL A   1      37.966  33.106  33.190  1.00  0.00     0.074 A 
ATOM     40  C   UNL A   1      38.048  31.568  31.254  1.00  0.00     0.049 A 
ATOM     41  N   UNL A   1      38.973  32.668  33.902  1.00  0.00    -0.248 NA
ATOM     42  C   UNL A   1      37.281  34.268  33.779  1.00  0.00     0.031 C 
ATOM     43  C   UNL A   1      37.672  31.025  29.946  1.00  0.00     0.029 A 
ATOM     44  N   UNL A   1      39.104  30.784  31.645  1.00  0.00    -0.354 N 
ATOM     45  C   UNL A   1      39.051  33.506  35.007  1.00  0.00     0.074 A 
ATOM     46  C   UNL A   1      38.029  34.516  34.845  1.00  0.00     0.031 C 
ATOM     47  C   UNL A   1      38.462  29.977  29.661  1.00  0.00     0.029 A 
ATOM     48  C   UNL A   1      39.428  29.799  30.740  1.00  0.00     0.049 A 
ATOM     49  H   UNL A   1      39.585  30.913  32.494  1.00  0.00     0.167 HD
ATOM     50  C   UNL A   1      39.882  33.428  36.075  1.00  0.00     0.037 A 
ATOM     51  C   UNL A   1      40.396  28.863  30.774  1.00  0.00     0.037 A 
ATOM     52  C   UNL A   1      40.881  32.405  36.242  1.00  0.00     0.049 A 
ATOM     53  C   UNL A   1      41.312  28.800  31.967  1.00  0.00     0.074 A 
ATOM     54  C   UNL A   1      41.731  32.199  37.315  1.00  0.00     0.029 A 
ATOM     55  N   UNL A   1      41.172  31.420  35.309  1.00  0.00    -0.354 N 
ATOM     56  N   UNL A   1      41.323  29.557  33.039  1.00  0.00    -0.248 NA
ATOM     57  C   UNL A   1      42.341  27.753  31.960  1.00  0.00     0.031 C 
ATOM     58  C   UNL A   1      42.570  31.122  37.008  1.00  0.00     0.029 A 
ATOM     59  C   UNL A   1      42.204  30.619  35.770  1.00  0.00     0.049 A 
ATOM     60  H   UNL A   1      40.711  31.305  34.446  1.00  0.00     0.167 HD
ATOM     61  C   UNL A   1      42.338  29.056  33.848  1.00  0.00     0.074 A 
ATOM     62  C   UNL A   1      42.908  27.924  33.145  1.00  0.00     0.031 C 
ATOM     63  C   UNL A   1      42.757  29.490  35.063  1.00  0.00     0.037 A 
BRANCH  50  64
ATOM     64  C   UNL A   1      39.746  34.479  37.145  1.00  0.00     0.058 A 
ATOM     65  C   UNL A   1      40.420  35.709  37.065  1.00  0.00     0.135 A 
ATOM     66  C   UNL A   1      38.908  34.266  38.252  1.00  0.00     0.135 A 
ATOM     67  F   UNL A   1      41.246  35.964  36.037  1.00  0.00    -0.206 F 
ATOM     68  C   UNL A   1      40.297  36.673  38.060  1.00  0.00     0.059 A 
ATOM     69  C   UNL A   1      38.744  35.230  39.243  1.00  0.00     0.059 A 
ATOM     70  F   UNL A   1      38.239  33.110  38.380  1.00  0.00    -0.206 F 
ATOM     71  C   UNL A   1      39.456  36.424  39.147  1.00  0.00     0.060 A 
BRANCH  71  72
ATOM     72  S   UNL A   1      39.309  37.686  40.429  1.00  0.00     0.124 S 
ATOM     73  O   UNL A   1      40.641  38.284  40.402  1.00  0.00    -0.237 OA
ATOM     74  O   UNL A   1      38.229  38.524  39.919  1.00  0.00    -0.237 OA
ATOM     75  O   UNL A   1      38.991  36.918  41.629  1.00  0.00    -0.744 OA
ENDBRANCH  71  72
ENDBRANCH  50  64
BRANCH  51  76
ATOM     76  C   UNL A   1      40.532  27.889  29.657  1.00  0.00     0.058 A 
ATOM     77  C   UNL A   1      39.646  26.807  29.534  1.00  0.00     0.135 A 
ATOM     78  C   UNL A   1      41.537  28.022  28.687  1.00  0.00     0.135 A 
ATOM     79  F   UNL A   1      38.671  26.633  30.440  1.00  0.00    -0.206 F 
ATOM     80  C   UNL A   1      39.764  25.881  28.503  1.00  0.00     0.059 A 
ATOM     81  C   UNL A   1      41.658  27.124  27.629  1.00  0.00     0.059 A 
ATOM     82  F   UNL A   1      42.400  29.049  28.747  1.00  0.00    -0.206 F 
ATOM     83  C   UNL A   1      40.772  26.049  27.553  1.00  0.00     0.060 A 
BRANCH  83  84
ATOM     84  S   UNL A   1      40.888  24.864  26.197  1.00  0.00     0.124 S 
ATOM     85  O   UNL A   1      39.496  24.460  26.039  1.00  0.00    -0.237 OA
ATOM     86  O   UNL A   1      41.442  25.683  25.122  1.00  0.00    -0.237 OA
ATOM     87  O   UNL A   1      41.788  23.840  26.721  1.00  0.00    -0.744 OA
ENDBRANCH  83  84
ENDBRANCH  51  76
BRANCH  63  88
ATOM     88  C   UNL A   1      43.859  28.715  35.734  1.00  0.00     0.058 A 
ATOM     89  C   UNL A   1      43.595  27.603  36.549  1.00  0.00     0.135 A 
ATOM     90  C   UNL A   1      45.203  29.067  35.520  1.00  0.00     0.135 A 
ATOM     91  F   UNL A   1      42.329  27.227  36.791  1.00  0.00    -0.206 F 
ATOM     92  C   UNL A   1      44.623  26.884  37.152  1.00  0.00     0.059 A 
ATOM     93  C   UNL A   1      46.246  28.343  36.086  1.00  0.00     0.059 A 
ATOM     94  F   UNL A   1      45.512  30.114  34.740  1.00  0.00    -0.206 F 
ATOM     95  C   UNL A   1      45.947  27.261  36.912  1.00  0.00     0.060 A 
BRANCH  95  96
ATOM     96  S   UNL A   1      47.271  26.303  37.678  1.00  0.00     0.124 S 
ATOM     97  O   UNL A   1      46.540  25.148  38.190  1.00  0.00    -0.237 OA
ATOM     98  O   UNL A   1      48.160  26.042  36.551  1.00  0.00    -0.237 OA
ATOM     99  O   UNL A   1      47.803  27.208  38.692  1.00  0.00    -0.744 OA
ENDBRANCH  95  96
ENDBRANCH  63  88
ENDBRANCH  37  38
ENDBRANCH  29  32
ENDBRANCH  27  28
ENDBRANCH   1  27
TORSDOF 17
ENDMDL
MODEL 3
REMARK VINA RESULT:     -11.8      3.130      9.223
REMARK SMILES Cc1ccc([C@@H](C[NH+](C)C)N2C[C@@H](C(=O)NCCCNC(=O)c3ccc(-c4c5nc(c(-c6c(F)cc(S(=O)(=O)[O-])cc6F)c6ccc([nH]6)c(-c6c(F)cc(S(=O)(=O)[O-])cc6F)c6nc(c(-c7c(F)cc(S(=O)(=O)[O-])cc7F)c7ccc4[nH]7)C=C6)C=C5)cc3)CC2=O)cc1C
REMARK SMILES IDX 18 1 17 2 16 3 14 4 15 5 13 7 11 8 12 9 90 10 89 11 91 12
REMARK SMILES IDX 6 13 5 14 1 15 2 16 3 17 93 18 4 19 92 20 94 21 7 22 8 23
REMARK SMILES IDX 9 24 10 25 19 27 20 28 21 29 22 31 23 32 24 33 88 34 25 35
REMARK SMILES IDX 87 36 26 37 27 38 28 39 81 40 29 41 86 42 80 43 82 44 30 45
REMARK SMILES IDX 85 46 79 47 78 48 31 50 65 51 44 52 64 53 45 54 48 55 63 56
REMARK SMILES IDX 83 57 46 58 47 59 62 61 84 62 49 63 32 64 33 65 42 66 34 67
REMARK SMILES IDX 35 68 41 69 43 70 36 71 37 72 38 73 39 74 40 75 66 76 67 77
REMARK SMILES IDX 76 78 68 79 69 80 75 81 77 82 70 83 71 84 72 85 73 86 74 87
REMARK SMILES IDX 50 88 51 89 60 90 52 91 53 92 59 93 61 94 54 95 55 96 56 97
REMARK SMILES IDX 57 98 58 99
REMARK H PARENT 16 6 8 26 20 30 82 49 48 60
REMARK Flexibility Score: inf
ROOT
ATOM      1  C   UNL A   1      31.824  32.016  26.891  1.00  0.00     0.042 C 
ENDROOT
BRANCH   1   2
ATOM      2  C   UNL A   1      32.145  30.545  26.683  1.00  0.00     0.117 C 
BRANCH   2   3
ATOM      3  N   UNL A   1      33.526  30.220  26.992  1.00  0.00    -0.356 N 
ATOM      4  C   UNL A   1      34.183  29.031  26.984  1.00  0.00     0.225 C 
ATOM      5  O   UNL A   1      35.386  29.044  27.256  1.00  0.00    -0.275 OA
ATOM      6  H   UNL A   1      34.080  30.991  27.251  1.00  0.00     0.163 HD
BRANCH   4   7
ATOM      7  C   UNL A   1      33.500  27.722  26.648  1.00  0.00     0.107 C 
ATOM      8  N   UNL A   1      31.958  27.058  24.990  1.00  0.00    -0.329 N 
ATOM      9  C   UNL A   1      33.319  27.514  25.153  1.00  0.00     0.134 C 
ATOM     10  C   UNL A   1      31.310  26.886  26.205  1.00  0.00     0.224 C 
ATOM     11  C   UNL A   1      32.128  27.546  27.283  1.00  0.00     0.115 C 
ATOM     12  O   UNL A   1      30.249  26.322  26.396  1.00  0.00    -0.275 OA
BRANCH   8  13
ATOM     13  C   UNL A   1      31.378  26.622  23.708  1.00  0.00     0.170 C 
BRANCH  13  14
ATOM     14  C   UNL A   1      30.441  27.670  23.112  1.00  0.00    -0.020 A 
ATOM     15  C   UNL A   1      27.915  31.003  21.996  1.00  0.00     0.044 C 
ATOM     16  C   UNL A   1      28.750  29.798  22.331  1.00  0.00    -0.048 A 
ATOM     17  C   UNL A   1      30.124  29.823  22.042  1.00  0.00     0.004 A 
ATOM     18  C   UNL A   1      28.205  28.669  22.967  1.00  0.00    -0.048 A 
ATOM     19  C   UNL A   1      30.961  28.777  22.435  1.00  0.00     0.006 A 
ATOM     20  C   UNL A   1      29.055  27.605  23.313  1.00  0.00     0.009 A 
ATOM     21  C   UNL A   1      26.772  28.584  23.415  1.00  0.00     0.044 C 
ENDBRANCH  13  14
BRANCH  13  22
ATOM     22  C   UNL A   1      32.405  26.089  22.627  1.00  0.00     0.292 C 
BRANCH  22  23
ATOM     23  N   UNL A   1      32.646  24.622  22.581  1.00  0.00    -0.338 N 
ATOM     24  C   UNL A   1      33.920  24.265  23.208  1.00  0.00     0.332 C 
ATOM     25  C   UNL A   1      31.580  23.854  23.241  1.00  0.00     0.332 C 
ATOM     26  H   UNL A   1      32.665  24.382  21.590  1.00  0.00     0.347 HD
ENDBRANCH  22  23
ENDBRANCH  13  22
ENDBRANCH   8  13
ENDBRANCH   4   7
ENDBRANCH   2   3
ENDBRANCH   1   2
BRANCH   1  27
ATOM     27  C   UNL A   1      33.031  32.871  27.239  1.00  0.00     0.118 C 
BRANCH  27  28
ATOM     28  N   UNL A   1      32.666  34.203  27.701  1.00  0.00    -0.352 N 
ATOM     29  C   UNL A   1      33.126  34.919  28.781  1.00  0.00     0.251 C 
ATOM     30  H   UNL A   1      31.986  34.662  27.156  1.00  0.00     0.163 HD
ATOM     31  O   UNL A   1      32.555  35.959  29.100  1.00  0.00    -0.269 OA
BRANCH  29  32
ATOM     32  C   UNL A   1      34.279  34.432  29.569  1.00  0.00     0.039 A 
ATOM     33  C   UNL A   1      34.043  33.787  30.786  1.00  0.00     0.014 A 
ATOM     34  C   UNL A   1      35.591  34.615  29.121  1.00  0.00     0.014 A 
ATOM     35  C   UNL A   1      35.116  33.269  31.516  1.00  0.00     0.010 A 
ATOM     36  C   UNL A   1      36.647  34.013  29.798  1.00  0.00     0.010 A 
ATOM     37  C   UNL A   1      36.425  33.342  31.009  1.00  0.00    -0.014 A 
BRANCH  37  38
ATOM     38  C   UNL A   1      37.571  32.737  31.736  1.00  0.00     0.031 A 
ATOM     39  C   UNL A   1      38.280  31.537  31.165  1.00  0.00     0.074 A 
ATOM     40  C   UNL A   1      37.933  33.229  32.938  1.00  0.00     0.049 A 
ATOM     41  N   UNL A   1      39.264  30.839  31.673  1.00  0.00    -0.248 NA
ATOM     42  C   UNL A   1      37.804  31.037  29.866  1.00  0.00     0.031 C 
ATOM     43  C   UNL A   1      37.291  34.354  33.621  1.00  0.00     0.029 A 
ATOM     44  N   UNL A   1      38.927  32.843  33.802  1.00  0.00    -0.354 N 
ATOM     45  C   UNL A   1      39.511  29.814  30.768  1.00  0.00     0.074 A 
ATOM     46  C   UNL A   1      38.536  29.945  29.707  1.00  0.00     0.031 C 
ATOM     47  C   UNL A   1      37.928  34.588  34.779  1.00  0.00     0.029 A 
ATOM     48  C   UNL A   1      38.994  33.606  34.945  1.00  0.00     0.049 A 
ATOM     49  H   UNL A   1      39.536  32.091  33.621  1.00  0.00     0.167 HD
ATOM     50  C   UNL A   1      40.477  28.866  30.802  1.00  0.00     0.037 A 
ATOM     51  C   UNL A   1      39.817  33.520  36.009  1.00  0.00     0.037 A 
ATOM     52  C   UNL A   1      41.460  28.758  31.849  1.00  0.00     0.049 A 
ATOM     53  C   UNL A   1      40.879  32.453  36.028  1.00  0.00     0.074 A 
ATOM     54  C   UNL A   1      42.520  27.874  31.946  1.00  0.00     0.029 A 
ATOM     55  N   UNL A   1      41.501  29.555  32.984  1.00  0.00    -0.354 N 
ATOM     56  N   UNL A   1      41.144  31.537  35.126  1.00  0.00    -0.248 NA
ATOM     57  C   UNL A   1      41.757  32.412  37.204  1.00  0.00     0.031 C 
ATOM     58  C   UNL A   1      43.169  28.101  33.164  1.00  0.00     0.029 A 
ATOM     59  C   UNL A   1      42.552  29.168  33.799  1.00  0.00     0.049 A 
ATOM     60  H   UNL A   1      40.876  30.290  33.181  1.00  0.00     0.167 HD
ATOM     61  C   UNL A   1      42.241  30.833  35.611  1.00  0.00     0.074 A 
ATOM     62  C   UNL A   1      42.595  31.438  36.879  1.00  0.00     0.031 C 
ATOM     63  C   UNL A   1      42.898  29.784  35.056  1.00  0.00     0.037 A 
BRANCH  50  64
ATOM     64  C   UNL A   1      40.519  27.868  29.675  1.00  0.00     0.058 A 
ATOM     65  C   UNL A   1      41.489  27.936  28.660  1.00  0.00     0.135 A 
ATOM     66  C   UNL A   1      39.594  26.812  29.622  1.00  0.00     0.135 A 
ATOM     67  F   UNL A   1      42.390  28.932  28.650  1.00  0.00    -0.206 F 
ATOM     68  C   UNL A   1      41.518  27.016  27.618  1.00  0.00     0.059 A 
ATOM     69  C   UNL A   1      39.625  25.862  28.606  1.00  0.00     0.059 A 
ATOM     70  F   UNL A   1      38.646  26.696  30.565  1.00  0.00    -0.206 F 
ATOM     71  C   UNL A   1      40.581  25.982  27.598  1.00  0.00     0.060 A 
BRANCH  71  72
ATOM     72  S   UNL A   1      40.633  24.798  26.237  1.00  0.00     0.124 S 
ATOM     73  O   UNL A   1      39.262  24.296  26.236  1.00  0.00    -0.237 OA
ATOM     74  O   UNL A   1      40.999  25.642  25.104  1.00  0.00    -0.237 OA
ATOM     75  O   UNL A   1      41.652  23.840  26.656  1.00  0.00    -0.744 OA
ENDBRANCH  71  72
ENDBRANCH  50  64
BRANCH  51  76
ATOM     76  C   UNL A   1      39.690  34.490  37.130  1.00  0.00     0.058 A 
ATOM     77  C   UNL A   1      40.312  35.746  37.069  1.00  0.00     0.135 A 
ATOM     78  C   UNL A   1      38.941  34.189  38.278  1.00  0.00     0.135 A 
ATOM     79  F   UNL A   1      41.044  36.080  35.994  1.00  0.00    -0.206 F 
ATOM     80  C   UNL A   1      40.214  36.661  38.112  1.00  0.00     0.059 A 
ATOM     81  C   UNL A   1      38.804  35.099  39.323  1.00  0.00     0.059 A 
ATOM     82  F   UNL A   1      38.311  33.008  38.380  1.00  0.00    -0.206 F 
ATOM     83  C   UNL A   1      39.455  36.329  39.235  1.00  0.00     0.060 A 
BRANCH  83  84
ATOM     84  S   UNL A   1      39.300  37.542  40.563  1.00  0.00     0.124 S 
ATOM     85  O   UNL A   1      38.258  38.418  40.042  1.00  0.00    -0.237 OA
ATOM     86  O   UNL A   1      38.924  36.705  41.698  1.00  0.00    -0.237 OA
ATOM     87  O   UNL A   1      40.637  38.127  40.641  1.00  0.00    -0.744 OA
ENDBRANCH  83  84
ENDBRANCH  51  76
BRANCH  63  88
ATOM     88  C   UNL A   1      44.095  29.247  35.793  1.00  0.00     0.058 A 
ATOM     89  C   UNL A   1      43.999  28.155  36.671  1.00  0.00     0.135 A 
ATOM     90  C   UNL A   1      45.366  29.808  35.583  1.00  0.00     0.135 A 
ATOM     91  F   UNL A   1      42.808  27.585  36.912  1.00  0.00    -0.206 F 
ATOM     92  C   UNL A   1      45.115  27.657  37.335  1.00  0.00     0.059 A 
ATOM     93  C   UNL A   1      46.500  29.304  36.211  1.00  0.00     0.059 A 
ATOM     94  F   UNL A   1      45.517  30.846  34.745  1.00  0.00    -0.206 F 
ATOM     95  C   UNL A   1      46.363  28.238  37.097  1.00  0.00     0.060 A 
BRANCH  95  96
ATOM     96  S   UNL A   1      47.807  27.563  37.944  1.00  0.00     0.124 S 
ATOM     97  O   UNL A   1      47.540  27.943  39.328  1.00  0.00    -0.237 OA
ATOM     98  O   UNL A   1      47.706  26.138  37.648  1.00  0.00    -0.237 OA
ATOM     99  O   UNL A   1      48.927  28.251  37.310  1.00  0.00    -0.744 OA
ENDBRANCH  95  96
ENDBRANCH  63  88
ENDBRANCH  37  38
ENDBRANCH  29  32
ENDBRANCH  27  28
ENDBRANCH   1  27
TORSDOF 17
ENDMDL
