MODEL 1
REMARK VINA RESULT:     -10.7      0.000      0.000
REMARK SMILES CCCC[C@H](C(=O)NCCCNC(=O)c1ccc(-c2c3nc(c(-c4c(F)cc(S(=O)(=O)[O-])cc4F)c4ccc([nH]4)c(-c4c(F)cc(S(=O)(=O)[O-])cc4F)c4nc(c(-c5c(F)cc(S(=O)(=O)[O-])cc5F)c5ccc2[nH]5)C=C4)C=C3)cc1)[C@H](O)c1ccc(C(F)(F)F)cc1
REMARK SMILES IDX 10 1 9 2 8 3 6 4 7 5 5 7 4 8 3 9 2 10 1 11 81 12 83 13 84 14
REMARK SMILES IDX 92 15 85 16 91 17 86 18 87 19 88 20 89 21 90 22 82 23 11 25
REMARK SMILES IDX 12 26 13 27 14 29 15 30 16 31 80 32 17 33 79 34 18 35 19 36
REMARK SMILES IDX 20 37 73 38 21 39 78 40 72 41 74 42 22 43 77 44 71 45 70 46
REMARK SMILES IDX 23 48 57 49 36 50 56 51 37 52 40 53 55 54 75 55 38 56 39 57
REMARK SMILES IDX 54 59 76 60 41 61 24 62 25 63 34 64 26 65 27 66 33 67 35 68
REMARK SMILES IDX 28 69 29 70 30 71 31 72 32 73 58 74 59 75 68 76 60 77 61 78
REMARK SMILES IDX 67 79 69 80 62 81 63 82 64 83 65 84 66 85 42 86 43 87 52 88
REMARK SMILES IDX 44 89 45 90 51 91 53 92 46 93 47 94 48 95 49 96 50 97
REMARK H PARENT 8 6 82 24 12 28 74 47 40 58
REMARK Flexibility Score: inf
ROOT
ATOM      1  C   UNL A   1      33.700  27.917  24.874  1.00  0.00     0.042 C 
ENDROOT
BRANCH   1   2
ATOM      2  C   UNL A   1      32.644  26.926  24.391  1.00  0.00     0.117 C 
BRANCH   2   3
ATOM      3  N   UNL A   1      31.759  26.454  25.443  1.00  0.00    -0.356 N 
ATOM      4  C   UNL A   1      31.602  25.227  26.011  1.00  0.00     0.226 C 
ATOM      5  O   UNL A   1      30.753  25.119  26.902  1.00  0.00    -0.275 OA
ATOM      6  H   UNL A   1      31.164  27.147  25.809  1.00  0.00     0.163 HD
BRANCH   4   7
ATOM      7  C   UNL A   1      32.433  24.026  25.573  1.00  0.00     0.111 C 
BRANCH   7   8
ATOM      8  C   UNL A   1      33.808  24.103  26.301  1.00  0.00     0.016 C 
BRANCH   8   9
ATOM      9  C   UNL A   1      35.032  23.906  25.400  1.00  0.00     0.001 C 
BRANCH   9  10
ATOM     10  C   UNL A   1      35.883  22.667  25.679  1.00  0.00    -0.003 C 
ATOM     11  C   UNL A   1      36.052  21.747  24.480  1.00  0.00     0.004 C 
ENDBRANCH   9  10
ENDBRANCH   8   9
ENDBRANCH   7   8
BRANCH   7  12
ATOM     12  C   UNL A   1      31.703  22.712  25.966  1.00  0.00     0.157 C 
BRANCH  12  13
ATOM     13  C   UNL A   1      32.231  21.466  25.274  1.00  0.00    -0.019 A 
ATOM     14  C   UNL A   1      32.067  21.243  23.900  1.00  0.00     0.007 A 
ATOM     15  C   UNL A   1      32.880  20.480  26.036  1.00  0.00     0.007 A 
ATOM     16  C   UNL A   1      32.479  20.038  23.317  1.00  0.00     0.013 A 
ATOM     17  C   UNL A   1      33.273  19.271  25.461  1.00  0.00     0.013 A 
ATOM     18  C   UNL A   1      33.050  19.025  24.102  1.00  0.00     0.056 A 
BRANCH  18  19
ATOM     19  C   UNL A   1      33.392  17.688  23.491  1.00  0.00     0.416 C 
ATOM     20  F   UNL A   1      32.741  16.663  24.107  1.00  0.00    -0.166 F 
ATOM     21  F   UNL A   1      33.080  17.613  22.173  1.00  0.00    -0.166 F 
ATOM     22  F   UNL A   1      34.720  17.389  23.590  1.00  0.00    -0.166 F 
ENDBRANCH  18  19
ENDBRANCH  12  13
BRANCH  12  23
ATOM     23  O   UNL A   1      31.843  22.540  27.385  1.00  0.00    -0.388 OA
ATOM     24  H   UNL A   1      31.008  22.770  27.822  1.00  0.00     0.211 HD
ENDBRANCH  12  23
ENDBRANCH   7  12
ENDBRANCH   4   7
ENDBRANCH   2   3
ENDBRANCH   1   2
BRANCH   1  25
ATOM     25  C   UNL A   1      33.817  28.064  26.390  1.00  0.00     0.118 C 
BRANCH  25  26
ATOM     26  N   UNL A   1      33.560  29.423  26.837  1.00  0.00    -0.352 N 
ATOM     27  C   UNL A   1      34.330  30.257  27.612  1.00  0.00     0.251 C 
ATOM     28  H   UNL A   1      32.702  29.804  26.540  1.00  0.00     0.163 HD
ATOM     29  O   UNL A   1      33.834  31.300  28.038  1.00  0.00    -0.269 OA
BRANCH  27  30
ATOM     30  C   UNL A   1      35.734  29.921  27.952  1.00  0.00     0.039 A 
ATOM     31  C   UNL A   1      36.024  29.490  29.251  1.00  0.00     0.014 A 
ATOM     32  C   UNL A   1      36.774  30.087  27.033  1.00  0.00     0.014 A 
ATOM     33  C   UNL A   1      37.340  29.179  29.612  1.00  0.00     0.010 A 
ATOM     34  C   UNL A   1      38.082  29.733  27.382  1.00  0.00     0.010 A 
ATOM     35  C   UNL A   1      38.381  29.272  28.673  1.00  0.00    -0.014 A 
BRANCH  35  36
ATOM     36  C   UNL A   1      39.777  28.892  29.031  1.00  0.00     0.031 A 
ATOM     37  C   UNL A   1      40.683  29.875  29.727  1.00  0.00     0.074 A 
ATOM     38  C   UNL A   1      40.246  27.671  28.702  1.00  0.00     0.049 A 
ATOM     39  N   UNL A   1      41.942  29.743  30.062  1.00  0.00    -0.248 NA
ATOM     40  C   UNL A   1      40.103  31.179  30.082  1.00  0.00     0.031 C 
ATOM     41  C   UNL A   1      39.486  26.634  28.001  1.00  0.00     0.029 A 
ATOM     42  N   UNL A   1      41.477  27.097  28.905  1.00  0.00    -0.354 N 
ATOM     43  C   UNL A   1      42.307  30.944  30.661  1.00  0.00     0.074 A 
ATOM     44  C   UNL A   1      41.147  31.809  30.604  1.00  0.00     0.031 C 
ATOM     45  C   UNL A   1      40.260  25.547  27.851  1.00  0.00     0.029 A 
ATOM     46  C   UNL A   1      41.582  25.818  28.407  1.00  0.00     0.049 A 
ATOM     47  H   UNL A   1      42.216  27.557  29.364  1.00  0.00     0.167 HD
ATOM     48  C   UNL A   1      43.489  31.289  31.226  1.00  0.00     0.037 A 
ATOM     49  C   UNL A   1      42.625  24.966  28.390  1.00  0.00     0.037 A 
ATOM     50  C   UNL A   1      44.640  30.426  31.302  1.00  0.00     0.049 A 
ATOM     51  C   UNL A   1      43.936  25.384  29.003  1.00  0.00     0.074 A 
ATOM     52  C   UNL A   1      45.874  30.684  31.875  1.00  0.00     0.029 A 
ATOM     53  N   UNL A   1      44.699  29.136  30.796  1.00  0.00    -0.354 N 
ATOM     54  N   UNL A   1      44.248  26.512  29.594  1.00  0.00    -0.248 NA
ATOM     55  C   UNL A   1      45.038  24.411  28.949  1.00  0.00     0.031 C 
ATOM     56  C   UNL A   1      46.689  29.562  31.691  1.00  0.00     0.029 A 
ATOM     57  C   UNL A   1      45.950  28.590  31.039  1.00  0.00     0.049 A 
ATOM     58  H   UNL A   1      43.962  28.676  30.333  1.00  0.00     0.167 HD
ATOM     59  C   UNL A   1      45.568  26.371  30.009  1.00  0.00     0.074 A 
ATOM     60  C   UNL A   1      45.994  25.046  29.611  1.00  0.00     0.031 C 
ATOM     61  C   UNL A   1      46.356  27.261  30.660  1.00  0.00     0.037 A 
BRANCH  48  62
ATOM     62  C   UNL A   1      43.602  32.662  31.831  1.00  0.00     0.058 A 
ATOM     63  C   UNL A   1      43.916  33.781  31.044  1.00  0.00     0.135 A 
ATOM     64  C   UNL A   1      43.323  32.874  33.191  1.00  0.00     0.135 A 
ATOM     65  F   UNL A   1      44.203  33.631  29.741  1.00  0.00    -0.206 F 
ATOM     66  C   UNL A   1      43.969  35.060  31.587  1.00  0.00     0.059 A 
ATOM     67  C   UNL A   1      43.347  34.149  33.751  1.00  0.00     0.059 A 
ATOM     68  F   UNL A   1      43.014  31.839  33.988  1.00  0.00    -0.206 F 
ATOM     69  C   UNL A   1      43.680  35.234  32.941  1.00  0.00     0.060 A 
BRANCH  69  70
ATOM     70  S   UNL A   1      43.727  36.904  33.626  1.00  0.00     0.124 S 
ATOM     71  O   UNL A   1      43.831  37.713  32.414  1.00  0.00    -0.237 OA
ATOM     72  O   UNL A   1      42.450  36.989  34.332  1.00  0.00    -0.237 OA
ATOM     73  O   UNL A   1      44.910  36.893  34.476  1.00  0.00    -0.744 OA
ENDBRANCH  69  70
ENDBRANCH  48  62
BRANCH  49  74
ATOM     74  C   UNL A   1      42.485  23.618  27.774  1.00  0.00     0.058 A 
ATOM     75  C   UNL A   1      42.281  22.480  28.570  1.00  0.00     0.135 A 
ATOM     76  C   UNL A   1      42.587  23.436  26.387  1.00  0.00     0.135 A 
ATOM     77  F   UNL A   1      42.185  22.603  29.902  1.00  0.00    -0.206 F 
ATOM     78  C   UNL A   1      42.217  21.206  28.016  1.00  0.00     0.059 A 
ATOM     79  C   UNL A   1      42.501  22.175  25.807  1.00  0.00     0.059 A 
ATOM     80  F   UNL A   1      42.767  24.494  25.580  1.00  0.00    -0.206 F 
ATOM     81  C   UNL A   1      42.334  21.064  26.632  1.00  0.00     0.060 A 
BRANCH  81  82
ATOM     82  S   UNL A   1      42.241  19.407  25.917  1.00  0.00     0.124 S 
ATOM     83  O   UNL A   1      40.807  19.268  25.689  1.00  0.00    -0.237 OA
ATOM     84  O   UNL A   1      43.068  19.538  24.723  1.00  0.00    -0.237 OA
ATOM     85  O   UNL A   1      42.800  18.559  26.967  1.00  0.00    -0.744 OA
ENDBRANCH  81  82
ENDBRANCH  49  74
BRANCH  61  86
ATOM     86  C   UNL A   1      47.744  26.819  31.032  1.00  0.00     0.058 A 
ATOM     87  C   UNL A   1      48.018  26.206  32.264  1.00  0.00     0.135 A 
ATOM     88  C   UNL A   1      48.804  26.965  30.123  1.00  0.00     0.135 A 
ATOM     89  F   UNL A   1      47.042  26.049  33.172  1.00  0.00    -0.206 F 
ATOM     90  C   UNL A   1      49.299  25.770  32.590  1.00  0.00     0.059 A 
ATOM     91  C   UNL A   1      50.088  26.515  30.416  1.00  0.00     0.059 A 
ATOM     92  F   UNL A   1      48.594  27.538  28.926  1.00  0.00    -0.206 F 
ATOM     93  C   UNL A   1      50.327  25.928  31.658  1.00  0.00     0.060 A 
BRANCH  93  94
ATOM     94  S   UNL A   1      51.977  25.323  32.076  1.00  0.00     0.124 S 
ATOM     95  O   UNL A   1      52.762  25.801  30.943  1.00  0.00    -0.237 OA
ATOM     96  O   UNL A   1      52.240  25.982  33.351  1.00  0.00    -0.237 OA
ATOM     97  O   UNL A   1      51.798  23.876  32.151  1.00  0.00    -0.744 OA
ENDBRANCH  93  94
ENDBRANCH  61  86
ENDBRANCH  35  36
ENDBRANCH  27  30
ENDBRANCH  25  26
ENDBRANCH   1  25
TORSDOF 20
ENDMDL
MODEL 2
REMARK VINA RESULT:     -10.5      5.316     10.637
REMARK SMILES CCCC[C@H](C(=O)NCCCNC(=O)c1ccc(-c2c3nc(c(-c4c(F)cc(S(=O)(=O)[O-])cc4F)c4ccc([nH]4)c(-c4c(F)cc(S(=O)(=O)[O-])cc4F)c4nc(c(-c5c(F)cc(S(=O)(=O)[O-])cc5F)c5ccc2[nH]5)C=C4)C=C3)cc1)[C@H](O)c1ccc(C(F)(F)F)cc1
REMARK SMILES IDX 10 1 9 2 8 3 6 4 7 5 5 7 4 8 3 9 2 10 1 11 81 12 83 13 84 14
REMARK SMILES IDX 92 15 85 16 91 17 86 18 87 19 88 20 89 21 90 22 82 23 11 25
REMARK SMILES IDX 12 26 13 27 14 29 15 30 16 31 80 32 17 33 79 34 18 35 19 36
REMARK SMILES IDX 20 37 73 38 21 39 78 40 72 41 74 42 22 43 77 44 71 45 70 46
REMARK SMILES IDX 23 48 57 49 36 50 56 51 37 52 40 53 55 54 75 55 38 56 39 57
REMARK SMILES IDX 54 59 76 60 41 61 24 62 25 63 34 64 26 65 27 66 33 67 35 68
REMARK SMILES IDX 28 69 29 70 30 71 31 72 32 73 58 74 59 75 68 76 60 77 61 78
REMARK SMILES IDX 67 79 69 80 62 81 63 82 64 83 65 84 66 85 42 86 43 87 52 88
REMARK SMILES IDX 44 89 45 90 51 91 53 92 46 93 47 94 48 95 49 96 50 97
REMARK H PARENT 8 6 82 24 12 28 74 47 40 58
REMARK Flexibility Score: inf
ROOT
ATOM      1  C   UNL A   1      37.228  23.635  25.417  1.00  0.00     0.042 C 
ENDROOT
BRANCH   1   2
ATOM      2  C   UNL A   1      35.904  24.393  25.387  1.00  0.00     0.117 C 
BRANCH   2   3
ATOM      3  N   UNL A   1      34.803  23.676  26.009  1.00  0.00    -0.356 N 
ATOM      4  C   UNL A   1      33.454  23.807  25.888  1.00  0.00     0.226 C 
ATOM      5  O   UNL A   1      32.749  23.044  26.555  1.00  0.00    -0.275 OA
ATOM      6  H   UNL A   1      35.086  22.968  26.633  1.00  0.00     0.163 HD
BRANCH   4   7
ATOM      7  C   UNL A   1      32.827  24.851  24.971  1.00  0.00     0.111 C 
BRANCH   7   8
ATOM      8  C   UNL A   1      32.846  24.286  23.519  1.00  0.00     0.016 C 
BRANCH   8   9
ATOM      9  C   UNL A   1      33.652  25.114  22.511  1.00  0.00     0.001 C 
BRANCH   9  10
ATOM     10  C   UNL A   1      32.948  26.339  21.927  1.00  0.00    -0.003 C 
ATOM     11  C   UNL A   1      33.664  27.653  22.194  1.00  0.00     0.004 C 
ENDBRANCH   9  10
ENDBRANCH   8   9
ENDBRANCH   7   8
BRANCH   7  12
ATOM     12  C   UNL A   1      31.362  25.122  25.410  1.00  0.00     0.157 C 
BRANCH  12  13
ATOM     13  C   UNL A   1      30.734  26.358  24.787  1.00  0.00    -0.019 A 
ATOM     14  C   UNL A   1      29.576  26.298  23.998  1.00  0.00     0.007 A 
ATOM     15  C   UNL A   1      31.346  27.609  24.975  1.00  0.00     0.007 A 
ATOM     16  C   UNL A   1      29.085  27.443  23.361  1.00  0.00     0.013 A 
ATOM     17  C   UNL A   1      30.870  28.747  24.325  1.00  0.00     0.013 A 
ATOM     18  C   UNL A   1      29.752  28.671  23.487  1.00  0.00     0.056 A 
BRANCH  18  19
ATOM     19  C   UNL A   1      29.283  29.878  22.711  1.00  0.00     0.416 C 
ATOM     20  F   UNL A   1      29.393  31.026  23.435  1.00  0.00    -0.166 F 
ATOM     21  F   UNL A   1      29.979  30.072  21.563  1.00  0.00    -0.166 F 
ATOM     22  F   UNL A   1      27.969  29.794  22.354  1.00  0.00    -0.166 F 
ENDBRANCH  18  19
ENDBRANCH  12  13
BRANCH  12  23
ATOM     23  O   UNL A   1      30.575  23.978  25.043  1.00  0.00    -0.388 OA
ATOM     24  H   UNL A   1      30.503  23.378  25.802  1.00  0.00     0.211 HD
ENDBRANCH  12  23
ENDBRANCH   7  12
ENDBRANCH   4   7
ENDBRANCH   2   3
ENDBRANCH   1   2
BRANCH   1  25
ATOM     25  C   UNL A   1      38.193  24.042  26.530  1.00  0.00     0.118 C 
BRANCH  25  26
ATOM     26  N   UNL A   1      39.583  23.971  26.112  1.00  0.00    -0.352 N 
ATOM     27  C   UNL A   1      40.653  24.755  26.473  1.00  0.00     0.251 C 
ATOM     28  H   UNL A   1      39.791  23.251  25.473  1.00  0.00     0.163 HD
ATOM     29  O   UNL A   1      41.708  24.646  25.848  1.00  0.00    -0.269 OA
BRANCH  27  30
ATOM     30  C   UNL A   1      40.557  25.732  27.585  1.00  0.00     0.039 A 
ATOM     31  C   UNL A   1      41.485  26.778  27.640  1.00  0.00     0.014 A 
ATOM     32  C   UNL A   1      39.612  25.595  28.606  1.00  0.00     0.014 A 
ATOM     33  C   UNL A   1      41.434  27.709  28.684  1.00  0.00     0.010 A 
ATOM     34  C   UNL A   1      39.534  26.552  29.623  1.00  0.00     0.010 A 
ATOM     35  C   UNL A   1      40.442  27.622  29.673  1.00  0.00    -0.014 A 
BRANCH  35  36
ATOM     36  C   UNL A   1      40.346  28.639  30.759  1.00  0.00     0.031 A 
ATOM     37  C   UNL A   1      41.236  28.550  31.972  1.00  0.00     0.074 A 
ATOM     38  C   UNL A   1      39.433  29.628  30.673  1.00  0.00     0.049 A 
ATOM     39  N   UNL A   1      41.253  29.307  33.040  1.00  0.00    -0.248 NA
ATOM     40  C   UNL A   1      42.227  27.463  31.993  1.00  0.00     0.031 C 
ATOM     41  C   UNL A   1      38.489  29.815  29.569  1.00  0.00     0.029 A 
ATOM     42  N   UNL A   1      39.143  30.660  31.532  1.00  0.00    -0.354 N 
ATOM     43  C   UNL A   1      42.249  28.787  33.861  1.00  0.00     0.074 A 
ATOM     44  C   UNL A   1      42.783  27.624  33.185  1.00  0.00     0.031 C 
ATOM     45  C   UNL A   1      37.740  30.903  29.809  1.00  0.00     0.029 A 
ATOM     46  C   UNL A   1      38.120  31.471  31.099  1.00  0.00     0.049 A 
ATOM     47  H   UNL A   1      39.622  30.805  32.380  1.00  0.00     0.167 HD
ATOM     48  C   UNL A   1      42.693  29.248  35.056  1.00  0.00     0.037 A 
ATOM     49  C   UNL A   1      37.545  32.544  31.678  1.00  0.00     0.037 A 
ATOM     50  C   UNL A   1      42.176  30.415  35.724  1.00  0.00     0.049 A 
ATOM     51  C   UNL A   1      38.042  33.020  33.018  1.00  0.00     0.074 A 
ATOM     52  C   UNL A   1      42.580  30.967  36.928  1.00  0.00     0.029 A 
ATOM     53  N   UNL A   1      41.150  31.214  35.245  1.00  0.00    -0.354 N 
ATOM     54  N   UNL A   1      39.007  32.533  33.760  1.00  0.00    -0.248 NA
ATOM     55  C   UNL A   1      37.371  34.193  33.599  1.00  0.00     0.031 C 
ATOM     56  C   UNL A   1      41.779  32.084  37.191  1.00  0.00     0.029 A 
ATOM     57  C   UNL A   1      40.903  32.250  36.132  1.00  0.00     0.049 A 
ATOM     58  H   UNL A   1      40.666  31.068  34.399  1.00  0.00     0.167 HD
ATOM     59  C   UNL A   1      39.080  33.360  34.877  1.00  0.00     0.074 A 
ATOM     60  C   UNL A   1      38.069  34.382  34.711  1.00  0.00     0.031 C 
ATOM     61  C   UNL A   1      39.910  33.277  35.945  1.00  0.00     0.037 A 
BRANCH  48  62
ATOM     62  C   UNL A   1      43.814  28.498  35.722  1.00  0.00     0.058 A 
ATOM     63  C   UNL A   1      45.155  28.847  35.503  1.00  0.00     0.135 A 
ATOM     64  C   UNL A   1      43.546  27.469  36.640  1.00  0.00     0.135 A 
ATOM     65  F   UNL A   1      45.467  29.815  34.626  1.00  0.00    -0.206 F 
ATOM     66  C   UNL A   1      46.193  28.193  36.157  1.00  0.00     0.059 A 
ATOM     67  C   UNL A   1      44.568  26.816  37.323  1.00  0.00     0.059 A 
ATOM     68  F   UNL A   1      42.281  27.096  36.888  1.00  0.00    -0.206 F 
ATOM     69  C   UNL A   1      45.890  27.180  37.067  1.00  0.00     0.060 A 
BRANCH  69  70
ATOM     70  S   UNL A   1      47.247  26.357  37.927  1.00  0.00     0.124 S 
ATOM     71  O   UNL A   1      46.870  26.558  39.324  1.00  0.00    -0.237 OA
ATOM     72  O   UNL A   1      47.142  24.984  37.437  1.00  0.00    -0.237 OA
ATOM     73  O   UNL A   1      48.427  27.087  37.485  1.00  0.00    -0.744 OA
ENDBRANCH  69  70
ENDBRANCH  48  62
BRANCH  49  74
ATOM     74  C   UNL A   1      36.431  33.259  30.998  1.00  0.00     0.058 A 
ATOM     75  C   UNL A   1      36.673  34.082  29.887  1.00  0.00     0.135 A 
ATOM     76  C   UNL A   1      35.111  33.163  31.464  1.00  0.00     0.135 A 
ATOM     77  F   UNL A   1      37.920  34.212  29.410  1.00  0.00    -0.206 F 
ATOM     78  C   UNL A   1      35.654  34.810  29.283  1.00  0.00     0.059 A 
ATOM     79  C   UNL A   1      34.070  33.861  30.861  1.00  0.00     0.059 A 
ATOM     80  F   UNL A   1      34.823  32.377  32.514  1.00  0.00    -0.206 F 
ATOM     81  C   UNL A   1      34.355  34.697  29.783  1.00  0.00     0.060 A 
BRANCH  81  82
ATOM     82  S   UNL A   1      33.033  35.638  28.988  1.00  0.00     0.124 S 
ATOM     83  O   UNL A   1      32.229  36.039  30.137  1.00  0.00    -0.237 OA
ATOM     84  O   UNL A   1      33.771  36.705  28.320  1.00  0.00    -0.237 OA
ATOM     85  O   UNL A   1      32.418  34.659  28.096  1.00  0.00    -0.744 OA
ENDBRANCH  81  82
ENDBRANCH  49  74
BRANCH  61  86
ATOM     86  C   UNL A   1      39.800  34.346  36.997  1.00  0.00     0.058 A 
ATOM     87  C   UNL A   1      40.382  35.612  36.826  1.00  0.00     0.135 A 
ATOM     88  C   UNL A   1      39.059  34.117  38.167  1.00  0.00     0.135 A 
ATOM     89  F   UNL A   1      41.107  35.879  35.728  1.00  0.00    -0.206 F 
ATOM     90  C   UNL A   1      40.249  36.607  37.789  1.00  0.00     0.059 A 
ATOM     91  C   UNL A   1      38.892  35.106  39.132  1.00  0.00     0.059 A 
ATOM     92  F   UNL A   1      38.475  32.926  38.375  1.00  0.00    -0.206 F 
ATOM     93  C   UNL A   1      39.501  36.345  38.938  1.00  0.00     0.060 A 
BRANCH  93  94
ATOM     94  S   UNL A   1      39.303  37.658  40.162  1.00  0.00     0.124 S 
ATOM     95  O   UNL A   1      38.205  38.431  39.591  1.00  0.00    -0.237 OA
ATOM     96  O   UNL A   1      38.987  36.912  41.376  1.00  0.00    -0.237 OA
ATOM     97  O   UNL A   1      40.604  38.321  40.163  1.00  0.00    -0.744 OA
ENDBRANCH  93  94
ENDBRANCH  61  86
ENDBRANCH  35  36
ENDBRANCH  27  30
ENDBRANCH  25  26
ENDBRANCH   1  25
TORSDOF 20
ENDMDL
MODEL 3
REMARK VINA RESULT:     -10.4      3.226      4.297
REMARK SMILES CCCC[C@H](C(=O)NCCCNC(=O)c1ccc(-c2c3nc(c(-c4c(F)cc(S(=O)(=O)[O-])cc4F)c4ccc([nH]4)c(-c4c(F)cc(S(=O)(=O)[O-])cc4F)c4nc(c(-c5c(F)cc(S(=O)(=O)[O-])cc5F)c5ccc2[nH]5)C=C4)C=C3)cc1)[C@H](O)c1ccc(C(F)(F)F)cc1
REMARK SMILES IDX 10 1 9 2 8 3 6 4 7 5 5 7 4 8 3 9 2 10 1 11 81 12 83 13 84 14
REMARK SMILES IDX 92 15 85 16 91 17 86 18 87 19 88 20 89 21 90 22 82 23 11 25
REMARK SMILES IDX 12 26 13 27 14 29 15 30 16 31 80 32 17 33 79 34 18 35 19 36
REMARK SMILES IDX 20 37 73 38 21 39 78 40 72 41 74 42 22 43 77 44 71 45 70 46
REMARK SMILES IDX 23 48 57 49 36 50 56 51 37 52 40 53 55 54 75 55 38 56 39 57
REMARK SMILES IDX 54 59 76 60 41 61 24 62 25 63 34 64 26 65 27 66 33 67 35 68
REMARK SMILES IDX 28 69 29 70 30 71 31 72 32 73 58 74 59 75 68 76 60 77 61 78
REMARK SMILES IDX 67 79 69 80 62 81 63 82 64 83 65 84 66 85 42 86 43 87 52 88
REMARK SMILES IDX 44 89 45 90 51 91 53 92 46 93 47 94 48 95 49 96 50 97
REMARK H PARENT 8 6 82 24 12 28 74 47 40 58
REMARK Flexibility Score: inf
ROOT
ATOM      1  C   UNL A   1      33.959  30.837  27.398  1.00  0.00     0.042 C 
ENDROOT
BRANCH   1   2
ATOM      2  C   UNL A   1      33.539  29.559  26.676  1.00  0.00     0.117 C 
BRANCH   2   3
ATOM      3  N   UNL A   1      33.537  29.679  25.227  1.00  0.00    -0.356 N 
ATOM      4  C   UNL A   1      33.348  28.757  24.242  1.00  0.00     0.226 C 
ATOM      5  O   UNL A   1      33.405  29.156  23.075  1.00  0.00    -0.275 OA
ATOM      6  H   UNL A   1      33.704  30.591  24.898  1.00  0.00     0.163 HD
BRANCH   4   7
ATOM      7  C   UNL A   1      33.079  27.290  24.556  1.00  0.00     0.111 C 
BRANCH   7   8
ATOM      8  C   UNL A   1      31.538  27.105  24.696  1.00  0.00     0.016 C 
BRANCH   8   9
ATOM      9  C   UNL A   1      31.092  26.255  25.891  1.00  0.00     0.001 C 
BRANCH   9  10
ATOM     10  C   UNL A   1      31.001  24.748  25.652  1.00  0.00    -0.003 C 
ATOM     11  C   UNL A   1      31.629  23.905  26.749  1.00  0.00     0.004 C 
ENDBRANCH   9  10
ENDBRANCH   8   9
ENDBRANCH   7   8
BRANCH   7  12
ATOM     12  C   UNL A   1      33.612  26.400  23.400  1.00  0.00     0.157 C 
BRANCH  12  13
ATOM     13  C   UNL A   1      34.012  24.995  23.818  1.00  0.00    -0.019 A 
ATOM     14  C   UNL A   1      33.612  23.856  23.104  1.00  0.00     0.007 A 
ATOM     15  C   UNL A   1      34.785  24.816  24.977  1.00  0.00     0.007 A 
ATOM     16  C   UNL A   1      33.918  22.574  23.576  1.00  0.00     0.013 A 
ATOM     17  C   UNL A   1      35.073  23.539  25.459  1.00  0.00     0.013 A 
ATOM     18  C   UNL A   1      34.617  22.404  24.780  1.00  0.00     0.056 A 
BRANCH  18  19
ATOM     19  C   UNL A   1      34.848  21.021  25.340  1.00  0.00     0.416 C 
ATOM     20  F   UNL A   1      34.364  20.049  24.519  1.00  0.00    -0.166 F 
ATOM     21  F   UNL A   1      36.161  20.745  25.541  1.00  0.00    -0.166 F 
ATOM     22  F   UNL A   1      34.227  20.830  26.540  1.00  0.00    -0.166 F 
ENDBRANCH  18  19
ENDBRANCH  12  13
BRANCH  12  23
ATOM     23  O   UNL A   1      32.579  26.304  22.408  1.00  0.00    -0.388 OA
ATOM     24  H   UNL A   1      32.371  27.189  22.070  1.00  0.00     0.211 HD
ENDBRANCH  12  23
ENDBRANCH   7  12
ENDBRANCH   4   7
ENDBRANCH   2   3
ENDBRANCH   1   2
BRANCH   1  25
ATOM     25  C   UNL A   1      35.361  30.819  28.003  1.00  0.00     0.118 C 
BRANCH  25  26
ATOM     26  N   UNL A   1      35.348  31.028  29.441  1.00  0.00    -0.352 N 
ATOM     27  C   UNL A   1      36.296  30.715  30.386  1.00  0.00     0.251 C 
ATOM     28  H   UNL A   1      34.536  31.461  29.792  1.00  0.00     0.163 HD
ATOM     29  O   UNL A   1      35.999  30.800  31.577  1.00  0.00    -0.269 OA
BRANCH  27  30
ATOM     30  C   UNL A   1      37.657  30.267  30.000  1.00  0.00     0.039 A 
ATOM     31  C   UNL A   1      37.987  30.222  28.641  1.00  0.00     0.014 A 
ATOM     32  C   UNL A   1      38.585  29.829  30.950  1.00  0.00     0.014 A 
ATOM     33  C   UNL A   1      39.256  29.790  28.239  1.00  0.00     0.010 A 
ATOM     34  C   UNL A   1      39.868  29.440  30.549  1.00  0.00     0.010 A 
ATOM     35  C   UNL A   1      40.220  29.419  29.191  1.00  0.00    -0.014 A 
BRANCH  35  36
ATOM     36  C   UNL A   1      41.591  29.008  28.776  1.00  0.00     0.031 A 
ATOM     37  C   UNL A   1      42.711  30.016  28.728  1.00  0.00     0.074 A 
ATOM     38  C   UNL A   1      41.828  27.732  28.409  1.00  0.00     0.049 A 
ATOM     39  N   UNL A   1      43.950  29.856  28.337  1.00  0.00    -0.248 NA
ATOM     40  C   UNL A   1      42.394  31.384  29.165  1.00  0.00     0.031 C 
ATOM     41  C   UNL A   1      40.829  26.661  28.381  1.00  0.00     0.029 A 
ATOM     42  N   UNL A   1      42.981  27.118  27.982  1.00  0.00    -0.354 N 
ATOM     43  C   UNL A   1      44.559  31.099  28.474  1.00  0.00     0.074 A 
ATOM     44  C   UNL A   1      43.540  32.013  28.945  1.00  0.00     0.031 C 
ATOM     45  C   UNL A   1      41.416  25.522  27.978  1.00  0.00     0.029 A 
ATOM     46  C   UNL A   1      42.821  25.785  27.682  1.00  0.00     0.049 A 
ATOM     47  H   UNL A   1      43.841  27.589  27.898  1.00  0.00     0.167 HD
ATOM     48  C   UNL A   1      45.851  31.443  28.252  1.00  0.00     0.037 A 
ATOM     49  C   UNL A   1      43.701  24.880  27.211  1.00  0.00     0.037 A 
ATOM     50  C   UNL A   1      46.872  30.533  27.801  1.00  0.00     0.049 A 
ATOM     51  C   UNL A   1      45.125  25.296  26.949  1.00  0.00     0.074 A 
ATOM     52  C   UNL A   1      48.213  30.790  27.568  1.00  0.00     0.029 A 
ATOM     53  N   UNL A   1      46.670  29.190  27.521  1.00  0.00    -0.354 N 
ATOM     54  N   UNL A   1      45.687  26.469  27.119  1.00  0.00    -0.248 NA
ATOM     55  C   UNL A   1      46.036  24.263  26.432  1.00  0.00     0.031 C 
ATOM     56  C   UNL A   1      48.816  29.609  27.120  1.00  0.00     0.029 A 
ATOM     57  C   UNL A   1      47.861  28.608  27.112  1.00  0.00     0.049 A 
ATOM     58  H   UNL A   1      45.810  28.718  27.600  1.00  0.00     0.167 HD
ATOM     59  C   UNL A   1      47.021  26.305  26.761  1.00  0.00     0.074 A 
ATOM     60  C   UNL A   1      47.187  24.920  26.375  1.00  0.00     0.031 C 
ATOM     61  C   UNL A   1      48.020  27.222  26.752  1.00  0.00     0.037 A 
BRANCH  48  62
ATOM     62  C   UNL A   1      46.248  32.871  28.510  1.00  0.00     0.058 A 
ATOM     63  C   UNL A   1      46.729  33.278  29.764  1.00  0.00     0.135 A 
ATOM     64  C   UNL A   1      46.218  33.824  27.479  1.00  0.00     0.135 A 
ATOM     65  F   UNL A   1      46.767  32.410  30.788  1.00  0.00    -0.206 F 
ATOM     66  C   UNL A   1      47.149  34.583  29.993  1.00  0.00     0.059 A 
ATOM     67  C   UNL A   1      46.655  35.130  27.679  1.00  0.00     0.059 A 
ATOM     68  F   UNL A   1      45.770  33.487  26.259  1.00  0.00    -0.206 F 
ATOM     69  C   UNL A   1      47.110  35.502  28.944  1.00  0.00     0.060 A 
BRANCH  69  70
ATOM     70  S   UNL A   1      47.683  37.187  29.250  1.00  0.00     0.124 S 
ATOM     71  O   UNL A   1      48.460  37.012  30.475  1.00  0.00    -0.237 OA
ATOM     72  O   UNL A   1      48.460  37.477  28.046  1.00  0.00    -0.237 OA
ATOM     73  O   UNL A   1      46.449  37.948  29.393  1.00  0.00    -0.744 OA
ENDBRANCH  69  70
ENDBRANCH  48  62
BRANCH  49  74
ATOM     74  C   UNL A   1      43.274  23.478  26.956  1.00  0.00     0.058 A 
ATOM     75  C   UNL A   1      43.077  22.580  28.017  1.00  0.00     0.135 A 
ATOM     76  C   UNL A   1      43.089  22.998  25.651  1.00  0.00     0.135 A 
ATOM     77  F   UNL A   1      43.249  22.991  29.283  1.00  0.00    -0.206 F 
ATOM     78  C   UNL A   1      42.745  21.248  27.793  1.00  0.00     0.059 A 
ATOM     79  C   UNL A   1      42.732  21.676  25.403  1.00  0.00     0.059 A 
ATOM     80  F   UNL A   1      43.250  23.819  24.602  1.00  0.00    -0.206 F 
ATOM     81  C   UNL A   1      42.581  20.805  26.480  1.00  0.00     0.060 A 
BRANCH  81  82
ATOM     82  S   UNL A   1      42.139  19.076  26.194  1.00  0.00     0.124 S 
ATOM     83  O   UNL A   1      43.039  18.722  25.102  1.00  0.00    -0.237 OA
ATOM     84  O   UNL A   1      42.431  18.464  27.486  1.00  0.00    -0.237 OA
ATOM     85  O   UNL A   1      40.722  19.147  25.849  1.00  0.00    -0.744 OA
ENDBRANCH  81  82
ENDBRANCH  49  74
BRANCH  61  86
ATOM     86  C   UNL A   1      49.393  26.752  26.362  1.00  0.00     0.058 A 
ATOM     87  C   UNL A   1      50.202  26.022  27.246  1.00  0.00     0.135 A 
ATOM     88  C   UNL A   1      49.885  26.992  25.069  1.00  0.00     0.135 A 
ATOM     89  F   UNL A   1      49.782  25.771  28.496  1.00  0.00    -0.206 F 
ATOM     90  C   UNL A   1      51.460  25.562  26.868  1.00  0.00     0.059 A 
ATOM     91  C   UNL A   1      51.129  26.521  24.661  1.00  0.00     0.059 A 
ATOM     92  F   UNL A   1      49.147  27.679  24.182  1.00  0.00    -0.206 F 
ATOM     93  C   UNL A   1      51.914  25.815  25.572  1.00  0.00     0.060 A 
BRANCH  93  94
ATOM     94  S   UNL A   1      53.531  25.179  25.080  1.00  0.00     0.124 S 
ATOM     95  O   UNL A   1      53.416  23.770  25.440  1.00  0.00    -0.237 OA
ATOM     96  O   UNL A   1      53.560  25.467  23.649  1.00  0.00    -0.237 OA
ATOM     97  O   UNL A   1      54.463  25.960  25.889  1.00  0.00    -0.744 OA
ENDBRANCH  93  94
ENDBRANCH  61  86
ENDBRANCH  35  36
ENDBRANCH  27  30
ENDBRANCH  25  26
ENDBRANCH   1  25
TORSDOF 20
ENDMDL
