MODEL 1
REMARK VINA RESULT:     -12.7      0.000      0.000
REMARK SMILES COc1cc2cc(C(=O)NCCCNC(=O)c3ccc(-c4c5nc(c(-c6c(F)cc(S(=O)(=O)[O-])cc6F)c6ccc([nH]6)c(-c6c(F)cc(S(=O)(=O)[O-])cc6F)c6nc(c(-c7c(F)cc(S(=O)(=O)[O-])cc7F)c7ccc4[nH]7)C=C6)C=C5)cc3)n(Cc3ccccc3)c2c(OC)c1OC
REMARK SMILES IDX 12 1 11 2 10 3 8 4 9 5 7 7 3 8 4 9 95 10 5 11 92 12 6 13
REMARK SMILES IDX 91 14 83 15 2 16 1 17 96 18 97 19 93 20 94 21 84 22 85 23
REMARK SMILES IDX 86 24 90 25 87 26 89 27 88 28 13 29 14 30 15 31 16 33 17 34
REMARK SMILES IDX 18 35 82 36 19 37 81 38 20 39 21 40 22 41 75 42 23 43 80 44
REMARK SMILES IDX 74 45 76 46 24 47 79 48 73 49 72 50 25 52 59 53 38 54 58 55
REMARK SMILES IDX 39 56 42 57 57 58 77 59 40 60 41 61 56 63 78 64 43 65 26 66
REMARK SMILES IDX 27 67 36 68 28 69 29 70 35 71 37 72 30 73 31 74 32 75 33 76
REMARK SMILES IDX 34 77 60 78 61 79 70 80 62 81 63 82 69 83 71 84 64 85 65 86
REMARK SMILES IDX 66 87 67 88 68 89 44 90 45 91 54 92 46 93 47 94 53 95 55 96
REMARK SMILES IDX 48 97 49 98 50 99 51 100 52 101
REMARK H PARENT 10 6 14 32 76 51 42 62
REMARK Flexibility Score: inf
ROOT
ATOM      1  C   UNL A   1      32.287  30.219  26.948  1.00  0.00     0.042 C 
ENDROOT
BRANCH   1   2
ATOM      2  C   UNL A   1      31.825  29.968  25.508  1.00  0.00     0.118 C 
BRANCH   2   3
ATOM      3  N   UNL A   1      32.923  29.778  24.576  1.00  0.00    -0.351 N 
ATOM      4  C   UNL A   1      33.499  28.706  23.951  1.00  0.00     0.267 C 
ATOM      5  O   UNL A   1      34.245  29.030  23.018  1.00  0.00    -0.268 OA
ATOM      6  H   UNL A   1      33.359  30.628  24.336  1.00  0.00     0.163 HD
BRANCH   4   7
ATOM      7  C   UNL A   1      33.304  27.299  24.279  1.00  0.00     0.108 A 
ATOM      8  C   UNL A   1      32.969  23.087  26.261  1.00  0.00     0.165 A 
ATOM      9  C   UNL A   1      33.480  24.369  26.545  1.00  0.00     0.061 A 
ATOM     10  C   UNL A   1      32.463  22.765  24.989  1.00  0.00     0.205 A 
ATOM     11  C   UNL A   1      33.380  25.378  25.570  1.00  0.00     0.008 A 
ATOM     12  C   UNL A   1      32.463  23.745  23.972  1.00  0.00     0.189 A 
ATOM     13  C   UNL A   1      33.747  26.744  25.489  1.00  0.00     0.042 A 
ATOM     14  C   UNL A   1      32.804  25.069  24.348  1.00  0.00     0.096 A 
ATOM     15  N   UNL A   1      32.526  26.294  23.720  1.00  0.00    -0.329 N 
BRANCH   8  16
ATOM     16  O   UNL A   1      32.848  22.218  27.320  1.00  0.00    -0.493 OA
ATOM     17  C   UNL A   1      34.039  21.461  27.532  1.00  0.00     0.278 C 
ENDBRANCH   8  16
BRANCH  10  18
ATOM     18  O   UNL A   1      31.818  21.598  24.680  1.00  0.00    -0.490 OA
ATOM     19  C   UNL A   1      32.532  20.518  24.113  1.00  0.00     0.278 C 
ENDBRANCH  10  18
BRANCH  12  20
ATOM     20  O   UNL A   1      32.171  23.580  22.648  1.00  0.00    -0.491 OA
ATOM     21  C   UNL A   1      33.192  23.322  21.693  1.00  0.00     0.278 C 
ENDBRANCH  12  20
BRANCH  15  22
ATOM     22  C   UNL A   1      31.450  26.372  22.729  1.00  0.00     0.158 C 
BRANCH  22  23
ATOM     23  C   UNL A   1      30.213  27.203  22.996  1.00  0.00    -0.028 A 
ATOM     24  C   UNL A   1      29.969  28.505  22.552  1.00  0.00     0.005 A 
ATOM     25  C   UNL A   1      29.172  26.527  23.671  1.00  0.00     0.005 A 
ATOM     26  C   UNL A   1      28.691  29.063  22.668  1.00  0.00     0.000 A 
ATOM     27  C   UNL A   1      27.906  27.092  23.807  1.00  0.00     0.000 A 
ATOM     28  C   UNL A   1      27.659  28.353  23.278  1.00  0.00     0.000 A 
ENDBRANCH  22  23
ENDBRANCH  15  22
ENDBRANCH   4   7
ENDBRANCH   2   3
ENDBRANCH   1   2
BRANCH   1  29
ATOM     29  C   UNL A   1      33.696  30.784  27.112  1.00  0.00     0.118 C 
BRANCH  29  30
ATOM     30  N   UNL A   1      33.867  31.569  28.313  1.00  0.00    -0.352 N 
ATOM     31  C   UNL A   1      34.908  31.759  29.181  1.00  0.00     0.251 C 
ATOM     32  H   UNL A   1      33.061  32.076  28.560  1.00  0.00     0.163 HD
ATOM     33  O   UNL A   1      34.707  32.585  30.077  1.00  0.00    -0.269 OA
BRANCH  31  34
ATOM     34  C   UNL A   1      36.208  31.022  29.160  1.00  0.00     0.039 A 
ATOM     35  C   UNL A   1      36.383  29.636  29.155  1.00  0.00     0.014 A 
ATOM     36  C   UNL A   1      37.359  31.834  29.168  1.00  0.00     0.014 A 
ATOM     37  C   UNL A   1      37.662  29.082  29.260  1.00  0.00     0.010 A 
ATOM     38  C   UNL A   1      38.635  31.286  29.244  1.00  0.00     0.010 A 
ATOM     39  C   UNL A   1      38.787  29.908  29.348  1.00  0.00    -0.014 A 
BRANCH  39  40
ATOM     40  C   UNL A   1      40.109  29.295  29.513  1.00  0.00     0.031 A 
ATOM     41  C   UNL A   1      40.587  29.139  30.915  1.00  0.00     0.074 A 
ATOM     42  C   UNL A   1      40.807  28.765  28.483  1.00  0.00     0.049 A 
ATOM     43  N   UNL A   1      41.630  29.663  31.474  1.00  0.00    -0.248 NA
ATOM     44  C   UNL A   1      39.754  28.350  31.839  1.00  0.00     0.031 C 
ATOM     45  C   UNL A   1      40.331  28.544  27.112  1.00  0.00     0.029 A 
ATOM     46  N   UNL A   1      42.058  28.210  28.465  1.00  0.00    -0.354 N 
ATOM     47  C   UNL A   1      41.704  29.108  32.753  1.00  0.00     0.074 A 
ATOM     48  C   UNL A   1      40.454  28.427  32.973  1.00  0.00     0.031 C 
ATOM     49  C   UNL A   1      41.175  27.708  26.473  1.00  0.00     0.029 A 
ATOM     50  C   UNL A   1      42.330  27.469  27.320  1.00  0.00     0.049 A 
ATOM     51  H   UNL A   1      42.706  28.325  29.196  1.00  0.00     0.167 HD
ATOM     52  C   UNL A   1      42.876  29.057  33.448  1.00  0.00     0.037 A 
ATOM     53  C   UNL A   1      43.411  26.689  27.081  1.00  0.00     0.037 A 
ATOM     54  C   UNL A   1      43.886  29.882  32.846  1.00  0.00     0.049 A 
ATOM     55  C   UNL A   1      44.520  27.155  27.947  1.00  0.00     0.074 A 
ATOM     56  C   UNL A   1      44.258  31.207  32.872  1.00  0.00     0.029 A 
ATOM     57  N   UNL A   1      44.520  29.300  31.782  1.00  0.00    -0.354 N 
ATOM     58  N   UNL A   1      45.069  28.333  27.845  1.00  0.00    -0.248 NA
ATOM     59  C   UNL A   1      44.854  26.414  29.159  1.00  0.00     0.031 C 
ATOM     60  C   UNL A   1      45.007  31.439  31.679  1.00  0.00     0.029 A 
ATOM     61  C   UNL A   1      45.093  30.244  30.970  1.00  0.00     0.049 A 
ATOM     62  H   UNL A   1      44.559  28.331  31.621  1.00  0.00     0.167 HD
ATOM     63  C   UNL A   1      45.457  28.643  29.131  1.00  0.00     0.074 A 
ATOM     64  C   UNL A   1      45.470  27.377  29.849  1.00  0.00     0.031 C 
ATOM     65  C   UNL A   1      45.404  29.923  29.593  1.00  0.00     0.037 A 
BRANCH  52  66
ATOM     66  C   UNL A   1      43.260  27.963  34.425  1.00  0.00     0.058 A 
ATOM     67  C   UNL A   1      43.573  28.287  35.762  1.00  0.00     0.135 A 
ATOM     68  C   UNL A   1      43.614  26.658  34.019  1.00  0.00     0.135 A 
ATOM     69  F   UNL A   1      43.301  29.507  36.251  1.00  0.00    -0.206 F 
ATOM     70  C   UNL A   1      44.228  27.394  36.618  1.00  0.00     0.059 A 
ATOM     71  C   UNL A   1      44.220  25.735  34.869  1.00  0.00     0.059 A 
ATOM     72  F   UNL A   1      43.475  26.252  32.749  1.00  0.00    -0.206 F 
ATOM     73  C   UNL A   1      44.557  26.122  36.157  1.00  0.00     0.060 A 
BRANCH  73  74
ATOM     74  S   UNL A   1      45.476  24.999  37.228  1.00  0.00     0.124 S 
ATOM     75  O   UNL A   1      44.433  24.540  38.139  1.00  0.00    -0.237 OA
ATOM     76  O   UNL A   1      45.974  24.011  36.276  1.00  0.00    -0.237 OA
ATOM     77  O   UNL A   1      46.497  25.859  37.820  1.00  0.00    -0.744 OA
ENDBRANCH  73  74
ENDBRANCH  52  66
BRANCH  53  78
ATOM     78  C   UNL A   1      43.462  25.391  26.362  1.00  0.00     0.058 A 
ATOM     79  C   UNL A   1      44.337  25.192  25.280  1.00  0.00     0.135 A 
ATOM     80  C   UNL A   1      42.879  24.235  26.917  1.00  0.00     0.135 A 
ATOM     81  F   UNL A   1      44.941  26.239  24.699  1.00  0.00    -0.206 F 
ATOM     82  C   UNL A   1      44.673  23.915  24.822  1.00  0.00     0.059 A 
ATOM     83  C   UNL A   1      43.192  22.952  26.472  1.00  0.00     0.059 A 
ATOM     84  F   UNL A   1      42.063  24.315  27.979  1.00  0.00    -0.206 F 
ATOM     85  C   UNL A   1      44.117  22.798  25.446  1.00  0.00     0.060 A 
BRANCH  85  86
ATOM     86  S   UNL A   1      44.710  21.150  24.998  1.00  0.00     0.124 S 
ATOM     87  O   UNL A   1      44.672  21.201  23.541  1.00  0.00    -0.237 OA
ATOM     88  O   UNL A   1      46.039  21.130  25.600  1.00  0.00    -0.237 OA
ATOM     89  O   UNL A   1      43.734  20.258  25.617  1.00  0.00    -0.744 OA
ENDBRANCH  85  86
ENDBRANCH  53  78
BRANCH  65  90
ATOM     90  C   UNL A   1      45.504  31.031  28.588  1.00  0.00     0.058 A 
ATOM     91  C   UNL A   1      46.708  31.530  28.062  1.00  0.00     0.135 A 
ATOM     92  C   UNL A   1      44.313  31.592  28.106  1.00  0.00     0.135 A 
ATOM     93  F   UNL A   1      47.886  30.991  28.408  1.00  0.00    -0.206 F 
ATOM     94  C   UNL A   1      46.725  32.573  27.136  1.00  0.00     0.059 A 
ATOM     95  C   UNL A   1      44.304  32.612  27.158  1.00  0.00     0.059 A 
ATOM     96  F   UNL A   1      43.128  31.126  28.537  1.00  0.00    -0.206 F 
ATOM     97  C   UNL A   1      45.518  33.110  26.691  1.00  0.00     0.060 A 
BRANCH  97  98
ATOM     98  S   UNL A   1      45.539  34.432  25.460  1.00  0.00     0.124 S 
ATOM     99  O   UNL A   1      44.990  35.561  26.212  1.00  0.00    -0.237 OA
ATOM    100  O   UNL A   1      46.961  34.533  25.128  1.00  0.00    -0.237 OA
ATOM    101  O   UNL A   1      44.694  33.924  24.393  1.00  0.00    -0.744 OA
ENDBRANCH  97  98
ENDBRANCH  65  90
ENDBRANCH  39  40
ENDBRANCH  31  34
ENDBRANCH  29  30
ENDBRANCH   1  29
TORSDOF 18
ENDMDL
MODEL 2
REMARK VINA RESULT:     -12.4      3.099      9.582
REMARK SMILES COc1cc2cc(C(=O)NCCCNC(=O)c3ccc(-c4c5nc(c(-c6c(F)cc(S(=O)(=O)[O-])cc6F)c6ccc([nH]6)c(-c6c(F)cc(S(=O)(=O)[O-])cc6F)c6nc(c(-c7c(F)cc(S(=O)(=O)[O-])cc7F)c7ccc4[nH]7)C=C6)C=C5)cc3)n(Cc3ccccc3)c2c(OC)c1OC
REMARK SMILES IDX 12 1 11 2 10 3 8 4 9 5 7 7 3 8 4 9 95 10 5 11 92 12 6 13
REMARK SMILES IDX 91 14 83 15 2 16 1 17 96 18 97 19 93 20 94 21 84 22 85 23
REMARK SMILES IDX 86 24 90 25 87 26 89 27 88 28 13 29 14 30 15 31 16 33 17 34
REMARK SMILES IDX 18 35 82 36 19 37 81 38 20 39 21 40 22 41 75 42 23 43 80 44
REMARK SMILES IDX 74 45 76 46 24 47 79 48 73 49 72 50 25 52 59 53 38 54 58 55
REMARK SMILES IDX 39 56 42 57 57 58 77 59 40 60 41 61 56 63 78 64 43 65 26 66
REMARK SMILES IDX 27 67 36 68 28 69 29 70 35 71 37 72 30 73 31 74 32 75 33 76
REMARK SMILES IDX 34 77 60 78 61 79 70 80 62 81 63 82 69 83 71 84 64 85 65 86
REMARK SMILES IDX 66 87 67 88 68 89 44 90 45 91 54 92 46 93 47 94 53 95 55 96
REMARK SMILES IDX 48 97 49 98 50 99 51 100 52 101
REMARK H PARENT 10 6 14 32 76 51 42 62
REMARK Flexibility Score: inf
ROOT
ATOM      1  C   UNL A   1      40.212  22.596  27.286  1.00  0.00     0.042 C 
ENDROOT
BRANCH   1   2
ATOM      2  C   UNL A   1      38.953  22.706  26.416  1.00  0.00     0.118 C 
BRANCH   2   3
ATOM      3  N   UNL A   1      38.541  21.439  25.839  1.00  0.00    -0.351 N 
ATOM      4  C   UNL A   1      37.528  21.024  25.019  1.00  0.00     0.267 C 
ATOM      5  O   UNL A   1      37.712  19.892  24.551  1.00  0.00    -0.268 OA
ATOM      6  H   UNL A   1      39.134  20.698  26.102  1.00  0.00     0.163 HD
BRANCH   4   7
ATOM      7  C   UNL A   1      36.326  21.773  24.672  1.00  0.00     0.108 A 
ATOM      8  C   UNL A   1      33.050  24.520  22.800  1.00  0.00     0.165 A 
ATOM      9  C   UNL A   1      34.435  24.277  22.697  1.00  0.00     0.061 A 
ATOM     10  C   UNL A   1      32.272  23.912  23.800  1.00  0.00     0.205 A 
ATOM     11  C   UNL A   1      35.027  23.322  23.544  1.00  0.00     0.008 A 
ATOM     12  C   UNL A   1      32.886  23.037  24.724  1.00  0.00     0.189 A 
ATOM     13  C   UNL A   1      36.334  22.807  23.725  1.00  0.00     0.042 A 
ATOM     14  C   UNL A   1      34.232  22.670  24.472  1.00  0.00     0.096 A 
ATOM     15  N   UNL A   1      34.976  21.569  24.926  1.00  0.00    -0.329 N 
BRANCH   8  16
ATOM     16  O   UNL A   1      32.472  25.254  21.790  1.00  0.00    -0.493 OA
ATOM     17  C   UNL A   1      32.566  26.657  22.026  1.00  0.00     0.278 C 
ENDBRANCH   8  16
BRANCH  10  18
ATOM     18  O   UNL A   1      30.907  23.980  23.875  1.00  0.00    -0.490 OA
ATOM     19  C   UNL A   1      30.282  25.063  24.532  1.00  0.00     0.278 C 
ENDBRANCH  10  18
BRANCH  12  20
ATOM     20  O   UNL A   1      32.341  22.488  25.849  1.00  0.00    -0.491 OA
ATOM     21  C   UNL A   1      32.362  23.176  27.092  1.00  0.00     0.278 C 
ENDBRANCH  12  20
BRANCH  15  22
ATOM     22  C   UNL A   1      34.279  20.390  25.446  1.00  0.00     0.158 C 
BRANCH  22  23
ATOM     23  C   UNL A   1      34.049  19.179  24.567  1.00  0.00    -0.028 A 
ATOM     24  C   UNL A   1      34.846  18.034  24.496  1.00  0.00     0.005 A 
ATOM     25  C   UNL A   1      32.837  19.188  23.840  1.00  0.00     0.005 A 
ATOM     26  C   UNL A   1      34.390  16.895  23.823  1.00  0.00     0.000 A 
ATOM     27  C   UNL A   1      32.393  18.062  23.151  1.00  0.00     0.000 A 
ATOM     28  C   UNL A   1      33.160  16.903  23.168  1.00  0.00     0.000 A 
ENDBRANCH  22  23
ENDBRANCH  15  22
ENDBRANCH   4   7
ENDBRANCH   2   3
ENDBRANCH   1   2
BRANCH   1  29
ATOM     29  C   UNL A   1      41.214  21.519  26.882  1.00  0.00     0.118 C 
BRANCH  29  30
ATOM     30  N   UNL A   1      42.039  21.892  25.754  1.00  0.00    -0.352 N 
ATOM     31  C   UNL A   1      42.750  23.015  25.430  1.00  0.00     0.251 C 
ATOM     32  H   UNL A   1      42.103  21.185  25.073  1.00  0.00     0.163 HD
ATOM     33  O   UNL A   1      43.415  22.941  24.393  1.00  0.00    -0.269 OA
BRANCH  31  34
ATOM     34  C   UNL A   1      42.735  24.306  26.184  1.00  0.00     0.039 A 
ATOM     35  C   UNL A   1      43.337  24.560  27.419  1.00  0.00     0.014 A 
ATOM     36  C   UNL A   1      42.014  25.350  25.572  1.00  0.00     0.014 A 
ATOM     37  C   UNL A   1      43.137  25.782  28.068  1.00  0.00     0.010 A 
ATOM     38  C   UNL A   1      41.836  26.577  26.202  1.00  0.00     0.010 A 
ATOM     39  C   UNL A   1      42.349  26.776  27.478  1.00  0.00    -0.014 A 
BRANCH  39  40
ATOM     40  C   UNL A   1      42.115  28.025  28.211  1.00  0.00     0.031 A 
ATOM     41  C   UNL A   1      43.174  29.066  28.083  1.00  0.00     0.074 A 
ATOM     42  C   UNL A   1      40.956  28.296  28.851  1.00  0.00     0.049 A 
ATOM     43  N   UNL A   1      43.914  29.580  29.012  1.00  0.00    -0.248 NA
ATOM     44  C   UNL A   1      43.501  29.548  26.731  1.00  0.00     0.031 C 
ATOM     45  C   UNL A   1      39.709  27.522  28.788  1.00  0.00     0.029 A 
ATOM     46  N   UNL A   1      40.605  29.378  29.611  1.00  0.00    -0.354 N 
ATOM     47  C   UNL A   1      44.652  30.596  28.401  1.00  0.00     0.074 A 
ATOM     48  C   UNL A   1      44.467  30.434  26.982  1.00  0.00     0.031 C 
ATOM     49  C   UNL A   1      38.694  28.266  29.276  1.00  0.00     0.029 A 
ATOM     50  C   UNL A   1      39.238  29.490  29.837  1.00  0.00     0.049 A 
ATOM     51  H   UNL A   1      41.261  30.020  29.965  1.00  0.00     0.167 HD
ATOM     52  C   UNL A   1      45.176  31.633  29.114  1.00  0.00     0.037 A 
ATOM     53  C   UNL A   1      38.581  30.522  30.420  1.00  0.00     0.037 A 
ATOM     54  C   UNL A   1      45.131  31.380  30.528  1.00  0.00     0.049 A 
ATOM     55  C   UNL A   1      39.539  31.257  31.277  1.00  0.00     0.074 A 
ATOM     56  C   UNL A   1      45.898  30.722  31.463  1.00  0.00     0.029 A 
ATOM     57  N   UNL A   1      43.915  31.633  31.101  1.00  0.00    -0.354 N 
ATOM     58  N   UNL A   1      40.114  30.739  32.327  1.00  0.00    -0.248 NA
ATOM     59  C   UNL A   1      40.111  32.516  30.811  1.00  0.00     0.031 C 
ATOM     60  C   UNL A   1      45.034  30.437  32.564  1.00  0.00     0.029 A 
ATOM     61  C   UNL A   1      43.771  30.950  32.281  1.00  0.00     0.049 A 
ATOM     62  H   UNL A   1      43.231  32.227  30.716  1.00  0.00     0.167 HD
ATOM     63  C   UNL A   1      41.342  31.362  32.387  1.00  0.00     0.074 A 
ATOM     64  C   UNL A   1      41.216  32.553  31.560  1.00  0.00     0.031 C 
ATOM     65  C   UNL A   1      42.451  30.695  32.816  1.00  0.00     0.037 A 
BRANCH  52  66
ATOM     66  C   UNL A   1      45.353  33.045  28.592  1.00  0.00     0.058 A 
ATOM     67  C   UNL A   1      46.636  33.633  28.563  1.00  0.00     0.135 A 
ATOM     68  C   UNL A   1      44.275  33.936  28.399  1.00  0.00     0.135 A 
ATOM     69  F   UNL A   1      47.734  32.884  28.755  1.00  0.00    -0.206 F 
ATOM     70  C   UNL A   1      46.829  35.008  28.397  1.00  0.00     0.059 A 
ATOM     71  C   UNL A   1      44.446  35.302  28.181  1.00  0.00     0.059 A 
ATOM     72  F   UNL A   1      43.001  33.536  28.510  1.00  0.00    -0.206 F 
ATOM     73  C   UNL A   1      45.725  35.836  28.217  1.00  0.00     0.060 A 
BRANCH  73  74
ATOM     74  S   UNL A   1      45.963  37.620  28.088  1.00  0.00     0.124 S 
ATOM     75  O   UNL A   1      47.262  37.792  28.727  1.00  0.00    -0.237 OA
ATOM     76  O   UNL A   1      45.928  37.828  26.644  1.00  0.00    -0.237 OA
ATOM     77  O   UNL A   1      44.823  38.165  28.820  1.00  0.00    -0.744 OA
ENDBRANCH  73  74
ENDBRANCH  52  66
BRANCH  53  78
ATOM     78  C   UNL A   1      37.252  31.079  30.063  1.00  0.00     0.058 A 
ATOM     79  C   UNL A   1      36.428  31.676  31.032  1.00  0.00     0.135 A 
ATOM     80  C   UNL A   1      36.904  31.309  28.716  1.00  0.00     0.135 A 
ATOM     81  F   UNL A   1      36.694  31.513  32.337  1.00  0.00    -0.206 F 
ATOM     82  C   UNL A   1      35.364  32.515  30.688  1.00  0.00     0.059 A 
ATOM     83  C   UNL A   1      35.842  32.134  28.350  1.00  0.00     0.059 A 
ATOM     84  F   UNL A   1      37.651  30.818  27.717  1.00  0.00    -0.206 F 
ATOM     85  C   UNL A   1      35.098  32.762  29.342  1.00  0.00     0.060 A 
BRANCH  85  86
ATOM     86  S   UNL A   1      33.864  34.007  28.900  1.00  0.00     0.124 S 
ATOM     87  O   UNL A   1      32.992  33.262  28.000  1.00  0.00    -0.237 OA
ATOM     88  O   UNL A   1      33.297  34.349  30.200  1.00  0.00    -0.237 OA
ATOM     89  O   UNL A   1      34.656  35.061  28.271  1.00  0.00    -0.744 OA
ENDBRANCH  85  86
ENDBRANCH  53  78
BRANCH  65  90
ATOM     90  C   UNL A   1      42.249  29.539  33.749  1.00  0.00     0.058 A 
ATOM     91  C   UNL A   1      41.927  28.232  33.347  1.00  0.00     0.135 A 
ATOM     92  C   UNL A   1      42.428  29.763  35.122  1.00  0.00     0.135 A 
ATOM     93  F   UNL A   1      41.822  27.916  32.049  1.00  0.00    -0.206 F 
ATOM     94  C   UNL A   1      41.743  27.206  34.276  1.00  0.00     0.059 A 
ATOM     95  C   UNL A   1      42.280  28.748  36.063  1.00  0.00     0.059 A 
ATOM     96  F   UNL A   1      42.781  30.982  35.564  1.00  0.00    -0.206 F 
ATOM     97  C   UNL A   1      41.919  27.474  35.633  1.00  0.00     0.060 A 
BRANCH  97  98
ATOM     98  S   UNL A   1      41.722  26.136  36.830  1.00  0.00     0.124 S 
ATOM     99  O   UNL A   1      40.386  26.398  37.366  1.00  0.00    -0.237 OA
ATOM    100  O   UNL A   1      41.838  24.941  35.992  1.00  0.00    -0.237 OA
ATOM    101  O   UNL A   1      42.819  26.342  37.761  1.00  0.00    -0.744 OA
ENDBRANCH  97  98
ENDBRANCH  65  90
ENDBRANCH  39  40
ENDBRANCH  31  34
ENDBRANCH  29  30
ENDBRANCH   1  29
TORSDOF 18
ENDMDL
MODEL 3
REMARK VINA RESULT:     -12.2      2.870      9.462
REMARK SMILES COc1cc2cc(C(=O)NCCCNC(=O)c3ccc(-c4c5nc(c(-c6c(F)cc(S(=O)(=O)[O-])cc6F)c6ccc([nH]6)c(-c6c(F)cc(S(=O)(=O)[O-])cc6F)c6nc(c(-c7c(F)cc(S(=O)(=O)[O-])cc7F)c7ccc4[nH]7)C=C6)C=C5)cc3)n(Cc3ccccc3)c2c(OC)c1OC
REMARK SMILES IDX 12 1 11 2 10 3 8 4 9 5 7 7 3 8 4 9 95 10 5 11 92 12 6 13
REMARK SMILES IDX 91 14 83 15 2 16 1 17 96 18 97 19 93 20 94 21 84 22 85 23
REMARK SMILES IDX 86 24 90 25 87 26 89 27 88 28 13 29 14 30 15 31 16 33 17 34
REMARK SMILES IDX 18 35 82 36 19 37 81 38 20 39 21 40 22 41 75 42 23 43 80 44
REMARK SMILES IDX 74 45 76 46 24 47 79 48 73 49 72 50 25 52 59 53 38 54 58 55
REMARK SMILES IDX 39 56 42 57 57 58 77 59 40 60 41 61 56 63 78 64 43 65 26 66
REMARK SMILES IDX 27 67 36 68 28 69 29 70 35 71 37 72 30 73 31 74 32 75 33 76
REMARK SMILES IDX 34 77 60 78 61 79 70 80 62 81 63 82 69 83 71 84 64 85 65 86
REMARK SMILES IDX 66 87 67 88 68 89 44 90 45 91 54 92 46 93 47 94 53 95 55 96
REMARK SMILES IDX 48 97 49 98 50 99 51 100 52 101
REMARK H PARENT 10 6 14 32 76 51 42 62
REMARK Flexibility Score: inf
ROOT
ATOM      1  C   UNL A   1      38.106  21.171  25.531  1.00  0.00     0.042 C 
ENDROOT
BRANCH   1   2
ATOM      2  C   UNL A   1      36.682  21.678  25.274  1.00  0.00     0.118 C 
BRANCH   2   3
ATOM      3  N   UNL A   1      35.897  21.827  26.487  1.00  0.00    -0.351 N 
ATOM      4  C   UNL A   1      34.740  22.473  26.827  1.00  0.00     0.267 C 
ATOM      5  O   UNL A   1      34.281  22.106  27.917  1.00  0.00    -0.268 OA
ATOM      6  H   UNL A   1      36.294  21.347  27.249  1.00  0.00     0.163 HD
BRANCH   4   7
ATOM      7  C   UNL A   1      34.049  23.492  26.046  1.00  0.00     0.108 A 
ATOM      8  C   UNL A   1      32.780  27.059  23.318  1.00  0.00     0.165 A 
ATOM      9  C   UNL A   1      33.933  26.544  23.943  1.00  0.00     0.061 A 
ATOM     10  C   UNL A   1      31.507  26.520  23.570  1.00  0.00     0.205 A 
ATOM     11  C   UNL A   1      33.819  25.397  24.750  1.00  0.00     0.008 A 
ATOM     12  C   UNL A   1      31.374  25.437  24.468  1.00  0.00     0.189 A 
ATOM     13  C   UNL A   1      34.716  24.601  25.505  1.00  0.00     0.042 A 
ATOM     14  C   UNL A   1      32.569  24.826  24.925  1.00  0.00     0.096 A 
ATOM     15  N   UNL A   1      32.789  23.549  25.467  1.00  0.00    -0.329 N 
BRANCH   8  16
ATOM     16  O   UNL A   1      32.976  28.007  22.340  1.00  0.00    -0.493 OA
ATOM     17  C   UNL A   1      34.070  28.871  22.642  1.00  0.00     0.278 C 
ENDBRANCH   8  16
BRANCH  10  18
ATOM     18  O   UNL A   1      30.367  26.865  22.894  1.00  0.00    -0.490 OA
ATOM     19  C   UNL A   1      29.643  28.022  23.262  1.00  0.00     0.278 C 
ENDBRANCH  10  18
BRANCH  12  20
ATOM     20  O   UNL A   1      30.224  24.893  24.960  1.00  0.00    -0.491 OA
ATOM     21  C   UNL A   1      29.582  25.433  26.108  1.00  0.00     0.278 C 
ENDBRANCH  12  20
BRANCH  15  22
ATOM     22  C   UNL A   1      31.797  22.492  25.254  1.00  0.00     0.158 C 
BRANCH  22  23
ATOM     23  C   UNL A   1      32.188  21.189  24.591  1.00  0.00    -0.028 A 
ATOM     24  C   UNL A   1      32.498  19.986  25.230  1.00  0.00     0.005 A 
ATOM     25  C   UNL A   1      32.113  21.189  23.180  1.00  0.00     0.005 A 
ATOM     26  C   UNL A   1      32.607  18.802  24.493  1.00  0.00     0.000 A 
ATOM     27  C   UNL A   1      32.245  20.014  22.444  1.00  0.00     0.000 A 
ATOM     28  C   UNL A   1      32.464  18.812  23.107  1.00  0.00     0.000 A 
ENDBRANCH  22  23
ENDBRANCH  15  22
ENDBRANCH   4   7
ENDBRANCH   2   3
ENDBRANCH   1   2
BRANCH   1  29
ATOM     29  C   UNL A   1      39.075  22.176  26.149  1.00  0.00     0.118 C 
BRANCH  29  30
ATOM     30  N   UNL A   1      40.447  21.980  25.742  1.00  0.00    -0.352 N 
ATOM     31  C   UNL A   1      41.610  22.668  25.963  1.00  0.00     0.251 C 
ATOM     32  H   UNL A   1      40.574  21.178  25.185  1.00  0.00     0.163 HD
ATOM     33  O   UNL A   1      42.631  22.143  25.508  1.00  0.00    -0.269 OA
BRANCH  31  34
ATOM     34  C   UNL A   1      41.723  23.994  26.641  1.00  0.00     0.039 A 
ATOM     35  C   UNL A   1      42.282  24.246  27.897  1.00  0.00     0.014 A 
ATOM     36  C   UNL A   1      41.184  25.082  25.927  1.00  0.00     0.014 A 
ATOM     37  C   UNL A   1      42.210  25.523  28.463  1.00  0.00     0.010 A 
ATOM     38  C   UNL A   1      41.135  26.359  26.474  1.00  0.00     0.010 A 
ATOM     39  C   UNL A   1      41.597  26.571  27.769  1.00  0.00    -0.014 A 
BRANCH  39  40
ATOM     40  C   UNL A   1      41.489  27.883  28.414  1.00  0.00     0.031 A 
ATOM     41  C   UNL A   1      42.597  28.841  28.137  1.00  0.00     0.074 A 
ATOM     42  C   UNL A   1      40.395  28.277  29.104  1.00  0.00     0.049 A 
ATOM     43  N   UNL A   1      43.429  29.374  28.973  1.00  0.00    -0.248 NA
ATOM     44  C   UNL A   1      42.858  29.198  26.733  1.00  0.00     0.031 C 
ATOM     45  C   UNL A   1      39.103  27.583  29.183  1.00  0.00     0.029 A 
ATOM     46  N   UNL A   1      40.163  29.433  29.798  1.00  0.00    -0.354 N 
ATOM     47  C   UNL A   1      44.182  30.291  28.238  1.00  0.00     0.074 A 
ATOM     48  C   UNL A   1      43.891  30.036  26.851  1.00  0.00     0.031 C 
ATOM     49  C   UNL A   1      38.171  28.426  29.675  1.00  0.00     0.029 A 
ATOM     50  C   UNL A   1      38.824  29.651  30.102  1.00  0.00     0.049 A 
ATOM     51  H   UNL A   1      40.880  30.055  30.057  1.00  0.00     0.167 HD
ATOM     52  C   UNL A   1      44.816  31.342  28.831  1.00  0.00     0.037 A 
ATOM     53  C   UNL A   1      38.272  30.764  30.643  1.00  0.00     0.037 A 
ATOM     54  C   UNL A   1      44.854  31.199  30.261  1.00  0.00     0.049 A 
ATOM     55  C   UNL A   1      39.330  31.497  31.376  1.00  0.00     0.074 A 
ATOM     56  C   UNL A   1      45.642  30.564  31.193  1.00  0.00     0.029 A 
ATOM     57  N   UNL A   1      43.697  31.572  30.889  1.00  0.00    -0.354 N 
ATOM     58  N   UNL A   1      39.944  31.022  32.424  1.00  0.00    -0.248 NA
ATOM     59  C   UNL A   1      39.943  32.678  30.775  1.00  0.00     0.031 C 
ATOM     60  C   UNL A   1      44.841  30.419  32.367  1.00  0.00     0.029 A 
ATOM     61  C   UNL A   1      43.595  30.991  32.127  1.00  0.00     0.049 A 
ATOM     62  H   UNL A   1      43.026  32.179  30.504  1.00  0.00     0.167 HD
ATOM     63  C   UNL A   1      41.209  31.567  32.355  1.00  0.00     0.074 A 
ATOM     64  C   UNL A   1      41.097  32.699  31.447  1.00  0.00     0.031 C 
ATOM     65  C   UNL A   1      42.302  30.862  32.763  1.00  0.00     0.037 A 
BRANCH  52  66
ATOM     66  C   UNL A   1      45.041  32.697  28.189  1.00  0.00     0.058 A 
ATOM     67  C   UNL A   1      46.342  33.093  27.812  1.00  0.00     0.135 A 
ATOM     68  C   UNL A   1      44.075  33.726  28.204  1.00  0.00     0.135 A 
ATOM     69  F   UNL A   1      47.346  32.201  27.783  1.00  0.00    -0.206 F 
ATOM     70  C   UNL A   1      46.666  34.421  27.513  1.00  0.00     0.059 A 
ATOM     71  C   UNL A   1      44.364  35.045  27.861  1.00  0.00     0.059 A 
ATOM     72  F   UNL A   1      42.828  33.516  28.646  1.00  0.00    -0.206 F 
ATOM     73  C   UNL A   1      45.670  35.392  27.551  1.00  0.00     0.060 A 
BRANCH  73  74
ATOM     74  S   UNL A   1      46.099  37.119  27.250  1.00  0.00     0.124 S 
ATOM     75  O   UNL A   1      46.657  37.513  28.539  1.00  0.00    -0.237 OA
ATOM     76  O   UNL A   1      47.050  37.007  26.148  1.00  0.00    -0.237 OA
ATOM     77  O   UNL A   1      44.819  37.728  26.904  1.00  0.00    -0.744 OA
ENDBRANCH  73  74
ENDBRANCH  52  66
BRANCH  53  78
ATOM     78  C   UNL A   1      36.957  31.377  30.329  1.00  0.00     0.058 A 
ATOM     79  C   UNL A   1      36.097  31.817  31.349  1.00  0.00     0.135 A 
ATOM     80  C   UNL A   1      36.661  31.821  29.024  1.00  0.00     0.135 A 
ATOM     81  F   UNL A   1      36.313  31.447  32.621  1.00  0.00    -0.206 F 
ATOM     82  C   UNL A   1      35.046  32.706  31.104  1.00  0.00     0.059 A 
ATOM     83  C   UNL A   1      35.614  32.701  28.754  1.00  0.00     0.059 A 
ATOM     84  F   UNL A   1      37.446  31.492  27.988  1.00  0.00    -0.206 F 
ATOM     85  C   UNL A   1      34.832  33.166  29.805  1.00  0.00     0.060 A 
BRANCH  85  86
ATOM     86  S   UNL A   1      33.615  34.473  29.521  1.00  0.00     0.124 S 
ATOM     87  O   UNL A   1      34.420  35.497  28.864  1.00  0.00    -0.237 OA
ATOM     88  O   UNL A   1      32.632  33.798  28.680  1.00  0.00    -0.237 OA
ATOM     89  O   UNL A   1      33.156  34.808  30.866  1.00  0.00    -0.744 OA
ENDBRANCH  85  86
ENDBRANCH  53  78
BRANCH  65  90
ATOM     90  C   UNL A   1      42.096  29.795  33.796  1.00  0.00     0.058 A 
ATOM     91  C   UNL A   1      41.975  30.029  35.176  1.00  0.00     0.135 A 
ATOM     92  C   UNL A   1      41.981  28.468  33.357  1.00  0.00     0.135 A 
ATOM     93  F   UNL A   1      41.990  31.275  35.667  1.00  0.00    -0.206 F 
ATOM     94  C   UNL A   1      41.797  28.982  36.082  1.00  0.00     0.059 A 
ATOM     95  C   UNL A   1      41.771  27.412  34.239  1.00  0.00     0.059 A 
ATOM     96  F   UNL A   1      42.043  28.187  32.044  1.00  0.00    -0.206 F 
ATOM     97  C   UNL A   1      41.698  27.676  35.604  1.00  0.00     0.060 A 
BRANCH  97  98
ATOM     98  S   UNL A   1      41.424  26.326  36.773  1.00  0.00     0.124 S 
ATOM     99  O   UNL A   1      40.425  26.899  37.676  1.00  0.00    -0.237 OA
ATOM    100  O   UNL A   1      40.941  25.249  35.907  1.00  0.00    -0.237 OA
ATOM    101  O   UNL A   1      42.737  26.103  37.356  1.00  0.00    -0.744 OA
ENDBRANCH  97  98
ENDBRANCH  65  90
ENDBRANCH  39  40
ENDBRANCH  31  34
ENDBRANCH  29  30
ENDBRANCH   1  29
TORSDOF 18
ENDMDL
