MODEL 1
REMARK VINA RESULT:     -12.3      0.000      0.000
REMARK SMILES COc1ccc(/C=N/Nc2cccc(C(=O)NCCCNC(=O)c3ccc(-c4c5nc(c(-c6c(F)cc(S(=O)(=O)[O-])cc6F)c6ccc([nH]6)c(-c6c(F)cc(S(=O)(=O)[O-])cc6F)c6nc(c(-c7c(F)cc(S(=O)(=O)[O-])cc7F)c7ccc4[nH]7)C=C6)C=C5)cc3)c2)cc1O
REMARK SMILES IDX 18 1 17 2 15 3 16 4 14 6 10 7 11 8 90 9 12 10 13 11 9 12
REMARK SMILES IDX 8 14 7 15 6 16 3 17 4 18 92 19 5 20 91 21 2 22 1 23 93 24
REMARK SMILES IDX 19 26 20 27 21 28 22 29 23 31 24 32 25 33 89 34 26 35 88 36
REMARK SMILES IDX 27 37 28 38 29 39 82 40 30 41 87 42 81 43 83 44 31 45 86 46
REMARK SMILES IDX 80 47 79 48 32 50 66 51 45 52 65 53 46 54 49 55 64 56 84 57
REMARK SMILES IDX 47 58 48 59 63 61 85 62 50 63 33 64 34 65 43 66 35 67 36 68
REMARK SMILES IDX 42 69 44 70 37 71 38 72 39 73 40 74 41 75 67 76 68 77 77 78
REMARK SMILES IDX 69 79 70 80 76 81 78 82 71 83 72 84 73 85 74 86 75 87 51 88
REMARK SMILES IDX 52 89 61 90 53 91 54 92 60 93 62 94 55 95 56 96 57 97 58 98
REMARK SMILES IDX 59 99
REMARK H PARENT 17 5 9 13 93 25 21 30 83 49 49 60
REMARK Flexibility Score: inf
ROOT
ATOM      1  C   UNL A   1      36.201  22.949  26.376  1.00  0.00     0.118 C 
ENDROOT
BRANCH   1   2
ATOM      2  N   UNL A   1      35.741  21.619  26.023  1.00  0.00    -0.352 N 
ATOM      3  C   UNL A   1      34.781  21.168  25.152  1.00  0.00     0.251 C 
ATOM      4  O   UNL A   1      34.658  19.947  25.043  1.00  0.00    -0.269 OA
ATOM      5  H   UNL A   1      36.209  20.900  26.503  1.00  0.00     0.163 HD
BRANCH   3   6
ATOM      6  C   UNL A   1      33.941  22.058  24.298  1.00  0.00     0.041 A 
ATOM      7  C   UNL A   1      31.907  23.299  23.748  1.00  0.00     0.057 A 
ATOM      8  C   UNL A   1      32.552  23.849  22.637  1.00  0.00     0.028 A 
ATOM      9  C   UNL A   1      32.597  22.360  24.530  1.00  0.00     0.041 A 
ATOM     10  C   UNL A   1      33.873  23.510  22.344  1.00  0.00     0.003 A 
ATOM     11  C   UNL A   1      34.567  22.635  23.180  1.00  0.00     0.014 A 
BRANCH   7  12
ATOM     12  N   UNL A   1      30.638  23.794  24.118  1.00  0.00    -0.278 N 
ATOM     13  H   UNL A   1      30.177  23.360  24.871  1.00  0.00     0.190 HD
BRANCH  12  14
ATOM     14  N   UNL A   1      30.008  24.835  23.500  1.00  0.00    -0.183 NA
ATOM     15  C   UNL A   1      30.104  25.986  24.094  1.00  0.00     0.141 C 
BRANCH  15  16
ATOM     16  C   UNL A   1      29.491  27.215  23.556  1.00  0.00    -0.002 A 
ATOM     17  C   UNL A   1      28.255  29.499  22.525  1.00  0.00     0.160 A 
ATOM     18  C   UNL A   1      29.641  29.360  22.437  1.00  0.00     0.051 A 
ATOM     19  C   UNL A   1      27.495  28.473  23.092  1.00  0.00     0.158 A 
ATOM     20  C   UNL A   1      30.261  28.209  22.942  1.00  0.00     0.014 A 
ATOM     21  C   UNL A   1      28.104  27.357  23.652  1.00  0.00     0.060 A 
BRANCH  17  22
ATOM     22  O   UNL A   1      27.666  30.577  21.920  1.00  0.00    -0.493 OA
ATOM     23  C   UNL A   1      28.576  31.318  21.105  1.00  0.00     0.278 C 
ENDBRANCH  17  22
BRANCH  19  24
ATOM     24  O   UNL A   1      26.130  28.494  23.046  1.00  0.00    -0.504 OA
ATOM     25  H   UNL A   1      25.681  29.277  22.795  1.00  0.00     0.293 HD
ENDBRANCH  19  24
ENDBRANCH  15  16
ENDBRANCH  12  14
ENDBRANCH   7  12
ENDBRANCH   3   6
ENDBRANCH   1   2
BRANCH   1  26
ATOM     26  C   UNL A   1      37.530  23.276  25.697  1.00  0.00     0.042 C 
BRANCH  26  27
ATOM     27  C   UNL A   1      38.414  24.189  26.540  1.00  0.00     0.118 C 
BRANCH  27  28
ATOM     28  N   UNL A   1      39.824  24.037  26.195  1.00  0.00    -0.352 N 
ATOM     29  C   UNL A   1      40.898  24.819  26.530  1.00  0.00     0.251 C 
ATOM     30  H   UNL A   1      40.036  23.252  25.640  1.00  0.00     0.163 HD
ATOM     31  O   UNL A   1      41.967  24.657  25.941  1.00  0.00    -0.269 OA
BRANCH  29  32
ATOM     32  C   UNL A   1      40.780  25.850  27.583  1.00  0.00     0.039 A 
ATOM     33  C   UNL A   1      39.796  25.705  28.566  1.00  0.00     0.014 A 
ATOM     34  C   UNL A   1      41.607  26.978  27.584  1.00  0.00     0.014 A 
ATOM     35  C   UNL A   1      39.674  26.664  29.574  1.00  0.00     0.010 A 
ATOM     36  C   UNL A   1      41.532  27.894  28.630  1.00  0.00     0.010 A 
ATOM     37  C   UNL A   1      40.559  27.751  29.630  1.00  0.00    -0.014 A 
BRANCH  37  38
ATOM     38  C   UNL A   1      40.483  28.758  30.721  1.00  0.00     0.031 A 
ATOM     39  C   UNL A   1      41.385  28.639  31.919  1.00  0.00     0.074 A 
ATOM     40  C   UNL A   1      39.558  29.735  30.662  1.00  0.00     0.049 A 
ATOM     41  N   UNL A   1      41.408  29.358  33.012  1.00  0.00    -0.248 NA
ATOM     42  C   UNL A   1      42.374  27.549  31.898  1.00  0.00     0.031 C 
ATOM     43  C   UNL A   1      38.602  29.930  29.569  1.00  0.00     0.029 A 
ATOM     44  N   UNL A   1      39.258  30.740  31.547  1.00  0.00    -0.354 N 
ATOM     45  C   UNL A   1      42.398  28.801  33.812  1.00  0.00     0.074 A 
ATOM     46  C   UNL A   1      42.917  27.651  33.103  1.00  0.00     0.031 C 
ATOM     47  C   UNL A   1      37.840  31.002  29.839  1.00  0.00     0.029 A 
ATOM     48  C   UNL A   1      38.221  31.544  31.139  1.00  0.00     0.049 A 
ATOM     49  H   UNL A   1      39.741  30.873  32.395  1.00  0.00     0.167 HD
ATOM     50  C   UNL A   1      42.849  29.221  35.019  1.00  0.00     0.037 A 
ATOM     51  C   UNL A   1      37.637  32.594  31.748  1.00  0.00     0.037 A 
ATOM     52  C   UNL A   1      42.341  30.378  35.709  1.00  0.00     0.049 A 
ATOM     53  C   UNL A   1      38.146  33.037  33.092  1.00  0.00     0.074 A 
ATOM     54  C   UNL A   1      42.760  30.917  36.913  1.00  0.00     0.029 A 
ATOM     55  N   UNL A   1      41.299  31.176  35.255  1.00  0.00    -0.354 N 
ATOM     56  N   UNL A   1      39.117  32.528  33.814  1.00  0.00    -0.248 NA
ATOM     57  C   UNL A   1      37.483  34.196  33.706  1.00  0.00     0.031 C 
ATOM     58  C   UNL A   1      41.946  32.017  37.206  1.00  0.00     0.029 A 
ATOM     59  C   UNL A   1      41.051  32.192  36.162  1.00  0.00     0.049 A 
ATOM     60  H   UNL A   1      40.809  31.039  34.412  1.00  0.00     0.167 HD
ATOM     61  C   UNL A   1      39.201  33.322  34.952  1.00  0.00     0.074 A 
ATOM     62  C   UNL A   1      38.187  34.348  34.819  1.00  0.00     0.031 C 
ATOM     63  C   UNL A   1      40.043  33.212  36.009  1.00  0.00     0.037 A 
BRANCH  50  64
ATOM     64  C   UNL A   1      43.950  28.423  35.665  1.00  0.00     0.058 A 
ATOM     65  C   UNL A   1      45.303  28.677  35.390  1.00  0.00     0.135 A 
ATOM     66  C   UNL A   1      43.651  27.398  36.579  1.00  0.00     0.135 A 
ATOM     67  F   UNL A   1      45.647  29.635  34.514  1.00  0.00    -0.206 F 
ATOM     68  C   UNL A   1      46.319  27.920  35.965  1.00  0.00     0.059 A 
ATOM     69  C   UNL A   1      44.653  26.647  37.188  1.00  0.00     0.059 A 
ATOM     70  F   UNL A   1      42.376  27.113  36.882  1.00  0.00    -0.206 F 
ATOM     71  C   UNL A   1      45.983  26.902  36.860  1.00  0.00     0.060 A 
BRANCH  71  72
ATOM     72  S   UNL A   1      47.311  25.918  37.583  1.00  0.00     0.124 S 
ATOM     73  O   UNL A   1      46.783  24.565  37.437  1.00  0.00    -0.237 OA
ATOM     74  O   UNL A   1      48.448  26.249  36.730  1.00  0.00    -0.237 OA
ATOM     75  O   UNL A   1      47.395  26.414  38.953  1.00  0.00    -0.744 OA
ENDBRANCH  71  72
ENDBRANCH  50  64
BRANCH  51  76
ATOM     76  C   UNL A   1      36.527  33.318  31.072  1.00  0.00     0.058 A 
ATOM     77  C   UNL A   1      36.769  34.100  29.934  1.00  0.00     0.135 A 
ATOM     78  C   UNL A   1      35.204  33.222  31.531  1.00  0.00     0.135 A 
ATOM     79  F   UNL A   1      38.018  34.229  29.462  1.00  0.00    -0.206 F 
ATOM     80  C   UNL A   1      35.742  34.772  29.279  1.00  0.00     0.059 A 
ATOM     81  C   UNL A   1      34.156  33.864  30.878  1.00  0.00     0.059 A 
ATOM     82  F   UNL A   1      34.917  32.471  32.606  1.00  0.00    -0.206 F 
ATOM     83  C   UNL A   1      34.436  34.643  29.757  1.00  0.00     0.060 A 
BRANCH  83  84
ATOM     84  S   UNL A   1      33.104  35.473  28.864  1.00  0.00     0.124 S 
ATOM     85  O   UNL A   1      32.532  34.371  28.098  1.00  0.00    -0.237 OA
ATOM     86  O   UNL A   1      32.281  35.990  29.952  1.00  0.00    -0.237 OA
ATOM     87  O   UNL A   1      33.805  36.489  28.082  1.00  0.00    -0.744 OA
ENDBRANCH  83  84
ENDBRANCH  51  76
BRANCH  63  88
ATOM     88  C   UNL A   1      39.933  34.249  37.092  1.00  0.00     0.058 A 
ATOM     89  C   UNL A   1      40.567  35.496  36.989  1.00  0.00     0.135 A 
ATOM     90  C   UNL A   1      39.130  34.011  38.220  1.00  0.00     0.135 A 
ATOM     91  F   UNL A   1      41.352  35.770  35.934  1.00  0.00    -0.206 F 
ATOM     92  C   UNL A   1      40.424  36.467  37.974  1.00  0.00     0.059 A 
ATOM     93  C   UNL A   1      38.953  34.978  39.206  1.00  0.00     0.059 A 
ATOM     94  F   UNL A   1      38.495  32.838  38.364  1.00  0.00    -0.206 F 
ATOM     95  C   UNL A   1      39.612  36.199  39.078  1.00  0.00     0.060 A 
BRANCH  95  96
ATOM     96  S   UNL A   1      39.397  37.486  40.327  1.00  0.00     0.124 S 
ATOM     97  O   UNL A   1      40.774  37.917  40.544  1.00  0.00    -0.237 OA
ATOM     98  O   UNL A   1      38.533  38.444  39.644  1.00  0.00    -0.237 OA
ATOM     99  O   UNL A   1      38.778  36.776  41.442  1.00  0.00    -0.744 OA
ENDBRANCH  95  96
ENDBRANCH  63  88
ENDBRANCH  37  38
ENDBRANCH  29  32
ENDBRANCH  27  28
ENDBRANCH  26  27
ENDBRANCH   1  26
TORSDOF 18
ENDMDL
MODEL 2
REMARK VINA RESULT:     -12.3      4.856      7.844
REMARK SMILES COc1ccc(/C=N/Nc2cccc(C(=O)NCCCNC(=O)c3ccc(-c4c5nc(c(-c6c(F)cc(S(=O)(=O)[O-])cc6F)c6ccc([nH]6)c(-c6c(F)cc(S(=O)(=O)[O-])cc6F)c6nc(c(-c7c(F)cc(S(=O)(=O)[O-])cc7F)c7ccc4[nH]7)C=C6)C=C5)cc3)c2)cc1O
REMARK SMILES IDX 18 1 17 2 15 3 16 4 14 6 10 7 11 8 90 9 12 10 13 11 9 12
REMARK SMILES IDX 8 14 7 15 6 16 3 17 4 18 92 19 5 20 91 21 2 22 1 23 93 24
REMARK SMILES IDX 19 26 20 27 21 28 22 29 23 31 24 32 25 33 89 34 26 35 88 36
REMARK SMILES IDX 27 37 28 38 29 39 82 40 30 41 87 42 81 43 83 44 31 45 86 46
REMARK SMILES IDX 80 47 79 48 32 50 66 51 45 52 65 53 46 54 49 55 64 56 84 57
REMARK SMILES IDX 47 58 48 59 63 61 85 62 50 63 33 64 34 65 43 66 35 67 36 68
REMARK SMILES IDX 42 69 44 70 37 71 38 72 39 73 40 74 41 75 67 76 68 77 77 78
REMARK SMILES IDX 69 79 70 80 76 81 78 82 71 83 72 84 73 85 74 86 75 87 51 88
REMARK SMILES IDX 52 89 61 90 53 91 54 92 60 93 62 94 55 95 56 96 57 97 58 98
REMARK SMILES IDX 59 99
REMARK H PARENT 17 5 9 13 93 25 21 30 83 49 49 60
REMARK Flexibility Score: inf
ROOT
ATOM      1  C   UNL A   1      43.504  21.714  26.276  1.00  0.00     0.118 C 
ENDROOT
BRANCH   1   2
ATOM      2  N   UNL A   1      43.852  22.283  27.564  1.00  0.00    -0.352 N 
ATOM      3  C   UNL A   1      44.576  23.391  27.926  1.00  0.00     0.251 C 
ATOM      4  O   UNL A   1      44.656  23.636  29.131  1.00  0.00    -0.269 OA
ATOM      5  H   UNL A   1      43.500  21.775  28.329  1.00  0.00     0.163 HD
BRANCH   3   6
ATOM      6  C   UNL A   1      45.206  24.334  26.954  1.00  0.00     0.041 A 
ATOM      7  C   UNL A   1      45.216  26.269  25.460  1.00  0.00     0.057 A 
ATOM      8  C   UNL A   1      46.585  26.086  25.245  1.00  0.00     0.028 A 
ATOM      9  C   UNL A   1      44.534  25.348  26.268  1.00  0.00     0.041 A 
ATOM     10  C   UNL A   1      47.266  25.039  25.865  1.00  0.00     0.003 A 
ATOM     11  C   UNL A   1      46.583  24.181  26.728  1.00  0.00     0.014 A 
BRANCH   7  12
ATOM     12  N   UNL A   1      44.596  27.435  24.963  1.00  0.00    -0.278 N 
ATOM     13  H   UNL A   1      44.469  27.509  23.990  1.00  0.00     0.190 HD
BRANCH  12  14
ATOM     14  N   UNL A   1      44.159  28.466  25.743  1.00  0.00    -0.183 NA
ATOM     15  C   UNL A   1      45.079  29.268  26.187  1.00  0.00     0.141 C 
BRANCH  15  16
ATOM     16  C   UNL A   1      44.778  30.437  27.035  1.00  0.00    -0.002 A 
ATOM     17  C   UNL A   1      44.126  32.622  28.649  1.00  0.00     0.160 A 
ATOM     18  C   UNL A   1      45.143  32.739  27.701  1.00  0.00     0.051 A 
ATOM     19  C   UNL A   1      43.416  31.423  28.753  1.00  0.00     0.158 A 
ATOM     20  C   UNL A   1      45.462  31.648  26.881  1.00  0.00     0.014 A 
ATOM     21  C   UNL A   1      43.765  30.316  27.990  1.00  0.00     0.060 A 
BRANCH  17  22
ATOM     22  O   UNL A   1      43.757  33.736  29.355  1.00  0.00    -0.493 OA
ATOM     23  C   UNL A   1      43.269  34.784  28.515  1.00  0.00     0.278 C 
ENDBRANCH  17  22
BRANCH  19  24
ATOM     24  O   UNL A   1      42.309  31.321  29.548  1.00  0.00    -0.504 OA
ATOM     25  H   UNL A   1      42.038  30.483  29.868  1.00  0.00     0.293 HD
ENDBRANCH  19  24
ENDBRANCH  15  16
ENDBRANCH  12  14
ENDBRANCH   7  12
ENDBRANCH   3   6
ENDBRANCH   1   2
BRANCH   1  26
ATOM     26  C   UNL A   1      42.204  22.309  25.738  1.00  0.00     0.042 C 
BRANCH  26  27
ATOM     27  C   UNL A   1      40.976  21.837  26.509  1.00  0.00     0.118 C 
BRANCH  27  28
ATOM     28  N   UNL A   1      39.743  22.134  25.787  1.00  0.00    -0.352 N 
ATOM     29  C   UNL A   1      38.874  23.184  25.931  1.00  0.00     0.251 C 
ATOM     30  H   UNL A   1      39.500  21.483  25.090  1.00  0.00     0.163 HD
ATOM     31  O   UNL A   1      37.767  23.126  25.394  1.00  0.00    -0.269 OA
BRANCH  29  32
ATOM     32  C   UNL A   1      39.253  24.373  26.723  1.00  0.00     0.039 A 
ATOM     33  C   UNL A   1      38.815  24.471  28.048  1.00  0.00     0.014 A 
ATOM     34  C   UNL A   1      40.002  25.409  26.156  1.00  0.00     0.014 A 
ATOM     35  C   UNL A   1      39.169  25.583  28.816  1.00  0.00     0.010 A 
ATOM     36  C   UNL A   1      40.414  26.480  26.944  1.00  0.00     0.010 A 
ATOM     37  C   UNL A   1      39.995  26.583  28.279  1.00  0.00    -0.014 A 
BRANCH  37  38
ATOM     38  C   UNL A   1      40.428  27.750  29.090  1.00  0.00     0.031 A 
ATOM     39  C   UNL A   1      41.757  27.726  29.795  1.00  0.00     0.074 A 
ATOM     40  C   UNL A   1      39.596  28.798  29.246  1.00  0.00     0.049 A 
ATOM     41  N   UNL A   1      42.272  28.601  30.620  1.00  0.00    -0.248 NA
ATOM     42  C   UNL A   1      42.608  26.548  29.562  1.00  0.00     0.031 C 
ATOM     43  C   UNL A   1      38.266  28.919  28.644  1.00  0.00     0.029 A 
ATOM     44  N   UNL A   1      39.738  29.955  29.970  1.00  0.00    -0.354 N 
ATOM     45  C   UNL A   1      43.495  28.074  31.017  1.00  0.00     0.074 A 
ATOM     46  C   UNL A   1      43.623  26.780  30.383  1.00  0.00     0.031 C 
ATOM     47  C   UNL A   1      37.726  30.094  29.004  1.00  0.00     0.029 A 
ATOM     48  C   UNL A   1      38.648  30.790  29.895  1.00  0.00     0.049 A 
ATOM     49  H   UNL A   1      40.545  30.167  30.494  1.00  0.00     0.167 HD
ATOM     50  C   UNL A   1      44.437  28.628  31.818  1.00  0.00     0.037 A 
ATOM     51  C   UNL A   1      38.416  31.978  30.486  1.00  0.00     0.037 A 
ATOM     52  C   UNL A   1      44.311  29.927  32.428  1.00  0.00     0.049 A 
ATOM     53  C   UNL A   1      39.470  32.570  31.381  1.00  0.00     0.074 A 
ATOM     54  C   UNL A   1      45.225  30.600  33.219  1.00  0.00     0.029 A 
ATOM     55  N   UNL A   1      43.197  30.748  32.316  1.00  0.00    -0.354 N 
ATOM     56  N   UNL A   1      40.644  32.081  31.706  1.00  0.00    -0.248 NA
ATOM     57  C   UNL A   1      39.172  33.874  31.988  1.00  0.00     0.031 C 
ATOM     58  C   UNL A   1      44.649  31.812  33.617  1.00  0.00     0.029 A 
ATOM     59  C   UNL A   1      43.395  31.915  33.036  1.00  0.00     0.049 A 
ATOM     60  H   UNL A   1      42.386  30.534  31.801  1.00  0.00     0.167 HD
ATOM     61  C   UNL A   1      41.235  33.030  32.532  1.00  0.00     0.074 A 
ATOM     62  C   UNL A   1      40.292  34.124  32.651  1.00  0.00     0.031 C 
ATOM     63  C   UNL A   1      42.449  32.999  33.135  1.00  0.00     0.037 A 
BRANCH  50  64
ATOM     64  C   UNL A   1      45.687  27.830  32.075  1.00  0.00     0.058 A 
ATOM     65  C   UNL A   1      46.796  27.901  31.218  1.00  0.00     0.135 A 
ATOM     66  C   UNL A   1      45.782  26.990  33.198  1.00  0.00     0.135 A 
ATOM     67  F   UNL A   1      46.756  28.677  30.123  1.00  0.00    -0.206 F 
ATOM     68  C   UNL A   1      47.941  27.141  31.441  1.00  0.00     0.059 A 
ATOM     69  C   UNL A   1      46.928  26.242  33.457  1.00  0.00     0.059 A 
ATOM     70  F   UNL A   1      44.754  26.885  34.054  1.00  0.00    -0.206 F 
ATOM     71  C   UNL A   1      47.994  26.310  32.561  1.00  0.00     0.060 A 
BRANCH  71  72
ATOM     72  S   UNL A   1      49.478  25.316  32.826  1.00  0.00     0.124 S 
ATOM     73  O   UNL A   1      48.949  24.209  33.616  1.00  0.00    -0.237 OA
ATOM     74  O   UNL A   1      49.882  24.985  31.464  1.00  0.00    -0.237 OA
ATOM     75  O   UNL A   1      50.372  26.224  33.538  1.00  0.00    -0.744 OA
ENDBRANCH  71  72
ENDBRANCH  50  64
BRANCH  51  76
ATOM     76  C   UNL A   1      37.143  32.700  30.220  1.00  0.00     0.058 A 
ATOM     77  C   UNL A   1      36.019  32.496  31.032  1.00  0.00     0.135 A 
ATOM     78  C   UNL A   1      37.032  33.625  29.169  1.00  0.00     0.135 A 
ATOM     79  F   UNL A   1      36.074  31.617  32.045  1.00  0.00    -0.206 F 
ATOM     80  C   UNL A   1      34.825  33.173  30.810  1.00  0.00     0.059 A 
ATOM     81  C   UNL A   1      35.856  34.333  28.941  1.00  0.00     0.059 A 
ATOM     82  F   UNL A   1      38.084  33.869  28.373  1.00  0.00    -0.206 F 
ATOM     83  C   UNL A   1      34.755  34.094  29.763  1.00  0.00     0.060 A 
BRANCH  83  84
ATOM     84  S   UNL A   1      33.217  35.010  29.519  1.00  0.00     0.124 S 
ATOM     85  O   UNL A   1      32.627  34.954  30.852  1.00  0.00    -0.237 OA
ATOM     86  O   UNL A   1      33.703  36.317  29.090  1.00  0.00    -0.237 OA
ATOM     87  O   UNL A   1      32.526  34.238  28.490  1.00  0.00    -0.744 OA
ENDBRANCH  83  84
ENDBRANCH  51  76
BRANCH  63  88
ATOM     88  C   UNL A   1      42.849  34.198  33.949  1.00  0.00     0.058 A 
ATOM     89  C   UNL A   1      42.666  34.241  35.339  1.00  0.00     0.135 A 
ATOM     90  C   UNL A   1      43.478  35.293  33.334  1.00  0.00     0.135 A 
ATOM     91  F   UNL A   1      42.061  33.223  35.974  1.00  0.00    -0.206 F 
ATOM     92  C   UNL A   1      43.079  35.336  36.092  1.00  0.00     0.059 A 
ATOM     93  C   UNL A   1      43.922  36.387  34.071  1.00  0.00     0.059 A 
ATOM     94  F   UNL A   1      43.685  35.298  32.008  1.00  0.00    -0.206 F 
ATOM     95  C   UNL A   1      43.709  36.403  35.449  1.00  0.00     0.060 A 
BRANCH  95  96
ATOM     96  S   UNL A   1      44.283  37.797  36.443  1.00  0.00     0.124 S 
ATOM     97  O   UNL A   1      45.652  37.396  36.750  1.00  0.00    -0.237 OA
ATOM     98  O   UNL A   1      44.143  38.919  35.519  1.00  0.00    -0.237 OA
ATOM     99  O   UNL A   1      43.363  37.807  37.576  1.00  0.00    -0.744 OA
ENDBRANCH  95  96
ENDBRANCH  63  88
ENDBRANCH  37  38
ENDBRANCH  29  32
ENDBRANCH  27  28
ENDBRANCH  26  27
ENDBRANCH   1  26
TORSDOF 18
ENDMDL
MODEL 3
REMARK VINA RESULT:     -12.2      6.730     13.934
REMARK SMILES COc1ccc(/C=N/Nc2cccc(C(=O)NCCCNC(=O)c3ccc(-c4c5nc(c(-c6c(F)cc(S(=O)(=O)[O-])cc6F)c6ccc([nH]6)c(-c6c(F)cc(S(=O)(=O)[O-])cc6F)c6nc(c(-c7c(F)cc(S(=O)(=O)[O-])cc7F)c7ccc4[nH]7)C=C6)C=C5)cc3)c2)cc1O
REMARK SMILES IDX 18 1 17 2 15 3 16 4 14 6 10 7 11 8 90 9 12 10 13 11 9 12
REMARK SMILES IDX 8 14 7 15 6 16 3 17 4 18 92 19 5 20 91 21 2 22 1 23 93 24
REMARK SMILES IDX 19 26 20 27 21 28 22 29 23 31 24 32 25 33 89 34 26 35 88 36
REMARK SMILES IDX 27 37 28 38 29 39 82 40 30 41 87 42 81 43 83 44 31 45 86 46
REMARK SMILES IDX 80 47 79 48 32 50 66 51 45 52 65 53 46 54 49 55 64 56 84 57
REMARK SMILES IDX 47 58 48 59 63 61 85 62 50 63 33 64 34 65 43 66 35 67 36 68
REMARK SMILES IDX 42 69 44 70 37 71 38 72 39 73 40 74 41 75 67 76 68 77 77 78
REMARK SMILES IDX 69 79 70 80 76 81 78 82 71 83 72 84 73 85 74 86 75 87 51 88
REMARK SMILES IDX 52 89 61 90 53 91 54 92 60 93 62 94 55 95 56 96 57 97 58 98
REMARK SMILES IDX 59 99
REMARK H PARENT 17 5 9 13 93 25 21 30 83 49 49 60
REMARK Flexibility Score: inf
ROOT
ATOM      1  C   UNL A   1      35.030  34.309  28.455  1.00  0.00     0.118 C 
ENDROOT
BRANCH   1   2
ATOM      2  N   UNL A   1      33.847  35.136  28.310  1.00  0.00    -0.352 N 
ATOM      3  C   UNL A   1      33.088  35.838  29.212  1.00  0.00     0.251 C 
ATOM      4  O   UNL A   1      32.149  36.494  28.758  1.00  0.00    -0.269 OA
ATOM      5  H   UNL A   1      33.526  35.207  27.383  1.00  0.00     0.163 HD
BRANCH   3   6
ATOM      6  C   UNL A   1      33.372  35.901  30.676  1.00  0.00     0.041 A 
ATOM      7  C   UNL A   1      33.775  34.927  32.883  1.00  0.00     0.057 A 
ATOM      8  C   UNL A   1      34.041  36.203  33.389  1.00  0.00     0.028 A 
ATOM      9  C   UNL A   1      33.383  34.805  31.541  1.00  0.00     0.041 A 
ATOM     10  C   UNL A   1      33.969  37.323  32.561  1.00  0.00     0.003 A 
ATOM     11  C   UNL A   1      33.655  37.169  31.210  1.00  0.00     0.014 A 
BRANCH   7  12
ATOM     12  N   UNL A   1      34.028  33.802  33.696  1.00  0.00    -0.278 N 
ATOM     13  H   UNL A   1      33.260  33.249  33.966  1.00  0.00     0.190 HD
BRANCH  12  14
ATOM     14  N   UNL A   1      35.266  33.430  34.131  1.00  0.00    -0.183 NA
ATOM     15  C   UNL A   1      36.039  32.885  33.241  1.00  0.00     0.141 C 
BRANCH  15  16
ATOM     16  C   UNL A   1      37.411  32.434  33.541  1.00  0.00    -0.002 A 
ATOM     17  C   UNL A   1      39.982  31.556  34.191  1.00  0.00     0.160 A 
ATOM     18  C   UNL A   1      39.812  32.565  33.241  1.00  0.00     0.051 A 
ATOM     19  C   UNL A   1      38.864  31.025  34.838  1.00  0.00     0.158 A 
ATOM     20  C   UNL A   1      38.523  33.015  32.923  1.00  0.00     0.014 A 
ATOM     21  C   UNL A   1      37.579  31.419  34.487  1.00  0.00     0.060 A 
BRANCH  17  22
ATOM     22  O   UNL A   1      41.255  31.218  34.565  1.00  0.00    -0.493 OA
ATOM     23  C   UNL A   1      41.869  30.296  33.663  1.00  0.00     0.278 C 
ENDBRANCH  17  22
BRANCH  19  24
ATOM     24  O   UNL A   1      38.997  30.161  35.888  1.00  0.00    -0.504 OA
ATOM     25  H   UNL A   1      39.816  29.732  36.042  1.00  0.00     0.293 HD
ENDBRANCH  19  24
ENDBRANCH  15  16
ENDBRANCH  12  14
ENDBRANCH   7  12
ENDBRANCH   3   6
ENDBRANCH   1   2
BRANCH   1  26
ATOM     26  C   UNL A   1      34.745  32.859  28.067  1.00  0.00     0.042 C 
BRANCH  26  27
ATOM     27  C   UNL A   1      35.873  31.910  28.461  1.00  0.00     0.118 C 
BRANCH  27  28
ATOM     28  N   UNL A   1      35.646  31.326  29.779  1.00  0.00    -0.352 N 
ATOM     29  C   UNL A   1      36.390  30.405  30.469  1.00  0.00     0.251 C 
ATOM     30  H   UNL A   1      34.839  31.644  30.243  1.00  0.00     0.163 HD
ATOM     31  O   UNL A   1      35.902  29.860  31.460  1.00  0.00    -0.269 OA
BRANCH  29  32
ATOM     32  C   UNL A   1      37.759  30.060  30.031  1.00  0.00     0.039 A 
ATOM     33  C   UNL A   1      38.731  29.790  31.000  1.00  0.00     0.014 A 
ATOM     34  C   UNL A   1      38.100  30.041  28.675  1.00  0.00     0.014 A 
ATOM     35  C   UNL A   1      40.029  29.455  30.607  1.00  0.00     0.010 A 
ATOM     36  C   UNL A   1      39.374  29.637  28.285  1.00  0.00     0.010 A 
ATOM     37  C   UNL A   1      40.353  29.348  29.246  1.00  0.00    -0.014 A 
BRANCH  37  38
ATOM     38  C   UNL A   1      41.712  28.943  28.802  1.00  0.00     0.031 A 
ATOM     39  C   UNL A   1      42.812  29.966  28.713  1.00  0.00     0.074 A 
ATOM     40  C   UNL A   1      41.935  27.672  28.416  1.00  0.00     0.049 A 
ATOM     41  N   UNL A   1      44.033  29.831  28.263  1.00  0.00    -0.248 NA
ATOM     42  C   UNL A   1      42.486  31.329  29.165  1.00  0.00     0.031 C 
ATOM     43  C   UNL A   1      40.938  26.599  28.422  1.00  0.00     0.029 A 
ATOM     44  N   UNL A   1      43.067  27.068  27.930  1.00  0.00    -0.354 N 
ATOM     45  C   UNL A   1      44.614  31.089  28.361  1.00  0.00     0.074 A 
ATOM     46  C   UNL A   1      43.597  31.987  28.864  1.00  0.00     0.031 C 
ATOM     47  C   UNL A   1      41.509  25.465  27.984  1.00  0.00     0.029 A 
ATOM     48  C   UNL A   1      42.897  25.738  27.626  1.00  0.00     0.049 A 
ATOM     49  H   UNL A   1      43.922  27.543  27.811  1.00  0.00     0.167 HD
ATOM     50  C   UNL A   1      45.887  31.460  28.078  1.00  0.00     0.037 A 
ATOM     51  C   UNL A   1      43.760  24.843  27.108  1.00  0.00     0.037 A 
ATOM     52  C   UNL A   1      46.899  30.555  27.597  1.00  0.00     0.049 A 
ATOM     53  C   UNL A   1      45.164  25.278  26.791  1.00  0.00     0.074 A 
ATOM     54  C   UNL A   1      48.230  30.818  27.325  1.00  0.00     0.029 A 
ATOM     55  N   UNL A   1      46.691  29.212  27.315  1.00  0.00    -0.354 N 
ATOM     56  N   UNL A   1      45.713  26.461  26.936  1.00  0.00    -0.248 NA
ATOM     57  C   UNL A   1      46.068  24.258  26.241  1.00  0.00     0.031 C 
ATOM     58  C   UNL A   1      48.817  29.643  26.841  1.00  0.00     0.029 A 
ATOM     59  C   UNL A   1      47.864  28.637  26.857  1.00  0.00     0.049 A 
ATOM     60  H   UNL A   1      45.835  28.738  27.426  1.00  0.00     0.167 HD
ATOM     61  C   UNL A   1      47.033  26.321  26.524  1.00  0.00     0.074 A 
ATOM     62  C   UNL A   1      47.202  24.937  26.130  1.00  0.00     0.031 C 
ATOM     63  C   UNL A   1      48.017  27.253  26.479  1.00  0.00     0.037 A 
BRANCH  50  64
ATOM     64  C   UNL A   1      46.252  32.905  28.287  1.00  0.00     0.058 A 
ATOM     65  C   UNL A   1      46.061  33.865  27.281  1.00  0.00     0.135 A 
ATOM     66  C   UNL A   1      46.788  33.339  29.511  1.00  0.00     0.135 A 
ATOM     67  F   UNL A   1      45.564  33.505  26.086  1.00  0.00    -0.206 F 
ATOM     68  C   UNL A   1      46.425  35.196  27.464  1.00  0.00     0.059 A 
ATOM     69  C   UNL A   1      47.133  34.671  29.727  1.00  0.00     0.059 A 
ATOM     70  F   UNL A   1      46.989  32.466  30.510  1.00  0.00    -0.206 F 
ATOM     71  C   UNL A   1      46.966  35.588  28.690  1.00  0.00     0.060 A 
BRANCH  71  72
ATOM     72  S   UNL A   1      47.450  37.313  28.906  1.00  0.00     0.124 S 
ATOM     73  O   UNL A   1      48.906  37.208  28.916  1.00  0.00    -0.237 OA
ATOM     74  O   UNL A   1      46.871  37.952  27.728  1.00  0.00    -0.237 OA
ATOM     75  O   UNL A   1      46.839  37.681  30.179  1.00  0.00    -0.744 OA
ENDBRANCH  71  72
ENDBRANCH  50  64
BRANCH  51  76
ATOM     76  C   UNL A   1      43.325  23.437  26.890  1.00  0.00     0.058 A 
ATOM     77  C   UNL A   1      43.008  22.975  25.606  1.00  0.00     0.135 A 
ATOM     78  C   UNL A   1      43.244  22.523  27.952  1.00  0.00     0.135 A 
ATOM     79  F   UNL A   1      43.063  23.813  24.559  1.00  0.00    -0.206 F 
ATOM     80  C   UNL A   1      42.614  21.661  25.379  1.00  0.00     0.059 A 
ATOM     81  C   UNL A   1      42.878  21.196  27.748  1.00  0.00     0.059 A 
ATOM     82  F   UNL A   1      43.554  22.910  29.200  1.00  0.00    -0.206 F 
ATOM     83  C   UNL A   1      42.557  20.776  26.458  1.00  0.00     0.060 A 
BRANCH  83  84
ATOM     84  S   UNL A   1      42.101  19.057  26.143  1.00  0.00     0.124 S 
ATOM     85  O   UNL A   1      43.030  18.697  25.077  1.00  0.00    -0.237 OA
ATOM     86  O   UNL A   1      42.343  18.433  27.439  1.00  0.00    -0.237 OA
ATOM     87  O   UNL A   1      40.697  19.148  25.753  1.00  0.00    -0.744 OA
ENDBRANCH  83  84
ENDBRANCH  51  76
BRANCH  63  88
ATOM     88  C   UNL A   1      49.376  26.804  26.022  1.00  0.00     0.058 A 
ATOM     89  C   UNL A   1      49.821  27.013  24.708  1.00  0.00     0.135 A 
ATOM     90  C   UNL A   1      50.268  26.209  26.930  1.00  0.00     0.135 A 
ATOM     91  F   UNL A   1      49.004  27.570  23.799  1.00  0.00    -0.206 F 
ATOM     92  C   UNL A   1      51.097  26.635  24.304  1.00  0.00     0.059 A 
ATOM     93  C   UNL A   1      51.558  25.846  26.554  1.00  0.00     0.059 A 
ATOM     94  F   UNL A   1      49.895  25.994  28.201  1.00  0.00    -0.206 F 
ATOM     95  C   UNL A   1      51.960  26.054  25.236  1.00  0.00     0.060 A 
BRANCH  95  96
ATOM     96  S   UNL A   1      53.629  25.610  24.711  1.00  0.00     0.124 S 
ATOM     97  O   UNL A   1      53.593  25.955  23.293  1.00  0.00    -0.237 OA
ATOM     98  O   UNL A   1      54.460  26.469  25.551  1.00  0.00    -0.237 OA
ATOM     99  O   UNL A   1      53.711  24.184  25.010  1.00  0.00    -0.744 OA
ENDBRANCH  95  96
ENDBRANCH  63  88
ENDBRANCH  37  38
ENDBRANCH  29  32
ENDBRANCH  27  28
ENDBRANCH  26  27
ENDBRANCH   1  26
TORSDOF 18
ENDMDL
