MODEL 1
REMARK VINA RESULT:     -11.7      0.000      0.000
REMARK SMILES C[C@@H](C(=O)NCCCNC(=O)c1ccc(-c2c3nc(c(-c4c(F)cc(S(=O)(=O)[O-])cc4F)c4ccc([nH]4)c(-c4c(F)cc(S(=O)(=O)[O-])cc4F)c4nc(c(-c5c(F)cc(S(=O)(=O)[O-])cc5F)c5ccc2[nH]5)C=C4)C=C3)cc1)c1cccn(C(F)F)c1=O
REMARK SMILES IDX 7 1 6 2 5 3 3 4 4 5 2 7 1 8 78 9 79 10 86 11 80 12 82 13
REMARK SMILES IDX 87 14 81 15 83 16 84 17 85 18 8 19 9 20 10 21 11 23 12 24
REMARK SMILES IDX 13 25 77 26 14 27 76 28 15 29 16 30 17 31 70 32 18 33 75 34
REMARK SMILES IDX 69 35 71 36 19 37 74 38 68 39 67 40 20 42 54 43 33 44 53 45
REMARK SMILES IDX 34 46 37 47 52 48 72 49 35 50 36 51 51 53 73 54 38 55 21 56
REMARK SMILES IDX 22 57 31 58 23 59 24 60 30 61 32 62 25 63 26 64 27 65 28 66
REMARK SMILES IDX 29 67 55 68 56 69 65 70 57 71 58 72 64 73 66 74 59 75 60 76
REMARK SMILES IDX 61 77 62 78 63 79 39 80 40 81 49 82 41 83 42 84 48 85 50 86
REMARK SMILES IDX 43 87 44 88 45 89 46 90 47 91
REMARK H PARENT 5 6 9 22 71 41 37 52
REMARK Flexibility Score: inf
ROOT
ATOM      1  C   UNL A   1      40.405  21.970  27.519  1.00  0.00     0.042 C 
ENDROOT
BRANCH   1   2
ATOM      2  C   UNL A   1      39.486  22.019  26.296  1.00  0.00     0.117 C 
BRANCH   2   3
ATOM      3  N   UNL A   1      38.305  22.827  26.541  1.00  0.00    -0.356 N 
ATOM      4  C   UNL A   1      37.187  23.030  25.786  1.00  0.00     0.227 C 
ATOM      5  O   UNL A   1      36.494  23.994  26.116  1.00  0.00    -0.274 OA
ATOM      6  H   UNL A   1      38.313  23.311  27.397  1.00  0.00     0.163 HD
BRANCH   4   7
ATOM      7  C   UNL A   1      36.866  22.107  24.586  1.00  0.00     0.111 C 
ATOM      8  C   UNL A   1      36.773  22.993  23.335  1.00  0.00     0.023 C 
BRANCH   7   9
ATOM      9  C   UNL A   1      35.608  21.245  24.723  1.00  0.00     0.030 A 
ATOM     10  C   UNL A   1      34.329  21.662  24.793  1.00  0.00     0.012 A 
ATOM     11  C   UNL A   1      35.834  19.748  24.772  1.00  0.00     0.258 A 
ATOM     12  C   UNL A   1      33.214  20.751  24.772  1.00  0.00     0.019 A 
ATOM     13  N   UNL A   1      34.716  18.944  24.626  1.00  0.00    -0.258 N 
ATOM     14  O   UNL A   1      36.968  19.296  24.922  1.00  0.00    -0.269 OA
ATOM     15  C   UNL A   1      33.431  19.441  24.647  1.00  0.00     0.095 A 
BRANCH  13  16
ATOM     16  C   UNL A   1      34.922  17.523  24.505  1.00  0.00     0.451 C 
ATOM     17  F   UNL A   1      34.054  16.867  25.322  1.00  0.00    -0.185 F 
ATOM     18  F   UNL A   1      34.617  17.126  23.239  1.00  0.00    -0.185 F 
ENDBRANCH  13  16
ENDBRANCH   7   9
ENDBRANCH   4   7
ENDBRANCH   2   3
ENDBRANCH   1   2
BRANCH   1  19
ATOM     19  C   UNL A   1      41.590  22.933  27.476  1.00  0.00     0.118 C 
BRANCH  19  20
ATOM     20  N   UNL A   1      41.607  23.759  26.280  1.00  0.00    -0.352 N 
ATOM     21  C   UNL A   1      41.375  25.104  26.139  1.00  0.00     0.251 C 
ATOM     22  H   UNL A   1      41.814  23.280  25.446  1.00  0.00     0.163 HD
ATOM     23  O   UNL A   1      41.267  25.576  25.007  1.00  0.00    -0.269 OA
BRANCH  21  24
ATOM     24  C   UNL A   1      41.234  25.985  27.322  1.00  0.00     0.039 A 
ATOM     25  C   UNL A   1      42.227  26.938  27.570  1.00  0.00     0.014 A 
ATOM     26  C   UNL A   1      40.157  25.859  28.204  1.00  0.00     0.014 A 
ATOM     27  C   UNL A   1      42.110  27.799  28.665  1.00  0.00     0.010 A 
ATOM     28  C   UNL A   1      40.008  26.763  29.257  1.00  0.00     0.010 A 
ATOM     29  C   UNL A   1      40.984  27.741  29.501  1.00  0.00    -0.014 A 
BRANCH  29  30
ATOM     30  C   UNL A   1      40.816  28.693  30.632  1.00  0.00     0.031 A 
ATOM     31  C   UNL A   1      41.664  28.566  31.870  1.00  0.00     0.074 A 
ATOM     32  C   UNL A   1      39.861  29.643  30.567  1.00  0.00     0.049 A 
ATOM     33  N   UNL A   1      41.621  29.264  32.976  1.00  0.00    -0.248 NA
ATOM     34  C   UNL A   1      42.675  27.497  31.875  1.00  0.00     0.031 C 
ATOM     35  C   UNL A   1      38.944  29.844  29.442  1.00  0.00     0.029 A 
ATOM     36  N   UNL A   1      39.495  30.612  31.468  1.00  0.00    -0.354 N 
ATOM     37  C   UNL A   1      42.588  28.713  33.812  1.00  0.00     0.074 A 
ATOM     38  C   UNL A   1      43.166  27.592  33.102  1.00  0.00     0.031 C 
ATOM     39  C   UNL A   1      38.136  30.882  29.713  1.00  0.00     0.029 A 
ATOM     40  C   UNL A   1      38.451  31.399  31.041  1.00  0.00     0.049 A 
ATOM     41  H   UNL A   1      39.939  30.732  32.338  1.00  0.00     0.167 HD
ATOM     42  C   UNL A   1      42.972  29.117  35.046  1.00  0.00     0.037 A 
ATOM     43  C   UNL A   1      37.813  32.418  31.651  1.00  0.00     0.037 A 
ATOM     44  C   UNL A   1      42.411  30.251  35.738  1.00  0.00     0.049 A 
ATOM     45  C   UNL A   1      38.261  32.850  33.021  1.00  0.00     0.074 A 
ATOM     46  C   UNL A   1      42.774  30.773  36.967  1.00  0.00     0.029 A 
ATOM     47  N   UNL A   1      41.371  31.034  35.263  1.00  0.00    -0.354 N 
ATOM     48  N   UNL A   1      39.216  32.355  33.771  1.00  0.00    -0.248 NA
ATOM     49  C   UNL A   1      37.549  33.984  33.626  1.00  0.00     0.031 C 
ATOM     50  C   UNL A   1      41.925  31.848  37.254  1.00  0.00     0.029 A 
ATOM     51  C   UNL A   1      41.065  32.025  36.182  1.00  0.00     0.049 A 
ATOM     52  H   UNL A   1      40.915  30.905  34.399  1.00  0.00     0.167 HD
ATOM     53  C   UNL A   1      39.238  33.133  34.923  1.00  0.00     0.074 A 
ATOM     54  C   UNL A   1      38.208  34.139  34.766  1.00  0.00     0.031 C 
ATOM     55  C   UNL A   1      40.040  33.026  36.011  1.00  0.00     0.037 A 
BRANCH  42  56
ATOM     56  C   UNL A   1      44.058  28.331  35.730  1.00  0.00     0.058 A 
ATOM     57  C   UNL A   1      43.763  27.269  36.600  1.00  0.00     0.135 A 
ATOM     58  C   UNL A   1      45.411  28.618  35.486  1.00  0.00     0.135 A 
ATOM     59  F   UNL A   1      42.487  26.959  36.881  1.00  0.00    -0.206 F 
ATOM     60  C   UNL A   1      44.768  26.540  37.228  1.00  0.00     0.059 A 
ATOM     61  C   UNL A   1      46.434  27.884  36.081  1.00  0.00     0.059 A 
ATOM     62  F   UNL A   1      45.752  29.621  34.660  1.00  0.00    -0.206 F 
ATOM     63  C   UNL A   1      46.101  26.857  36.964  1.00  0.00     0.060 A 
BRANCH  63  64
ATOM     64  S   UNL A   1      47.394  25.903  37.787  1.00  0.00     0.124 S 
ATOM     65  O   UNL A   1      48.227  26.963  38.345  1.00  0.00    -0.237 OA
ATOM     66  O   UNL A   1      46.634  25.119  38.756  1.00  0.00    -0.237 OA
ATOM     67  O   UNL A   1      47.997  25.137  36.701  1.00  0.00    -0.744 OA
ENDBRANCH  63  64
ENDBRANCH  42  56
BRANCH  43  68
ATOM     68  C   UNL A   1      36.697  33.115  30.959  1.00  0.00     0.058 A 
ATOM     69  C   UNL A   1      35.365  32.907  31.350  1.00  0.00     0.135 A 
ATOM     70  C   UNL A   1      36.937  34.011  29.907  1.00  0.00     0.135 A 
ATOM     71  F   UNL A   1      35.084  32.055  32.347  1.00  0.00    -0.206 F 
ATOM     72  C   UNL A   1      34.310  33.551  30.712  1.00  0.00     0.059 A 
ATOM     73  C   UNL A   1      35.900  34.687  29.270  1.00  0.00     0.059 A 
ATOM     74  F   UNL A   1      38.195  34.258  29.507  1.00  0.00    -0.206 F 
ATOM     75  C   UNL A   1      34.589  34.441  29.673  1.00  0.00     0.060 A 
BRANCH  75  76
ATOM     76  S   UNL A   1      33.215  35.311  28.886  1.00  0.00     0.124 S 
ATOM     77  O   UNL A   1      33.917  36.348  28.136  1.00  0.00    -0.237 OA
ATOM     78  O   UNL A   1      32.598  34.255  28.090  1.00  0.00    -0.237 OA
ATOM     79  O   UNL A   1      32.421  35.778  30.018  1.00  0.00    -0.744 OA
ENDBRANCH  75  76
ENDBRANCH  43  68
BRANCH  55  80
ATOM     80  C   UNL A   1      39.863  34.041  37.105  1.00  0.00     0.058 A 
ATOM     81  C   UNL A   1      40.477  35.301  37.051  1.00  0.00     0.135 A 
ATOM     82  C   UNL A   1      39.030  33.763  38.202  1.00  0.00     0.135 A 
ATOM     83  F   UNL A   1      41.287  35.614  36.028  1.00  0.00    -0.206 F 
ATOM     84  C   UNL A   1      40.291  36.244  38.057  1.00  0.00     0.059 A 
ATOM     85  C   UNL A   1      38.809  34.700  39.206  1.00  0.00     0.059 A 
ATOM     86  F   UNL A   1      38.411  32.576  38.298  1.00  0.00    -0.206 F 
ATOM     87  C   UNL A   1      39.454  35.934  39.131  1.00  0.00     0.060 A 
BRANCH  87  88
ATOM     88  S   UNL A   1      39.197  37.177  40.416  1.00  0.00     0.124 S 
ATOM     89  O   UNL A   1      40.559  37.644  40.650  1.00  0.00    -0.237 OA
ATOM     90  O   UNL A   1      38.304  38.126  39.758  1.00  0.00    -0.237 OA
ATOM     91  O   UNL A   1      38.597  36.416  41.508  1.00  0.00    -0.744 OA
ENDBRANCH  87  88
ENDBRANCH  55  80
ENDBRANCH  29  30
ENDBRANCH  21  24
ENDBRANCH  19  20
ENDBRANCH   1  19
TORSDOF 15
ENDMDL
MODEL 2
REMARK VINA RESULT:     -11.3      5.220     10.663
REMARK SMILES C[C@@H](C(=O)NCCCNC(=O)c1ccc(-c2c3nc(c(-c4c(F)cc(S(=O)(=O)[O-])cc4F)c4ccc([nH]4)c(-c4c(F)cc(S(=O)(=O)[O-])cc4F)c4nc(c(-c5c(F)cc(S(=O)(=O)[O-])cc5F)c5ccc2[nH]5)C=C4)C=C3)cc1)c1cccn(C(F)F)c1=O
REMARK SMILES IDX 7 1 6 2 5 3 3 4 4 5 2 7 1 8 78 9 79 10 86 11 80 12 82 13
REMARK SMILES IDX 87 14 81 15 83 16 84 17 85 18 8 19 9 20 10 21 11 23 12 24
REMARK SMILES IDX 13 25 77 26 14 27 76 28 15 29 16 30 17 31 70 32 18 33 75 34
REMARK SMILES IDX 69 35 71 36 19 37 74 38 68 39 67 40 20 42 54 43 33 44 53 45
REMARK SMILES IDX 34 46 37 47 52 48 72 49 35 50 36 51 51 53 73 54 38 55 21 56
REMARK SMILES IDX 22 57 31 58 23 59 24 60 30 61 32 62 25 63 26 64 27 65 28 66
REMARK SMILES IDX 29 67 55 68 56 69 65 70 57 71 58 72 64 73 66 74 59 75 60 76
REMARK SMILES IDX 61 77 62 78 63 79 39 80 40 81 49 82 41 83 42 84 48 85 50 86
REMARK SMILES IDX 43 87 44 88 45 89 46 90 47 91
REMARK H PARENT 5 6 9 22 71 41 37 52
REMARK Flexibility Score: inf
ROOT
ATOM      1  C   UNL A   1      33.670  28.130  25.386  1.00  0.00     0.042 C 
ENDROOT
BRANCH   1   2
ATOM      2  C   UNL A   1      32.288  27.825  24.803  1.00  0.00     0.117 C 
BRANCH   2   3
ATOM      3  N   UNL A   1      31.464  27.076  25.733  1.00  0.00    -0.356 N 
ATOM      4  C   UNL A   1      31.106  25.759  25.752  1.00  0.00     0.227 C 
ATOM      5  O   UNL A   1      30.162  25.478  26.493  1.00  0.00    -0.274 OA
ATOM      6  H   UNL A   1      31.101  27.608  26.477  1.00  0.00     0.163 HD
BRANCH   4   7
ATOM      7  C   UNL A   1      31.841  24.728  24.864  1.00  0.00     0.111 C 
ATOM      8  C   UNL A   1      30.836  23.622  24.513  1.00  0.00     0.023 C 
BRANCH   7   9
ATOM      9  C   UNL A   1      33.115  24.121  25.457  1.00  0.00     0.030 A 
ATOM     10  C   UNL A   1      33.255  23.504  26.647  1.00  0.00     0.012 A 
ATOM     11  C   UNL A   1      34.358  24.218  24.596  1.00  0.00     0.258 A 
ATOM     12  C   UNL A   1      34.473  22.841  27.037  1.00  0.00     0.019 A 
ATOM     13  N   UNL A   1      35.445  23.453  24.983  1.00  0.00    -0.258 N 
ATOM     14  O   UNL A   1      34.368  24.939  23.600  1.00  0.00    -0.269 OA
ATOM     15  C   UNL A   1      35.503  22.795  26.192  1.00  0.00     0.095 A 
BRANCH  13  16
ATOM     16  C   UNL A   1      36.578  23.400  24.095  1.00  0.00     0.451 C 
ATOM     17  F   UNL A   1      37.607  22.754  24.709  1.00  0.00    -0.185 F 
ATOM     18  F   UNL A   1      36.265  22.650  23.003  1.00  0.00    -0.185 F 
ENDBRANCH  13  16
ENDBRANCH   7   9
ENDBRANCH   4   7
ENDBRANCH   2   3
ENDBRANCH   1   2
BRANCH   1  19
ATOM     19  C   UNL A   1      33.715  28.269  26.906  1.00  0.00     0.118 C 
BRANCH  19  20
ATOM     20  N   UNL A   1      33.557  29.643  27.354  1.00  0.00    -0.352 N 
ATOM     21  C   UNL A   1      34.423  30.443  28.056  1.00  0.00     0.251 C 
ATOM     22  H   UNL A   1      32.697  30.062  27.119  1.00  0.00     0.163 HD
ATOM     23  O   UNL A   1      34.022  31.525  28.487  1.00  0.00    -0.269 OA
BRANCH  21  24
ATOM     24  C   UNL A   1      35.817  30.016  28.317  1.00  0.00     0.039 A 
ATOM     25  C   UNL A   1      36.746  30.088  27.274  1.00  0.00     0.014 A 
ATOM     26  C   UNL A   1      36.209  29.517  29.562  1.00  0.00     0.014 A 
ATOM     27  C   UNL A   1      38.075  29.714  27.495  1.00  0.00     0.010 A 
ATOM     28  C   UNL A   1      37.550  29.209  29.800  1.00  0.00     0.010 A 
ATOM     29  C   UNL A   1      38.497  29.300  28.769  1.00  0.00    -0.014 A 
BRANCH  29  30
ATOM     30  C   UNL A   1      39.921  28.962  29.035  1.00  0.00     0.031 A 
ATOM     31  C   UNL A   1      40.855  29.991  29.613  1.00  0.00     0.074 A 
ATOM     32  C   UNL A   1      40.388  27.740  28.705  1.00  0.00     0.049 A 
ATOM     33  N   UNL A   1      42.137  29.898  29.859  1.00  0.00    -0.248 NA
ATOM     34  C   UNL A   1      40.278  31.305  29.935  1.00  0.00     0.031 C 
ATOM     35  C   UNL A   1      39.597  26.668  28.097  1.00  0.00     0.029 A 
ATOM     36  N   UNL A   1      41.643  27.196  28.825  1.00  0.00    -0.354 N 
ATOM     37  C   UNL A   1      42.522  31.141  30.350  1.00  0.00     0.074 A 
ATOM     38  C   UNL A   1      41.347  31.986  30.321  1.00  0.00     0.031 C 
ATOM     39  C   UNL A   1      40.378  25.592  27.916  1.00  0.00     0.029 A 
ATOM     40  C   UNL A   1      41.733  25.905  28.360  1.00  0.00     0.049 A 
ATOM     41  H   UNL A   1      42.406  27.685  29.208  1.00  0.00     0.167 HD
ATOM     42  C   UNL A   1      43.737  31.536  30.803  1.00  0.00     0.037 A 
ATOM     43  C   UNL A   1      42.787  25.068  28.292  1.00  0.00     0.037 A 
ATOM     44  C   UNL A   1      44.898  30.683  30.854  1.00  0.00     0.049 A 
ATOM     45  C   UNL A   1      44.125  25.529  28.804  1.00  0.00     0.074 A 
ATOM     46  C   UNL A   1      46.157  30.974  31.349  1.00  0.00     0.029 A 
ATOM     47  N   UNL A   1      44.942  29.376  30.393  1.00  0.00    -0.354 N 
ATOM     48  N   UNL A   1      44.456  26.688  29.320  1.00  0.00    -0.248 NA
ATOM     49  C   UNL A   1      45.232  24.565  28.732  1.00  0.00     0.031 C 
ATOM     50  C   UNL A   1      46.974  29.856  31.150  1.00  0.00     0.029 A 
ATOM     51  C   UNL A   1      46.212  28.852  30.575  1.00  0.00     0.049 A 
ATOM     52  H   UNL A   1      44.183  28.891  29.995  1.00  0.00     0.167 HD
ATOM     53  C   UNL A   1      45.801  26.584  29.659  1.00  0.00     0.074 A 
ATOM     54  C   UNL A   1      46.219  25.245  29.299  1.00  0.00     0.031 C 
ATOM     55  C   UNL A   1      46.614  27.513  30.219  1.00  0.00     0.037 A 
BRANCH  42  56
ATOM     56  C   UNL A   1      43.873  32.954  31.287  1.00  0.00     0.058 A 
ATOM     57  C   UNL A   1      44.202  34.003  30.413  1.00  0.00     0.135 A 
ATOM     58  C   UNL A   1      43.637  33.276  32.633  1.00  0.00     0.135 A 
ATOM     59  F   UNL A   1      44.451  33.751  29.118  1.00  0.00    -0.206 F 
ATOM     60  C   UNL A   1      44.322  35.314  30.861  1.00  0.00     0.059 A 
ATOM     61  C   UNL A   1      43.724  34.586  33.099  1.00  0.00     0.059 A 
ATOM     62  F   UNL A   1      43.316  32.314  33.513  1.00  0.00    -0.206 F 
ATOM     63  C   UNL A   1      44.084  35.595  32.207  1.00  0.00     0.060 A 
BRANCH  63  64
ATOM     64  S   UNL A   1      44.246  37.303  32.773  1.00  0.00     0.124 S 
ATOM     65  O   UNL A   1      43.103  37.420  33.672  1.00  0.00    -0.237 OA
ATOM     66  O   UNL A   1      45.558  37.295  33.415  1.00  0.00    -0.237 OA
ATOM     67  O   UNL A   1      44.160  38.080  31.541  1.00  0.00    -0.744 OA
ENDBRANCH  63  64
ENDBRANCH  42  56
BRANCH  43  68
ATOM     68  C   UNL A   1      42.614  23.700  27.737  1.00  0.00     0.058 A 
ATOM     69  C   UNL A   1      42.651  23.473  26.353  1.00  0.00     0.135 A 
ATOM     70  C   UNL A   1      42.425  22.591  28.576  1.00  0.00     0.135 A 
ATOM     71  F   UNL A   1      42.823  24.503  25.509  1.00  0.00    -0.206 F 
ATOM     72  C   UNL A   1      42.489  22.199  25.818  1.00  0.00     0.059 A 
ATOM     73  C   UNL A   1      42.287  21.303  28.067  1.00  0.00     0.059 A 
ATOM     74  F   UNL A   1      42.400  22.752  29.908  1.00  0.00    -0.206 F 
ATOM     75  C   UNL A   1      42.310  21.120  26.685  1.00  0.00     0.060 A 
BRANCH  75  76
ATOM     76  S   UNL A   1      42.153  19.462  25.983  1.00  0.00     0.124 S 
ATOM     77  O   UNL A   1      42.968  19.576  24.779  1.00  0.00    -0.237 OA
ATOM     78  O   UNL A   1      42.699  18.625  27.047  1.00  0.00    -0.237 OA
ATOM     79  O   UNL A   1      40.716  19.326  25.764  1.00  0.00    -0.744 OA
ENDBRANCH  75  76
ENDBRANCH  43  68
BRANCH  55  80
ATOM     80  C   UNL A   1      48.032  27.107  30.511  1.00  0.00     0.058 A 
ATOM     81  C   UNL A   1      49.070  27.338  29.596  1.00  0.00     0.135 A 
ATOM     82  C   UNL A   1      48.361  26.519  31.743  1.00  0.00     0.135 A 
ATOM     83  F   UNL A   1      48.808  27.890  28.402  1.00  0.00    -0.206 F 
ATOM     84  C   UNL A   1      50.383  26.978  29.882  1.00  0.00     0.059 A 
ATOM     85  C   UNL A   1      49.672  26.175  32.061  1.00  0.00     0.059 A 
ATOM     86  F   UNL A   1      47.407  26.285  32.658  1.00  0.00    -0.206 F 
ATOM     87  C   UNL A   1      50.675  26.397  31.118  1.00  0.00     0.060 A 
BRANCH  87  88
ATOM     88  S   UNL A   1      52.387  25.963  31.490  1.00  0.00     0.124 S 
ATOM     89  O   UNL A   1      53.012  26.079  30.177  1.00  0.00    -0.237 OA
ATOM     90  O   UNL A   1      52.764  26.982  32.465  1.00  0.00    -0.237 OA
ATOM     91  O   UNL A   1      52.285  24.606  32.019  1.00  0.00    -0.744 OA
ENDBRANCH  87  88
ENDBRANCH  55  80
ENDBRANCH  29  30
ENDBRANCH  21  24
ENDBRANCH  19  20
ENDBRANCH   1  19
TORSDOF 15
ENDMDL
MODEL 3
REMARK VINA RESULT:     -11.0      0.660      8.443
REMARK SMILES C[C@@H](C(=O)NCCCNC(=O)c1ccc(-c2c3nc(c(-c4c(F)cc(S(=O)(=O)[O-])cc4F)c4ccc([nH]4)c(-c4c(F)cc(S(=O)(=O)[O-])cc4F)c4nc(c(-c5c(F)cc(S(=O)(=O)[O-])cc5F)c5ccc2[nH]5)C=C4)C=C3)cc1)c1cccn(C(F)F)c1=O
REMARK SMILES IDX 7 1 6 2 5 3 3 4 4 5 2 7 1 8 78 9 79 10 86 11 80 12 82 13
REMARK SMILES IDX 87 14 81 15 83 16 84 17 85 18 8 19 9 20 10 21 11 23 12 24
REMARK SMILES IDX 13 25 77 26 14 27 76 28 15 29 16 30 17 31 70 32 18 33 75 34
REMARK SMILES IDX 69 35 71 36 19 37 74 38 68 39 67 40 20 42 54 43 33 44 53 45
REMARK SMILES IDX 34 46 37 47 52 48 72 49 35 50 36 51 51 53 73 54 38 55 21 56
REMARK SMILES IDX 22 57 31 58 23 59 24 60 30 61 32 62 25 63 26 64 27 65 28 66
REMARK SMILES IDX 29 67 55 68 56 69 65 70 57 71 58 72 64 73 66 74 59 75 60 76
REMARK SMILES IDX 61 77 62 78 63 79 39 80 40 81 49 82 41 83 42 84 48 85 50 86
REMARK SMILES IDX 43 87 44 88 45 89 46 90 47 91
REMARK H PARENT 5 6 9 22 71 41 37 52
REMARK Flexibility Score: inf
ROOT
ATOM      1  C   UNL A   1      39.606  22.266  26.818  1.00  0.00     0.042 C 
ENDROOT
BRANCH   1   2
ATOM      2  C   UNL A   1      38.562  22.800  25.835  1.00  0.00     0.117 C 
BRANCH   2   3
ATOM      3  N   UNL A   1      37.270  22.986  26.469  1.00  0.00    -0.356 N 
ATOM      4  C   UNL A   1      36.004  22.842  25.980  1.00  0.00     0.227 C 
ATOM      5  O   UNL A   1      35.113  23.353  26.660  1.00  0.00    -0.274 OA
ATOM      6  H   UNL A   1      37.314  23.263  27.412  1.00  0.00     0.163 HD
BRANCH   4   7
ATOM      7  C   UNL A   1      35.753  22.106  24.642  1.00  0.00     0.111 C 
ATOM      8  C   UNL A   1      35.437  23.172  23.583  1.00  0.00     0.023 C 
BRANCH   7   9
ATOM      9  C   UNL A   1      34.659  21.035  24.662  1.00  0.00     0.030 A 
ATOM     10  C   UNL A   1      33.326  21.221  24.615  1.00  0.00     0.012 A 
ATOM     11  C   UNL A   1      35.140  19.600  24.729  1.00  0.00     0.258 A 
ATOM     12  C   UNL A   1      32.395  20.129  24.492  1.00  0.00     0.019 A 
ATOM     13  N   UNL A   1      34.199  18.616  24.480  1.00  0.00    -0.258 N 
ATOM     14  O   UNL A   1      36.317  19.351  24.981  1.00  0.00    -0.269 OA
ATOM     15  C   UNL A   1      32.849  18.880  24.385  1.00  0.00     0.095 A 
BRANCH  13  16
ATOM     16  C   UNL A   1      34.661  17.255  24.376  1.00  0.00     0.451 C 
ATOM     17  F   UNL A   1      34.071  16.499  25.340  1.00  0.00    -0.185 F 
ATOM     18  F   UNL A   1      34.256  16.728  23.188  1.00  0.00    -0.185 F 
ENDBRANCH  13  16
ENDBRANCH   7   9
ENDBRANCH   4   7
ENDBRANCH   2   3
ENDBRANCH   1   2
BRANCH   1  19
ATOM     19  C   UNL A   1      40.638  23.290  27.286  1.00  0.00     0.118 C 
BRANCH  19  20
ATOM     20  N   UNL A   1      41.221  24.048  26.192  1.00  0.00    -0.352 N 
ATOM     21  C   UNL A   1      41.432  25.399  26.074  1.00  0.00     0.251 C 
ATOM     22  H   UNL A   1      41.505  23.511  25.417  1.00  0.00     0.163 HD
ATOM     23  O   UNL A   1      41.781  25.857  24.985  1.00  0.00    -0.269 OA
BRANCH  21  24
ATOM     24  C   UNL A   1      41.226  26.308  27.225  1.00  0.00     0.039 A 
ATOM     25  C   UNL A   1      40.174  26.043  28.108  1.00  0.00     0.014 A 
ATOM     26  C   UNL A   1      42.031  27.433  27.423  1.00  0.00     0.014 A 
ATOM     27  C   UNL A   1      39.968  26.870  29.217  1.00  0.00     0.010 A 
ATOM     28  C   UNL A   1      41.867  28.217  28.566  1.00  0.00     0.010 A 
ATOM     29  C   UNL A   1      40.831  27.947  29.474  1.00  0.00    -0.014 A 
BRANCH  29  30
ATOM     30  C   UNL A   1      40.663  28.796  30.684  1.00  0.00     0.031 A 
ATOM     31  C   UNL A   1      39.610  29.871  30.721  1.00  0.00     0.074 A 
ATOM     32  C   UNL A   1      41.495  28.634  31.732  1.00  0.00     0.049 A 
ATOM     33  N   UNL A   1      39.353  30.744  31.661  1.00  0.00    -0.248 NA
ATOM     34  C   UNL A   1      38.748  29.998  29.535  1.00  0.00     0.031 C 
ATOM     35  C   UNL A   1      42.585  27.658  31.804  1.00  0.00     0.029 A 
ATOM     36  N   UNL A   1      41.563  29.292  32.936  1.00  0.00    -0.354 N 
ATOM     37  C   UNL A   1      38.313  31.531  31.178  1.00  0.00     0.074 A 
ATOM     38  C   UNL A   1      38.019  31.062  29.841  1.00  0.00     0.031 C 
ATOM     39  C   UNL A   1      43.198  27.768  32.994  1.00  0.00     0.029 A 
ATOM     40  C   UNL A   1      42.571  28.844  33.756  1.00  0.00     0.049 A 
ATOM     41  H   UNL A   1      40.945  30.017  33.187  1.00  0.00     0.167 HD
ATOM     42  C   UNL A   1      37.649  32.536  31.799  1.00  0.00     0.037 A 
ATOM     43  C   UNL A   1      42.954  29.255  34.981  1.00  0.00     0.037 A 
ATOM     44  C   UNL A   1      37.928  32.982  33.140  1.00  0.00     0.049 A 
ATOM     45  C   UNL A   1      42.200  30.372  35.651  1.00  0.00     0.074 A 
ATOM     46  C   UNL A   1      37.273  33.954  33.876  1.00  0.00     0.029 A 
ATOM     47  N   UNL A   1      38.943  32.489  33.945  1.00  0.00    -0.354 N 
ATOM     48  N   UNL A   1      41.180  31.063  35.201  1.00  0.00    -0.248 NA
ATOM     49  C   UNL A   1      42.643  30.759  36.997  1.00  0.00     0.031 C 
ATOM     50  C   UNL A   1      37.919  34.077  35.112  1.00  0.00     0.029 A 
ATOM     51  C   UNL A   1      38.946  33.148  35.164  1.00  0.00     0.049 A 
ATOM     52  H   UNL A   1      39.571  31.774  33.688  1.00  0.00     0.167 HD
ATOM     53  C   UNL A   1      40.842  31.948  36.220  1.00  0.00     0.074 A 
ATOM     54  C   UNL A   1      41.759  31.697  37.312  1.00  0.00     0.031 C 
ATOM     55  C   UNL A   1      39.861  32.883  36.247  1.00  0.00     0.037 A 
BRANCH  42  56
ATOM     56  C   UNL A   1      36.549  33.222  31.034  1.00  0.00     0.058 A 
ATOM     57  C   UNL A   1      35.196  33.014  31.344  1.00  0.00     0.135 A 
ATOM     58  C   UNL A   1      36.851  34.125  30.002  1.00  0.00     0.135 A 
ATOM     59  F   UNL A   1      34.848  32.151  32.312  1.00  0.00    -0.206 F 
ATOM     60  C   UNL A   1      34.180  33.652  30.638  1.00  0.00     0.059 A 
ATOM     61  C   UNL A   1      35.853  34.796  29.301  1.00  0.00     0.059 A 
ATOM     62  F   UNL A   1      38.129  34.364  29.664  1.00  0.00    -0.206 F 
ATOM     63  C   UNL A   1      34.519  34.539  29.617  1.00  0.00     0.060 A 
BRANCH  63  64
ATOM     64  S   UNL A   1      33.190  35.359  28.709  1.00  0.00     0.124 S 
ATOM     65  O   UNL A   1      33.940  36.279  27.862  1.00  0.00    -0.237 OA
ATOM     66  O   UNL A   1      32.549  34.243  28.020  1.00  0.00    -0.237 OA
ATOM     67  O   UNL A   1      32.393  35.981  29.762  1.00  0.00    -0.744 OA
ENDBRANCH  63  64
ENDBRANCH  42  56
BRANCH  43  68
ATOM     68  C   UNL A   1      44.096  28.591  35.664  1.00  0.00     0.058 A 
ATOM     69  C   UNL A   1      43.886  27.510  36.532  1.00  0.00     0.135 A 
ATOM     70  C   UNL A   1      45.418  29.012  35.451  1.00  0.00     0.135 A 
ATOM     71  F   UNL A   1      42.640  27.074  36.772  1.00  0.00    -0.206 F 
ATOM     72  C   UNL A   1      44.944  26.879  37.180  1.00  0.00     0.059 A 
ATOM     73  C   UNL A   1      46.495  28.381  36.067  1.00  0.00     0.059 A 
ATOM     74  F   UNL A   1      45.673  30.031  34.615  1.00  0.00    -0.206 F 
ATOM     75  C   UNL A   1      46.246  27.321  36.938  1.00  0.00     0.060 A 
BRANCH  75  76
ATOM     76  S   UNL A   1      47.616  26.463  37.743  1.00  0.00     0.124 S 
ATOM     77  O   UNL A   1      48.650  26.535  36.716  1.00  0.00    -0.237 OA
ATOM     78  O   UNL A   1      47.837  27.282  38.930  1.00  0.00    -0.237 OA
ATOM     79  O   UNL A   1      47.073  25.132  38.001  1.00  0.00    -0.744 OA
ENDBRANCH  75  76
ENDBRANCH  43  68
BRANCH  55  80
ATOM     80  C   UNL A   1      39.701  33.683  37.510  1.00  0.00     0.058 A 
ATOM     81  C   UNL A   1      40.423  34.865  37.733  1.00  0.00     0.135 A 
ATOM     82  C   UNL A   1      38.779  33.283  38.491  1.00  0.00     0.135 A 
ATOM     83  F   UNL A   1      41.322  35.287  36.830  1.00  0.00    -0.206 F 
ATOM     84  C   UNL A   1      40.255  35.611  38.895  1.00  0.00     0.059 A 
ATOM     85  C   UNL A   1      38.575  34.027  39.649  1.00  0.00     0.059 A 
ATOM     86  F   UNL A   1      38.055  32.165  38.323  1.00  0.00    -0.206 F 
ATOM     87  C   UNL A   1      39.327  35.184  39.848  1.00  0.00     0.060 A 
BRANCH  87  88
ATOM     88  S   UNL A   1      39.095  36.177  41.337  1.00  0.00     0.124 S 
ATOM     89  O   UNL A   1      38.887  37.507  40.775  1.00  0.00    -0.237 OA
ATOM     90  O   UNL A   1      37.924  35.556  41.948  1.00  0.00    -0.237 OA
ATOM     91  O   UNL A   1      40.347  35.992  42.066  1.00  0.00    -0.744 OA
ENDBRANCH  87  88
ENDBRANCH  55  80
ENDBRANCH  29  30
ENDBRANCH  21  24
ENDBRANCH  19  20
ENDBRANCH   1  19
TORSDOF 15
ENDMDL
