MODEL 1
REMARK VINA RESULT:     -11.6      0.000      0.000
REMARK SMILES O=C(CN(Cc1ccccc1Cl)S(=O)(=O)c1ccc(Cl)cc1)NCCCNC(=O)c1ccc(-c2c3nc(c(-c4c(F)cc(S(=O)(=O)[O-])cc4F)c4ccc([nH]4)c(-c4c(F)cc(S(=O)(=O)[O-])cc4F)c4nc(c(-c5c(F)cc(S(=O)(=O)[O-])cc5F)c5ccc2[nH]5)C=C4)C=C3)cc1
REMARK SMILES IDX 25 1 24 2 23 3 1 4 2 5 3 7 4 8 5 9 6 10 7 11 11 12 8 13
REMARK SMILES IDX 10 14 12 15 9 16 13 17 14 18 15 19 16 20 17 21 22 22 18 23
REMARK SMILES IDX 21 24 19 25 20 26 26 27 27 28 28 29 29 31 30 32 31 33 95 34
REMARK SMILES IDX 32 35 94 36 33 37 34 38 35 39 88 40 36 41 93 42 87 43 89 44
REMARK SMILES IDX 37 45 92 46 86 47 85 48 38 50 72 51 51 52 71 53 52 54 55 55
REMARK SMILES IDX 70 56 90 57 53 58 54 59 69 61 91 62 56 63 39 64 40 65 49 66
REMARK SMILES IDX 41 67 42 68 48 69 50 70 43 71 44 72 45 73 46 74 47 75 73 76
REMARK SMILES IDX 74 77 83 78 75 79 76 80 82 81 84 82 77 83 78 84 79 85 80 86
REMARK SMILES IDX 81 87 57 88 58 89 67 90 59 91 60 92 66 93 68 94 61 95 62 96
REMARK SMILES IDX 63 97 64 98 65 99
REMARK H PARENT 23 6 27 30 89 49 55 60
REMARK Flexibility Score: inf
ROOT
ATOM      1  C   UNL A   1      32.228  27.649  26.995  1.00  0.00     0.042 C 
ENDROOT
BRANCH   1   2
ATOM      2  C   UNL A   1      31.441  27.913  25.717  1.00  0.00     0.117 C 
BRANCH   2   3
ATOM      3  N   UNL A   1      31.441  26.778  24.817  1.00  0.00    -0.355 N 
ATOM      4  O   UNL A   1      30.100  27.740  23.214  1.00  0.00    -0.274 OA
ATOM      5  C   UNL A   1      30.809  26.813  23.594  1.00  0.00     0.235 C 
ATOM      6  H   UNL A   1      31.909  25.955  25.089  1.00  0.00     0.163 HD
BRANCH   5   7
ATOM      7  C   UNL A   1      30.986  25.558  22.766  1.00  0.00     0.202 C 
BRANCH   7   8
ATOM      8  N   UNL A   1      31.996  24.532  23.180  1.00  0.00    -0.184 NA
BRANCH   8   9
ATOM      9  C   UNL A   1      31.324  23.286  23.651  1.00  0.00     0.140 C 
BRANCH   9  10
ATOM     10  C   UNL A   1      32.098  22.172  24.341  1.00  0.00    -0.014 A 
ATOM     11  C   UNL A   1      32.499  20.990  23.700  1.00  0.00     0.006 A 
ATOM     12  C   UNL A   1      32.462  22.310  25.699  1.00  0.00     0.045 A 
ATOM     13  C   UNL A   1      33.242  20.005  24.358  1.00  0.00     0.000 A 
ATOM     14  C   UNL A   1      33.190  21.315  26.366  1.00  0.00     0.021 A 
ATOM     15  Cl  UNL A   1      32.033  23.711  26.619  1.00  0.00    -0.084 Cl
ATOM     16  C   UNL A   1      33.588  20.164  25.693  1.00  0.00     0.002 A 
ENDBRANCH   9  10
ENDBRANCH   8   9
BRANCH   8  17
ATOM     17  S   UNL A   1      33.463  24.469  22.322  1.00  0.00     0.243 S 
ATOM     18  O   UNL A   1      33.396  23.438  21.310  1.00  0.00    -0.207 OA
ATOM     19  O   UNL A   1      33.812  25.824  21.957  1.00  0.00    -0.207 OA
BRANCH  17  20
ATOM     20  C   UNL A   1      34.722  23.947  23.479  1.00  0.00     0.082 A 
ATOM     21  C   UNL A   1      35.649  22.966  23.107  1.00  0.00     0.023 A 
ATOM     22  C   UNL A   1      34.896  24.660  24.674  1.00  0.00     0.023 A 
ATOM     23  C   UNL A   1      36.710  22.654  23.961  1.00  0.00     0.022 A 
ATOM     24  C   UNL A   1      35.980  24.367  25.507  1.00  0.00     0.022 A 
ATOM     25  C   UNL A   1      36.876  23.362  25.152  1.00  0.00     0.041 A 
ATOM     26  Cl  UNL A   1      38.218  23.013  26.170  1.00  0.00    -0.084 Cl
ENDBRANCH  17  20
ENDBRANCH   8  17
ENDBRANCH   7   8
ENDBRANCH   5   7
ENDBRANCH   2   3
ENDBRANCH   1   2
BRANCH   1  27
ATOM     27  C   UNL A   1      33.576  28.361  27.073  1.00  0.00     0.118 C 
BRANCH  27  28
ATOM     28  N   UNL A   1      33.471  29.754  27.485  1.00  0.00    -0.352 N 
ATOM     29  C   UNL A   1      34.383  30.567  28.113  1.00  0.00     0.251 C 
ATOM     30  H   UNL A   1      32.608  30.181  27.281  1.00  0.00     0.163 HD
ATOM     31  O   UNL A   1      34.035  31.687  28.479  1.00  0.00    -0.269 OA
BRANCH  29  32
ATOM     32  C   UNL A   1      35.764  30.102  28.378  1.00  0.00     0.039 A 
ATOM     33  C   UNL A   1      36.685  30.114  27.326  1.00  0.00     0.014 A 
ATOM     34  C   UNL A   1      36.151  29.632  29.636  1.00  0.00     0.014 A 
ATOM     35  C   UNL A   1      38.009  29.725  27.553  1.00  0.00     0.010 A 
ATOM     36  C   UNL A   1      37.485  29.301  29.875  1.00  0.00     0.010 A 
ATOM     37  C   UNL A   1      38.428  29.349  28.839  1.00  0.00    -0.014 A 
BRANCH  37  38
ATOM     38  C   UNL A   1      39.851  29.023  29.120  1.00  0.00     0.031 A 
ATOM     39  C   UNL A   1      40.770  30.063  29.700  1.00  0.00     0.074 A 
ATOM     40  C   UNL A   1      40.333  27.810  28.788  1.00  0.00     0.049 A 
ATOM     41  N   UNL A   1      42.057  29.992  29.926  1.00  0.00    -0.248 NA
ATOM     42  C   UNL A   1      40.168  31.359  30.047  1.00  0.00     0.031 C 
ATOM     43  C   UNL A   1      39.557  26.728  28.177  1.00  0.00     0.029 A 
ATOM     44  N   UNL A   1      41.596  27.285  28.903  1.00  0.00    -0.354 N 
ATOM     45  C   UNL A   1      42.424  31.238  30.422  1.00  0.00     0.074 A 
ATOM     46  C   UNL A   1      41.230  32.056  30.431  1.00  0.00     0.031 C 
ATOM     47  C   UNL A   1      40.356  25.666  27.984  1.00  0.00     0.029 A 
ATOM     48  C   UNL A   1      41.706  26.000  28.426  1.00  0.00     0.049 A 
ATOM     49  H   UNL A   1      42.352  27.783  29.289  1.00  0.00     0.167 HD
ATOM     50  C   UNL A   1      43.641  31.656  30.846  1.00  0.00     0.037 A 
ATOM     51  C   UNL A   1      42.775  25.185  28.346  1.00  0.00     0.037 A 
ATOM     52  C   UNL A   1      44.821  30.832  30.870  1.00  0.00     0.049 A 
ATOM     53  C   UNL A   1      44.110  25.663  28.846  1.00  0.00     0.074 A 
ATOM     54  C   UNL A   1      46.085  31.151  31.336  1.00  0.00     0.029 A 
ATOM     55  N   UNL A   1      44.882  29.524  30.414  1.00  0.00    -0.354 N 
ATOM     56  N   UNL A   1      44.427  26.830  29.354  1.00  0.00    -0.248 NA
ATOM     57  C   UNL A   1      45.229  24.714  28.768  1.00  0.00     0.031 C 
ATOM     58  C   UNL A   1      46.917  30.044  31.139  1.00  0.00     0.029 A 
ATOM     59  C   UNL A   1      46.163  29.024  30.579  1.00  0.00     0.049 A 
ATOM     60  H   UNL A   1      44.126  29.024  30.031  1.00  0.00     0.167 HD
ATOM     61  C   UNL A   1      45.777  26.748  29.675  1.00  0.00     0.074 A 
ATOM     62  C   UNL A   1      46.215  25.415  29.313  1.00  0.00     0.031 C 
ATOM     63  C   UNL A   1      46.582  27.693  30.220  1.00  0.00     0.037 A 
BRANCH  50  64
ATOM     64  C   UNL A   1      43.754  33.076  31.325  1.00  0.00     0.058 A 
ATOM     65  C   UNL A   1      43.586  33.410  32.678  1.00  0.00     0.135 A 
ATOM     66  C   UNL A   1      44.058  34.112  30.426  1.00  0.00     0.135 A 
ATOM     67  F   UNL A   1      43.279  32.459  33.574  1.00  0.00    -0.206 F 
ATOM     68  C   UNL A   1      43.683  34.726  33.119  1.00  0.00     0.059 A 
ATOM     69  C   UNL A   1      44.183  35.432  30.850  1.00  0.00     0.059 A 
ATOM     70  F   UNL A   1      44.229  33.846  29.122  1.00  0.00    -0.206 F 
ATOM     71  C   UNL A   1      43.976  35.731  32.196  1.00  0.00     0.060 A 
BRANCH  71  72
ATOM     72  S   UNL A   1      44.091  37.435  32.778  1.00  0.00     0.124 S 
ATOM     73  O   UNL A   1      43.906  38.178  31.535  1.00  0.00    -0.237 OA
ATOM     74  O   UNL A   1      42.991  37.519  33.735  1.00  0.00    -0.237 OA
ATOM     75  O   UNL A   1      45.428  37.505  33.359  1.00  0.00    -0.744 OA
ENDBRANCH  71  72
ENDBRANCH  50  64
BRANCH  51  76
ATOM     76  C   UNL A   1      42.620  23.817  27.789  1.00  0.00     0.058 A 
ATOM     77  C   UNL A   1      42.642  23.599  26.404  1.00  0.00     0.135 A 
ATOM     78  C   UNL A   1      42.464  22.702  28.627  1.00  0.00     0.135 A 
ATOM     79  F   UNL A   1      42.782  24.637  25.565  1.00  0.00    -0.206 F 
ATOM     80  C   UNL A   1      42.504  22.324  25.865  1.00  0.00     0.059 A 
ATOM     81  C   UNL A   1      42.344  21.415  28.112  1.00  0.00     0.059 A 
ATOM     82  F   UNL A   1      42.452  22.859  29.959  1.00  0.00    -0.206 F 
ATOM     83  C   UNL A   1      42.357  21.238  26.728  1.00  0.00     0.060 A 
BRANCH  83  84
ATOM     84  S   UNL A   1      42.236  19.579  26.024  1.00  0.00     0.124 S 
ATOM     85  O   UNL A   1      43.151  19.674  24.894  1.00  0.00    -0.237 OA
ATOM     86  O   UNL A   1      42.675  18.738  27.134  1.00  0.00    -0.237 OA
ATOM     87  O   UNL A   1      40.820  19.464  25.684  1.00  0.00    -0.744 OA
ENDBRANCH  83  84
ENDBRANCH  51  76
BRANCH  63  88
ATOM     88  C   UNL A   1      48.009  27.311  30.486  1.00  0.00     0.058 A 
ATOM     89  C   UNL A   1      48.380  26.632  31.656  1.00  0.00     0.135 A 
ATOM     90  C   UNL A   1      49.009  27.589  29.541  1.00  0.00     0.135 A 
ATOM     91  F   UNL A   1      47.462  26.349  32.593  1.00  0.00    -0.206 F 
ATOM     92  C   UNL A   1      49.699  26.256  31.888  1.00  0.00     0.059 A 
ATOM     93  C   UNL A   1      50.330  27.206  29.744  1.00  0.00     0.059 A 
ATOM     94  F   UNL A   1      48.702  28.231  28.402  1.00  0.00    -0.206 F 
ATOM     95  C   UNL A   1      50.668  26.548  30.927  1.00  0.00     0.060 A 
BRANCH  95  96
ATOM     96  S   UNL A   1      52.371  26.027  31.219  1.00  0.00     0.124 S 
ATOM     97  O   UNL A   1      52.849  27.073  32.116  1.00  0.00    -0.237 OA
ATOM     98  O   UNL A   1      52.200  24.707  31.820  1.00  0.00    -0.237 OA
ATOM     99  O   UNL A   1      52.960  26.027  29.883  1.00  0.00    -0.744 OA
ENDBRANCH  95  96
ENDBRANCH  63  88
ENDBRANCH  37  38
ENDBRANCH  29  32
ENDBRANCH  27  28
ENDBRANCH   1  27
TORSDOF 18
ENDMDL
MODEL 2
REMARK VINA RESULT:     -11.5      4.821     10.375
REMARK SMILES O=C(CN(Cc1ccccc1Cl)S(=O)(=O)c1ccc(Cl)cc1)NCCCNC(=O)c1ccc(-c2c3nc(c(-c4c(F)cc(S(=O)(=O)[O-])cc4F)c4ccc([nH]4)c(-c4c(F)cc(S(=O)(=O)[O-])cc4F)c4nc(c(-c5c(F)cc(S(=O)(=O)[O-])cc5F)c5ccc2[nH]5)C=C4)C=C3)cc1
REMARK SMILES IDX 25 1 24 2 23 3 1 4 2 5 3 7 4 8 5 9 6 10 7 11 11 12 8 13
REMARK SMILES IDX 10 14 12 15 9 16 13 17 14 18 15 19 16 20 17 21 22 22 18 23
REMARK SMILES IDX 21 24 19 25 20 26 26 27 27 28 28 29 29 31 30 32 31 33 95 34
REMARK SMILES IDX 32 35 94 36 33 37 34 38 35 39 88 40 36 41 93 42 87 43 89 44
REMARK SMILES IDX 37 45 92 46 86 47 85 48 38 50 72 51 51 52 71 53 52 54 55 55
REMARK SMILES IDX 70 56 90 57 53 58 54 59 69 61 91 62 56 63 39 64 40 65 49 66
REMARK SMILES IDX 41 67 42 68 48 69 50 70 43 71 44 72 45 73 46 74 47 75 73 76
REMARK SMILES IDX 74 77 83 78 75 79 76 80 82 81 84 82 77 83 78 84 79 85 80 86
REMARK SMILES IDX 81 87 57 88 58 89 67 90 59 91 60 92 66 93 68 94 61 95 62 96
REMARK SMILES IDX 63 97 64 98 65 99
REMARK H PARENT 23 6 27 30 89 49 55 60
REMARK Flexibility Score: inf
ROOT
ATOM      1  C   UNL A   1      37.282  23.074  25.756  1.00  0.00     0.042 C 
ENDROOT
BRANCH   1   2
ATOM      2  C   UNL A   1      36.582  23.509  24.474  1.00  0.00     0.117 C 
BRANCH   2   3
ATOM      3  N   UNL A   1      35.143  23.580  24.622  1.00  0.00    -0.355 N 
ATOM      4  O   UNL A   1      34.657  23.328  22.387  1.00  0.00    -0.274 OA
ATOM      5  C   UNL A   1      34.287  23.420  23.554  1.00  0.00     0.235 C 
ATOM      6  H   UNL A   1      34.764  23.748  25.515  1.00  0.00     0.163 HD
BRANCH   5   7
ATOM      7  C   UNL A   1      32.820  23.453  23.922  1.00  0.00     0.202 C 
BRANCH   7   8
ATOM      8  N   UNL A   1      32.199  24.734  24.386  1.00  0.00    -0.184 NA
BRANCH   8   9
ATOM      9  C   UNL A   1      31.248  25.263  23.367  1.00  0.00     0.140 C 
BRANCH   9  10
ATOM     10  C   UNL A   1      31.026  26.757  23.179  1.00  0.00    -0.014 A 
ATOM     11  C   UNL A   1      32.035  27.650  22.786  1.00  0.00     0.006 A 
ATOM     12  C   UNL A   1      29.742  27.306  23.387  1.00  0.00     0.045 A 
ATOM     13  C   UNL A   1      31.785  29.012  22.587  1.00  0.00     0.000 A 
ATOM     14  C   UNL A   1      29.493  28.674  23.207  1.00  0.00     0.021 A 
ATOM     15  Cl  UNL A   1      28.401  26.328  23.877  1.00  0.00    -0.084 Cl
ATOM     16  C   UNL A   1      30.513  29.527  22.799  1.00  0.00     0.002 A 
ENDBRANCH   9  10
ENDBRANCH   8   9
BRANCH   8  17
ATOM     17  S   UNL A   1      31.893  24.912  26.049  1.00  0.00     0.243 S 
ATOM     18  O   UNL A   1      30.470  24.842  26.297  1.00  0.00    -0.207 OA
ATOM     19  O   UNL A   1      32.798  24.033  26.755  1.00  0.00    -0.207 OA
BRANCH  17  20
ATOM     20  C   UNL A   1      32.392  26.570  26.498  1.00  0.00     0.082 A 
ATOM     21  C   UNL A   1      33.656  27.044  26.126  1.00  0.00     0.023 A 
ATOM     22  C   UNL A   1      31.446  27.448  27.044  1.00  0.00     0.023 A 
ATOM     23  C   UNL A   1      33.994  28.379  26.361  1.00  0.00     0.022 A 
ATOM     24  C   UNL A   1      31.778  28.791  27.245  1.00  0.00     0.022 A 
ATOM     25  C   UNL A   1      33.051  29.249  26.911  1.00  0.00     0.041 A 
ATOM     26  Cl  UNL A   1      33.453  30.905  27.144  1.00  0.00    -0.084 Cl
ENDBRANCH  17  20
ENDBRANCH   8  17
ENDBRANCH   7   8
ENDBRANCH   5   7
ENDBRANCH   2   3
ENDBRANCH   1   2
BRANCH   1  27
ATOM     27  C   UNL A   1      38.176  24.138  26.389  1.00  0.00     0.118 C 
BRANCH  27  28
ATOM     28  N   UNL A   1      39.593  23.933  26.126  1.00  0.00    -0.352 N 
ATOM     29  C   UNL A   1      40.691  24.626  26.576  1.00  0.00     0.251 C 
ATOM     30  H   UNL A   1      39.798  23.176  25.531  1.00  0.00     0.163 HD
ATOM     31  O   UNL A   1      41.800  24.350  26.126  1.00  0.00    -0.269 OA
BRANCH  29  32
ATOM     32  C   UNL A   1      40.549  25.716  27.569  1.00  0.00     0.039 A 
ATOM     33  C   UNL A   1      39.579  25.586  28.568  1.00  0.00     0.014 A 
ATOM     34  C   UNL A   1      41.339  26.867  27.512  1.00  0.00     0.014 A 
ATOM     35  C   UNL A   1      39.451  26.573  29.549  1.00  0.00     0.010 A 
ATOM     36  C   UNL A   1      41.250  27.823  28.525  1.00  0.00     0.010 A 
ATOM     37  C   UNL A   1      40.310  27.684  29.556  1.00  0.00    -0.014 A 
BRANCH  37  38
ATOM     38  C   UNL A   1      40.252  28.696  30.643  1.00  0.00     0.031 A 
ATOM     39  C   UNL A   1      41.135  28.566  31.853  1.00  0.00     0.074 A 
ATOM     40  C   UNL A   1      39.352  29.697  30.572  1.00  0.00     0.049 A 
ATOM     41  N   UNL A   1      41.159  29.295  32.939  1.00  0.00    -0.248 NA
ATOM     42  C   UNL A   1      42.099  27.454  31.853  1.00  0.00     0.031 C 
ATOM     43  C   UNL A   1      38.406  29.909  29.473  1.00  0.00     0.029 A 
ATOM     44  N   UNL A   1      39.074  30.715  31.448  1.00  0.00    -0.354 N 
ATOM     45  C   UNL A   1      42.123  28.722  33.760  1.00  0.00     0.074 A 
ATOM     46  C   UNL A   1      42.636  27.563  33.061  1.00  0.00     0.031 C 
ATOM     47  C   UNL A   1      37.664  30.997  29.735  1.00  0.00     0.029 A 
ATOM     48  C   UNL A   1      38.055  31.540  31.032  1.00  0.00     0.049 A 
ATOM     49  H   UNL A   1      39.557  30.843  32.296  1.00  0.00     0.167 HD
ATOM     50  C   UNL A   1      42.553  29.133  34.978  1.00  0.00     0.037 A 
ATOM     51  C   UNL A   1      37.495  32.609  31.629  1.00  0.00     0.037 A 
ATOM     52  C   UNL A   1      42.067  30.304  35.658  1.00  0.00     0.049 A 
ATOM     53  C   UNL A   1      38.005  33.061  32.969  1.00  0.00     0.074 A 
ATOM     54  C   UNL A   1      42.483  30.832  36.869  1.00  0.00     0.029 A 
ATOM     55  N   UNL A   1      41.062  31.135  35.185  1.00  0.00    -0.354 N 
ATOM     56  N   UNL A   1      38.950  32.532  33.710  1.00  0.00    -0.248 NA
ATOM     57  C   UNL A   1      37.380  34.256  33.552  1.00  0.00     0.031 C 
ATOM     58  C   UNL A   1      41.712  31.968  37.140  1.00  0.00     0.029 A 
ATOM     59  C   UNL A   1      40.837  32.166  36.083  1.00  0.00     0.049 A 
ATOM     60  H   UNL A   1      40.580  31.011  34.337  1.00  0.00     0.167 HD
ATOM     61  C   UNL A   1      39.045  33.341  34.836  1.00  0.00     0.074 A 
ATOM     62  C   UNL A   1      38.070  34.400  34.676  1.00  0.00     0.031 C 
ATOM     63  C   UNL A   1      39.867  33.217  35.907  1.00  0.00     0.037 A 
BRANCH  50  64
ATOM     64  C   UNL A   1      43.609  28.304  35.653  1.00  0.00     0.058 A 
ATOM     65  C   UNL A   1      44.974  28.508  35.399  1.00  0.00     0.135 A 
ATOM     66  C   UNL A   1      43.255  27.311  36.581  1.00  0.00     0.135 A 
ATOM     67  F   UNL A   1      45.364  29.434  34.509  1.00  0.00    -0.206 F 
ATOM     68  C   UNL A   1      45.952  27.736  36.018  1.00  0.00     0.059 A 
ATOM     69  C   UNL A   1      44.217  26.542  37.229  1.00  0.00     0.059 A 
ATOM     70  F   UNL A   1      41.963  27.077  36.860  1.00  0.00    -0.206 F 
ATOM     71  C   UNL A   1      45.562  26.751  36.928  1.00  0.00     0.060 A 
BRANCH  71  72
ATOM     72  S   UNL A   1      46.838  25.748  37.718  1.00  0.00     0.124 S 
ATOM     73  O   UNL A   1      47.742  25.497  36.600  1.00  0.00    -0.237 OA
ATOM     74  O   UNL A   1      47.347  26.642  38.755  1.00  0.00    -0.237 OA
ATOM     75  O   UNL A   1      46.102  24.586  38.205  1.00  0.00    -0.744 OA
ENDBRANCH  71  72
ENDBRANCH  50  64
BRANCH  51  76
ATOM     76  C   UNL A   1      36.397  33.343  30.949  1.00  0.00     0.058 A 
ATOM     77  C   UNL A   1      36.663  34.176  29.853  1.00  0.00     0.135 A 
ATOM     78  C   UNL A   1      35.064  33.212  31.367  1.00  0.00     0.135 A 
ATOM     79  F   UNL A   1      37.923  34.336  29.423  1.00  0.00    -0.206 F 
ATOM     80  C   UNL A   1      35.646  34.865  29.200  1.00  0.00     0.059 A 
ATOM     81  C   UNL A   1      34.028  33.876  30.718  1.00  0.00     0.059 A 
ATOM     82  F   UNL A   1      34.759  32.415  32.402  1.00  0.00    -0.206 F 
ATOM     83  C   UNL A   1      34.331  34.708  29.639  1.00  0.00     0.060 A 
BRANCH  83  84
ATOM     84  S   UNL A   1      33.010  35.561  28.751  1.00  0.00     0.124 S 
ATOM     85  O   UNL A   1      32.446  34.477  27.956  1.00  0.00    -0.237 OA
ATOM     86  O   UNL A   1      32.174  36.057  29.840  1.00  0.00    -0.237 OA
ATOM     87  O   UNL A   1      33.724  36.590  28.001  1.00  0.00    -0.744 OA
ENDBRANCH  83  84
ENDBRANCH  51  76
BRANCH  63  88
ATOM     88  C   UNL A   1      39.769  34.267  36.975  1.00  0.00     0.058 A 
ATOM     89  C   UNL A   1      38.965  34.084  38.110  1.00  0.00     0.135 A 
ATOM     90  C   UNL A   1      40.521  35.448  36.883  1.00  0.00     0.135 A 
ATOM     91  F   UNL A   1      38.222  32.974  38.241  1.00  0.00    -0.206 F 
ATOM     92  C   UNL A   1      38.897  35.047  39.112  1.00  0.00     0.059 A 
ATOM     93  C   UNL A   1      40.483  36.416  37.881  1.00  0.00     0.059 A 
ATOM     94  F   UNL A   1      41.311  35.665  35.820  1.00  0.00    -0.206 F 
ATOM     95  C   UNL A   1      39.658  36.211  38.988  1.00  0.00     0.060 A 
BRANCH  95  96
ATOM     96  S   UNL A   1      39.591  37.441  40.308  1.00  0.00     0.124 S 
ATOM     97  O   UNL A   1      40.991  37.835  40.414  1.00  0.00    -0.237 OA
ATOM     98  O   UNL A   1      38.689  38.447  39.757  1.00  0.00    -0.237 OA
ATOM     99  O   UNL A   1      39.061  36.690  41.443  1.00  0.00    -0.744 OA
ENDBRANCH  95  96
ENDBRANCH  63  88
ENDBRANCH  37  38
ENDBRANCH  29  32
ENDBRANCH  27  28
ENDBRANCH   1  27
TORSDOF 18
ENDMDL
MODEL 3
REMARK VINA RESULT:     -11.2      3.024      9.164
REMARK SMILES O=C(CN(Cc1ccccc1Cl)S(=O)(=O)c1ccc(Cl)cc1)NCCCNC(=O)c1ccc(-c2c3nc(c(-c4c(F)cc(S(=O)(=O)[O-])cc4F)c4ccc([nH]4)c(-c4c(F)cc(S(=O)(=O)[O-])cc4F)c4nc(c(-c5c(F)cc(S(=O)(=O)[O-])cc5F)c5ccc2[nH]5)C=C4)C=C3)cc1
REMARK SMILES IDX 25 1 24 2 23 3 1 4 2 5 3 7 4 8 5 9 6 10 7 11 11 12 8 13
REMARK SMILES IDX 10 14 12 15 9 16 13 17 14 18 15 19 16 20 17 21 22 22 18 23
REMARK SMILES IDX 21 24 19 25 20 26 26 27 27 28 28 29 29 31 30 32 31 33 95 34
REMARK SMILES IDX 32 35 94 36 33 37 34 38 35 39 88 40 36 41 93 42 87 43 89 44
REMARK SMILES IDX 37 45 92 46 86 47 85 48 38 50 72 51 51 52 71 53 52 54 55 55
REMARK SMILES IDX 70 56 90 57 53 58 54 59 69 61 91 62 56 63 39 64 40 65 49 66
REMARK SMILES IDX 41 67 42 68 48 69 50 70 43 71 44 72 45 73 46 74 47 75 73 76
REMARK SMILES IDX 74 77 83 78 75 79 76 80 82 81 84 82 77 83 78 84 79 85 80 86
REMARK SMILES IDX 81 87 57 88 58 89 67 90 59 91 60 92 66 93 68 94 61 95 62 96
REMARK SMILES IDX 63 97 64 98 65 99
REMARK H PARENT 23 6 27 30 89 49 55 60
REMARK Flexibility Score: inf
ROOT
ATOM      1  C   UNL A   1      35.972  23.763  25.892  1.00  0.00     0.042 C 
ENDROOT
BRANCH   1   2
ATOM      2  C   UNL A   1      34.959  22.633  25.758  1.00  0.00     0.117 C 
BRANCH   2   3
ATOM      3  N   UNL A   1      33.630  23.111  25.434  1.00  0.00    -0.355 N 
ATOM      4  O   UNL A   1      32.886  21.145  24.499  1.00  0.00    -0.274 OA
ATOM      5  C   UNL A   1      32.672  22.293  24.878  1.00  0.00     0.235 C 
ATOM      6  H   UNL A   1      33.404  24.051  25.619  1.00  0.00     0.163 HD
BRANCH   5   7
ATOM      7  C   UNL A   1      31.324  22.954  24.684  1.00  0.00     0.202 C 
BRANCH   7   8
ATOM      8  N   UNL A   1      31.203  24.442  24.805  1.00  0.00    -0.184 NA
BRANCH   8   9
ATOM      9  C   UNL A   1      30.567  25.024  23.588  1.00  0.00     0.140 C 
BRANCH   9  10
ATOM     10  C   UNL A   1      30.592  26.520  23.310  1.00  0.00    -0.014 A 
ATOM     11  C   UNL A   1      31.740  27.216  22.899  1.00  0.00     0.006 A 
ATOM     12  C   UNL A   1      29.409  27.278  23.449  1.00  0.00     0.045 A 
ATOM     13  C   UNL A   1      31.715  28.586  22.616  1.00  0.00     0.000 A 
ATOM     14  C   UNL A   1      29.387  28.655  23.185  1.00  0.00     0.021 A 
ATOM     15  Cl  UNL A   1      27.919  26.556  23.952  1.00  0.00    -0.084 Cl
ATOM     16  C   UNL A   1      30.539  29.308  22.761  1.00  0.00     0.002 A 
ENDBRANCH   9  10
ENDBRANCH   8   9
BRANCH   8  17
ATOM     17  S   UNL A   1      30.906  25.092  26.348  1.00  0.00     0.243 S 
ATOM     18  O   UNL A   1      29.509  25.443  26.472  1.00  0.00    -0.207 OA
ATOM     19  O   UNL A   1      31.524  24.214  27.316  1.00  0.00    -0.207 OA
BRANCH  17  20
ATOM     20  C   UNL A   1      31.814  26.629  26.451  1.00  0.00     0.082 A 
ATOM     21  C   UNL A   1      31.216  27.756  27.026  1.00  0.00     0.023 A 
ATOM     22  C   UNL A   1      33.180  26.643  26.136  1.00  0.00     0.023 A 
ATOM     23  C   UNL A   1      31.968  28.917  27.225  1.00  0.00     0.022 A 
ATOM     24  C   UNL A   1      33.936  27.795  26.370  1.00  0.00     0.022 A 
ATOM     25  C   UNL A   1      33.326  28.928  26.905  1.00  0.00     0.041 A 
ATOM     26  Cl  UNL A   1      34.261  30.340  27.207  1.00  0.00    -0.084 Cl
ENDBRANCH  17  20
ENDBRANCH   8  17
ENDBRANCH   7   8
ENDBRANCH   5   7
ENDBRANCH   2   3
ENDBRANCH   1   2
BRANCH   1  27
ATOM     27  C   UNL A   1      37.159  23.674  24.935  1.00  0.00     0.118 C 
BRANCH  27  28
ATOM     28  N   UNL A   1      38.142  22.674  25.327  1.00  0.00    -0.352 N 
ATOM     29  C   UNL A   1      39.271  22.792  26.101  1.00  0.00     0.251 C 
ATOM     30  H   UNL A   1      37.970  21.769  24.982  1.00  0.00     0.163 HD
ATOM     31  O   UNL A   1      40.030  21.832  26.204  1.00  0.00    -0.269 OA
BRANCH  29  32
ATOM     32  C   UNL A   1      39.596  24.065  26.785  1.00  0.00     0.039 A 
ATOM     33  C   UNL A   1      39.017  24.319  28.032  1.00  0.00     0.014 A 
ATOM     34  C   UNL A   1      40.439  25.016  26.202  1.00  0.00     0.014 A 
ATOM     35  C   UNL A   1      39.339  25.490  28.726  1.00  0.00     0.010 A 
ATOM     36  C   UNL A   1      40.805  26.155  26.921  1.00  0.00     0.010 A 
ATOM     37  C   UNL A   1      40.264  26.400  28.192  1.00  0.00    -0.014 A 
BRANCH  37  38
ATOM     38  C   UNL A   1      40.690  27.603  28.954  1.00  0.00     0.031 A 
ATOM     39  C   UNL A   1      42.022  27.629  29.652  1.00  0.00     0.074 A 
ATOM     40  C   UNL A   1      39.846  28.646  29.078  1.00  0.00     0.049 A 
ATOM     41  N   UNL A   1      42.524  28.547  30.438  1.00  0.00    -0.248 NA
ATOM     42  C   UNL A   1      42.893  26.459  29.462  1.00  0.00     0.031 C 
ATOM     43  C   UNL A   1      38.507  28.726  28.488  1.00  0.00     0.029 A 
ATOM     44  N   UNL A   1      39.982  29.833  29.753  1.00  0.00    -0.354 N 
ATOM     45  C   UNL A   1      43.758  28.059  30.852  1.00  0.00     0.074 A 
ATOM     46  C   UNL A   1      43.913  26.749  30.258  1.00  0.00     0.031 C 
ATOM     47  C   UNL A   1      37.952  29.904  28.816  1.00  0.00     0.029 A 
ATOM     48  C   UNL A   1      38.878  30.649  29.663  1.00  0.00     0.049 A 
ATOM     49  H   UNL A   1      40.792  30.077  30.255  1.00  0.00     0.167 HD
ATOM     50  C   UNL A   1      44.684  28.656  31.641  1.00  0.00     0.037 A 
ATOM     51  C   UNL A   1      38.636  31.856  30.207  1.00  0.00     0.037 A 
ATOM     52  C   UNL A   1      44.545  29.974  32.204  1.00  0.00     0.049 A 
ATOM     53  C   UNL A   1      39.688  32.509  31.059  1.00  0.00     0.074 A 
ATOM     54  C   UNL A   1      45.454  30.684  32.969  1.00  0.00     0.029 A 
ATOM     55  N   UNL A   1      43.428  30.783  32.058  1.00  0.00    -0.354 N 
ATOM     56  N   UNL A   1      40.868  32.051  31.403  1.00  0.00    -0.248 NA
ATOM     57  C   UNL A   1      39.380  33.843  31.593  1.00  0.00     0.031 C 
ATOM     58  C   UNL A   1      44.877  31.914  33.306  1.00  0.00     0.029 A 
ATOM     59  C   UNL A   1      43.621  31.982  32.725  1.00  0.00     0.049 A 
ATOM     60  H   UNL A   1      42.618  30.542  31.554  1.00  0.00     0.167 HD
ATOM     61  C   UNL A   1      41.451  33.048  32.176  1.00  0.00     0.074 A 
ATOM     62  C   UNL A   1      40.499  34.138  32.242  1.00  0.00     0.031 C 
ATOM     63  C   UNL A   1      42.666  33.060  32.777  1.00  0.00     0.037 A 
BRANCH  50  64
ATOM     64  C   UNL A   1      45.937  27.883  31.941  1.00  0.00     0.058 A 
ATOM     65  C   UNL A   1      46.011  26.999  33.029  1.00  0.00     0.135 A 
ATOM     66  C   UNL A   1      47.069  28.009  31.120  1.00  0.00     0.135 A 
ATOM     67  F   UNL A   1      44.962  26.854  33.853  1.00  0.00    -0.206 F 
ATOM     68  C   UNL A   1      47.174  26.289  33.311  1.00  0.00     0.059 A 
ATOM     69  C   UNL A   1      48.236  27.291  31.369  1.00  0.00     0.059 A 
ATOM     70  F   UNL A   1      47.050  28.841  30.066  1.00  0.00    -0.206 F 
ATOM     71  C   UNL A   1      48.283  26.447  32.478  1.00  0.00     0.060 A 
BRANCH  71  72
ATOM     72  S   UNL A   1      49.790  25.529  32.858  1.00  0.00     0.124 S 
ATOM     73  O   UNL A   1      49.826  24.566  31.762  1.00  0.00    -0.237 OA
ATOM     74  O   UNL A   1      50.814  26.570  32.821  1.00  0.00    -0.237 OA
ATOM     75  O   UNL A   1      49.521  24.969  34.179  1.00  0.00    -0.744 OA
ENDBRANCH  71  72
ENDBRANCH  50  64
BRANCH  51  76
ATOM     76  C   UNL A   1      37.344  32.540  29.941  1.00  0.00     0.058 A 
ATOM     77  C   UNL A   1      36.203  32.238  30.698  1.00  0.00     0.135 A 
ATOM     78  C   UNL A   1      37.229  33.517  28.941  1.00  0.00     0.135 A 
ATOM     79  F   UNL A   1      36.265  31.305  31.660  1.00  0.00    -0.206 F 
ATOM     80  C   UNL A   1      34.987  32.873  30.466  1.00  0.00     0.059 A 
ATOM     81  C   UNL A   1      36.029  34.180  28.703  1.00  0.00     0.059 A 
ATOM     82  F   UNL A   1      38.298  33.850  28.201  1.00  0.00    -0.206 F 
ATOM     83  C   UNL A   1      34.911  33.844  29.467  1.00  0.00     0.060 A 
BRANCH  83  84
ATOM     84  S   UNL A   1      33.344  34.705  29.210  1.00  0.00     0.124 S 
ATOM     85  O   UNL A   1      33.797  35.976  28.657  1.00  0.00    -0.237 OA
ATOM     86  O   UNL A   1      32.650  33.815  28.284  1.00  0.00    -0.237 OA
ATOM     87  O   UNL A   1      32.774  34.766  30.553  1.00  0.00    -0.744 OA
ENDBRANCH  83  84
ENDBRANCH  51  76
BRANCH  63  88
ATOM     88  C   UNL A   1      43.048  34.299  33.533  1.00  0.00     0.058 A 
ATOM     89  C   UNL A   1      42.853  34.400  34.919  1.00  0.00     0.135 A 
ATOM     90  C   UNL A   1      43.656  35.378  32.873  1.00  0.00     0.135 A 
ATOM     91  F   UNL A   1      42.270  33.398  35.595  1.00  0.00    -0.206 F 
ATOM     92  C   UNL A   1      43.232  35.539  35.622  1.00  0.00     0.059 A 
ATOM     93  C   UNL A   1      44.060  36.518  33.558  1.00  0.00     0.059 A 
ATOM     94  F   UNL A   1      43.870  35.325  31.548  1.00  0.00    -0.206 F 
ATOM     95  C   UNL A   1      43.834  36.594  34.933  1.00  0.00     0.060 A 
BRANCH  95  96
ATOM     96  S   UNL A   1      44.355  38.054  35.858  1.00  0.00     0.124 S 
ATOM     97  O   UNL A   1      43.924  39.131  34.974  1.00  0.00    -0.237 OA
ATOM     98  O   UNL A   1      43.609  37.922  37.105  1.00  0.00    -0.237 OA
ATOM     99  O   UNL A   1      45.800  37.880  35.979  1.00  0.00    -0.744 OA
ENDBRANCH  95  96
ENDBRANCH  63  88
ENDBRANCH  37  38
ENDBRANCH  29  32
ENDBRANCH  27  28
ENDBRANCH   1  27
TORSDOF 18
ENDMDL
