MODEL 1
REMARK VINA RESULT:     -12.3      0.000      0.000
REMARK SMILES O=C(C[C@H]1C[C@H]2CC[C@@H](C1)[N@H+]2[C@@H]1CCCSC1)NCCCNC(=O)c1ccc(-c2c3nc(c(-c4c(F)cc(S(=O)(=O)[O-])cc4F)c4ccc([nH]4)c(-c4c(F)cc(S(=O)(=O)[O-])cc4F)c4nc(c(-c5c(F)cc(S(=O)(=O)[O-])cc5F)c5ccc2[nH]5)C=C4)C=C3)cc1
REMARK SMILES IDX 20 1 19 2 18 3 1 4 2 5 3 7 4 8 5 9 10 10 6 11 9 12 7 13
REMARK SMILES IDX 11 14 8 15 12 17 13 18 17 19 14 20 16 21 15 22 21 23 22 24
REMARK SMILES IDX 23 25 24 27 25 28 26 29 90 30 27 31 89 32 28 33 29 34 30 35
REMARK SMILES IDX 83 36 31 37 88 38 82 39 84 40 32 41 87 42 81 43 80 44 33 46
REMARK SMILES IDX 67 47 46 48 66 49 47 50 50 51 65 52 85 53 48 54 49 55 64 57
REMARK SMILES IDX 86 58 51 59 34 60 35 61 44 62 36 63 37 64 43 65 45 66 38 67
REMARK SMILES IDX 39 68 40 69 41 70 42 71 68 72 69 73 78 74 70 75 71 76 77 77
REMARK SMILES IDX 79 78 72 79 73 80 74 81 75 82 76 83 52 84 53 85 62 86 54 87
REMARK SMILES IDX 55 88 61 89 63 90 56 91 57 92 58 93 59 94 60 95
REMARK H PARENT 18 6 11 16 22 26 84 45 50 56
REMARK Flexibility Score: inf
ROOT
ATOM      1  C   UNL A   1      40.191  22.341  27.342  1.00  0.00     0.042 C 
ENDROOT
BRANCH   1   2
ATOM      2  C   UNL A   1      39.797  21.510  26.123  1.00  0.00     0.117 C 
BRANCH   2   3
ATOM      3  N   UNL A   1      38.446  21.784  25.682  1.00  0.00    -0.356 N 
ATOM      4  O   UNL A   1      38.083  19.716  24.748  1.00  0.00    -0.275 OA
ATOM      5  C   UNL A   1      37.669  20.814  25.081  1.00  0.00     0.220 C 
ATOM      6  H   UNL A   1      38.071  22.685  25.815  1.00  0.00     0.163 HD
BRANCH   5   7
ATOM      7  C   UNL A   1      36.206  21.206  24.966  1.00  0.00     0.104 C 
BRANCH   7   8
ATOM      8  C   UNL A   1      36.019  22.739  25.058  1.00  0.00     0.010 C 
ATOM      9  C   UNL A   1      35.697  23.434  23.711  1.00  0.00     0.069 C 
ATOM     10  C   UNL A   1      35.012  23.108  26.177  1.00  0.00     0.069 C 
ATOM     11  C   UNL A   1      34.214  23.732  23.469  1.00  0.00     0.185 C 
ATOM     12  C   UNL A   1      33.609  23.521  25.690  1.00  0.00     0.185 C 
ATOM     13  C   UNL A   1      33.354  22.464  23.515  1.00  0.00     0.071 C 
ATOM     14  N   UNL A   1      33.631  24.460  24.584  1.00  0.00    -0.327 N 
ATOM     15  C   UNL A   1      32.914  22.347  24.981  1.00  0.00     0.071 C 
ATOM     16  H   UNL A   1      32.665  24.749  24.426  1.00  0.00     0.348 HD
BRANCH  14  17
ATOM     17  C   UNL A   1      33.912  25.888  24.728  1.00  0.00     0.194 C 
ATOM     18  C   UNL A   1      33.440  26.578  26.019  1.00  0.00     0.067 C 
ATOM     19  C   UNL A   1      33.340  26.628  23.497  1.00  0.00     0.134 C 
ATOM     20  C   UNL A   1      33.971  28.007  26.132  1.00  0.00     0.017 C 
ATOM     21  S   UNL A   1      33.859  28.375  23.392  1.00  0.00    -0.156 SA
ATOM     22  C   UNL A   1      33.403  28.922  25.059  1.00  0.00     0.070 C 
ENDBRANCH  14  17
ENDBRANCH   7   8
ENDBRANCH   5   7
ENDBRANCH   2   3
ENDBRANCH   1   2
BRANCH   1  23
ATOM     23  C   UNL A   1      41.547  23.044  27.241  1.00  0.00     0.118 C 
BRANCH  23  24
ATOM     24  N   UNL A   1      41.630  23.981  26.132  1.00  0.00    -0.352 N 
ATOM     25  C   UNL A   1      41.456  25.344  26.096  1.00  0.00     0.251 C 
ATOM     26  H   UNL A   1      41.845  23.570  25.264  1.00  0.00     0.163 HD
ATOM     27  O   UNL A   1      41.426  25.909  25.003  1.00  0.00    -0.269 OA
BRANCH  25  28
ATOM     28  C   UNL A   1      41.278  26.146  27.333  1.00  0.00     0.039 A 
ATOM     29  C   UNL A   1      42.280  27.059  27.681  1.00  0.00     0.014 A 
ATOM     30  C   UNL A   1      40.179  25.979  28.181  1.00  0.00     0.014 A 
ATOM     31  C   UNL A   1      42.145  27.848  28.830  1.00  0.00     0.010 A 
ATOM     32  C   UNL A   1      40.016  26.811  29.295  1.00  0.00     0.010 A 
ATOM     33  C   UNL A   1      40.993  27.761  29.629  1.00  0.00    -0.014 A 
BRANCH  33  34
ATOM     34  C   UNL A   1      40.794  28.695  30.773  1.00  0.00     0.031 A 
ATOM     35  C   UNL A   1      41.632  28.596  32.022  1.00  0.00     0.074 A 
ATOM     36  C   UNL A   1      39.821  29.627  30.702  1.00  0.00     0.049 A 
ATOM     37  N   UNL A   1      41.593  29.340  33.101  1.00  0.00    -0.248 NA
ATOM     38  C   UNL A   1      42.624  27.514  32.077  1.00  0.00     0.031 C 
ATOM     39  C   UNL A   1      38.896  29.796  29.578  1.00  0.00     0.029 A 
ATOM     40  N   UNL A   1      39.447  30.608  31.587  1.00  0.00    -0.354 N 
ATOM     41  C   UNL A   1      42.549  28.813  33.964  1.00  0.00     0.074 A 
ATOM     42  C   UNL A   1      43.117  27.658  33.299  1.00  0.00     0.031 C 
ATOM     43  C   UNL A   1      38.083  30.833  29.829  1.00  0.00     0.029 A 
ATOM     44  C   UNL A   1      38.407  31.389  31.140  1.00  0.00     0.049 A 
ATOM     45  H   UNL A   1      39.880  30.738  32.462  1.00  0.00     0.167 HD
ATOM     46  C   UNL A   1      42.932  29.259  35.186  1.00  0.00     0.037 A 
ATOM     47  C   UNL A   1      37.785  32.439  31.711  1.00  0.00     0.037 A 
ATOM     48  C   UNL A   1      42.381  30.419  35.843  1.00  0.00     0.049 A 
ATOM     49  C   UNL A   1      38.250  32.934  33.052  1.00  0.00     0.074 A 
ATOM     50  C   UNL A   1      42.745  30.977  37.058  1.00  0.00     0.029 A 
ATOM     51  N   UNL A   1      41.349  31.201  35.344  1.00  0.00    -0.354 N 
ATOM     52  N   UNL A   1      39.199  32.461  33.823  1.00  0.00    -0.248 NA
ATOM     53  C   UNL A   1      37.566  34.116  33.595  1.00  0.00     0.031 C 
ATOM     54  C   UNL A   1      41.912  32.074  37.309  1.00  0.00     0.029 A 
ATOM     55  C   UNL A   1      41.057  32.226  36.230  1.00  0.00     0.049 A 
ATOM     56  H   UNL A   1      40.892  31.049  34.485  1.00  0.00     0.167 HD
ATOM     57  C   UNL A   1      39.246  33.303  34.929  1.00  0.00     0.074 A 
ATOM     58  C   UNL A   1      38.238  34.323  34.719  1.00  0.00     0.031 C 
ATOM     59  C   UNL A   1      40.050  33.236  36.018  1.00  0.00     0.037 A 
BRANCH  46  60
ATOM     60  C   UNL A   1      44.013  28.492  35.899  1.00  0.00     0.058 A 
ATOM     61  C   UNL A   1      45.369  28.831  35.761  1.00  0.00     0.135 A 
ATOM     62  C   UNL A   1      43.690  27.435  36.765  1.00  0.00     0.135 A 
ATOM     63  F   UNL A   1      45.736  29.826  34.938  1.00  0.00    -0.206 F 
ATOM     64  C   UNL A   1      46.367  28.131  36.431  1.00  0.00     0.059 A 
ATOM     65  C   UNL A   1      44.671  26.737  37.467  1.00  0.00     0.059 A 
ATOM     66  F   UNL A   1      42.410  27.070  36.940  1.00  0.00    -0.206 F 
ATOM     67  C   UNL A   1      46.009  27.083  37.281  1.00  0.00     0.060 A 
BRANCH  67  68
ATOM     68  S   UNL A   1      47.315  26.186  38.146  1.00  0.00     0.124 S 
ATOM     69  O   UNL A   1      46.580  25.623  39.276  1.00  0.00    -0.237 OA
ATOM     70  O   UNL A   1      47.758  25.228  37.139  1.00  0.00    -0.237 OA
ATOM     71  O   UNL A   1      48.278  27.230  38.481  1.00  0.00    -0.744 OA
ENDBRANCH  67  68
ENDBRANCH  46  60
BRANCH  47  72
ATOM     72  C   UNL A   1      36.676  33.120  30.994  1.00  0.00     0.058 A 
ATOM     73  C   UNL A   1      35.345  32.963  31.410  1.00  0.00     0.135 A 
ATOM     74  C   UNL A   1      36.925  33.950  29.890  1.00  0.00     0.135 A 
ATOM     75  F   UNL A   1      35.059  32.175  32.456  1.00  0.00    -0.206 F 
ATOM     76  C   UNL A   1      34.296  33.593  30.748  1.00  0.00     0.059 A 
ATOM     77  C   UNL A   1      35.895  34.609  29.226  1.00  0.00     0.059 A 
ATOM     78  F   UNL A   1      38.182  34.145  29.465  1.00  0.00    -0.206 F 
ATOM     79  C   UNL A   1      34.582  34.417  29.658  1.00  0.00     0.060 A 
BRANCH  79  80
ATOM     80  S   UNL A   1      33.222  35.275  28.838  1.00  0.00     0.124 S 
ATOM     81  O   UNL A   1      32.450  35.757  29.978  1.00  0.00    -0.237 OA
ATOM     82  O   UNL A   1      33.922  36.294  28.063  1.00  0.00    -0.237 OA
ATOM     83  O   UNL A   1      32.592  34.222  28.047  1.00  0.00    -0.744 OA
ENDBRANCH  79  80
ENDBRANCH  47  72
BRANCH  59  84
ATOM     84  C   UNL A   1      39.893  34.318  37.052  1.00  0.00     0.058 A 
ATOM     85  C   UNL A   1      39.021  34.177  38.143  1.00  0.00     0.135 A 
ATOM     86  C   UNL A   1      40.624  35.513  36.949  1.00  0.00     0.135 A 
ATOM     87  F   UNL A   1      38.296  33.057  38.288  1.00  0.00    -0.206 F 
ATOM     88  C   UNL A   1      38.846  35.199  39.071  1.00  0.00     0.059 A 
ATOM     89  C   UNL A   1      40.485  36.538  37.879  1.00  0.00     0.059 A 
ATOM     90  F   UNL A   1      41.482  35.695  35.932  1.00  0.00    -0.206 F 
ATOM     91  C   UNL A   1      39.576  36.380  38.925  1.00  0.00     0.060 A 
BRANCH  91  92
ATOM     92  S   UNL A   1      39.333  37.708  40.126  1.00  0.00     0.124 S 
ATOM     93  O   UNL A   1      38.167  38.390  39.575  1.00  0.00    -0.237 OA
ATOM     94  O   UNL A   1      39.109  36.974  41.368  1.00  0.00    -0.237 OA
ATOM     95  O   UNL A   1      40.587  38.453  40.064  1.00  0.00    -0.744 OA
ENDBRANCH  91  92
ENDBRANCH  59  84
ENDBRANCH  33  34
ENDBRANCH  25  28
ENDBRANCH  23  24
ENDBRANCH   1  23
TORSDOF 15
ENDMDL
MODEL 2
REMARK VINA RESULT:     -12.0      0.301      1.430
REMARK SMILES O=C(C[C@H]1C[C@H]2CC[C@@H](C1)[N@H+]2[C@@H]1CCCSC1)NCCCNC(=O)c1ccc(-c2c3nc(c(-c4c(F)cc(S(=O)(=O)[O-])cc4F)c4ccc([nH]4)c(-c4c(F)cc(S(=O)(=O)[O-])cc4F)c4nc(c(-c5c(F)cc(S(=O)(=O)[O-])cc5F)c5ccc2[nH]5)C=C4)C=C3)cc1
REMARK SMILES IDX 20 1 19 2 18 3 1 4 2 5 3 7 4 8 5 9 10 10 6 11 9 12 7 13
REMARK SMILES IDX 11 14 8 15 12 17 13 18 17 19 14 20 16 21 15 22 21 23 22 24
REMARK SMILES IDX 23 25 24 27 25 28 26 29 90 30 27 31 89 32 28 33 29 34 30 35
REMARK SMILES IDX 83 36 31 37 88 38 82 39 84 40 32 41 87 42 81 43 80 44 33 46
REMARK SMILES IDX 67 47 46 48 66 49 47 50 50 51 65 52 85 53 48 54 49 55 64 57
REMARK SMILES IDX 86 58 51 59 34 60 35 61 44 62 36 63 37 64 43 65 45 66 38 67
REMARK SMILES IDX 39 68 40 69 41 70 42 71 68 72 69 73 78 74 70 75 71 76 77 77
REMARK SMILES IDX 79 78 72 79 73 80 74 81 75 82 76 83 52 84 53 85 62 86 54 87
REMARK SMILES IDX 55 88 61 89 63 90 56 91 57 92 58 93 59 94 60 95
REMARK H PARENT 18 6 11 16 22 26 84 45 50 56
REMARK Flexibility Score: inf
ROOT
ATOM      1  C   UNL A   1      40.321  22.160  27.380  1.00  0.00     0.042 C 
ENDROOT
BRANCH   1   2
ATOM      2  C   UNL A   1      39.701  21.796  26.033  1.00  0.00     0.117 C 
BRANCH   2   3
ATOM      3  N   UNL A   1      38.291  22.121  25.969  1.00  0.00    -0.356 N 
ATOM      4  O   UNL A   1      37.683  20.276  24.740  1.00  0.00    -0.275 OA
ATOM      5  C   UNL A   1      37.378  21.274  25.372  1.00  0.00     0.220 C 
ATOM      6  H   UNL A   1      37.975  22.967  26.362  1.00  0.00     0.163 HD
BRANCH   5   7
ATOM      7  C   UNL A   1      35.936  21.645  25.668  1.00  0.00     0.104 C 
BRANCH   7   8
ATOM      8  C   UNL A   1      35.717  23.175  25.601  1.00  0.00     0.010 C 
ATOM      9  C   UNL A   1      35.610  23.752  24.166  1.00  0.00     0.069 C 
ATOM     10  C   UNL A   1      34.537  23.608  26.508  1.00  0.00     0.069 C 
ATOM     11  C   UNL A   1      34.183  23.991  23.665  1.00  0.00     0.185 C 
ATOM     12  C   UNL A   1      33.227  23.944  25.769  1.00  0.00     0.185 C 
ATOM     13  C   UNL A   1      33.342  22.710  23.677  1.00  0.00     0.071 C 
ATOM     14  N   UNL A   1      33.417  24.792  24.606  1.00  0.00    -0.327 N 
ATOM     15  C   UNL A   1      32.672  22.700  25.057  1.00  0.00     0.071 C 
ATOM     16  H   UNL A   1      32.486  25.042  24.272  1.00  0.00     0.348 HD
BRANCH  14  17
ATOM     17  C   UNL A   1      33.654  26.233  24.675  1.00  0.00     0.194 C 
ATOM     18  C   UNL A   1      33.624  26.893  26.063  1.00  0.00     0.067 C 
ATOM     19  C   UNL A   1      32.650  26.940  23.735  1.00  0.00     0.134 C 
ATOM     20  C   UNL A   1      34.083  28.350  26.016  1.00  0.00     0.017 C 
ATOM     21  S   UNL A   1      33.005  28.715  23.493  1.00  0.00    -0.156 SA
ATOM     22  C   UNL A   1      33.129  29.232  25.226  1.00  0.00     0.070 C 
ENDBRANCH  14  17
ENDBRANCH   7   8
ENDBRANCH   5   7
ENDBRANCH   2   3
ENDBRANCH   1   2
BRANCH   1  23
ATOM     23  C   UNL A   1      41.611  22.980  27.304  1.00  0.00     0.118 C 
BRANCH  23  24
ATOM     24  N   UNL A   1      41.639  23.906  26.184  1.00  0.00    -0.352 N 
ATOM     25  C   UNL A   1      41.423  25.264  26.137  1.00  0.00     0.251 C 
ATOM     26  H   UNL A   1      41.846  23.493  25.315  1.00  0.00     0.163 HD
ATOM     27  O   UNL A   1      41.350  25.816  25.040  1.00  0.00    -0.269 OA
BRANCH  25  28
ATOM     28  C   UNL A   1      41.250  26.073  27.371  1.00  0.00     0.039 A 
ATOM     29  C   UNL A   1      42.232  27.019  27.686  1.00  0.00     0.014 A 
ATOM     30  C   UNL A   1      40.176  25.883  28.245  1.00  0.00     0.014 A 
ATOM     31  C   UNL A   1      42.101  27.816  28.829  1.00  0.00     0.010 A 
ATOM     32  C   UNL A   1      40.015  26.723  29.355  1.00  0.00     0.010 A 
ATOM     33  C   UNL A   1      40.970  27.705  29.656  1.00  0.00    -0.014 A 
BRANCH  33  34
ATOM     34  C   UNL A   1      40.771  28.645  30.795  1.00  0.00     0.031 A 
ATOM     35  C   UNL A   1      41.603  28.549  32.048  1.00  0.00     0.074 A 
ATOM     36  C   UNL A   1      39.801  29.580  30.715  1.00  0.00     0.049 A 
ATOM     37  N   UNL A   1      41.563  29.298  33.123  1.00  0.00    -0.248 NA
ATOM     38  C   UNL A   1      42.591  27.464  32.111  1.00  0.00     0.031 C 
ATOM     39  C   UNL A   1      38.880  29.746  29.588  1.00  0.00     0.029 A 
ATOM     40  N   UNL A   1      39.426  30.566  31.595  1.00  0.00    -0.354 N 
ATOM     41  C   UNL A   1      42.513  28.772  33.992  1.00  0.00     0.074 A 
ATOM     42  C   UNL A   1      43.081  27.612  33.334  1.00  0.00     0.031 C 
ATOM     43  C   UNL A   1      38.070  30.787  29.830  1.00  0.00     0.029 A 
ATOM     44  C   UNL A   1      38.391  31.349  31.139  1.00  0.00     0.049 A 
ATOM     45  H   UNL A   1      39.857  30.699  32.470  1.00  0.00     0.167 HD
ATOM     46  C   UNL A   1      42.894  29.222  35.213  1.00  0.00     0.037 A 
ATOM     47  C   UNL A   1      37.770  32.404  31.703  1.00  0.00     0.037 A 
ATOM     48  C   UNL A   1      42.344  30.388  35.862  1.00  0.00     0.049 A 
ATOM     49  C   UNL A   1      38.232  32.904  33.044  1.00  0.00     0.074 A 
ATOM     50  C   UNL A   1      42.706  30.951  37.075  1.00  0.00     0.029 A 
ATOM     51  N   UNL A   1      41.317  31.171  35.355  1.00  0.00    -0.354 N 
ATOM     52  N   UNL A   1      39.177  32.431  33.820  1.00  0.00    -0.248 NA
ATOM     53  C   UNL A   1      37.551  34.091  33.578  1.00  0.00     0.031 C 
ATOM     54  C   UNL A   1      41.875  32.051  37.318  1.00  0.00     0.029 A 
ATOM     55  C   UNL A   1      41.024  32.201  36.236  1.00  0.00     0.049 A 
ATOM     56  H   UNL A   1      40.862  31.016  34.495  1.00  0.00     0.167 HD
ATOM     57  C   UNL A   1      39.222  33.278  34.922  1.00  0.00     0.074 A 
ATOM     58  C   UNL A   1      38.219  34.300  34.704  1.00  0.00     0.031 C 
ATOM     59  C   UNL A   1      40.022  33.214  36.015  1.00  0.00     0.037 A 
BRANCH  46  60
ATOM     60  C   UNL A   1      43.970  28.455  35.934  1.00  0.00     0.058 A 
ATOM     61  C   UNL A   1      43.661  27.406  36.814  1.00  0.00     0.135 A 
ATOM     62  C   UNL A   1      45.326  28.742  35.710  1.00  0.00     0.135 A 
ATOM     63  F   UNL A   1      42.381  27.096  37.073  1.00  0.00    -0.206 F 
ATOM     64  C   UNL A   1      44.656  26.688  37.469  1.00  0.00     0.059 A 
ATOM     65  C   UNL A   1      46.340  28.019  36.334  1.00  0.00     0.059 A 
ATOM     66  F   UNL A   1      45.680  29.731  34.874  1.00  0.00    -0.206 F 
ATOM     67  C   UNL A   1      45.994  27.003  37.225  1.00  0.00     0.060 A 
BRANCH  67  68
ATOM     68  S   UNL A   1      47.275  26.061  38.080  1.00  0.00     0.124 S 
ATOM     69  O   UNL A   1      48.385  27.009  38.074  1.00  0.00    -0.237 OA
ATOM     70  O   UNL A   1      46.664  25.810  39.381  1.00  0.00    -0.237 OA
ATOM     71  O   UNL A   1      47.450  24.883  37.236  1.00  0.00    -0.744 OA
ENDBRANCH  67  68
ENDBRANCH  46  60
BRANCH  47  72
ATOM     72  C   UNL A   1      36.666  33.085  30.979  1.00  0.00     0.058 A 
ATOM     73  C   UNL A   1      35.329  32.888  31.354  1.00  0.00     0.135 A 
ATOM     74  C   UNL A   1      36.926  33.955  29.908  1.00  0.00     0.135 A 
ATOM     75  F   UNL A   1      35.032  32.061  32.367  1.00  0.00    -0.206 F 
ATOM     76  C   UNL A   1      34.284  33.518  30.685  1.00  0.00     0.059 A 
ATOM     77  C   UNL A   1      35.901  34.614  29.239  1.00  0.00     0.059 A 
ATOM     78  F   UNL A   1      38.191  34.188  29.523  1.00  0.00    -0.206 F 
ATOM     79  C   UNL A   1      34.581  34.381  29.628  1.00  0.00     0.060 A 
BRANCH  79  80
ATOM     80  S   UNL A   1      33.225  35.238  28.801  1.00  0.00     0.124 S 
ATOM     81  O   UNL A   1      33.942  36.254  28.038  1.00  0.00    -0.237 OA
ATOM     82  O   UNL A   1      32.613  34.167  28.022  1.00  0.00    -0.237 OA
ATOM     83  O   UNL A   1      32.417  35.734  29.912  1.00  0.00    -0.744 OA
ENDBRANCH  79  80
ENDBRANCH  47  72
BRANCH  59  84
ATOM     84  C   UNL A   1      39.865  34.301  37.043  1.00  0.00     0.058 A 
ATOM     85  C   UNL A   1      40.533  35.531  36.925  1.00  0.00     0.135 A 
ATOM     86  C   UNL A   1      39.037  34.111  38.160  1.00  0.00     0.135 A 
ATOM     87  F   UNL A   1      41.340  35.764  35.878  1.00  0.00    -0.206 F 
ATOM     88  C   UNL A   1      40.421  36.516  37.902  1.00  0.00     0.059 A 
ATOM     89  C   UNL A   1      38.889  35.091  39.136  1.00  0.00     0.059 A 
ATOM     90  F   UNL A   1      38.365  32.958  38.316  1.00  0.00    -0.206 F 
ATOM     91  C   UNL A   1      39.603  36.283  39.009  1.00  0.00     0.060 A 
BRANCH  91  92
ATOM     92  S   UNL A   1      39.472  37.560  40.279  1.00  0.00     0.124 S 
ATOM     93  O   UNL A   1      38.576  38.517  39.639  1.00  0.00    -0.237 OA
ATOM     94  O   UNL A   1      38.912  36.827  41.410  1.00  0.00    -0.237 OA
ATOM     95  O   UNL A   1      40.851  38.007  40.452  1.00  0.00    -0.744 OA
ENDBRANCH  91  92
ENDBRANCH  59  84
ENDBRANCH  33  34
ENDBRANCH  25  28
ENDBRANCH  23  24
ENDBRANCH   1  23
TORSDOF 15
ENDMDL
MODEL 3
REMARK VINA RESULT:     -12.0      6.539     12.339
REMARK SMILES O=C(C[C@H]1C[C@H]2CC[C@@H](C1)[N@H+]2[C@@H]1CCCSC1)NCCCNC(=O)c1ccc(-c2c3nc(c(-c4c(F)cc(S(=O)(=O)[O-])cc4F)c4ccc([nH]4)c(-c4c(F)cc(S(=O)(=O)[O-])cc4F)c4nc(c(-c5c(F)cc(S(=O)(=O)[O-])cc5F)c5ccc2[nH]5)C=C4)C=C3)cc1
REMARK SMILES IDX 20 1 19 2 18 3 1 4 2 5 3 7 4 8 5 9 10 10 6 11 9 12 7 13
REMARK SMILES IDX 11 14 8 15 12 17 13 18 17 19 14 20 16 21 15 22 21 23 22 24
REMARK SMILES IDX 23 25 24 27 25 28 26 29 90 30 27 31 89 32 28 33 29 34 30 35
REMARK SMILES IDX 83 36 31 37 88 38 82 39 84 40 32 41 87 42 81 43 80 44 33 46
REMARK SMILES IDX 67 47 46 48 66 49 47 50 50 51 65 52 85 53 48 54 49 55 64 57
REMARK SMILES IDX 86 58 51 59 34 60 35 61 44 62 36 63 37 64 43 65 45 66 38 67
REMARK SMILES IDX 39 68 40 69 41 70 42 71 68 72 69 73 78 74 70 75 71 76 77 77
REMARK SMILES IDX 79 78 72 79 73 80 74 81 75 82 76 83 52 84 53 85 62 86 54 87
REMARK SMILES IDX 55 88 61 89 63 90 56 91 57 92 58 93 59 94 60 95
REMARK H PARENT 18 6 11 16 22 26 84 45 50 56
REMARK Flexibility Score: inf
ROOT
ATOM      1  C   UNL A   1      35.435  32.385  28.023  1.00  0.00     0.042 C 
ENDROOT
BRANCH   1   2
ATOM      2  C   UNL A   1      34.193  31.496  28.017  1.00  0.00     0.117 C 
BRANCH   2   3
ATOM      3  N   UNL A   1      34.101  30.685  26.821  1.00  0.00    -0.356 N 
ATOM      4  O   UNL A   1      31.938  29.995  27.175  1.00  0.00    -0.275 OA
ATOM      5  C   UNL A   1      32.929  30.048  26.465  1.00  0.00     0.220 C 
ATOM      6  H   UNL A   1      34.895  30.586  26.246  1.00  0.00     0.163 HD
BRANCH   5   7
ATOM      7  C   UNL A   1      32.951  29.503  25.048  1.00  0.00     0.104 C 
BRANCH   7   8
ATOM      8  C   UNL A   1      33.848  28.248  24.935  1.00  0.00     0.010 C 
ATOM      9  C   UNL A   1      33.724  27.256  26.119  1.00  0.00     0.069 C 
ATOM     10  C   UNL A   1      33.669  27.560  23.558  1.00  0.00     0.069 C 
ATOM     11  C   UNL A   1      32.806  26.055  25.870  1.00  0.00     0.185 C 
ATOM     12  C   UNL A   1      32.819  26.274  23.569  1.00  0.00     0.185 C 
ATOM     13  C   UNL A   1      31.378  26.482  25.516  1.00  0.00     0.071 C 
ATOM     14  N   UNL A   1      33.162  25.361  24.644  1.00  0.00    -0.327 N 
ATOM     15  C   UNL A   1      31.372  26.585  23.985  1.00  0.00     0.071 C 
ATOM     16  H   UNL A   1      32.626  24.507  24.483  1.00  0.00     0.348 HD
BRANCH  14  17
ATOM     17  C   UNL A   1      34.336  24.488  24.633  1.00  0.00     0.194 C 
ATOM     18  C   UNL A   1      34.713  23.821  23.299  1.00  0.00     0.067 C 
ATOM     19  C   UNL A   1      34.156  23.411  25.727  1.00  0.00     0.134 C 
ATOM     20  C   UNL A   1      36.061  23.106  23.377  1.00  0.00     0.017 C 
ATOM     21  S   UNL A   1      35.661  22.422  26.029  1.00  0.00    -0.156 SA
ATOM     22  C   UNL A   1      36.032  21.919  24.327  1.00  0.00     0.070 C 
ENDBRANCH  14  17
ENDBRANCH   7   8
ENDBRANCH   5   7
ENDBRANCH   2   3
ENDBRANCH   1   2
BRANCH   1  23
ATOM     23  C   UNL A   1      36.048  32.638  29.403  1.00  0.00     0.118 C 
BRANCH  23  24
ATOM     24  N   UNL A   1      35.770  31.581  30.360  1.00  0.00    -0.352 N 
ATOM     25  C   UNL A   1      36.480  30.445  30.673  1.00  0.00     0.251 C 
ATOM     26  H   UNL A   1      34.935  31.696  30.868  1.00  0.00     0.163 HD
ATOM     27  O   UNL A   1      35.966  29.610  31.417  1.00  0.00    -0.269 OA
BRANCH  25  28
ATOM     28  C   UNL A   1      37.833  30.189  30.118  1.00  0.00     0.039 A 
ATOM     29  C   UNL A   1      38.920  30.177  31.000  1.00  0.00     0.014 A 
ATOM     30  C   UNL A   1      38.060  30.014  28.750  1.00  0.00     0.014 A 
ATOM     31  C   UNL A   1      40.212  29.921  30.522  1.00  0.00     0.010 A 
ATOM     32  C   UNL A   1      39.342  29.699  28.282  1.00  0.00     0.010 A 
ATOM     33  C   UNL A   1      40.432  29.640  29.164  1.00  0.00    -0.014 A 
BRANCH  33  34
ATOM     34  C   UNL A   1      41.785  29.239  28.685  1.00  0.00     0.031 A 
ATOM     35  C   UNL A   1      42.913  30.234  28.593  1.00  0.00     0.074 A 
ATOM     36  C   UNL A   1      41.994  27.965  28.292  1.00  0.00     0.049 A 
ATOM     37  N   UNL A   1      44.151  30.043  28.210  1.00  0.00    -0.248 NA
ATOM     38  C   UNL A   1      42.608  31.624  28.960  1.00  0.00     0.031 C 
ATOM     39  C   UNL A   1      40.975  26.912  28.269  1.00  0.00     0.029 A 
ATOM     40  N   UNL A   1      43.127  27.337  27.838  1.00  0.00    -0.354 N 
ATOM     41  C   UNL A   1      44.772  31.285  28.282  1.00  0.00     0.074 A 
ATOM     42  C   UNL A   1      43.759  32.232  28.703  1.00  0.00     0.031 C 
ATOM     43  C   UNL A   1      41.535  25.766  27.854  1.00  0.00     0.029 A 
ATOM     44  C   UNL A   1      42.945  26.003  27.555  1.00  0.00     0.049 A 
ATOM     45  H   UNL A   1      43.990  27.798  27.725  1.00  0.00     0.167 HD
ATOM     46  C   UNL A   1      46.067  31.608  28.040  1.00  0.00     0.037 A 
ATOM     47  C   UNL A   1      43.811  25.071  27.111  1.00  0.00     0.037 A 
ATOM     48  C   UNL A   1      47.082  30.664  27.639  1.00  0.00     0.049 A 
ATOM     49  C   UNL A   1      45.248  25.445  26.882  1.00  0.00     0.074 A 
ATOM     50  C   UNL A   1      48.433  30.890  27.425  1.00  0.00     0.029 A 
ATOM     51  N   UNL A   1      46.864  29.317  27.391  1.00  0.00    -0.354 N 
ATOM     52  N   UNL A   1      45.829  26.613  27.019  1.00  0.00    -0.248 NA
ATOM     53  C   UNL A   1      46.152  24.370  26.451  1.00  0.00     0.031 C 
ATOM     54  C   UNL A   1      49.022  29.689  27.014  1.00  0.00     0.029 A 
ATOM     55  C   UNL A   1      48.049  28.704  27.014  1.00  0.00     0.049 A 
ATOM     56  H   UNL A   1      45.994  28.863  27.471  1.00  0.00     0.167 HD
ATOM     57  C   UNL A   1      47.171  26.407  26.717  1.00  0.00     0.074 A 
ATOM     58  C   UNL A   1      47.317  25.000  26.404  1.00  0.00     0.031 C 
ATOM     59  C   UNL A   1      48.188  27.304  26.700  1.00  0.00     0.037 A 
BRANCH  46  60
ATOM     60  C   UNL A   1      46.470  33.047  28.212  1.00  0.00     0.058 A 
ATOM     61  C   UNL A   1      46.944  33.537  29.440  1.00  0.00     0.135 A 
ATOM     62  C   UNL A   1      46.424  33.939  27.128  1.00  0.00     0.135 A 
ATOM     63  F   UNL A   1      47.000  32.731  30.512  1.00  0.00    -0.206 F 
ATOM     64  C   UNL A   1      47.330  34.864  29.595  1.00  0.00     0.059 A 
ATOM     65  C   UNL A   1      46.830  35.266  27.253  1.00  0.00     0.059 A 
ATOM     66  F   UNL A   1      45.984  33.525  25.930  1.00  0.00    -0.206 F 
ATOM     67  C   UNL A   1      47.267  35.723  28.496  1.00  0.00     0.060 A 
BRANCH  67  68
ATOM     68  S   UNL A   1      47.775  37.442  28.711  1.00  0.00     0.124 S 
ATOM     69  O   UNL A   1      46.786  37.917  29.676  1.00  0.00    -0.237 OA
ATOM     70  O   UNL A   1      49.137  37.306  29.216  1.00  0.00    -0.237 OA
ATOM     71  O   UNL A   1      47.660  38.000  27.368  1.00  0.00    -0.744 OA
ENDBRANCH  67  68
ENDBRANCH  46  60
BRANCH  47  72
ATOM     72  C   UNL A   1      43.345  23.676  26.892  1.00  0.00     0.058 A 
ATOM     73  C   UNL A   1      43.123  23.186  25.596  1.00  0.00     0.135 A 
ATOM     74  C   UNL A   1      43.128  22.804  27.969  1.00  0.00     0.135 A 
ATOM     75  F   UNL A   1      43.312  23.985  24.536  1.00  0.00    -0.206 F 
ATOM     76  C   UNL A   1      42.687  21.884  25.375  1.00  0.00     0.059 A 
ATOM     77  C   UNL A   1      42.714  21.491  27.773  1.00  0.00     0.059 A 
ATOM     78  F   UNL A   1      43.343  23.221  29.227  1.00  0.00    -0.206 F 
ATOM     79  C   UNL A   1      42.487  21.043  26.471  1.00  0.00     0.060 A 
BRANCH  79  80
ATOM     80  S   UNL A   1      41.975  19.337  26.173  1.00  0.00     0.124 S 
ATOM     81  O   UNL A   1      42.347  18.696  27.429  1.00  0.00    -0.237 OA
ATOM     82  O   UNL A   1      40.543  19.483  25.929  1.00  0.00    -0.237 OA
ATOM     83  O   UNL A   1      42.764  18.952  25.007  1.00  0.00    -0.744 OA
ENDBRANCH  79  80
ENDBRANCH  47  72
BRANCH  59  84
ATOM     84  C   UNL A   1      49.557  26.779  26.364  1.00  0.00     0.058 A 
ATOM     85  C   UNL A   1      50.085  26.868  25.065  1.00  0.00     0.135 A 
ATOM     86  C   UNL A   1      50.352  26.177  27.352  1.00  0.00     0.135 A 
ATOM     87  F   UNL A   1      49.365  27.431  24.081  1.00  0.00    -0.206 F 
ATOM     88  C   UNL A   1      51.332  26.340  24.749  1.00  0.00     0.059 A 
ATOM     89  C   UNL A   1      51.614  25.665  27.065  1.00  0.00     0.059 A 
ATOM     90  F   UNL A   1      49.902  26.076  28.614  1.00  0.00    -0.206 F 
ATOM     91  C   UNL A   1      52.086  25.731  25.754  1.00  0.00     0.060 A 
BRANCH  91  92
ATOM     92  S   UNL A   1      53.699  25.037  25.334  1.00  0.00     0.124 S 
ATOM     93  O   UNL A   1      54.532  25.562  26.409  1.00  0.00    -0.237 OA
ATOM     94  O   UNL A   1      53.445  23.599  25.374  1.00  0.00    -0.237 OA
ATOM     95  O   UNL A   1      53.966  25.582  24.006  1.00  0.00    -0.744 OA
ENDBRANCH  91  92
ENDBRANCH  59  84
ENDBRANCH  33  34
ENDBRANCH  25  28
ENDBRANCH  23  24
ENDBRANCH   1  23
TORSDOF 15
ENDMDL
