MODEL 1
REMARK VINA RESULT:     -12.0      0.000      0.000
REMARK SMILES COc1ccc(-c2cc(C(=O)NCCCNC(=O)c3ccc(-c4c5nc(c(-c6c(F)cc(S(=O)(=O)[O-])cc6F)c6ccc([nH]6)c(-c6c(F)cc(S(=O)(=O)[O-])cc6F)c6nc(c(-c7c(F)cc(S(=O)(=O)[O-])cc7F)c7ccc4[nH]7)C=C6)C=C5)cc3)nc(=O)n2C)cc1
REMARK SMILES IDX 14 1 13 2 12 3 10 4 11 5 9 7 7 8 8 9 88 10 86 11 89 12 85 13
REMARK SMILES IDX 87 14 6 15 3 16 4 17 91 18 5 19 90 20 2 21 1 22 15 23 16 24
REMARK SMILES IDX 17 25 18 27 19 28 20 29 84 30 21 31 83 32 22 33 23 34 24 35
REMARK SMILES IDX 77 36 25 37 82 38 76 39 78 40 26 41 81 42 75 43 74 44 27 46
REMARK SMILES IDX 61 47 40 48 60 49 41 50 44 51 59 52 79 53 42 54 43 55 58 57
REMARK SMILES IDX 80 58 45 59 28 60 29 61 38 62 30 63 31 64 37 65 39 66 32 67
REMARK SMILES IDX 33 68 34 69 35 70 36 71 62 72 63 73 72 74 64 75 65 76 71 77
REMARK SMILES IDX 73 78 66 79 67 80 68 81 69 82 70 83 46 84 47 85 56 86 48 87
REMARK SMILES IDX 49 88 55 89 57 90 50 91 51 92 52 93 53 94 54 95
REMARK H PARENT 12 6 16 26 78 45 44 56
REMARK Flexibility Score: inf
ROOT
ATOM      1  C   UNL A   1      37.324  23.697  25.067  1.00  0.00     0.042 C 
ENDROOT
BRANCH   1   2
ATOM      2  C   UNL A   1      36.750  22.293  24.897  1.00  0.00     0.118 C 
BRANCH   2   3
ATOM      3  N   UNL A   1      36.015  21.868  26.078  1.00  0.00    -0.351 N 
ATOM      4  C   UNL A   1      34.769  22.212  26.537  1.00  0.00     0.270 C 
ATOM      5  O   UNL A   1      34.377  21.753  27.607  1.00  0.00    -0.268 OA
ATOM      6  H   UNL A   1      36.495  21.222  26.646  1.00  0.00     0.163 HD
BRANCH   4   7
ATOM      7  C   UNL A   1      33.823  23.114  25.737  1.00  0.00     0.136 A 
ATOM      8  C   UNL A   1      32.943  25.313  25.504  1.00  0.00     0.055 A 
ATOM      9  C   UNL A   1      33.762  24.513  26.193  1.00  0.00     0.061 A 
ATOM     10  N   UNL A   1      32.197  24.813  24.451  1.00  0.00    -0.295 N 
ATOM     11  C   UNL A   1      32.264  23.460  24.088  1.00  0.00     0.348 A 
ATOM     12  C   UNL A   1      31.276  25.635  23.680  1.00  0.00     0.155 C 
ATOM     13  N   UNL A   1      33.144  22.644  24.746  1.00  0.00    -0.188 NA
ATOM     14  O   UNL A   1      31.531  22.999  23.215  1.00  0.00    -0.246 OA
BRANCH   8  15
ATOM     15  C   UNL A   1      32.864  26.720  25.934  1.00  0.00    -0.001 A 
ATOM     16  C   UNL A   1      32.642  29.422  26.681  1.00  0.00     0.118 A 
ATOM     17  C   UNL A   1      31.788  28.465  27.231  1.00  0.00     0.047 A 
ATOM     18  C   UNL A   1      33.623  29.025  25.771  1.00  0.00     0.047 A 
ATOM     19  C   UNL A   1      31.892  27.124  26.858  1.00  0.00     0.014 A 
ATOM     20  C   UNL A   1      33.729  27.681  25.394  1.00  0.00     0.014 A 
BRANCH  16  21
ATOM     21  O   UNL A   1      32.446  30.699  27.128  1.00  0.00    -0.497 OA
ATOM     22  C   UNL A   1      31.424  31.439  26.471  1.00  0.00     0.278 C 
ENDBRANCH  16  21
ENDBRANCH   8  15
ENDBRANCH   4   7
ENDBRANCH   2   3
ENDBRANCH   1   2
BRANCH   1  23
ATOM     23  C   UNL A   1      38.112  23.882  26.365  1.00  0.00     0.118 C 
BRANCH  23  24
ATOM     24  N   UNL A   1      39.541  23.637  26.193  1.00  0.00    -0.352 N 
ATOM     25  C   UNL A   1      40.628  24.385  26.569  1.00  0.00     0.251 C 
ATOM     26  H   UNL A   1      39.761  22.797  25.729  1.00  0.00     0.163 HD
ATOM     27  O   UNL A   1      41.738  24.103  26.126  1.00  0.00    -0.269 OA
BRANCH  25  28
ATOM     28  C   UNL A   1      40.469  25.528  27.492  1.00  0.00     0.039 A 
ATOM     29  C   UNL A   1      39.520  25.444  28.516  1.00  0.00     0.014 A 
ATOM     30  C   UNL A   1      41.236  26.686  27.340  1.00  0.00     0.014 A 
ATOM     31  C   UNL A   1      39.405  26.485  29.439  1.00  0.00     0.010 A 
ATOM     32  C   UNL A   1      41.169  27.692  28.300  1.00  0.00     0.010 A 
ATOM     33  C   UNL A   1      40.265  27.594  29.369  1.00  0.00    -0.014 A 
BRANCH  33  34
ATOM     34  C   UNL A   1      40.285  28.626  30.437  1.00  0.00     0.031 A 
ATOM     35  C   UNL A   1      41.214  28.496  31.611  1.00  0.00     0.074 A 
ATOM     36  C   UNL A   1      39.395  29.636  30.384  1.00  0.00     0.049 A 
ATOM     37  N   UNL A   1      41.303  29.248  32.678  1.00  0.00    -0.248 NA
ATOM     38  C   UNL A   1      42.149  27.362  31.594  1.00  0.00     0.031 C 
ATOM     39  C   UNL A   1      38.415  29.843  29.314  1.00  0.00     0.029 A 
ATOM     40  N   UNL A   1      39.154  30.668  31.256  1.00  0.00    -0.354 N 
ATOM     41  C   UNL A   1      42.296  28.677  33.463  1.00  0.00     0.074 A 
ATOM     42  C   UNL A   1      42.744  27.486  32.772  1.00  0.00     0.031 C 
ATOM     43  C   UNL A   1      37.696  30.943  29.582  1.00  0.00     0.029 A 
ATOM     44  C   UNL A   1      38.124  31.492  30.864  1.00  0.00     0.049 A 
ATOM     45  H   UNL A   1      39.669  30.806  32.084  1.00  0.00     0.167 HD
ATOM     46  C   UNL A   1      42.798  29.115  34.643  1.00  0.00     0.037 A 
ATOM     47  C   UNL A   1      37.572  32.557  31.476  1.00  0.00     0.037 A 
ATOM     48  C   UNL A   1      42.343  30.303  35.320  1.00  0.00     0.049 A 
ATOM     49  C   UNL A   1      38.111  32.996  32.809  1.00  0.00     0.074 A 
ATOM     50  C   UNL A   1      42.828  30.867  36.487  1.00  0.00     0.029 A 
ATOM     51  N   UNL A   1      41.289  31.102  34.901  1.00  0.00    -0.354 N 
ATOM     52  N   UNL A   1      39.102  32.488  33.503  1.00  0.00    -0.248 NA
ATOM     53  C   UNL A   1      37.456  34.146  33.445  1.00  0.00     0.031 C 
ATOM     54  C   UNL A   1      42.029  31.971  36.804  1.00  0.00     0.029 A 
ATOM     55  C   UNL A   1      41.079  32.129  35.808  1.00  0.00     0.049 A 
ATOM     56  H   UNL A   1      40.764  30.959  34.080  1.00  0.00     0.167 HD
ATOM     57  C   UNL A   1      39.197  33.262  34.653  1.00  0.00     0.074 A 
ATOM     58  C   UNL A   1      38.177  34.286  34.550  1.00  0.00     0.031 C 
ATOM     59  C   UNL A   1      40.049  33.134  35.700  1.00  0.00     0.037 A 
BRANCH  46  60
ATOM     60  C   UNL A   1      43.890  28.297  35.281  1.00  0.00     0.058 A 
ATOM     61  C   UNL A   1      43.607  27.291  36.219  1.00  0.00     0.135 A 
ATOM     62  C   UNL A   1      45.235  28.506  34.935  1.00  0.00     0.135 A 
ATOM     63  F   UNL A   1      42.340  27.054  36.594  1.00  0.00    -0.206 F 
ATOM     64  C   UNL A   1      44.618  26.554  36.825  1.00  0.00     0.059 A 
ATOM     65  C   UNL A   1      46.263  27.759  35.506  1.00  0.00     0.059 A 
ATOM     66  F   UNL A   1      45.566  29.450  34.040  1.00  0.00    -0.206 F 
ATOM     67  C   UNL A   1      45.945  26.799  36.466  1.00  0.00     0.060 A 
BRANCH  67  68
ATOM     68  S   UNL A   1      47.247  25.848  37.279  1.00  0.00     0.124 S 
ATOM     69  O   UNL A   1      48.249  25.764  36.221  1.00  0.00    -0.237 OA
ATOM     70  O   UNL A   1      47.594  26.699  38.413  1.00  0.00    -0.237 OA
ATOM     71  O   UNL A   1      46.589  24.591  37.620  1.00  0.00    -0.744 OA
ENDBRANCH  67  68
ENDBRANCH  46  60
BRANCH  47  72
ATOM     72  C   UNL A   1      36.451  33.282  30.822  1.00  0.00     0.058 A 
ATOM     73  C   UNL A   1      35.141  33.161  31.307  1.00  0.00     0.135 A 
ATOM     74  C   UNL A   1      36.669  34.140  29.732  1.00  0.00     0.135 A 
ATOM     75  F   UNL A   1      34.880  32.346  32.341  1.00  0.00    -0.206 F 
ATOM     76  C   UNL A   1      34.085  33.863  30.734  1.00  0.00     0.059 A 
ATOM     77  C   UNL A   1      35.633  34.872  29.159  1.00  0.00     0.059 A 
ATOM     78  F   UNL A   1      37.908  34.300  29.241  1.00  0.00    -0.206 F 
ATOM     79  C   UNL A   1      34.344  34.723  29.665  1.00  0.00     0.060 A 
BRANCH  79  80
ATOM     80  S   UNL A   1      32.975  35.678  28.976  1.00  0.00     0.124 S 
ATOM     81  O   UNL A   1      32.211  36.004  30.176  1.00  0.00    -0.237 OA
ATOM     82  O   UNL A   1      33.670  36.792  28.340  1.00  0.00    -0.237 OA
ATOM     83  O   UNL A   1      32.337  34.739  28.058  1.00  0.00    -0.744 OA
ENDBRANCH  79  80
ENDBRANCH  47  72
BRANCH  59  84
ATOM     84  C   UNL A   1      39.917  34.123  36.826  1.00  0.00     0.058 A 
ATOM     85  C   UNL A   1      40.555  35.373  36.780  1.00  0.00     0.135 A 
ATOM     86  C   UNL A   1      39.092  33.849  37.929  1.00  0.00     0.135 A 
ATOM     87  F   UNL A   1      41.364  35.681  35.754  1.00  0.00    -0.206 F 
ATOM     88  C   UNL A   1      40.387  36.312  37.793  1.00  0.00     0.059 A 
ATOM     89  C   UNL A   1      38.888  34.783  38.939  1.00  0.00     0.059 A 
ATOM     90  F   UNL A   1      38.454  32.671  38.019  1.00  0.00    -0.206 F 
ATOM     91  C   UNL A   1      39.545  36.011  38.865  1.00  0.00     0.060 A 
BRANCH  91  92
ATOM     92  S   UNL A   1      39.292  37.263  40.140  1.00  0.00     0.124 S 
ATOM     93  O   UNL A   1      38.548  38.283  39.409  1.00  0.00    -0.237 OA
ATOM     94  O   UNL A   1      38.538  36.529  41.151  1.00  0.00    -0.237 OA
ATOM     95  O   UNL A   1      40.651  37.633  40.527  1.00  0.00    -0.744 OA
ENDBRANCH  91  92
ENDBRANCH  59  84
ENDBRANCH  33  34
ENDBRANCH  25  28
ENDBRANCH  23  24
ENDBRANCH   1  23
TORSDOF 15
ENDMDL
MODEL 2
REMARK VINA RESULT:     -12.0      4.816     11.942
REMARK SMILES COc1ccc(-c2cc(C(=O)NCCCNC(=O)c3ccc(-c4c5nc(c(-c6c(F)cc(S(=O)(=O)[O-])cc6F)c6ccc([nH]6)c(-c6c(F)cc(S(=O)(=O)[O-])cc6F)c6nc(c(-c7c(F)cc(S(=O)(=O)[O-])cc7F)c7ccc4[nH]7)C=C6)C=C5)cc3)nc(=O)n2C)cc1
REMARK SMILES IDX 14 1 13 2 12 3 10 4 11 5 9 7 7 8 8 9 88 10 86 11 89 12 85 13
REMARK SMILES IDX 87 14 6 15 3 16 4 17 91 18 5 19 90 20 2 21 1 22 15 23 16 24
REMARK SMILES IDX 17 25 18 27 19 28 20 29 84 30 21 31 83 32 22 33 23 34 24 35
REMARK SMILES IDX 77 36 25 37 82 38 76 39 78 40 26 41 81 42 75 43 74 44 27 46
REMARK SMILES IDX 61 47 40 48 60 49 41 50 44 51 59 52 79 53 42 54 43 55 58 57
REMARK SMILES IDX 80 58 45 59 28 60 29 61 38 62 30 63 31 64 37 65 39 66 32 67
REMARK SMILES IDX 33 68 34 69 35 70 36 71 62 72 63 73 72 74 64 75 65 76 71 77
REMARK SMILES IDX 73 78 66 79 67 80 68 81 69 82 70 83 46 84 47 85 56 86 48 87
REMARK SMILES IDX 49 88 55 89 57 90 50 91 51 92 52 93 53 94 54 95
REMARK H PARENT 12 6 16 26 78 45 44 56
REMARK Flexibility Score: inf
ROOT
ATOM      1  C   UNL A   1      34.585  32.857  30.857  1.00  0.00     0.042 C 
ENDROOT
BRANCH   1   2
ATOM      2  C   UNL A   1      34.997  34.175  31.508  1.00  0.00     0.118 C 
BRANCH   2   3
ATOM      3  N   UNL A   1      36.335  34.579  31.102  1.00  0.00    -0.351 N 
ATOM      4  C   UNL A   1      37.553  34.395  31.705  1.00  0.00     0.270 C 
ATOM      5  O   UNL A   1      38.556  34.881  31.188  1.00  0.00    -0.268 OA
ATOM      6  H   UNL A   1      36.371  35.068  30.249  1.00  0.00     0.163 HD
BRANCH   4   7
ATOM      7  C   UNL A   1      37.718  33.560  32.979  1.00  0.00     0.136 A 
ATOM      8  C   UNL A   1      38.731  31.633  33.941  1.00  0.00     0.055 A 
ATOM      9  C   UNL A   1      38.576  32.371  32.838  1.00  0.00     0.061 A 
ATOM     10  N   UNL A   1      38.088  31.984  35.116  1.00  0.00    -0.295 N 
ATOM     11  C   UNL A   1      37.247  33.105  35.179  1.00  0.00     0.348 A 
ATOM     12  C   UNL A   1      38.206  31.206  36.340  1.00  0.00     0.155 C 
ATOM     13  N   UNL A   1      37.129  33.903  34.074  1.00  0.00    -0.188 NA
ATOM     14  O   UNL A   1      36.604  33.360  36.196  1.00  0.00    -0.246 OA
BRANCH   8  15
ATOM     15  C   UNL A   1      39.587  30.439  33.833  1.00  0.00    -0.001 A 
ATOM     16  C   UNL A   1      41.274  28.207  33.550  1.00  0.00     0.118 A 
ATOM     17  C   UNL A   1      41.647  29.274  34.367  1.00  0.00     0.047 A 
ATOM     18  C   UNL A   1      40.045  28.245  32.889  1.00  0.00     0.047 A 
ATOM     19  C   UNL A   1      40.815  30.387  34.506  1.00  0.00     0.014 A 
ATOM     20  C   UNL A   1      39.209  29.359  33.024  1.00  0.00     0.014 A 
BRANCH  16  21
ATOM     21  O   UNL A   1      42.168  27.174  33.500  1.00  0.00    -0.497 OA
ATOM     22  C   UNL A   1      43.368  27.425  32.778  1.00  0.00     0.278 C 
ENDBRANCH  16  21
ENDBRANCH   8  15
ENDBRANCH   4   7
ENDBRANCH   2   3
ENDBRANCH   1   2
BRANCH   1  23
ATOM     23  C   UNL A   1      34.905  32.788  29.362  1.00  0.00     0.118 C 
BRANCH  23  24
ATOM     24  N   UNL A   1      34.111  31.779  28.666  1.00  0.00    -0.352 N 
ATOM     25  C   UNL A   1      34.485  30.597  28.078  1.00  0.00     0.251 C 
ATOM     26  H   UNL A   1      33.149  31.981  28.609  1.00  0.00     0.163 HD
ATOM     27  O   UNL A   1      33.691  30.007  27.350  1.00  0.00    -0.269 OA
BRANCH  25  28
ATOM     28  C   UNL A   1      35.834  30.038  28.307  1.00  0.00     0.039 A 
ATOM     29  C   UNL A   1      36.770  30.086  27.269  1.00  0.00     0.014 A 
ATOM     30  C   UNL A   1      36.170  29.453  29.529  1.00  0.00     0.014 A 
ATOM     31  C   UNL A   1      38.070  29.627  27.490  1.00  0.00     0.010 A 
ATOM     32  C   UNL A   1      37.484  29.058  29.770  1.00  0.00     0.010 A 
ATOM     33  C   UNL A   1      38.451  29.158  28.758  1.00  0.00    -0.014 A 
BRANCH  33  34
ATOM     34  C   UNL A   1      39.867  28.832  29.069  1.00  0.00     0.031 A 
ATOM     35  C   UNL A   1      40.783  29.871  29.649  1.00  0.00     0.074 A 
ATOM     36  C   UNL A   1      40.342  27.615  28.740  1.00  0.00     0.049 A 
ATOM     37  N   UNL A   1      42.066  29.793  29.896  1.00  0.00    -0.248 NA
ATOM     38  C   UNL A   1      40.186  31.175  29.973  1.00  0.00     0.031 C 
ATOM     39  C   UNL A   1      39.557  26.537  28.133  1.00  0.00     0.029 A 
ATOM     40  N   UNL A   1      41.603  27.082  28.851  1.00  0.00    -0.354 N 
ATOM     41  C   UNL A   1      42.432  31.036  30.397  1.00  0.00     0.074 A 
ATOM     42  C   UNL A   1      41.245  31.865  30.371  1.00  0.00     0.031 C 
ATOM     43  C   UNL A   1      40.346  25.468  27.945  1.00  0.00     0.029 A 
ATOM     44  C   UNL A   1      41.703  25.798  28.368  1.00  0.00     0.049 A 
ATOM     45  H   UNL A   1      42.363  27.574  29.238  1.00  0.00     0.167 HD
ATOM     46  C   UNL A   1      43.642  31.441  30.852  1.00  0.00     0.037 A 
ATOM     47  C   UNL A   1      42.770  24.984  28.259  1.00  0.00     0.037 A 
ATOM     48  C   UNL A   1      44.816  30.605  30.873  1.00  0.00     0.049 A 
ATOM     49  C   UNL A   1      44.114  25.471  28.724  1.00  0.00     0.074 A 
ATOM     50  C   UNL A   1      46.073  30.899  31.371  1.00  0.00     0.029 A 
ATOM     51  N   UNL A   1      44.882  29.316  30.363  1.00  0.00    -0.354 N 
ATOM     52  N   UNL A   1      44.428  26.625  29.265  1.00  0.00    -0.248 NA
ATOM     53  C   UNL A   1      45.248  24.554  28.558  1.00  0.00     0.031 C 
ATOM     54  C   UNL A   1      46.913  29.812  31.108  1.00  0.00     0.029 A 
ATOM     55  C   UNL A   1      46.169  28.818  30.493  1.00  0.00     0.049 A 
ATOM     56  H   UNL A   1      44.126  28.827  29.963  1.00  0.00     0.167 HD
ATOM     57  C   UNL A   1      45.794  26.568  29.515  1.00  0.00     0.074 A 
ATOM     58  C   UNL A   1      46.241  25.258  29.085  1.00  0.00     0.031 C 
ATOM     59  C   UNL A   1      46.604  27.516  30.048  1.00  0.00     0.037 A 
BRANCH  46  60
ATOM     60  C   UNL A   1      43.758  32.856  31.354  1.00  0.00     0.058 A 
ATOM     61  C   UNL A   1      43.957  33.936  30.478  1.00  0.00     0.135 A 
ATOM     62  C   UNL A   1      43.649  33.141  32.725  1.00  0.00     0.135 A 
ATOM     63  F   UNL A   1      44.078  33.723  29.158  1.00  0.00    -0.206 F 
ATOM     64  C   UNL A   1      44.089  35.240  30.945  1.00  0.00     0.059 A 
ATOM     65  C   UNL A   1      43.747  34.442  33.213  1.00  0.00     0.059 A 
ATOM     66  F   UNL A   1      43.453  32.150  33.609  1.00  0.00    -0.206 F 
ATOM     67  C   UNL A   1      43.988  35.481  32.316  1.00  0.00     0.060 A 
BRANCH  67  68
ATOM     68  S   UNL A   1      44.184  37.176  32.908  1.00  0.00     0.124 S 
ATOM     69  O   UNL A   1      44.244  37.917  31.652  1.00  0.00    -0.237 OA
ATOM     70  O   UNL A   1      42.975  37.372  33.701  1.00  0.00    -0.237 OA
ATOM     71  O   UNL A   1      45.429  37.130  33.669  1.00  0.00    -0.744 OA
ENDBRANCH  67  68
ENDBRANCH  46  60
BRANCH  47  72
ATOM     72  C   UNL A   1      42.599  23.619  27.693  1.00  0.00     0.058 A 
ATOM     73  C   UNL A   1      42.705  23.398  26.313  1.00  0.00     0.135 A 
ATOM     74  C   UNL A   1      42.371  22.506  28.518  1.00  0.00     0.135 A 
ATOM     75  F   UNL A   1      42.914  24.432  25.482  1.00  0.00    -0.206 F 
ATOM     76  C   UNL A   1      42.590  22.124  25.768  1.00  0.00     0.059 A 
ATOM     77  C   UNL A   1      42.277  21.218  27.999  1.00  0.00     0.059 A 
ATOM     78  F   UNL A   1      42.276  22.663  29.848  1.00  0.00    -0.206 F 
ATOM     79  C   UNL A   1      42.383  21.038  26.622  1.00  0.00     0.060 A 
BRANCH  79  80
ATOM     80  S   UNL A   1      42.303  19.382  25.907  1.00  0.00     0.124 S 
ATOM     81  O   UNL A   1      43.230  19.500  24.787  1.00  0.00    -0.237 OA
ATOM     82  O   UNL A   1      42.746  18.548  27.018  1.00  0.00    -0.237 OA
ATOM     83  O   UNL A   1      40.895  19.239  25.547  1.00  0.00    -0.744 OA
ENDBRANCH  79  80
ENDBRANCH  47  72
BRANCH  59  84
ATOM     84  C   UNL A   1      48.062  27.177  30.196  1.00  0.00     0.058 A 
ATOM     85  C   UNL A   1      48.981  27.436  29.167  1.00  0.00     0.135 A 
ATOM     86  C   UNL A   1      48.557  26.650  31.400  1.00  0.00     0.135 A 
ATOM     87  F   UNL A   1      48.558  27.927  27.991  1.00  0.00    -0.206 F 
ATOM     88  C   UNL A   1      50.339  27.176  29.323  1.00  0.00     0.059 A 
ATOM     89  C   UNL A   1      49.915  26.409  31.588  1.00  0.00     0.059 A 
ATOM     90  F   UNL A   1      47.722  26.389  32.418  1.00  0.00    -0.206 F 
ATOM     91  C   UNL A   1      50.797  26.670  30.541  1.00  0.00     0.060 A 
BRANCH  91  92
ATOM     92  S   UNL A   1      52.569  26.395  30.747  1.00  0.00     0.124 S 
ATOM     93  O   UNL A   1      53.021  26.329  29.362  1.00  0.00    -0.237 OA
ATOM     94  O   UNL A   1      52.983  27.579  31.494  1.00  0.00    -0.237 OA
ATOM     95  O   UNL A   1      52.635  25.139  31.490  1.00  0.00    -0.744 OA
ENDBRANCH  91  92
ENDBRANCH  59  84
ENDBRANCH  33  34
ENDBRANCH  25  28
ENDBRANCH  23  24
ENDBRANCH   1  23
TORSDOF 15
ENDMDL
MODEL 3
REMARK VINA RESULT:     -11.9      6.705     12.142
REMARK SMILES COc1ccc(-c2cc(C(=O)NCCCNC(=O)c3ccc(-c4c5nc(c(-c6c(F)cc(S(=O)(=O)[O-])cc6F)c6ccc([nH]6)c(-c6c(F)cc(S(=O)(=O)[O-])cc6F)c6nc(c(-c7c(F)cc(S(=O)(=O)[O-])cc7F)c7ccc4[nH]7)C=C6)C=C5)cc3)nc(=O)n2C)cc1
REMARK SMILES IDX 14 1 13 2 12 3 10 4 11 5 9 7 7 8 8 9 88 10 86 11 89 12 85 13
REMARK SMILES IDX 87 14 6 15 3 16 4 17 91 18 5 19 90 20 2 21 1 22 15 23 16 24
REMARK SMILES IDX 17 25 18 27 19 28 20 29 84 30 21 31 83 32 22 33 23 34 24 35
REMARK SMILES IDX 77 36 25 37 82 38 76 39 78 40 26 41 81 42 75 43 74 44 27 46
REMARK SMILES IDX 61 47 40 48 60 49 41 50 44 51 59 52 79 53 42 54 43 55 58 57
REMARK SMILES IDX 80 58 45 59 28 60 29 61 38 62 30 63 31 64 37 65 39 66 32 67
REMARK SMILES IDX 33 68 34 69 35 70 36 71 62 72 63 73 72 74 64 75 65 76 71 77
REMARK SMILES IDX 73 78 66 79 67 80 68 81 69 82 70 83 46 84 47 85 56 86 48 87
REMARK SMILES IDX 49 88 55 89 57 90 50 91 51 92 52 93 53 94 54 95
REMARK H PARENT 12 6 16 26 78 45 44 56
REMARK Flexibility Score: inf
ROOT
ATOM      1  C   UNL A   1      34.670  29.581  27.254  1.00  0.00     0.042 C 
ENDROOT
BRANCH   1   2
ATOM      2  C   UNL A   1      33.299  30.081  26.806  1.00  0.00     0.118 C 
BRANCH   2   3
ATOM      3  N   UNL A   1      33.158  30.036  25.359  1.00  0.00    -0.351 N 
ATOM      4  C   UNL A   1      32.885  28.992  24.512  1.00  0.00     0.270 C 
ATOM      5  O   UNL A   1      32.867  29.193  23.300  1.00  0.00    -0.268 OA
ATOM      6  H   UNL A   1      33.280  30.904  24.910  1.00  0.00     0.163 HD
BRANCH   4   7
ATOM      7  C   UNL A   1      32.551  27.588  25.026  1.00  0.00     0.136 A 
ATOM      8  C   UNL A   1      33.327  25.349  25.254  1.00  0.00     0.055 A 
ATOM      9  C   UNL A   1      33.602  26.579  24.810  1.00  0.00     0.061 A 
ATOM     10  N   UNL A   1      32.109  25.076  25.852  1.00  0.00    -0.295 N 
ATOM     11  C   UNL A   1      31.127  26.068  25.993  1.00  0.00     0.348 A 
ATOM     12  C   UNL A   1      31.750  23.752  26.337  1.00  0.00     0.155 C 
ATOM     13  N   UNL A   1      31.420  27.345  25.598  1.00  0.00    -0.188 NA
ATOM     14  O   UNL A   1      30.013  25.801  26.438  1.00  0.00    -0.246 OA
BRANCH   8  15
ATOM     15  C   UNL A   1      34.361  24.319  25.056  1.00  0.00    -0.001 A 
ATOM     16  C   UNL A   1      36.406  22.426  24.683  1.00  0.00     0.118 A 
ATOM     17  C   UNL A   1      36.018  22.799  25.969  1.00  0.00     0.047 A 
ATOM     18  C   UNL A   1      35.757  22.983  23.580  1.00  0.00     0.047 A 
ATOM     19  C   UNL A   1      35.006  23.744  26.159  1.00  0.00     0.014 A 
ATOM     20  C   UNL A   1      34.744  23.930  23.766  1.00  0.00     0.014 A 
BRANCH  16  21
ATOM     21  O   UNL A   1      37.402  21.490  24.626  1.00  0.00    -0.497 OA
ATOM     22  C   UNL A   1      38.484  21.678  25.530  1.00  0.00     0.278 C 
ENDBRANCH  16  21
ENDBRANCH   8  15
ENDBRANCH   4   7
ENDBRANCH   2   3
ENDBRANCH   1   2
BRANCH   1  23
ATOM     23  C   UNL A   1      35.501  30.643  27.975  1.00  0.00     0.118 C 
BRANCH  23  24
ATOM     24  N   UNL A   1      35.433  30.516  29.428  1.00  0.00    -0.352 N 
ATOM     25  C   UNL A   1      36.375  30.100  30.334  1.00  0.00     0.251 C 
ATOM     26  H   UNL A   1      34.567  30.770  29.822  1.00  0.00     0.163 HD
ATOM     27  O   UNL A   1      36.036  29.855  31.489  1.00  0.00    -0.269 OA
BRANCH  25  28
ATOM     28  C   UNL A   1      37.787  29.937  29.928  1.00  0.00     0.039 A 
ATOM     29  C   UNL A   1      38.776  29.914  30.916  1.00  0.00     0.014 A 
ATOM     30  C   UNL A   1      38.138  29.827  28.581  1.00  0.00     0.014 A 
ATOM     31  C   UNL A   1      40.107  29.691  30.556  1.00  0.00     0.010 A 
ATOM     32  C   UNL A   1      39.454  29.537  28.230  1.00  0.00     0.010 A 
ATOM     33  C   UNL A   1      40.448  29.448  29.216  1.00  0.00    -0.014 A 
BRANCH  33  34
ATOM     34  C   UNL A   1      41.821  29.033  28.830  1.00  0.00     0.031 A 
ATOM     35  C   UNL A   1      42.934  30.040  28.756  1.00  0.00     0.074 A 
ATOM     36  C   UNL A   1      42.036  27.756  28.460  1.00  0.00     0.049 A 
ATOM     37  N   UNL A   1      44.167  29.876  28.351  1.00  0.00    -0.248 NA
ATOM     38  C   UNL A   1      42.614  31.414  29.171  1.00  0.00     0.031 C 
ATOM     39  C   UNL A   1      41.023  26.697  28.451  1.00  0.00     0.029 A 
ATOM     40  N   UNL A   1      43.170  27.131  28.003  1.00  0.00    -0.354 N 
ATOM     41  C   UNL A   1      44.769  31.124  28.453  1.00  0.00     0.074 A 
ATOM     42  C   UNL A   1      43.750  32.045  28.912  1.00  0.00     0.031 C 
ATOM     43  C   UNL A   1      41.584  25.553  28.033  1.00  0.00     0.029 A 
ATOM     44  C   UNL A   1      42.981  25.804  27.693  1.00  0.00     0.049 A 
ATOM     45  H   UNL A   1      44.036  27.589  27.906  1.00  0.00     0.167 HD
ATOM     46  C   UNL A   1      46.057  31.465  28.204  1.00  0.00     0.037 A 
ATOM     47  C   UNL A   1      43.829  24.896  27.175  1.00  0.00     0.037 A 
ATOM     48  C   UNL A   1      47.062  30.538  27.749  1.00  0.00     0.049 A 
ATOM     49  C   UNL A   1      45.239  25.308  26.859  1.00  0.00     0.074 A 
ATOM     50  C   UNL A   1      48.408  30.769  27.527  1.00  0.00     0.029 A 
ATOM     51  N   UNL A   1      46.829  29.207  27.431  1.00  0.00    -0.354 N 
ATOM     52  N   UNL A   1      45.814  26.475  27.032  1.00  0.00    -0.248 NA
ATOM     53  C   UNL A   1      46.115  24.286  26.271  1.00  0.00     0.031 C 
ATOM     54  C   UNL A   1      48.975  29.595  27.019  1.00  0.00     0.029 A 
ATOM     55  C   UNL A   1      47.996  28.616  26.974  1.00  0.00     0.049 A 
ATOM     56  H   UNL A   1      45.961  28.750  27.516  1.00  0.00     0.167 HD
ATOM     57  C   UNL A   1      47.121  26.326  26.586  1.00  0.00     0.074 A 
ATOM     58  C   UNL A   1      47.259  24.949  26.154  1.00  0.00     0.031 C 
ATOM     59  C   UNL A   1      48.116  27.246  26.534  1.00  0.00     0.037 A 
BRANCH  46  60
ATOM     60  C   UNL A   1      46.447  32.905  28.409  1.00  0.00     0.058 A 
ATOM     61  C   UNL A   1      46.333  33.855  27.380  1.00  0.00     0.135 A 
ATOM     62  C   UNL A   1      46.921  33.348  29.655  1.00  0.00     0.135 A 
ATOM     63  F   UNL A   1      45.894  33.487  26.166  1.00  0.00    -0.206 F 
ATOM     64  C   UNL A   1      46.717  35.179  27.564  1.00  0.00     0.059 A 
ATOM     65  C   UNL A   1      47.283  34.675  29.871  1.00  0.00     0.059 A 
ATOM     66  F   UNL A   1      47.047  32.487  30.677  1.00  0.00    -0.206 F 
ATOM     67  C   UNL A   1      47.196  35.579  28.812  1.00  0.00     0.060 A 
BRANCH  67  68
ATOM     68  S   UNL A   1      47.712  37.296  29.027  1.00  0.00     0.124 S 
ATOM     69  O   UNL A   1      47.214  37.583  30.369  1.00  0.00    -0.237 OA
ATOM     70  O   UNL A   1      49.162  37.206  28.896  1.00  0.00    -0.237 OA
ATOM     71  O   UNL A   1      47.029  37.995  27.943  1.00  0.00    -0.744 OA
ENDBRANCH  67  68
ENDBRANCH  46  60
BRANCH  47  72
ATOM     72  C   UNL A   1      43.361  23.505  26.935  1.00  0.00     0.058 A 
ATOM     73  C   UNL A   1      43.101  23.051  25.634  1.00  0.00     0.135 A 
ATOM     74  C   UNL A   1      43.206  22.591  27.990  1.00  0.00     0.135 A 
ATOM     75  F   UNL A   1      43.226  23.890  24.594  1.00  0.00    -0.206 F 
ATOM     76  C   UNL A   1      42.702  21.742  25.385  1.00  0.00     0.059 A 
ATOM     77  C   UNL A   1      42.833  21.269  27.763  1.00  0.00     0.059 A 
ATOM     78  F   UNL A   1      43.456  22.972  29.252  1.00  0.00    -0.206 F 
ATOM     79  C   UNL A   1      42.578  20.856  26.457  1.00  0.00     0.060 A 
BRANCH  79  80
ATOM     80  S   UNL A   1      42.125  19.143  26.111  1.00  0.00     0.124 S 
ATOM     81  O   UNL A   1      43.004  18.826  24.991  1.00  0.00    -0.237 OA
ATOM     82  O   UNL A   1      42.438  18.483  27.375  1.00  0.00    -0.237 OA
ATOM     83  O   UNL A   1      40.703  19.228  25.792  1.00  0.00    -0.744 OA
ENDBRANCH  79  80
ENDBRANCH  47  72
BRANCH  59  84
ATOM     84  C   UNL A   1      49.444  26.800  25.989  1.00  0.00     0.058 A 
ATOM     85  C   UNL A   1      49.803  27.035  24.652  1.00  0.00     0.135 A 
ATOM     86  C   UNL A   1      50.395  26.191  26.824  1.00  0.00     0.135 A 
ATOM     87  F   UNL A   1      48.926  27.602  23.808  1.00  0.00    -0.206 F 
ATOM     88  C   UNL A   1      51.053  26.675  24.161  1.00  0.00     0.059 A 
ATOM     89  C   UNL A   1      51.661  25.848  26.361  1.00  0.00     0.059 A 
ATOM     90  F   UNL A   1      50.106  25.948  28.113  1.00  0.00    -0.206 F 
ATOM     91  C   UNL A   1      51.979  26.089  25.026  1.00  0.00     0.060 A 
BRANCH  91  92
ATOM     92  S   UNL A   1      53.617  25.682  24.386  1.00  0.00     0.124 S 
ATOM     93  O   UNL A   1      53.457  25.961  22.964  1.00  0.00    -0.237 OA
ATOM     94  O   UNL A   1      54.476  26.605  25.122  1.00  0.00    -0.237 OA
ATOM     95  O   UNL A   1      53.778  24.273  24.735  1.00  0.00    -0.744 OA
ENDBRANCH  91  92
ENDBRANCH  59  84
ENDBRANCH  33  34
ENDBRANCH  25  28
ENDBRANCH  23  24
ENDBRANCH   1  23
TORSDOF 15
ENDMDL
