MODEL 1
REMARK VINA RESULT:     -14.8      0.000      0.000
REMARK SMILES Cc1c(NC(=O)c2cccc(-c3cc4ccccc4oc3=O)c2)cccc1C(=O)NCCCNC(=O)c1ccc(-c2c3nc(c(-c4c(F)cc(S(=O)(=O)[O-])cc4F)c4ccc([nH]4)c(-c4c(F)cc(S(=O)(=O)[O-])cc4F)c4nc(c(-c5c(F)cc(S(=O)(=O)[O-])cc5F)c5ccc2[nH]5)C=C4)C=C3)cc1
REMARK SMILES IDX 32 1 31 2 30 3 28 4 29 5 27 7 1 8 2 9 3 10 24 11 26 12 25 13
REMARK SMILES IDX 4 14 5 15 6 17 7 18 8 19 23 20 9 21 11 22 10 23 12 24 13 25
REMARK SMILES IDX 21 26 14 27 20 28 22 29 15 30 19 31 16 32 18 33 17 34 33 35
REMARK SMILES IDX 34 36 35 37 36 39 37 40 38 41 102 42 39 43 101 44 40 45
REMARK SMILES IDX 41 46 42 47 95 48 43 49 100 50 94 51 96 52 44 53 99 54 93 55
REMARK SMILES IDX 92 56 45 58 79 59 58 60 78 61 59 62 62 63 77 64 97 65 60 66
REMARK SMILES IDX 61 67 76 69 98 70 63 71 46 72 47 73 56 74 48 75 49 76 55 77
REMARK SMILES IDX 57 78 50 79 51 80 52 81 53 82 54 83 80 84 81 85 90 86 82 87
REMARK SMILES IDX 83 88 89 89 91 90 84 91 85 92 86 93 87 94 88 95 64 96 65 97
REMARK SMILES IDX 74 98 66 99 67 100 73 101 75 102 68 103 69 104 70 105 71 106
REMARK SMILES IDX 72 107
REMARK H PARENT 30 6 4 16 34 38 96 57 62 68
REMARK Flexibility Score: inf
ROOT
ATOM      1  C   UNL A   1      34.268  28.969  26.961  1.00  0.00     0.042 C 
ENDROOT
BRANCH   1   2
ATOM      2  C   UNL A   1      34.038  28.865  25.339  1.00  0.00     0.118 C 
BRANCH   2   3
ATOM      3  N   UNL A   1      32.792  29.425  24.744  1.00  0.00    -0.352 N 
ATOM      4  C   UNL A   1      31.527  28.960  24.411  1.00  0.00     0.251 C 
ATOM      5  O   UNL A   1      30.604  29.766  24.252  1.00  0.00    -0.269 OA
ATOM      6  H   UNL A   1      32.892  30.380  24.529  1.00  0.00     0.163 HD
BRANCH   4   7
ATOM      7  C   UNL A   1      31.177  27.520  24.189  1.00  0.00     0.044 A 
ATOM      8  C   UNL A   1      31.046  26.942  26.663  1.00  0.00     0.047 C 
ATOM      9  C   UNL A   1      30.820  26.634  25.210  1.00  0.00    -0.015 A 
ATOM     10  C   UNL A   1      30.436  25.316  24.890  1.00  0.00     0.045 A 
ATOM     11  C   UNL A   1      30.627  24.796  23.611  1.00  0.00     0.026 A 
ATOM     12  C   UNL A   1      31.393  26.972  22.899  1.00  0.00     0.014 A 
ATOM     13  C   UNL A   1      31.155  25.618  22.621  1.00  0.00     0.003 A 
BRANCH  10  14
ATOM     14  N   UNL A   1      29.875  24.566  25.930  1.00  0.00    -0.322 N 
ATOM     15  C   UNL A   1      30.413  23.604  26.739  1.00  0.00     0.255 C 
ATOM     16  H   UNL A   1      28.927  24.766  26.110  1.00  0.00     0.170 HD
ATOM     17  O   UNL A   1      29.683  23.048  27.561  1.00  0.00    -0.269 OA
BRANCH  15  18
ATOM     18  C   UNL A   1      31.861  23.280  26.728  1.00  0.00     0.040 A 
ATOM     19  C   UNL A   1      32.353  22.544  27.807  1.00  0.00     0.014 A 
ATOM     20  C   UNL A   1      32.753  23.774  25.765  1.00  0.00     0.022 A 
ATOM     21  C   UNL A   1      33.708  22.237  27.882  1.00  0.00     0.001 A 
ATOM     22  C   UNL A   1      34.120  23.469  25.821  1.00  0.00    -0.010 A 
ATOM     23  C   UNL A   1      34.581  22.682  26.887  1.00  0.00     0.009 A 
BRANCH  22  24
ATOM     24  C   UNL A   1      35.130  24.070  24.905  1.00  0.00     0.068 A 
ATOM     25  C   UNL A   1      36.294  24.622  25.321  1.00  0.00     0.028 A 
ATOM     26  C   UNL A   1      35.375  23.229  23.687  1.00  0.00     0.344 A 
ATOM     27  C   UNL A   1      37.369  23.627  25.546  1.00  0.00     0.018 A 
ATOM     28  O   UNL A   1      36.273  22.187  23.915  1.00  0.00    -0.422 OA
ATOM     29  O   UNL A   1      34.741  23.373  22.650  1.00  0.00    -0.246 OA
ATOM     30  C   UNL A   1      38.455  23.869  26.382  1.00  0.00     0.012 A 
ATOM     31  C   UNL A   1      37.251  22.380  24.916  1.00  0.00     0.138 A 
ATOM     32  C   UNL A   1      39.361  22.835  26.638  1.00  0.00     0.001 A 
ATOM     33  C   UNL A   1      38.107  21.330  25.217  1.00  0.00     0.048 A 
ATOM     34  C   UNL A   1      39.163  21.561  26.095  1.00  0.00     0.004 A 
ENDBRANCH  22  24
ENDBRANCH  15  18
ENDBRANCH  10  14
ENDBRANCH   4   7
ENDBRANCH   2   3
ENDBRANCH   1   2
BRANCH   1  35
ATOM     35  C   UNL A   1      35.424  29.960  27.453  1.00  0.00     0.118 C 
BRANCH  35  36
ATOM     36  N   UNL A   1      36.611  29.679  28.444  1.00  0.00    -0.352 N 
ATOM     37  C   UNL A   1      38.081  29.681  28.365  1.00  0.00     0.251 C 
ATOM     38  H   UNL A   1      36.290  29.440  29.345  1.00  0.00     0.163 HD
ATOM     39  O   UNL A   1      38.599  30.599  29.029  1.00  0.00    -0.269 OA
BRANCH  37  40
ATOM     40  C   UNL A   1      39.164  28.732  27.665  1.00  0.00     0.039 A 
ATOM     41  C   UNL A   1      39.235  27.335  27.977  1.00  0.00     0.014 A 
ATOM     42  C   UNL A   1      40.189  29.118  26.813  1.00  0.00     0.014 A 
ATOM     43  C   UNL A   1      40.517  26.642  28.014  1.00  0.00     0.010 A 
ATOM     44  C   UNL A   1      41.452  28.444  26.847  1.00  0.00     0.010 A 
ATOM     45  C   UNL A   1      41.689  27.338  27.674  1.00  0.00    -0.014 A 
BRANCH  45  46
ATOM     46  C   UNL A   1      43.068  27.126  28.303  1.00  0.00     0.031 A 
ATOM     47  C   UNL A   1      43.918  28.260  28.653  1.00  0.00     0.074 A 
ATOM     48  C   UNL A   1      43.649  25.978  28.782  1.00  0.00     0.049 A 
ATOM     49  N   UNL A   1      45.175  28.363  28.361  1.00  0.00    -0.248 NA
ATOM     50  C   UNL A   1      43.396  29.309  29.506  1.00  0.00     0.031 C 
ATOM     51  C   UNL A   1      44.878  25.706  29.556  1.00  0.00     0.029 A 
ATOM     52  N   UNL A   1      43.174  24.688  28.723  1.00  0.00    -0.354 N 
ATOM     53  C   UNL A   1      45.678  29.292  29.248  1.00  0.00     0.074 A 
ATOM     54  C   UNL A   1      44.514  29.983  29.775  1.00  0.00     0.031 C 
ATOM     55  C   UNL A   1      45.181  24.387  29.490  1.00  0.00     0.029 A 
ATOM     56  C   UNL A   1      44.198  23.751  28.637  1.00  0.00     0.049 A 
ATOM     57  H   UNL A   1      42.218  24.455  28.741  1.00  0.00     0.167 HD
ATOM     58  C   UNL A   1      46.964  29.229  29.715  1.00  0.00     0.037 A 
ATOM     59  C   UNL A   1      44.338  23.019  27.483  1.00  0.00     0.037 A 
ATOM     60  C   UNL A   1      47.621  27.947  29.392  1.00  0.00     0.049 A 
ATOM     61  C   UNL A   1      45.565  23.475  26.744  1.00  0.00     0.074 A 
ATOM     62  C   UNL A   1      48.045  26.864  30.154  1.00  0.00     0.029 A 
ATOM     63  N   UNL A   1      47.676  27.502  28.083  1.00  0.00    -0.354 N 
ATOM     64  N   UNL A   1      46.509  24.168  27.307  1.00  0.00    -0.248 NA
ATOM     65  C   UNL A   1      45.786  23.296  25.310  1.00  0.00     0.031 C 
ATOM     66  C   UNL A   1      48.376  25.786  29.282  1.00  0.00     0.029 A 
ATOM     67  C   UNL A   1      48.173  26.212  27.983  1.00  0.00     0.049 A 
ATOM     68  H   UNL A   1      47.394  28.040  27.309  1.00  0.00     0.167 HD
ATOM     69  C   UNL A   1      47.333  24.676  26.351  1.00  0.00     0.074 A 
ATOM     70  C   UNL A   1      46.881  24.053  25.118  1.00  0.00     0.031 C 
ATOM     71  C   UNL A   1      48.278  25.610  26.659  1.00  0.00     0.037 A 
BRANCH  58  72
ATOM     72  C   UNL A   1      47.511  30.219  30.736  1.00  0.00     0.058 A 
ATOM     73  C   UNL A   1      48.091  31.447  30.356  1.00  0.00     0.135 A 
ATOM     74  C   UNL A   1      47.432  30.029  32.135  1.00  0.00     0.135 A 
ATOM     75  F   UNL A   1      48.096  31.859  29.082  1.00  0.00    -0.206 F 
ATOM     76  C   UNL A   1      48.654  32.342  31.272  1.00  0.00     0.059 A 
ATOM     77  C   UNL A   1      48.058  30.862  33.065  1.00  0.00     0.059 A 
ATOM     78  F   UNL A   1      46.666  29.066  32.668  1.00  0.00    -0.206 F 
ATOM     79  C   UNL A   1      48.662  32.027  32.624  1.00  0.00     0.060 A 
BRANCH  79  80
ATOM     80  S   UNL A   1      49.367  33.199  33.795  1.00  0.00     0.124 S 
ATOM     81  O   UNL A   1      50.101  32.328  34.707  1.00  0.00    -0.237 OA
ATOM     82  O   UNL A   1      50.182  34.041  32.925  1.00  0.00    -0.237 OA
ATOM     83  O   UNL A   1      48.194  33.852  34.372  1.00  0.00    -0.744 OA
ENDBRANCH  79  80
ENDBRANCH  58  72
BRANCH  59  84
ATOM     84  C   UNL A   1      43.039  22.557  26.782  1.00  0.00     0.058 A 
ATOM     85  C   UNL A   1      43.093  22.647  25.383  1.00  0.00     0.135 A 
ATOM     86  C   UNL A   1      42.619  21.309  27.199  1.00  0.00     0.135 A 
ATOM     87  F   UNL A   1      42.739  23.784  24.773  1.00  0.00    -0.206 F 
ATOM     88  C   UNL A   1      43.511  21.569  24.605  1.00  0.00     0.059 A 
ATOM     89  C   UNL A   1      43.042  20.217  26.434  1.00  0.00     0.059 A 
ATOM     90  F   UNL A   1      42.240  21.111  28.474  1.00  0.00    -0.206 F 
ATOM     91  C   UNL A   1      43.716  20.363  25.236  1.00  0.00     0.060 A 
BRANCH  91  92
ATOM     92  S   UNL A   1      45.173  19.134  24.585  1.00  0.00     0.124 S 
ATOM     93  O   UNL A   1      44.995  18.041  25.532  1.00  0.00    -0.237 OA
ATOM     94  O   UNL A   1      44.834  18.778  23.236  1.00  0.00    -0.237 OA
ATOM     95  O   UNL A   1      46.447  19.833  24.739  1.00  0.00    -0.744 OA
ENDBRANCH  91  92
ENDBRANCH  59  84
BRANCH  71  96
ATOM     96  C   UNL A   1      49.347  26.063  25.709  1.00  0.00     0.058 A 
ATOM     97  C   UNL A   1      50.707  25.775  25.911  1.00  0.00     0.135 A 
ATOM     98  C   UNL A   1      49.059  26.925  24.627  1.00  0.00     0.135 A 
ATOM     99  F   UNL A   1      51.124  25.103  26.996  1.00  0.00    -0.206 F 
ATOM    100  C   UNL A   1      51.696  26.202  25.030  1.00  0.00     0.059 A 
ATOM    101  C   UNL A   1      50.032  27.403  23.764  1.00  0.00     0.059 A 
ATOM    102  F   UNL A   1      47.818  27.346  24.355  1.00  0.00    -0.206 F 
ATOM    103  C   UNL A   1      51.344  27.005  23.949  1.00  0.00     0.060 A 
BRANCH 103 104
ATOM    104  S   UNL A   1      52.617  27.551  22.807  1.00  0.00     0.124 S 
ATOM    105  O   UNL A   1      53.645  28.063  23.708  1.00  0.00    -0.237 OA
ATOM    106  O   UNL A   1      52.941  26.303  22.121  1.00  0.00    -0.237 OA
ATOM    107  O   UNL A   1      51.941  28.557  21.997  1.00  0.00    -0.744 OA
ENDBRANCH 103 104
ENDBRANCH  71  96
ENDBRANCH  45  46
ENDBRANCH  37  40
ENDBRANCH  35  36
ENDBRANCH   1  35
TORSDOF 16
ENDMDL
MODEL 2
REMARK VINA RESULT:     -14.2      5.073      9.933
REMARK SMILES Cc1c(NC(=O)c2cccc(-c3cc4ccccc4oc3=O)c2)cccc1C(=O)NCCCNC(=O)c1ccc(-c2c3nc(c(-c4c(F)cc(S(=O)(=O)[O-])cc4F)c4ccc([nH]4)c(-c4c(F)cc(S(=O)(=O)[O-])cc4F)c4nc(c(-c5c(F)cc(S(=O)(=O)[O-])cc5F)c5ccc2[nH]5)C=C4)C=C3)cc1
REMARK SMILES IDX 32 1 31 2 30 3 28 4 29 5 27 7 1 8 2 9 3 10 24 11 26 12 25 13
REMARK SMILES IDX 4 14 5 15 6 17 7 18 8 19 23 20 9 21 11 22 10 23 12 24 13 25
REMARK SMILES IDX 21 26 14 27 20 28 22 29 15 30 19 31 16 32 18 33 17 34 33 35
REMARK SMILES IDX 34 36 35 37 36 39 37 40 38 41 102 42 39 43 101 44 40 45
REMARK SMILES IDX 41 46 42 47 95 48 43 49 100 50 94 51 96 52 44 53 99 54 93 55
REMARK SMILES IDX 92 56 45 58 79 59 58 60 78 61 59 62 62 63 77 64 97 65 60 66
REMARK SMILES IDX 61 67 76 69 98 70 63 71 46 72 47 73 56 74 48 75 49 76 55 77
REMARK SMILES IDX 57 78 50 79 51 80 52 81 53 82 54 83 80 84 81 85 90 86 82 87
REMARK SMILES IDX 83 88 89 89 91 90 84 91 85 92 86 93 87 94 88 95 64 96 65 97
REMARK SMILES IDX 74 98 66 99 67 100 73 101 75 102 68 103 69 104 70 105 71 106
REMARK SMILES IDX 72 107
REMARK H PARENT 30 6 4 16 34 38 96 57 62 68
REMARK Flexibility Score: inf
ROOT
ATOM      1  C   UNL A   1      40.592  21.590  27.052  1.00  0.00     0.042 C 
ENDROOT
BRANCH   1   2
ATOM      2  C   UNL A   1      39.299  22.137  26.204  1.00  0.00     0.118 C 
BRANCH   2   3
ATOM      3  N   UNL A   1      38.276  21.163  25.729  1.00  0.00    -0.352 N 
ATOM      4  C   UNL A   1      36.953  21.204  25.309  1.00  0.00     0.251 C 
ATOM      5  O   UNL A   1      36.495  20.265  24.650  1.00  0.00    -0.269 OA
ATOM      6  H   UNL A   1      38.632  20.246  25.708  1.00  0.00     0.163 HD
BRANCH   4   7
ATOM      7  C   UNL A   1      35.990  22.308  25.623  1.00  0.00     0.044 A 
ATOM      8  C   UNL A   1      34.018  20.760  26.063  1.00  0.00     0.047 C 
ATOM      9  C   UNL A   1      34.693  22.103  26.103  1.00  0.00    -0.015 A 
ATOM     10  C   UNL A   1      33.887  23.210  26.439  1.00  0.00     0.045 A 
ATOM     11  C   UNL A   1      34.257  24.507  26.086  1.00  0.00     0.026 A 
ATOM     12  C   UNL A   1      36.341  23.628  25.244  1.00  0.00     0.014 A 
ATOM     13  C   UNL A   1      35.471  24.711  25.440  1.00  0.00     0.003 A 
BRANCH  10  14
ATOM     14  N   UNL A   1      32.701  22.927  27.124  1.00  0.00    -0.322 N 
ATOM     15  C   UNL A   1      31.403  23.260  26.854  1.00  0.00     0.255 C 
ATOM     16  H   UNL A   1      32.822  22.394  27.944  1.00  0.00     0.170 HD
ATOM     17  O   UNL A   1      30.528  22.927  27.655  1.00  0.00    -0.269 OA
BRANCH  15  18
ATOM     18  C   UNL A   1      31.003  23.920  25.586  1.00  0.00     0.040 A 
ATOM     19  C   UNL A   1      30.949  23.118  24.444  1.00  0.00     0.014 A 
ATOM     20  C   UNL A   1      30.802  25.303  25.468  1.00  0.00     0.022 A 
ATOM     21  C   UNL A   1      30.619  23.678  23.215  1.00  0.00     0.001 A 
ATOM     22  C   UNL A   1      30.462  25.882  24.238  1.00  0.00    -0.010 A 
ATOM     23  C   UNL A   1      30.361  25.047  23.116  1.00  0.00     0.009 A 
BRANCH  22  24
ATOM     24  C   UNL A   1      30.365  27.354  24.027  1.00  0.00     0.068 A 
ATOM     25  C   UNL A   1      30.367  28.263  25.031  1.00  0.00     0.028 A 
ATOM     26  C   UNL A   1      31.242  27.834  22.908  1.00  0.00     0.344 A 
ATOM     27  C   UNL A   1      31.727  28.611  25.507  1.00  0.00     0.018 A 
ATOM     28  O   UNL A   1      32.568  28.025  23.297  1.00  0.00    -0.422 OA
ATOM     29  O   UNL A   1      30.848  27.912  21.752  1.00  0.00    -0.246 OA
ATOM     30  C   UNL A   1      31.970  29.131  26.774  1.00  0.00     0.012 A 
ATOM     31  C   UNL A   1      32.806  28.360  24.648  1.00  0.00     0.138 A 
ATOM     32  C   UNL A   1      33.292  29.317  27.192  1.00  0.00     0.001 A 
ATOM     33  C   UNL A   1      34.121  28.479  25.078  1.00  0.00     0.048 A 
ATOM     34  C   UNL A   1      34.360  28.951  26.366  1.00  0.00     0.004 A 
ENDBRANCH  22  24
ENDBRANCH  15  18
ENDBRANCH  10  14
ENDBRANCH   4   7
ENDBRANCH   2   3
ENDBRANCH   1   2
BRANCH   1  35
ATOM     35  C   UNL A   1      42.022  22.162  26.619  1.00  0.00     0.118 C 
BRANCH  35  36
ATOM     36  N   UNL A   1      42.478  23.656  26.445  1.00  0.00    -0.352 N 
ATOM     37  C   UNL A   1      42.200  24.934  27.121  1.00  0.00     0.251 C 
ATOM     38  H   UNL A   1      43.106  23.765  25.694  1.00  0.00     0.163 HD
ATOM     39  O   UNL A   1      43.189  25.382  27.730  1.00  0.00    -0.269 OA
BRANCH  37  40
ATOM     40  C   UNL A   1      40.929  25.905  27.199  1.00  0.00     0.039 A 
ATOM     41  C   UNL A   1      40.851  27.088  26.394  1.00  0.00     0.014 A 
ATOM     42  C   UNL A   1      39.858  25.813  28.077  1.00  0.00     0.014 A 
ATOM     43  C   UNL A   1      40.218  28.298  26.902  1.00  0.00     0.010 A 
ATOM     44  C   UNL A   1      39.234  26.998  28.583  1.00  0.00     0.010 A 
ATOM     45  C   UNL A   1      39.616  28.282  28.172  1.00  0.00    -0.014 A 
BRANCH  45  46
ATOM     46  C   UNL A   1      39.583  29.451  29.160  1.00  0.00     0.031 A 
ATOM     47  C   UNL A   1      38.542  30.471  29.083  1.00  0.00     0.074 A 
ATOM     48  C   UNL A   1      40.321  29.662  30.297  1.00  0.00     0.049 A 
ATOM     49  N   UNL A   1      38.749  31.748  29.125  1.00  0.00    -0.248 NA
ATOM     50  C   UNL A   1      37.147  30.073  29.096  1.00  0.00     0.031 C 
ATOM     51  C   UNL A   1      40.241  30.650  31.394  1.00  0.00     0.029 A 
ATOM     52  N   UNL A   1      41.368  28.917  30.791  1.00  0.00    -0.354 N 
ATOM     53  C   UNL A   1      37.542  32.299  29.500  1.00  0.00     0.074 A 
ATOM     54  C   UNL A   1      36.558  31.257  29.263  1.00  0.00     0.031 C 
ATOM     55  C   UNL A   1      41.396  30.645  32.103  1.00  0.00     0.029 A 
ATOM     56  C   UNL A   1      42.293  29.695  31.477  1.00  0.00     0.049 A 
ATOM     57  H   UNL A   1      41.451  27.944  30.672  1.00  0.00     0.167 HD
ATOM     58  C   UNL A   1      37.466  33.440  30.253  1.00  0.00     0.037 A 
ATOM     59  C   UNL A   1      43.554  29.850  30.954  1.00  0.00     0.037 A 
ATOM     60  C   UNL A   1      38.770  33.826  30.828  1.00  0.00     0.049 A 
ATOM     61  C   UNL A   1      43.718  31.255  30.442  1.00  0.00     0.074 A 
ATOM     62  C   UNL A   1      39.281  33.856  32.121  1.00  0.00     0.029 A 
ATOM     63  N   UNL A   1      39.873  33.991  30.008  1.00  0.00    -0.354 N 
ATOM     64  N   UNL A   1      42.931  32.227  30.791  1.00  0.00    -0.248 NA
ATOM     65  C   UNL A   1      44.687  31.661  29.426  1.00  0.00     0.031 C 
ATOM     66  C   UNL A   1      40.690  34.067  32.057  1.00  0.00     0.029 A 
ATOM     67  C   UNL A   1      41.042  34.185  30.726  1.00  0.00     0.049 A 
ATOM     68  H   UNL A   1      39.831  33.973  29.024  1.00  0.00     0.167 HD
ATOM     69  C   UNL A   1      43.130  33.292  29.969  1.00  0.00     0.074 A 
ATOM     70  C   UNL A   1      44.285  32.918  29.169  1.00  0.00     0.031 C 
ATOM     71  C   UNL A   1      42.287  34.364  29.988  1.00  0.00     0.037 A 
BRANCH  58  72
ATOM     72  C   UNL A   1      36.138  34.027  30.717  1.00  0.00     0.058 A 
ATOM     73  C   UNL A   1      35.203  34.575  29.816  1.00  0.00     0.135 A 
ATOM     74  C   UNL A   1      35.702  34.017  32.062  1.00  0.00     0.135 A 
ATOM     75  F   UNL A   1      35.383  34.513  28.490  1.00  0.00    -0.206 F 
ATOM     76  C   UNL A   1      34.006  35.171  30.225  1.00  0.00     0.059 A 
ATOM     77  C   UNL A   1      34.556  34.679  32.508  1.00  0.00     0.059 A 
ATOM     78  F   UNL A   1      36.331  33.288  32.997  1.00  0.00    -0.206 F 
ATOM     79  C   UNL A   1      33.705  35.249  31.577  1.00  0.00     0.060 A 
BRANCH  79  80
ATOM     80  S   UNL A   1      32.149  35.998  32.090  1.00  0.00     0.124 S 
ATOM     81  O   UNL A   1      32.593  37.057  32.989  1.00  0.00    -0.237 OA
ATOM     82  O   UNL A   1      31.592  36.436  30.815  1.00  0.00    -0.237 OA
ATOM     83  O   UNL A   1      31.437  34.897  32.735  1.00  0.00    -0.744 OA
ENDBRANCH  79  80
ENDBRANCH  58  72
BRANCH  59  84
ATOM     84  C   UNL A   1      44.191  28.613  30.278  1.00  0.00     0.058 A 
ATOM     85  C   UNL A   1      44.765  28.889  29.029  1.00  0.00     0.135 A 
ATOM     86  C   UNL A   1      45.068  27.941  31.107  1.00  0.00     0.135 A 
ATOM     87  F   UNL A   1      44.018  28.818  27.921  1.00  0.00    -0.206 F 
ATOM     88  C   UNL A   1      46.108  29.240  28.911  1.00  0.00     0.059 A 
ATOM     89  C   UNL A   1      46.419  28.293  31.008  1.00  0.00     0.059 A 
ATOM     90  F   UNL A   1      44.623  27.350  32.230  1.00  0.00    -0.206 F 
ATOM     91  C   UNL A   1      46.895  29.153  30.037  1.00  0.00     0.060 A 
BRANCH  91  92
ATOM     92  S   UNL A   1      48.390  30.475  30.312  1.00  0.00     0.124 S 
ATOM     93  O   UNL A   1      49.527  29.582  30.125  1.00  0.00    -0.237 OA
ATOM     94  O   UNL A   1      48.263  31.458  29.273  1.00  0.00    -0.237 OA
ATOM     95  O   UNL A   1      48.279  30.996  31.674  1.00  0.00    -0.744 OA
ENDBRANCH  91  92
ENDBRANCH  59  84
BRANCH  71  96
ATOM     96  C   UNL A   1      42.554  35.651  29.263  1.00  0.00     0.058 A 
ATOM     97  C   UNL A   1      43.460  36.612  29.743  1.00  0.00     0.135 A 
ATOM     98  C   UNL A   1      41.806  36.030  28.127  1.00  0.00     0.135 A 
ATOM     99  F   UNL A   1      44.110  36.439  30.905  1.00  0.00    -0.206 F 
ATOM    100  C   UNL A   1      43.700  37.807  29.071  1.00  0.00     0.059 A 
ATOM    101  C   UNL A   1      41.993  37.235  27.468  1.00  0.00     0.059 A 
ATOM    102  F   UNL A   1      40.855  35.249  27.600  1.00  0.00    -0.206 F 
ATOM    103  C   UNL A   1      42.970  38.101  27.924  1.00  0.00     0.060 A 
BRANCH 103 104
ATOM    104  S   UNL A   1      43.285  39.638  27.051  1.00  0.00     0.124 S 
ATOM    105  O   UNL A   1      43.361  40.606  28.141  1.00  0.00    -0.237 OA
ATOM    106  O   UNL A   1      44.548  39.336  26.384  1.00  0.00    -0.237 OA
ATOM    107  O   UNL A   1      42.127  39.776  26.174  1.00  0.00    -0.744 OA
ENDBRANCH 103 104
ENDBRANCH  71  96
ENDBRANCH  45  46
ENDBRANCH  37  40
ENDBRANCH  35  36
ENDBRANCH   1  35
TORSDOF 16
ENDMDL
MODEL 3
REMARK VINA RESULT:     -13.9      3.673      9.281
REMARK SMILES Cc1c(NC(=O)c2cccc(-c3cc4ccccc4oc3=O)c2)cccc1C(=O)NCCCNC(=O)c1ccc(-c2c3nc(c(-c4c(F)cc(S(=O)(=O)[O-])cc4F)c4ccc([nH]4)c(-c4c(F)cc(S(=O)(=O)[O-])cc4F)c4nc(c(-c5c(F)cc(S(=O)(=O)[O-])cc5F)c5ccc2[nH]5)C=C4)C=C3)cc1
REMARK SMILES IDX 32 1 31 2 30 3 28 4 29 5 27 7 1 8 2 9 3 10 24 11 26 12 25 13
REMARK SMILES IDX 4 14 5 15 6 17 7 18 8 19 23 20 9 21 11 22 10 23 12 24 13 25
REMARK SMILES IDX 21 26 14 27 20 28 22 29 15 30 19 31 16 32 18 33 17 34 33 35
REMARK SMILES IDX 34 36 35 37 36 39 37 40 38 41 102 42 39 43 101 44 40 45
REMARK SMILES IDX 41 46 42 47 95 48 43 49 100 50 94 51 96 52 44 53 99 54 93 55
REMARK SMILES IDX 92 56 45 58 79 59 58 60 78 61 59 62 62 63 77 64 97 65 60 66
REMARK SMILES IDX 61 67 76 69 98 70 63 71 46 72 47 73 56 74 48 75 49 76 55 77
REMARK SMILES IDX 57 78 50 79 51 80 52 81 53 82 54 83 80 84 81 85 90 86 82 87
REMARK SMILES IDX 83 88 89 89 91 90 84 91 85 92 86 93 87 94 88 95 64 96 65 97
REMARK SMILES IDX 74 98 66 99 67 100 73 101 75 102 68 103 69 104 70 105 71 106
REMARK SMILES IDX 72 107
REMARK H PARENT 30 6 4 16 34 38 96 57 62 68
REMARK Flexibility Score: inf
ROOT
ATOM      1  C   UNL A   1      35.165  32.893  32.448  1.00  0.00     0.042 C 
ENDROOT
BRANCH   1   2
ATOM      2  C   UNL A   1      34.398  32.630  31.021  1.00  0.00     0.118 C 
BRANCH   2   3
ATOM      3  N   UNL A   1      34.942  33.248  29.779  1.00  0.00    -0.352 N 
ATOM      4  C   UNL A   1      34.841  33.035  28.411  1.00  0.00     0.251 C 
ATOM      5  O   UNL A   1      35.143  33.943  27.630  1.00  0.00    -0.269 OA
ATOM      6  H   UNL A   1      35.528  34.011  29.983  1.00  0.00     0.163 HD
BRANCH   4   7
ATOM      7  C   UNL A   1      34.415  31.747  27.775  1.00  0.00     0.044 A 
ATOM      8  C   UNL A   1      32.068  32.548  27.206  1.00  0.00     0.047 C 
ATOM      9  C   UNL A   1      33.203  31.569  27.101  1.00  0.00    -0.015 A 
ATOM     10  C   UNL A   1      32.926  30.338  26.472  1.00  0.00     0.045 A 
ATOM     11  C   UNL A   1      33.718  29.214  26.700  1.00  0.00     0.026 A 
ATOM     12  C   UNL A   1      35.197  30.590  28.022  1.00  0.00     0.014 A 
ATOM     13  C   UNL A   1      34.835  29.331  27.521  1.00  0.00     0.003 A 
BRANCH  10  14
ATOM     14  N   UNL A   1      31.809  30.312  25.630  1.00  0.00    -0.322 N 
ATOM     15  C   UNL A   1      31.234  29.289  24.928  1.00  0.00     0.255 C 
ATOM     16  H   UNL A   1      31.359  31.182  25.524  1.00  0.00     0.170 HD
ATOM     17  O   UNL A   1      30.269  29.539  24.204  1.00  0.00    -0.269 OA
BRANCH  15  18
ATOM     18  C   UNL A   1      31.670  27.879  25.083  1.00  0.00     0.040 A 
ATOM     19  C   UNL A   1      31.283  27.222  26.252  1.00  0.00     0.014 A 
ATOM     20  C   UNL A   1      32.535  27.237  24.185  1.00  0.00     0.022 A 
ATOM     21  C   UNL A   1      31.689  25.911  26.483  1.00  0.00     0.001 A 
ATOM     22  C   UNL A   1      32.948  25.915  24.398  1.00  0.00    -0.010 A 
ATOM     23  C   UNL A   1      32.501  25.258  25.553  1.00  0.00     0.009 A 
BRANCH  22  24
ATOM     24  C   UNL A   1      33.965  25.230  23.550  1.00  0.00     0.068 A 
ATOM     25  C   UNL A   1      34.726  24.193  23.972  1.00  0.00     0.028 A 
ATOM     26  C   UNL A   1      33.468  24.960  22.160  1.00  0.00     0.344 A 
ATOM     27  C   UNL A   1      34.039  22.883  23.877  1.00  0.00     0.018 A 
ATOM     28  O   UNL A   1      32.688  23.808  22.073  1.00  0.00    -0.422 OA
ATOM     29  O   UNL A   1      33.625  25.754  21.241  1.00  0.00    -0.246 OA
ATOM     30  C   UNL A   1      34.407  21.783  24.646  1.00  0.00     0.012 A 
ATOM     31  C   UNL A   1      32.949  22.776  23.001  1.00  0.00     0.138 A 
ATOM     32  C   UNL A   1      33.632  20.620  24.587  1.00  0.00     0.001 A 
ATOM     33  C   UNL A   1      32.137  21.650  22.986  1.00  0.00     0.048 A 
ATOM     34  C   UNL A   1      32.478  20.570  23.796  1.00  0.00     0.004 A 
ENDBRANCH  22  24
ENDBRANCH  15  18
ENDBRANCH  10  14
ENDBRANCH   4   7
ENDBRANCH   2   3
ENDBRANCH   1   2
BRANCH   1  35
ATOM     35  C   UNL A   1      36.637  32.284  32.589  1.00  0.00     0.118 C 
BRANCH  35  36
ATOM     36  N   UNL A   1      37.820  32.308  31.554  1.00  0.00    -0.352 N 
ATOM     37  C   UNL A   1      38.045  31.806  30.188  1.00  0.00     0.251 C 
ATOM     38  H   UNL A   1      38.611  32.777  31.910  1.00  0.00     0.163 HD
ATOM     39  O   UNL A   1      38.149  32.720  29.349  1.00  0.00    -0.269 OA
BRANCH  37  40
ATOM     40  C   UNL A   1      38.243  30.350  29.551  1.00  0.00     0.039 A 
ATOM     41  C   UNL A   1      38.242  29.176  30.374  1.00  0.00     0.014 A 
ATOM     42  C   UNL A   1      38.543  30.048  28.231  1.00  0.00     0.014 A 
ATOM     43  C   UNL A   1      39.103  28.044  30.061  1.00  0.00     0.010 A 
ATOM     44  C   UNL A   1      39.392  28.939  27.916  1.00  0.00     0.010 A 
ATOM     45  C   UNL A   1      39.895  28.077  28.900  1.00  0.00    -0.014 A 
BRANCH  45  46
ATOM     46  C   UNL A   1      41.292  27.470  28.754  1.00  0.00     0.031 A 
ATOM     47  C   UNL A   1      41.469  26.075  28.364  1.00  0.00     0.074 A 
ATOM     48  C   UNL A   1      42.522  28.079  28.775  1.00  0.00     0.049 A 
ATOM     49  N   UNL A   1      42.259  25.234  28.953  1.00  0.00    -0.248 NA
ATOM     50  C   UNL A   1      40.839  25.584  27.154  1.00  0.00     0.031 C 
ATOM     51  C   UNL A   1      43.893  27.617  28.470  1.00  0.00     0.029 A 
ATOM     52  N   UNL A   1      42.822  29.396  29.040  1.00  0.00    -0.354 N 
ATOM     53  C   UNL A   1      42.484  24.239  28.025  1.00  0.00     0.074 A 
ATOM     54  C   UNL A   1      41.433  24.396  27.035  1.00  0.00     0.031 C 
ATOM     55  C   UNL A   1      44.796  28.498  28.963  1.00  0.00     0.029 A 
ATOM     56  C   UNL A   1      44.064  29.543  29.649  1.00  0.00     0.049 A 
ATOM     57  H   UNL A   1      42.226  30.148  28.822  1.00  0.00     0.167 HD
ATOM     58  C   UNL A   1      43.671  23.557  27.964  1.00  0.00     0.037 A 
ATOM     59  C   UNL A   1      44.122  29.986  30.948  1.00  0.00     0.037 A 
ATOM     60  C   UNL A   1      44.726  24.185  28.783  1.00  0.00     0.049 A 
ATOM     61  C   UNL A   1      44.533  28.854  31.848  1.00  0.00     0.074 A 
ATOM     62  C   UNL A   1      45.910  24.850  28.482  1.00  0.00     0.029 A 
ATOM     63  N   UNL A   1      44.510  24.439  30.126  1.00  0.00    -0.354 N 
ATOM     64  N   UNL A   1      45.095  27.771  31.404  1.00  0.00    -0.248 NA
ATOM     65  C   UNL A   1      44.254  28.790  33.282  1.00  0.00     0.031 C 
ATOM     66  C   UNL A   1      46.403  25.475  29.665  1.00  0.00     0.029 A 
ATOM     67  C   UNL A   1      45.532  25.180  30.696  1.00  0.00     0.049 A 
ATOM     68  H   UNL A   1      43.717  24.129  30.621  1.00  0.00     0.167 HD
ATOM     69  C   UNL A   1      45.091  26.823  32.380  1.00  0.00     0.074 A 
ATOM     70  C   UNL A   1      44.612  27.524  33.561  1.00  0.00     0.031 C 
ATOM     71  C   UNL A   1      45.431  25.531  32.108  1.00  0.00     0.037 A 
BRANCH  58  72
ATOM     72  C   UNL A   1      43.948  22.493  26.909  1.00  0.00     0.058 A 
ATOM     73  C   UNL A   1      43.128  21.356  26.755  1.00  0.00     0.135 A 
ATOM     74  C   UNL A   1      44.996  22.578  25.964  1.00  0.00     0.135 A 
ATOM     75  F   UNL A   1      41.998  21.202  27.457  1.00  0.00    -0.206 F 
ATOM     76  C   UNL A   1      43.399  20.338  25.835  1.00  0.00     0.059 A 
ATOM     77  C   UNL A   1      45.339  21.541  25.094  1.00  0.00     0.059 A 
ATOM     78  F   UNL A   1      45.686  23.714  25.785  1.00  0.00    -0.206 F 
ATOM     79  C   UNL A   1      44.526  20.422  25.029  1.00  0.00     0.060 A 
BRANCH  79  80
ATOM     80  S   UNL A   1      44.849  19.117  23.831  1.00  0.00     0.124 S 
ATOM     81  O   UNL A   1      43.998  18.034  24.311  1.00  0.00    -0.237 OA
ATOM     82  O   UNL A   1      44.434  19.747  22.581  1.00  0.00    -0.237 OA
ATOM     83  O   UNL A   1      46.284  18.881  23.962  1.00  0.00    -0.744 OA
ENDBRANCH  79  80
ENDBRANCH  58  72
BRANCH  59  84
ATOM     84  C   UNL A   1      43.115  31.086  31.361  1.00  0.00     0.058 A 
ATOM     85  C   UNL A   1      42.615  30.930  32.661  1.00  0.00     0.135 A 
ATOM     86  C   UNL A   1      43.597  32.362  31.147  1.00  0.00     0.135 A 
ATOM     87  F   UNL A   1      41.526  30.182  32.873  1.00  0.00    -0.206 F 
ATOM     88  C   UNL A   1      43.231  31.540  33.752  1.00  0.00     0.059 A 
ATOM     89  C   UNL A   1      44.230  32.983  32.230  1.00  0.00     0.059 A 
ATOM     90  F   UNL A   1      43.861  32.789  29.899  1.00  0.00    -0.206 F 
ATOM     91  C   UNL A   1      44.249  32.431  33.497  1.00  0.00     0.060 A 
BRANCH  91  92
ATOM     92  S   UNL A   1      45.793  32.572  34.783  1.00  0.00     0.124 S 
ATOM     93  O   UNL A   1      46.485  31.334  34.453  1.00  0.00    -0.237 OA
ATOM     94  O   UNL A   1      46.528  33.750  34.412  1.00  0.00    -0.237 OA
ATOM     95  O   UNL A   1      45.244  32.587  36.138  1.00  0.00    -0.744 OA
ENDBRANCH  91  92
ENDBRANCH  59  84
BRANCH  71  96
ATOM     96  C   UNL A   1      45.644  24.483  33.161  1.00  0.00     0.058 A 
ATOM     97  C   UNL A   1      44.644  23.565  33.523  1.00  0.00     0.135 A 
ATOM     98  C   UNL A   1      46.817  24.450  33.947  1.00  0.00     0.135 A 
ATOM     99  F   UNL A   1      43.424  23.604  32.963  1.00  0.00    -0.206 F 
ATOM    100  C   UNL A   1      44.843  22.598  34.505  1.00  0.00     0.059 A 
ATOM    101  C   UNL A   1      47.020  23.528  34.962  1.00  0.00     0.059 A 
ATOM    102  F   UNL A   1      47.826  25.311  33.767  1.00  0.00    -0.206 F 
ATOM    103  C   UNL A   1      46.043  22.580  35.209  1.00  0.00     0.060 A 
BRANCH 103 104
ATOM    104  S   UNL A   1      46.305  21.329  36.469  1.00  0.00     0.124 S 
ATOM    105  O   UNL A   1      47.758  21.195  36.477  1.00  0.00    -0.237 OA
ATOM    106  O   UNL A   1      45.723  21.976  37.642  1.00  0.00    -0.237 OA
ATOM    107  O   UNL A   1      45.575  20.173  35.961  1.00  0.00    -0.744 OA
ENDBRANCH 103 104
ENDBRANCH  71  96
ENDBRANCH  45  46
ENDBRANCH  37  40
ENDBRANCH  35  36
ENDBRANCH   1  35
TORSDOF 16
ENDMDL
