MODEL 1
REMARK VINA RESULT:     -10.7      0.000      0.000
REMARK SMILES CSCC[C@H](C(=O)NCCCNC(=O)c1ccc(-c2c3nc(c(-c4c(F)cc(S(=O)(=O)[O-])cc4F)c4ccc([nH]4)c(-c4c(F)cc(S(=O)(=O)[O-])cc4F)c4nc(c(-c5c(F)cc(S(=O)(=O)[O-])cc5F)c5ccc2[nH]5)C=C4)C=C3)cc1)N1C(=O)/C(=C/c2cn(C)c3ccccc23)SC1=S
REMARK SMILES IDX 10 1 9 2 8 3 6 4 7 5 5 7 4 8 3 9 2 10 1 11 81 12 82 13 97 14
REMARK SMILES IDX 83 15 84 16 96 17 98 18 85 19 86 20 87 21 95 22 88 23 90 24
REMARK SMILES IDX 94 25 89 26 91 27 93 28 92 29 11 30 12 31 13 32 14 34 15 35
REMARK SMILES IDX 16 36 80 37 17 38 79 39 18 40 19 41 20 42 73 43 21 44 78 45
REMARK SMILES IDX 72 46 74 47 22 48 77 49 71 50 70 51 23 53 57 54 36 55 56 56
REMARK SMILES IDX 37 57 40 58 55 59 75 60 38 61 39 62 54 64 76 65 41 66 24 67
REMARK SMILES IDX 25 68 34 69 26 70 27 71 33 72 35 73 28 74 29 75 30 76 31 77
REMARK SMILES IDX 32 78 58 79 59 80 68 81 60 82 61 83 67 84 69 85 62 86 63 87
REMARK SMILES IDX 64 88 65 89 66 90 42 91 43 92 52 93 44 94 45 95 51 96 53 97
REMARK SMILES IDX 46 98 47 99 48 100 49 101 50 102
REMARK H PARENT 8 6 12 33 74 52 40 63
REMARK Flexibility Score: inf
ROOT
ATOM      1  C   UNL A   1      32.956  28.441  26.885  1.00  0.00     0.042 C 
ENDROOT
BRANCH   1   2
ATOM      2  C   UNL A   1      32.162  29.394  25.983  1.00  0.00     0.117 C 
BRANCH   2   3
ATOM      3  N   UNL A   1      32.668  29.448  24.608  1.00  0.00    -0.354 N 
ATOM      4  C   UNL A   1      32.484  28.734  23.455  1.00  0.00     0.243 C 
ATOM      5  O   UNL A   1      32.982  29.252  22.441  1.00  0.00    -0.273 OA
ATOM      6  H   UNL A   1      33.305  30.188  24.482  1.00  0.00     0.163 HD
BRANCH   4   7
ATOM      7  C   UNL A   1      31.713  27.356  23.296  1.00  0.00     0.182 C 
BRANCH   7   8
ATOM      8  C   UNL A   1      30.190  27.577  22.909  1.00  0.00     0.046 C 
BRANCH   8   9
ATOM      9  C   UNL A   1      29.582  28.998  22.990  1.00  0.00     0.072 C 
BRANCH   9  10
ATOM     10  S   UNL A   1      27.853  29.300  22.524  1.00  0.00    -0.165 SA
ATOM     11  C   UNL A   1      28.053  30.670  21.357  1.00  0.00     0.085 C 
ENDBRANCH   9  10
ENDBRANCH   8   9
ENDBRANCH   7   8
BRANCH   7  12
ATOM     12  N   UNL A   1      32.632  25.963  22.636  1.00  0.00    -0.280 N 
ATOM     13  C   UNL A   1      33.583  25.905  23.529  1.00  0.00     0.266 C 
ATOM     14  C   UNL A   1      32.648  25.162  20.790  1.00  0.00     0.149 C 
ATOM     15  O   UNL A   1      34.192  26.536  24.339  1.00  0.00    -0.268 OA
ATOM     16  C   UNL A   1      33.568  24.670  22.940  1.00  0.00     0.081 C 
ATOM     17  S   UNL A   1      33.527  23.983  20.545  1.00  0.00    -0.054 SA
ATOM     18  S   UNL A   1      31.907  25.525  18.993  1.00  0.00    -0.052 S 
ATOM     19  C   UNL A   1      34.357  23.955  23.904  1.00  0.00     0.031 C 
BRANCH  19  20
ATOM     20  C   UNL A   1      35.036  22.919  23.253  1.00  0.00     0.001 A 
ATOM     21  C   UNL A   1      36.319  22.479  23.616  1.00  0.00     0.094 A 
ATOM     22  C   UNL A   1      34.168  22.057  23.954  1.00  0.00     0.007 A 
ATOM     23  N   UNL A   1      36.456  22.323  25.005  1.00  0.00    -0.350 N 
ATOM     24  C   UNL A   1      35.206  22.516  25.576  1.00  0.00     0.048 A 
ATOM     25  C   UNL A   1      32.224  22.070  24.433  1.00  0.00     0.011 A 
ATOM     26  C   UNL A   1      37.513  21.574  25.651  1.00  0.00     0.149 C 
ATOM     27  C   UNL A   1      34.300  22.904  27.251  1.00  0.00     0.027 A 
ATOM     28  C   UNL A   1      31.291  22.350  26.147  1.00  0.00     0.001 A 
ATOM     29  C   UNL A   1      32.402  22.818  27.766  1.00  0.00     0.002 A 
ENDBRANCH  19  20
ENDBRANCH   7  12
ENDBRANCH   4   7
ENDBRANCH   2   3
ENDBRANCH   1   2
BRANCH   1  30
ATOM     30  C   UNL A   1      34.375  28.889  27.240  1.00  0.00     0.118 C 
BRANCH  30  31
ATOM     31  N   UNL A   1      34.377  30.104  28.035  1.00  0.00    -0.352 N 
ATOM     32  C   UNL A   1      35.343  30.638  28.857  1.00  0.00     0.251 C 
ATOM     33  H   UNL A   1      33.549  30.634  27.977  1.00  0.00     0.163 HD
ATOM     34  O   UNL A   1      35.007  31.526  29.639  1.00  0.00    -0.269 OA
BRANCH  32  35
ATOM     35  C   UNL A   1      36.760  30.189  28.828  1.00  0.00     0.039 A 
ATOM     36  C   UNL A   1      37.396  29.923  30.049  1.00  0.00     0.014 A 
ATOM     37  C   UNL A   1      37.510  30.134  27.649  1.00  0.00     0.014 A 
ATOM     38  C   UNL A   1      38.757  29.597  30.084  1.00  0.00     0.010 A 
ATOM     39  C   UNL A   1      38.852  29.737  27.679  1.00  0.00     0.010 A 
ATOM     40  C   UNL A   1      39.501  29.490  28.898  1.00  0.00    -0.014 A 
BRANCH  40  41
ATOM     41  C   UNL A   1      40.954  29.162  28.942  1.00  0.00     0.031 A 
ATOM     42  C   UNL A   1      41.446  27.789  28.550  1.00  0.00     0.074 A 
ATOM     43  C   UNL A   1      41.838  30.097  29.344  1.00  0.00     0.049 A 
ATOM     44  N   UNL A   1      42.673  27.333  28.495  1.00  0.00    -0.248 NA
ATOM     45  C   UNL A   1      40.425  26.789  28.199  1.00  0.00     0.031 C 
ATOM     46  C   UNL A   1      41.491  31.443  29.806  1.00  0.00     0.029 A 
ATOM     47  N   UNL A   1      43.209  30.066  29.421  1.00  0.00    -0.354 N 
ATOM     48  C   UNL A   1      42.570  25.998  28.116  1.00  0.00     0.074 A 
ATOM     49  C   UNL A   1      41.158  25.702  28.010  1.00  0.00     0.031 C 
ATOM     50  C   UNL A   1      42.617  32.119  30.084  1.00  0.00     0.029 A 
ATOM     51  C   UNL A   1      43.766  31.252  29.843  1.00  0.00     0.049 A 
ATOM     52  H   UNL A   1      43.743  29.270  29.197  1.00  0.00     0.167 HD
ATOM     53  C   UNL A   1      43.558  25.107  27.853  1.00  0.00     0.037 A 
ATOM     54  C   UNL A   1      45.056  31.606  30.004  1.00  0.00     0.037 A 
ATOM     55  C   UNL A   1      44.964  25.414  27.930  1.00  0.00     0.049 A 
ATOM     56  C   UNL A   1      46.137  30.616  29.662  1.00  0.00     0.074 A 
ATOM     57  C   UNL A   1      46.044  24.600  27.633  1.00  0.00     0.029 A 
ATOM     58  N   UNL A   1      45.486  26.636  28.330  1.00  0.00    -0.354 N 
ATOM     59  N   UNL A   1      46.018  29.378  29.243  1.00  0.00    -0.248 NA
ATOM     60  C   UNL A   1      47.525  31.077  29.794  1.00  0.00     0.031 C 
ATOM     61  C   UNL A   1      47.218  25.318  27.886  1.00  0.00     0.029 A 
ATOM     62  C   UNL A   1      46.870  26.595  28.297  1.00  0.00     0.049 A 
ATOM     63  H   UNL A   1      44.951  27.418  28.598  1.00  0.00     0.167 HD
ATOM     64  C   UNL A   1      47.315  28.920  29.040  1.00  0.00     0.074 A 
ATOM     65  C   UNL A   1      48.201  30.022  29.362  1.00  0.00     0.031 C 
ATOM     66  C   UNL A   1      47.737  27.700  28.625  1.00  0.00     0.037 A 
BRANCH  53  67
ATOM     67  C   UNL A   1      43.153  23.713  27.447  1.00  0.00     0.058 A 
ATOM     68  C   UNL A   1      42.826  22.733  28.399  1.00  0.00     0.135 A 
ATOM     69  C   UNL A   1      43.062  23.358  26.091  1.00  0.00     0.135 A 
ATOM     70  F   UNL A   1      42.907  23.011  29.711  1.00  0.00    -0.206 F 
ATOM     71  C   UNL A   1      42.457  21.445  28.025  1.00  0.00     0.059 A 
ATOM     72  C   UNL A   1      42.667  22.084  25.693  1.00  0.00     0.059 A 
ATOM     73  F   UNL A   1      43.360  24.254  25.136  1.00  0.00    -0.206 F 
ATOM     74  C   UNL A   1      42.382  21.128  26.668  1.00  0.00     0.060 A 
BRANCH  74  75
ATOM     75  S   UNL A   1      41.903  19.452  26.197  1.00  0.00     0.124 S 
ATOM     76  O   UNL A   1      42.290  18.696  27.385  1.00  0.00    -0.237 OA
ATOM     77  O   UNL A   1      40.467  19.587  25.974  1.00  0.00    -0.237 OA
ATOM     78  O   UNL A   1      42.699  19.193  25.002  1.00  0.00    -0.744 OA
ENDBRANCH  74  75
ENDBRANCH  53  67
BRANCH  54  79
ATOM     79  C   UNL A   1      45.396  32.979  30.466  1.00  0.00     0.058 A 
ATOM     80  C   UNL A   1      45.516  34.040  29.555  1.00  0.00     0.135 A 
ATOM     81  C   UNL A   1      45.585  33.263  31.827  1.00  0.00     0.135 A 
ATOM     82  F   UNL A   1      45.350  33.817  28.242  1.00  0.00    -0.206 F 
ATOM     83  C   UNL A   1      45.828  35.329  29.973  1.00  0.00     0.059 A 
ATOM     84  C   UNL A   1      45.872  34.550  32.272  1.00  0.00     0.059 A 
ATOM     85  F   UNL A   1      45.462  32.289  32.741  1.00  0.00    -0.206 F 
ATOM     86  C   UNL A   1      46.001  35.575  31.336  1.00  0.00     0.060 A 
BRANCH  86  87
ATOM     87  S   UNL A   1      46.346  37.264  31.876  1.00  0.00     0.124 S 
ATOM     88  O   UNL A   1      46.841  37.044  33.230  1.00  0.00    -0.237 OA
ATOM     89  O   UNL A   1      47.336  37.702  30.897  1.00  0.00    -0.237 OA
ATOM     90  O   UNL A   1      45.046  37.919  31.776  1.00  0.00    -0.744 OA
ENDBRANCH  86  87
ENDBRANCH  54  79
BRANCH  66  91
ATOM     91  C   UNL A   1      49.221  27.507  28.469  1.00  0.00     0.058 A 
ATOM     92  C   UNL A   1      50.000  26.933  29.486  1.00  0.00     0.135 A 
ATOM     93  C   UNL A   1      49.868  27.897  27.287  1.00  0.00     0.135 A 
ATOM     94  F   UNL A   1      49.431  26.544  30.637  1.00  0.00    -0.206 F 
ATOM     95  C   UNL A   1      51.379  26.796  29.353  1.00  0.00     0.059 A 
ATOM     96  C   UNL A   1      51.240  27.743  27.121  1.00  0.00     0.059 A 
ATOM     97  F   UNL A   1      49.167  28.437  26.277  1.00  0.00    -0.206 F 
ATOM     98  C   UNL A   1      51.991  27.213  28.169  1.00  0.00     0.060 A 
BRANCH  98  99
ATOM     99  S   UNL A   1      53.782  27.045  28.012  1.00  0.00     0.124 S 
ATOM    100  O   UNL A   1      54.078  28.036  26.983  1.00  0.00    -0.237 OA
ATOM    101  O   UNL A   1      54.249  27.370  29.357  1.00  0.00    -0.237 OA
ATOM    102  O   UNL A   1      53.957  25.652  27.613  1.00  0.00    -0.744 OA
ENDBRANCH  98  99
ENDBRANCH  66  91
ENDBRANCH  40  41
ENDBRANCH  32  35
ENDBRANCH  30  31
ENDBRANCH   1  30
TORSDOF 18
ENDMDL
MODEL 2
REMARK VINA RESULT:     -10.4      6.034     10.147
REMARK SMILES CSCC[C@H](C(=O)NCCCNC(=O)c1ccc(-c2c3nc(c(-c4c(F)cc(S(=O)(=O)[O-])cc4F)c4ccc([nH]4)c(-c4c(F)cc(S(=O)(=O)[O-])cc4F)c4nc(c(-c5c(F)cc(S(=O)(=O)[O-])cc5F)c5ccc2[nH]5)C=C4)C=C3)cc1)N1C(=O)/C(=C/c2cn(C)c3ccccc23)SC1=S
REMARK SMILES IDX 10 1 9 2 8 3 6 4 7 5 5 7 4 8 3 9 2 10 1 11 81 12 82 13 97 14
REMARK SMILES IDX 83 15 84 16 96 17 98 18 85 19 86 20 87 21 95 22 88 23 90 24
REMARK SMILES IDX 94 25 89 26 91 27 93 28 92 29 11 30 12 31 13 32 14 34 15 35
REMARK SMILES IDX 16 36 80 37 17 38 79 39 18 40 19 41 20 42 73 43 21 44 78 45
REMARK SMILES IDX 72 46 74 47 22 48 77 49 71 50 70 51 23 53 57 54 36 55 56 56
REMARK SMILES IDX 37 57 40 58 55 59 75 60 38 61 39 62 54 64 76 65 41 66 24 67
REMARK SMILES IDX 25 68 34 69 26 70 27 71 33 72 35 73 28 74 29 75 30 76 31 77
REMARK SMILES IDX 32 78 58 79 59 80 68 81 60 82 61 83 67 84 69 85 62 86 63 87
REMARK SMILES IDX 64 88 65 89 66 90 42 91 43 92 52 93 44 94 45 95 51 96 53 97
REMARK SMILES IDX 46 98 47 99 48 100 49 101 50 102
REMARK H PARENT 8 6 12 33 74 52 40 63
REMARK Flexibility Score: inf
ROOT
ATOM      1  C   UNL A   1      33.846  33.558  29.164  1.00  0.00     0.042 C 
ENDROOT
BRANCH   1   2
ATOM      2  C   UNL A   1      33.892  32.898  27.780  1.00  0.00     0.117 C 
BRANCH   2   3
ATOM      3  N   UNL A   1      32.577  32.796  27.143  1.00  0.00    -0.354 N 
ATOM      4  C   UNL A   1      31.840  31.812  26.539  1.00  0.00     0.243 C 
ATOM      5  O   UNL A   1      30.661  32.123  26.298  1.00  0.00    -0.273 OA
ATOM      6  H   UNL A   1      32.098  33.656  27.151  1.00  0.00     0.163 HD
BRANCH   4   7
ATOM      7  C   UNL A   1      32.334  30.358  26.139  1.00  0.00     0.182 C 
BRANCH   7   8
ATOM      8  C   UNL A   1      32.747  29.507  27.413  1.00  0.00     0.046 C 
BRANCH   8   9
ATOM      9  C   UNL A   1      34.097  28.750  27.417  1.00  0.00     0.072 C 
BRANCH   9  10
ATOM     10  S   UNL A   1      35.672  29.653  27.451  1.00  0.00    -0.165 SA
ATOM     11  C   UNL A   1      35.935  29.805  29.236  1.00  0.00     0.085 C 
ENDBRANCH   9  10
ENDBRANCH   8   9
ENDBRANCH   7   8
BRANCH   7  12
ATOM     12  N   UNL A   1      31.544  29.573  24.731  1.00  0.00    -0.280 N 
ATOM     13  C   UNL A   1      32.561  28.888  24.283  1.00  0.00     0.266 C 
ATOM     14  C   UNL A   1      29.872  30.066  23.725  1.00  0.00     0.149 C 
ATOM     15  O   UNL A   1      33.754  28.830  24.252  1.00  0.00    -0.268 OA
ATOM     16  C   UNL A   1      31.457  28.277  23.754  1.00  0.00     0.081 C 
ATOM     17  S   UNL A   1      29.460  29.200  22.584  1.00  0.00    -0.054 SA
ATOM     18  S   UNL A   1      28.534  31.520  23.666  1.00  0.00    -0.052 S 
ATOM     19  C   UNL A   1      32.066  27.049  23.327  1.00  0.00     0.031 C 
BRANCH  19  20
ATOM     20  C   UNL A   1      31.369  26.563  22.215  1.00  0.00     0.001 A 
ATOM     21  C   UNL A   1      31.981  25.885  21.147  1.00  0.00     0.094 A 
ATOM     22  C   UNL A   1      30.938  25.531  23.073  1.00  0.00     0.007 A 
ATOM     23  N   UNL A   1      32.892  24.911  21.587  1.00  0.00    -0.350 N 
ATOM     24  C   UNL A   1      32.785  24.825  22.968  1.00  0.00     0.048 A 
ATOM     25  C   UNL A   1      30.334  25.418  24.978  1.00  0.00     0.011 A 
ATOM     26  C   UNL A   1      33.412  23.837  20.767  1.00  0.00     0.149 C 
ATOM     27  C   UNL A   1      33.695  24.199  24.567  1.00  0.00     0.027 A 
ATOM     28  C   UNL A   1      31.196  24.684  26.592  1.00  0.00     0.001 A 
ATOM     29  C   UNL A   1      33.081  23.983  26.425  1.00  0.00     0.002 A 
ENDBRANCH  19  20
ENDBRANCH   7  12
ENDBRANCH   4   7
ENDBRANCH   2   3
ENDBRANCH   1   2
BRANCH   1  30
ATOM     30  C   UNL A   1      33.489  35.046  29.180  1.00  0.00     0.118 C 
BRANCH  30  31
ATOM     31  N   UNL A   1      32.710  35.405  30.351  1.00  0.00    -0.352 N 
ATOM     32  C   UNL A   1      32.881  35.080  31.677  1.00  0.00     0.251 C 
ATOM     33  H   UNL A   1      31.930  35.975  30.165  1.00  0.00     0.163 HD
ATOM     34  O   UNL A   1      31.937  35.270  32.443  1.00  0.00    -0.269 OA
BRANCH  32  35
ATOM     35  C   UNL A   1      34.152  34.522  32.211  1.00  0.00     0.039 A 
ATOM     36  C   UNL A   1      35.299  35.326  32.165  1.00  0.00     0.014 A 
ATOM     37  C   UNL A   1      34.270  33.198  32.646  1.00  0.00     0.014 A 
ATOM     38  C   UNL A   1      36.541  34.813  32.560  1.00  0.00     0.010 A 
ATOM     39  C   UNL A   1      35.498  32.710  33.109  1.00  0.00     0.010 A 
ATOM     40  C   UNL A   1      36.655  33.501  33.046  1.00  0.00    -0.014 A 
BRANCH  40  41
ATOM     41  C   UNL A   1      37.982  32.954  33.447  1.00  0.00     0.031 A 
ATOM     42  C   UNL A   1      38.536  33.210  34.829  1.00  0.00     0.074 A 
ATOM     43  C   UNL A   1      38.699  32.230  32.565  1.00  0.00     0.049 A 
ATOM     44  N   UNL A   1      39.654  32.788  35.363  1.00  0.00    -0.248 NA
ATOM     45  C   UNL A   1      37.742  34.075  35.716  1.00  0.00     0.031 C 
ATOM     46  C   UNL A   1      38.308  31.958  31.180  1.00  0.00     0.029 A 
ATOM     47  N   UNL A   1      39.902  31.581  32.700  1.00  0.00    -0.354 N 
ATOM     48  C   UNL A   1      39.703  33.342  36.640  1.00  0.00     0.074 A 
ATOM     49  C   UNL A   1      38.528  34.176  36.777  1.00  0.00     0.031 C 
ATOM     50  C   UNL A   1      39.232  31.172  30.606  1.00  0.00     0.029 A 
ATOM     51  C   UNL A   1      40.294  30.900  31.570  1.00  0.00     0.049 A 
ATOM     52  H   UNL A   1      40.435  31.601  33.527  1.00  0.00     0.167 HD
ATOM     53  C   UNL A   1      40.623  33.154  37.618  1.00  0.00     0.037 A 
ATOM     54  C   UNL A   1      41.377  30.133  31.340  1.00  0.00     0.037 A 
ATOM     55  C   UNL A   1      41.775  32.298  37.488  1.00  0.00     0.049 A 
ATOM     56  C   UNL A   1      42.361  29.900  32.454  1.00  0.00     0.074 A 
ATOM     57  C   UNL A   1      42.739  31.996  38.435  1.00  0.00     0.029 A 
ATOM     58  N   UNL A   1      42.118  31.602  36.338  1.00  0.00    -0.354 N 
ATOM     59  N   UNL A   1      42.354  30.383  33.674  1.00  0.00    -0.248 NA
ATOM     60  C   UNL A   1      43.488  29.003  32.167  1.00  0.00     0.031 C 
ATOM     61  C   UNL A   1      43.682  31.145  37.848  1.00  0.00     0.029 A 
ATOM     62  C   UNL A   1      43.282  30.880  36.547  1.00  0.00     0.049 A 
ATOM     63  H   UNL A   1      41.609  31.618  35.495  1.00  0.00     0.167 HD
ATOM     64  C   UNL A   1      43.462  29.830  34.307  1.00  0.00     0.074 A 
ATOM     65  C   UNL A   1      44.103  28.961  33.340  1.00  0.00     0.031 C 
ATOM     66  C   UNL A   1      43.909  30.022  35.573  1.00  0.00     0.037 A 
BRANCH  53  67
ATOM     67  C   UNL A   1      40.417  33.881  38.922  1.00  0.00     0.058 A 
ATOM     68  C   UNL A   1      41.071  35.092  39.201  1.00  0.00     0.135 A 
ATOM     69  C   UNL A   1      39.535  33.379  39.892  1.00  0.00     0.135 A 
ATOM     70  F   UNL A   1      41.936  35.614  38.317  1.00  0.00    -0.206 F 
ATOM     71  C   UNL A   1      40.885  35.761  40.407  1.00  0.00     0.059 A 
ATOM     72  C   UNL A   1      39.311  34.046  41.094  1.00  0.00     0.059 A 
ATOM     73  F   UNL A   1      38.880  32.227  39.679  1.00  0.00    -0.206 F 
ATOM     74  C   UNL A   1      40.004  35.229  41.350  1.00  0.00     0.060 A 
BRANCH  74  75
ATOM     75  S   UNL A   1      39.774  36.108  42.910  1.00  0.00     0.124 S 
ATOM     76  O   UNL A   1      39.811  37.498  42.468  1.00  0.00    -0.237 OA
ATOM     77  O   UNL A   1      38.473  35.620  43.356  1.00  0.00    -0.237 OA
ATOM     78  O   UNL A   1      40.912  35.676  43.715  1.00  0.00    -0.744 OA
ENDBRANCH  74  75
ENDBRANCH  53  67
BRANCH  54  79
ATOM     79  C   UNL A   1      41.560  29.488  30.011  1.00  0.00     0.058 A 
ATOM     80  C   UNL A   1      42.307  30.114  29.000  1.00  0.00     0.135 A 
ATOM     81  C   UNL A   1      41.012  28.227  29.731  1.00  0.00     0.135 A 
ATOM     82  F   UNL A   1      42.847  31.323  29.217  1.00  0.00    -0.206 F 
ATOM     83  C   UNL A   1      42.491  29.521  27.756  1.00  0.00     0.059 A 
ATOM     84  C   UNL A   1      41.204  27.602  28.503  1.00  0.00     0.059 A 
ATOM     85  F   UNL A   1      40.306  27.578  30.670  1.00  0.00    -0.206 F 
ATOM     86  C   UNL A   1      41.937  28.261  27.518  1.00  0.00     0.060 A 
BRANCH  86  87
ATOM     87  S   UNL A   1      42.231  27.472  25.919  1.00  0.00     0.124 S 
ATOM     88  O   UNL A   1      42.328  28.627  25.035  1.00  0.00    -0.237 OA
ATOM     89  O   UNL A   1      43.475  26.745  26.161  1.00  0.00    -0.237 OA
ATOM     90  O   UNL A   1      41.050  26.634  25.740  1.00  0.00    -0.744 OA
ENDBRANCH  86  87
ENDBRANCH  54  79
BRANCH  66  91
ATOM     91  C   UNL A   1      45.134  29.255  35.989  1.00  0.00     0.058 A 
ATOM     92  C   UNL A   1      45.043  27.983  36.577  1.00  0.00     0.135 A 
ATOM     93  C   UNL A   1      46.414  29.797  35.793  1.00  0.00     0.135 A 
ATOM     94  F   UNL A   1      43.843  27.420  36.788  1.00  0.00    -0.206 F 
ATOM     95  C   UNL A   1      46.177  27.296  37.000  1.00  0.00     0.059 A 
ATOM     96  C   UNL A   1      47.562  29.116  36.182  1.00  0.00     0.059 A 
ATOM     97  F   UNL A   1      46.558  31.003  35.221  1.00  0.00    -0.206 F 
ATOM     98  C   UNL A   1      47.433  27.875  36.806  1.00  0.00     0.060 A 
BRANCH  98  99
ATOM     99  S   UNL A   1      48.897  26.984  37.370  1.00  0.00     0.124 S 
ATOM    100  O   UNL A   1      48.320  25.712  37.791  1.00  0.00    -0.237 OA
ATOM    101  O   UNL A   1      49.722  26.938  36.166  1.00  0.00    -0.237 OA
ATOM    102  O   UNL A   1      49.413  27.827  38.444  1.00  0.00    -0.744 OA
ENDBRANCH  98  99
ENDBRANCH  66  91
ENDBRANCH  40  41
ENDBRANCH  32  35
ENDBRANCH  30  31
ENDBRANCH   1  30
TORSDOF 18
ENDMDL
MODEL 3
REMARK VINA RESULT:     -10.2      4.018      8.545
REMARK SMILES CSCC[C@H](C(=O)NCCCNC(=O)c1ccc(-c2c3nc(c(-c4c(F)cc(S(=O)(=O)[O-])cc4F)c4ccc([nH]4)c(-c4c(F)cc(S(=O)(=O)[O-])cc4F)c4nc(c(-c5c(F)cc(S(=O)(=O)[O-])cc5F)c5ccc2[nH]5)C=C4)C=C3)cc1)N1C(=O)/C(=C/c2cn(C)c3ccccc23)SC1=S
REMARK SMILES IDX 10 1 9 2 8 3 6 4 7 5 5 7 4 8 3 9 2 10 1 11 81 12 82 13 97 14
REMARK SMILES IDX 83 15 84 16 96 17 98 18 85 19 86 20 87 21 95 22 88 23 90 24
REMARK SMILES IDX 94 25 89 26 91 27 93 28 92 29 11 30 12 31 13 32 14 34 15 35
REMARK SMILES IDX 16 36 80 37 17 38 79 39 18 40 19 41 20 42 73 43 21 44 78 45
REMARK SMILES IDX 72 46 74 47 22 48 77 49 71 50 70 51 23 53 57 54 36 55 56 56
REMARK SMILES IDX 37 57 40 58 55 59 75 60 38 61 39 62 54 64 76 65 41 66 24 67
REMARK SMILES IDX 25 68 34 69 26 70 27 71 33 72 35 73 28 74 29 75 30 76 31 77
REMARK SMILES IDX 32 78 58 79 59 80 68 81 60 82 61 83 67 84 69 85 62 86 63 87
REMARK SMILES IDX 64 88 65 89 66 90 42 91 43 92 52 93 44 94 45 95 51 96 53 97
REMARK SMILES IDX 46 98 47 99 48 100 49 101 50 102
REMARK H PARENT 8 6 12 33 74 52 40 63
REMARK Flexibility Score: inf
ROOT
ATOM      1  C   UNL A   1      32.693  28.591  26.854  1.00  0.00     0.042 C 
ENDROOT
BRANCH   1   2
ATOM      2  C   UNL A   1      31.794  29.382  25.895  1.00  0.00     0.117 C 
BRANCH   2   3
ATOM      3  N   UNL A   1      32.308  29.426  24.523  1.00  0.00    -0.354 N 
ATOM      4  C   UNL A   1      32.190  28.660  23.395  1.00  0.00     0.243 C 
ATOM      5  O   UNL A   1      32.656  29.179  22.367  1.00  0.00    -0.273 OA
ATOM      6  H   UNL A   1      32.887  30.208  24.374  1.00  0.00     0.163 HD
BRANCH   4   7
ATOM      7  C   UNL A   1      31.528  27.222  23.281  1.00  0.00     0.182 C 
BRANCH   7   8
ATOM      8  C   UNL A   1      29.982  27.313  22.936  1.00  0.00     0.046 C 
BRANCH   8   9
ATOM      9  C   UNL A   1      29.201  28.605  23.275  1.00  0.00     0.072 C 
BRANCH   9  10
ATOM     10  S   UNL A   1      28.986  29.916  22.036  1.00  0.00    -0.165 SA
ATOM     11  C   UNL A   1      28.245  31.220  23.051  1.00  0.00     0.085 C 
ENDBRANCH   9  10
ENDBRANCH   8   9
ENDBRANCH   7   8
BRANCH   7  12
ATOM     12  N   UNL A   1      32.539  25.896  22.615  1.00  0.00    -0.280 N 
ATOM     13  C   UNL A   1      33.477  25.879  23.524  1.00  0.00     0.266 C 
ATOM     14  C   UNL A   1      32.630  25.125  20.759  1.00  0.00     0.149 C 
ATOM     15  O   UNL A   1      34.035  26.533  24.353  1.00  0.00    -0.268 OA
ATOM     16  C   UNL A   1      33.544  24.655  22.916  1.00  0.00     0.081 C 
ATOM     17  S   UNL A   1      33.581  24.004  20.511  1.00  0.00    -0.054 SA
ATOM     18  S   UNL A   1      31.897  25.472  18.956  1.00  0.00    -0.052 S 
ATOM     19  C   UNL A   1      34.359  23.973  23.883  1.00  0.00     0.031 C 
BRANCH  19  20
ATOM     20  C   UNL A   1      35.107  22.989  23.228  1.00  0.00     0.001 A 
ATOM     21  C   UNL A   1      36.418  22.637  23.590  1.00  0.00     0.094 A 
ATOM     22  C   UNL A   1      34.300  22.066  23.925  1.00  0.00     0.007 A 
ATOM     23  N   UNL A   1      36.564  22.484  24.978  1.00  0.00    -0.350 N 
ATOM     24  C   UNL A   1      35.304  22.588  25.550  1.00  0.00     0.048 A 
ATOM     25  C   UNL A   1      32.359  21.943  24.403  1.00  0.00     0.011 A 
ATOM     26  C   UNL A   1      37.670  21.808  25.622  1.00  0.00     0.149 C 
ATOM     27  C   UNL A   1      34.373  22.907  27.225  1.00  0.00     0.027 A 
ATOM     28  C   UNL A   1      31.410  22.151  26.117  1.00  0.00     0.001 A 
ATOM     29  C   UNL A   1      32.484  22.689  27.739  1.00  0.00     0.002 A 
ENDBRANCH  19  20
ENDBRANCH   7  12
ENDBRANCH   4   7
ENDBRANCH   2   3
ENDBRANCH   1   2
BRANCH   1  30
ATOM     30  C   UNL A   1      34.142  29.069  26.955  1.00  0.00     0.118 C 
BRANCH  30  31
ATOM     31  N   UNL A   1      34.238  30.518  26.939  1.00  0.00    -0.352 N 
ATOM     32  C   UNL A   1      35.028  31.373  27.672  1.00  0.00     0.251 C 
ATOM     33  H   UNL A   1      33.638  30.962  26.297  1.00  0.00     0.163 HD
ATOM     34  O   UNL A   1      34.730  32.567  27.681  1.00  0.00    -0.269 OA
BRANCH  32  35
ATOM     35  C   UNL A   1      36.216  30.913  28.438  1.00  0.00     0.039 A 
ATOM     36  C   UNL A   1      37.404  31.647  28.323  1.00  0.00     0.014 A 
ATOM     37  C   UNL A   1      36.226  29.721  29.171  1.00  0.00     0.014 A 
ATOM     38  C   UNL A   1      38.578  31.200  28.941  1.00  0.00     0.010 A 
ATOM     39  C   UNL A   1      37.381  29.313  29.848  1.00  0.00     0.010 A 
ATOM     40  C   UNL A   1      38.580  30.032  29.720  1.00  0.00    -0.014 A 
BRANCH  40  41
ATOM     41  C   UNL A   1      39.836  29.549  30.360  1.00  0.00     0.031 A 
ATOM     42  C   UNL A   1      40.331  30.164  31.648  1.00  0.00     0.074 A 
ATOM     43  C   UNL A   1      40.543  28.559  29.780  1.00  0.00     0.049 A 
ATOM     44  N   UNL A   1      41.381  29.853  32.364  1.00  0.00    -0.248 NA
ATOM     45  C   UNL A   1      39.558  31.295  32.187  1.00  0.00     0.031 C 
ATOM     46  C   UNL A   1      40.209  27.919  28.506  1.00  0.00     0.029 A 
ATOM     47  N   UNL A   1      41.683  27.909  30.186  1.00  0.00    -0.354 N 
ATOM     48  C   UNL A   1      41.402  30.751  33.428  1.00  0.00     0.074 A 
ATOM     49  C   UNL A   1      40.290  31.656  33.230  1.00  0.00     0.031 C 
ATOM     50  C   UNL A   1      41.101  26.947  28.253  1.00  0.00     0.029 A 
ATOM     51  C   UNL A   1      42.083  26.907  29.332  1.00  0.00     0.049 A 
ATOM     52  H   UNL A   1      42.169  28.139  31.010  1.00  0.00     0.167 HD
ATOM     53  C   UNL A   1      42.249  30.804  34.485  1.00  0.00     0.037 A 
ATOM     54  C   UNL A   1      43.114  26.045  29.414  1.00  0.00     0.037 A 
ATOM     55  C   UNL A   1      43.337  29.881  34.693  1.00  0.00     0.049 A 
ATOM     56  C   UNL A   1      44.014  26.090  30.619  1.00  0.00     0.074 A 
ATOM     57  C   UNL A   1      44.221  29.814  35.758  1.00  0.00     0.029 A 
ATOM     58  N   UNL A   1      43.688  28.861  33.821  1.00  0.00    -0.354 N 
ATOM     59  N   UNL A   1      43.977  26.907  31.645  1.00  0.00    -0.248 NA
ATOM     60  C   UNL A   1      45.083  25.085  30.687  1.00  0.00     0.031 C 
ATOM     61  C   UNL A   1      45.126  28.775  35.512  1.00  0.00     0.029 A 
ATOM     62  C   UNL A   1      44.779  28.166  34.317  1.00  0.00     0.049 A 
ATOM     63  H   UNL A   1      43.229  28.660  32.973  1.00  0.00     0.167 HD
ATOM     64  C   UNL A   1      45.002  26.499  32.492  1.00  0.00     0.074 A 
ATOM     65  C   UNL A   1      45.627  25.351  31.867  1.00  0.00     0.031 C 
ATOM     66  C   UNL A   1      45.392  27.027  33.679  1.00  0.00     0.037 A 
BRANCH  53  67
ATOM     67  C   UNL A   1      42.028  31.889  35.506  1.00  0.00     0.058 A 
ATOM     68  C   UNL A   1      41.011  31.798  36.470  1.00  0.00     0.135 A 
ATOM     69  C   UNL A   1      42.859  33.021  35.543  1.00  0.00     0.135 A 
ATOM     70  F   UNL A   1      40.177  30.746  36.476  1.00  0.00    -0.206 F 
ATOM     71  C   UNL A   1      40.804  32.803  37.410  1.00  0.00     0.059 A 
ATOM     72  C   UNL A   1      42.689  34.024  36.493  1.00  0.00     0.059 A 
ATOM     73  F   UNL A   1      43.850  33.161  34.648  1.00  0.00    -0.206 F 
ATOM     74  C   UNL A   1      41.647  33.915  37.412  1.00  0.00     0.060 A 
BRANCH  74  75
ATOM     75  S   UNL A   1      41.365  35.210  38.638  1.00  0.00     0.124 S 
ATOM     76  O   UNL A   1      40.384  34.574  39.513  1.00  0.00    -0.237 OA
ATOM     77  O   UNL A   1      42.695  35.398  39.209  1.00  0.00    -0.237 OA
ATOM     78  O   UNL A   1      40.864  36.328  37.843  1.00  0.00    -0.744 OA
ENDBRANCH  74  75
ENDBRANCH  53  67
BRANCH  54  79
ATOM     79  C   UNL A   1      43.320  25.030  28.344  1.00  0.00     0.058 A 
ATOM     80  C   UNL A   1      44.076  25.331  27.200  1.00  0.00     0.135 A 
ATOM     81  C   UNL A   1      42.786  23.738  28.453  1.00  0.00     0.135 A 
ATOM     82  F   UNL A   1      44.603  26.555  27.047  1.00  0.00    -0.206 F 
ATOM     83  C   UNL A   1      44.281  24.392  26.194  1.00  0.00     0.059 A 
ATOM     84  C   UNL A   1      43.000  22.773  27.473  1.00  0.00     0.059 A 
ATOM     85  F   UNL A   1      42.073  23.394  29.536  1.00  0.00    -0.206 F 
ATOM     86  C   UNL A   1      43.741  23.113  26.342  1.00  0.00     0.060 A 
BRANCH  86  87
ATOM     87  S   UNL A   1      44.063  21.881  25.060  1.00  0.00     0.124 S 
ATOM     88  O   UNL A   1      43.090  20.848  25.395  1.00  0.00    -0.237 OA
ATOM     89  O   UNL A   1      43.799  22.635  23.838  1.00  0.00    -0.237 OA
ATOM     90  O   UNL A   1      45.462  21.530  25.279  1.00  0.00    -0.744 OA
ENDBRANCH  86  87
ENDBRANCH  54  79
BRANCH  66  91
ATOM     91  C   UNL A   1      46.528  26.344  34.389  1.00  0.00     0.058 A 
ATOM     92  C   UNL A   1      47.864  26.724  34.179  1.00  0.00     0.135 A 
ATOM     93  C   UNL A   1      46.278  25.301  35.294  1.00  0.00     0.135 A 
ATOM     94  F   UNL A   1      48.158  27.714  33.322  1.00  0.00    -0.206 F 
ATOM     95  C   UNL A   1      48.914  26.060  34.805  1.00  0.00     0.059 A 
ATOM     96  C   UNL A   1      47.311  24.643  35.953  1.00  0.00     0.059 A 
ATOM     97  F   UNL A   1      45.018  24.909  35.543  1.00  0.00    -0.206 F 
ATOM     98  C   UNL A   1      48.628  25.014  35.685  1.00  0.00     0.060 A 
BRANCH  98  99
ATOM     99  S   UNL A   1      49.997  24.149  36.482  1.00  0.00     0.124 S 
ATOM    100  O   UNL A   1      50.927  25.245  36.734  1.00  0.00    -0.237 OA
ATOM    101  O   UNL A   1      49.361  23.573  37.664  1.00  0.00    -0.237 OA
ATOM    102  O   UNL A   1      50.421  23.184  35.473  1.00  0.00    -0.744 OA
ENDBRANCH  98  99
ENDBRANCH  66  91
ENDBRANCH  40  41
ENDBRANCH  32  35
ENDBRANCH  30  31
ENDBRANCH   1  30
TORSDOF 18
ENDMDL
