MODEL 1
REMARK VINA RESULT:     -10.0      0.000      0.000
REMARK SMILES CC[C@]1(C(=O)NCCCNC(=O)c2ccc(-c3c4nc(c(-c5c(F)cc(S(=O)(=O)[O-])cc5F)c5ccc([nH]5)c(-c5c(F)cc(S(=O)(=O)[O-])cc5F)c5nc(c(-c6c(F)cc(S(=O)(=O)[O-])cc6F)c6ccc3[nH]6)C=C5)C=C4)cc2)CCN(C(=O)[C@]2(C)CCCO2)C1
REMARK SMILES IDX 8 1 7 2 6 3 4 4 5 5 3 7 79 8 90 9 80 10 81 11 2 12 1 13
REMARK SMILES IDX 82 14 83 15 84 16 86 17 89 18 85 19 87 20 88 21 9 22 10 23
REMARK SMILES IDX 11 24 12 26 13 27 14 28 78 29 15 30 77 31 16 32 17 33 18 34
REMARK SMILES IDX 71 35 19 36 76 37 70 38 72 39 20 40 75 41 69 42 68 43 21 45
REMARK SMILES IDX 55 46 34 47 54 48 35 49 38 50 53 51 73 52 36 53 37 54 52 56
REMARK SMILES IDX 74 57 39 58 22 59 23 60 32 61 24 62 25 63 31 64 33 65 26 66
REMARK SMILES IDX 27 67 28 68 29 69 30 70 56 71 57 72 66 73 58 74 59 75 65 76
REMARK SMILES IDX 67 77 60 78 61 79 62 80 63 81 64 82 40 83 41 84 50 85 42 86
REMARK SMILES IDX 43 87 49 88 51 89 44 90 45 91 46 92 47 93 48 94
REMARK H PARENT 6 6 10 25 72 44 38 55
REMARK Flexibility Score: inf
ROOT
ATOM      1  C   UNL A   1      41.546  21.508  26.109  1.00  0.00     0.042 C 
ENDROOT
BRANCH   1   2
ATOM      2  C   UNL A   1      42.332  22.786  25.861  1.00  0.00     0.117 C 
BRANCH   2   3
ATOM      3  N   UNL A   1      43.070  22.744  24.609  1.00  0.00    -0.355 N 
ATOM      4  C   UNL A   1      44.347  23.069  24.279  1.00  0.00     0.228 C 
ATOM      5  O   UNL A   1      44.674  22.815  23.116  1.00  0.00    -0.274 OA
ATOM      6  H   UNL A   1      42.538  22.414  23.849  1.00  0.00     0.163 HD
BRANCH   4   7
ATOM      7  C   UNL A   1      45.338  23.701  25.268  1.00  0.00     0.068 C 
ATOM      8  C   UNL A   1      46.698  24.061  24.634  1.00  0.00     0.040 C 
ATOM      9  C   UNL A   1      44.794  25.075  25.756  1.00  0.00     0.136 C 
ATOM     10  C   UNL A   1      47.131  25.272  25.438  1.00  0.00     0.121 C 
ATOM     11  N   UNL A   1      45.899  26.014  25.547  1.00  0.00    -0.339 N 
BRANCH   7  12
ATOM     12  C   UNL A   1      45.544  22.765  26.501  1.00  0.00     0.015 C 
ATOM     13  C   UNL A   1      45.192  23.369  27.862  1.00  0.00     0.005 C 
ENDBRANCH   7  12
BRANCH  11  14
ATOM     14  C   UNL A   1      45.687  27.359  25.302  1.00  0.00     0.254 C 
ATOM     15  O   UNL A   1      45.850  27.801  24.158  1.00  0.00    -0.272 OA
BRANCH  14  16
ATOM     16  C   UNL A   1      45.290  28.316  26.482  1.00  0.00     0.144 C 
ATOM     17  C   UNL A   1      43.791  28.295  26.813  1.00  0.00     0.048 C 
ATOM     18  O   UNL A   1      45.646  29.673  26.174  1.00  0.00    -0.365 OA
ATOM     19  C   UNL A   1      46.084  27.906  27.734  1.00  0.00     0.053 C 
ATOM     20  C   UNL A   1      43.315  29.725  26.677  1.00  0.00     0.032 C 
ATOM     21  C   UNL A   1      44.570  30.550  26.506  1.00  0.00     0.162 C 
ENDBRANCH  14  16
ENDBRANCH  11  14
ENDBRANCH   4   7
ENDBRANCH   2   3
ENDBRANCH   1   2
BRANCH   1  22
ATOM     22  C   UNL A   1      40.229  21.724  26.840  1.00  0.00     0.118 C 
BRANCH  22  23
ATOM     23  N   UNL A   1      39.195  22.291  25.986  1.00  0.00    -0.352 N 
ATOM     24  C   UNL A   1      38.633  23.545  25.995  1.00  0.00     0.251 C 
ATOM     25  H   UNL A   1      38.844  21.683  25.296  1.00  0.00     0.163 HD
ATOM     26  O   UNL A   1      37.645  23.774  25.309  1.00  0.00    -0.269 OA
BRANCH  24  27
ATOM     27  C   UNL A   1      39.205  24.607  26.853  1.00  0.00     0.039 A 
ATOM     28  C   UNL A   1      40.051  25.557  26.278  1.00  0.00     0.014 A 
ATOM     29  C   UNL A   1      38.908  24.667  28.216  1.00  0.00     0.014 A 
ATOM     30  C   UNL A   1      40.541  26.608  27.057  1.00  0.00     0.010 A 
ATOM     31  C   UNL A   1      39.317  25.765  28.966  1.00  0.00     0.010 A 
ATOM     32  C   UNL A   1      40.144  26.745  28.397  1.00  0.00    -0.014 A 
BRANCH  32  33
ATOM     33  C   UNL A   1      40.583  27.901  29.220  1.00  0.00     0.031 A 
ATOM     34  C   UNL A   1      41.922  27.873  29.910  1.00  0.00     0.074 A 
ATOM     35  C   UNL A   1      39.751  28.946  29.399  1.00  0.00     0.049 A 
ATOM     36  N   UNL A   1      42.451  28.750  30.723  1.00  0.00    -0.248 NA
ATOM     37  C   UNL A   1      42.765  26.688  29.679  1.00  0.00     0.031 C 
ATOM     38  C   UNL A   1      38.409  29.068  28.826  1.00  0.00     0.029 A 
ATOM     39  N   UNL A   1      39.906  30.103  30.123  1.00  0.00    -0.354 N 
ATOM     40  C   UNL A   1      43.677  28.221  31.108  1.00  0.00     0.074 A 
ATOM     41  C   UNL A   1      43.786  26.918  30.490  1.00  0.00     0.031 C 
ATOM     42  C   UNL A   1      37.875  30.243  29.196  1.00  0.00     0.029 A 
ATOM     43  C   UNL A   1      38.815  30.939  30.068  1.00  0.00     0.049 A 
ATOM     44  H   UNL A   1      40.722  30.315  30.631  1.00  0.00     0.167 HD
ATOM     45  C   UNL A   1      44.635  28.780  31.884  1.00  0.00     0.037 A 
ATOM     46  C   UNL A   1      38.593  32.129  30.662  1.00  0.00     0.037 A 
ATOM     47  C   UNL A   1      44.527  30.087  32.478  1.00  0.00     0.049 A 
ATOM     48  C   UNL A   1      39.669  32.726  31.529  1.00  0.00     0.074 A 
ATOM     49  C   UNL A   1      45.464  30.768  33.234  1.00  0.00     0.029 A 
ATOM     50  N   UNL A   1      43.413  30.911  32.387  1.00  0.00    -0.354 N 
ATOM     51  N   UNL A   1      40.850  32.240  31.829  1.00  0.00    -0.248 NA
ATOM     52  C   UNL A   1      39.387  34.035  32.132  1.00  0.00     0.031 C 
ATOM     53  C   UNL A   1      44.898  31.979  33.646  1.00  0.00     0.029 A 
ATOM     54  C   UNL A   1      43.630  32.081  33.094  1.00  0.00     0.049 A 
ATOM     55  H   UNL A   1      42.590  30.693  31.892  1.00  0.00     0.167 HD
ATOM     56  C   UNL A   1      41.463  33.196  32.630  1.00  0.00     0.074 A 
ATOM     57  C   UNL A   1      40.527  34.295  32.757  1.00  0.00     0.031 C 
ATOM     58  C   UNL A   1      42.691  33.170  33.207  1.00  0.00     0.037 A 
BRANCH  45  59
ATOM     59  C   UNL A   1      45.886  27.980  32.136  1.00  0.00     0.058 A 
ATOM     60  C   UNL A   1      45.928  26.954  33.093  1.00  0.00     0.135 A 
ATOM     61  C   UNL A   1      47.049  28.217  31.384  1.00  0.00     0.135 A 
ATOM     62  F   UNL A   1      44.851  26.692  33.852  1.00  0.00    -0.206 F 
ATOM     63  C   UNL A   1      47.084  26.214  33.319  1.00  0.00     0.059 A 
ATOM     64  C   UNL A   1      48.207  27.468  31.569  1.00  0.00     0.059 A 
ATOM     65  F   UNL A   1      47.067  29.186  30.455  1.00  0.00    -0.206 F 
ATOM     66  C   UNL A   1      48.219  26.478  32.550  1.00  0.00     0.060 A 
BRANCH  66  67
ATOM     67  S   UNL A   1      49.707  25.502  32.851  1.00  0.00     0.124 S 
ATOM     68  O   UNL A   1      49.883  24.833  31.566  1.00  0.00    -0.237 OA
ATOM     69  O   UNL A   1      50.693  26.530  33.170  1.00  0.00    -0.237 OA
ATOM     70  O   UNL A   1      49.328  24.635  33.962  1.00  0.00    -0.744 OA
ENDBRANCH  66  67
ENDBRANCH  45  59
BRANCH  46  71
ATOM     71  C   UNL A   1      37.305  32.841  30.442  1.00  0.00     0.058 A 
ATOM     72  C   UNL A   1      36.248  32.726  31.357  1.00  0.00     0.135 A 
ATOM     73  C   UNL A   1      37.109  33.661  29.320  1.00  0.00     0.135 A 
ATOM     74  F   UNL A   1      36.384  31.949  32.443  1.00  0.00    -0.206 F 
ATOM     75  C   UNL A   1      35.037  33.381  31.160  1.00  0.00     0.059 A 
ATOM     76  C   UNL A   1      35.916  34.350  29.116  1.00  0.00     0.059 A 
ATOM     77  F   UNL A   1      38.093  33.822  28.423  1.00  0.00    -0.206 F 
ATOM     78  C   UNL A   1      34.882  34.196  30.038  1.00  0.00     0.060 A 
BRANCH  78  79
ATOM     79  S   UNL A   1      33.324  35.081  29.817  1.00  0.00     0.124 S 
ATOM     80  O   UNL A   1      32.789  35.080  31.174  1.00  0.00    -0.237 OA
ATOM     81  O   UNL A   1      33.778  36.373  29.308  1.00  0.00    -0.237 OA
ATOM     82  O   UNL A   1      32.603  34.256  28.852  1.00  0.00    -0.744 OA
ENDBRANCH  78  79
ENDBRANCH  46  71
BRANCH  58  83
ATOM     83  C   UNL A   1      43.114  34.379  33.998  1.00  0.00     0.058 A 
ATOM     84  C   UNL A   1      43.627  35.528  33.377  1.00  0.00     0.135 A 
ATOM     85  C   UNL A   1      42.954  34.403  35.393  1.00  0.00     0.135 A 
ATOM     86  F   UNL A   1      43.806  35.556  32.047  1.00  0.00    -0.206 F 
ATOM     87  C   UNL A   1      43.989  36.650  34.114  1.00  0.00     0.059 A 
ATOM     88  C   UNL A   1      43.280  35.526  36.147  1.00  0.00     0.059 A 
ATOM     89  F   UNL A   1      42.458  33.334  36.036  1.00  0.00    -0.206 F 
ATOM     90  C   UNL A   1      43.809  36.641  35.499  1.00  0.00     0.060 A 
BRANCH  90  91
ATOM     91  S   UNL A   1      44.253  38.116  36.439  1.00  0.00     0.124 S 
ATOM     92  O   UNL A   1      45.661  37.866  36.732  1.00  0.00    -0.237 OA
ATOM     93  O   UNL A   1      43.984  39.186  35.483  1.00  0.00    -0.237 OA
ATOM     94  O   UNL A   1      43.355  38.071  37.589  1.00  0.00    -0.744 OA
ENDBRANCH  90  91
ENDBRANCH  58  83
ENDBRANCH  32  33
ENDBRANCH  24  27
ENDBRANCH  22  23
ENDBRANCH   1  22
TORSDOF 16
ENDMDL
MODEL 2
REMARK VINA RESULT:      -9.9      3.063      6.203
REMARK SMILES CC[C@]1(C(=O)NCCCNC(=O)c2ccc(-c3c4nc(c(-c5c(F)cc(S(=O)(=O)[O-])cc5F)c5ccc([nH]5)c(-c5c(F)cc(S(=O)(=O)[O-])cc5F)c5nc(c(-c6c(F)cc(S(=O)(=O)[O-])cc6F)c6ccc3[nH]6)C=C5)C=C4)cc2)CCN(C(=O)[C@]2(C)CCCO2)C1
REMARK SMILES IDX 8 1 7 2 6 3 4 4 5 5 3 7 79 8 90 9 80 10 81 11 2 12 1 13
REMARK SMILES IDX 82 14 83 15 84 16 86 17 89 18 85 19 87 20 88 21 9 22 10 23
REMARK SMILES IDX 11 24 12 26 13 27 14 28 78 29 15 30 77 31 16 32 17 33 18 34
REMARK SMILES IDX 71 35 19 36 76 37 70 38 72 39 20 40 75 41 69 42 68 43 21 45
REMARK SMILES IDX 55 46 34 47 54 48 35 49 38 50 53 51 73 52 36 53 37 54 52 56
REMARK SMILES IDX 74 57 39 58 22 59 23 60 32 61 24 62 25 63 31 64 33 65 26 66
REMARK SMILES IDX 27 67 28 68 29 69 30 70 56 71 57 72 66 73 58 74 59 75 65 76
REMARK SMILES IDX 67 77 60 78 61 79 62 80 63 81 64 82 40 83 41 84 50 85 42 86
REMARK SMILES IDX 43 87 49 88 51 89 44 90 45 91 46 92 47 93 48 94
REMARK H PARENT 6 6 10 25 72 44 38 55
REMARK Flexibility Score: inf
ROOT
ATOM      1  C   UNL A   1      35.718  23.631  26.303  1.00  0.00     0.042 C 
ENDROOT
BRANCH   1   2
ATOM      2  C   UNL A   1      34.606  22.722  25.803  1.00  0.00     0.117 C 
BRANCH   2   3
ATOM      3  N   UNL A   1      33.483  22.666  26.726  1.00  0.00    -0.355 N 
ATOM      4  C   UNL A   1      32.288  23.309  26.764  1.00  0.00     0.228 C 
ATOM      5  O   UNL A   1      31.519  22.943  27.659  1.00  0.00    -0.274 OA
ATOM      6  H   UNL A   1      33.617  22.037  27.471  1.00  0.00     0.163 HD
BRANCH   4   7
ATOM      7  C   UNL A   1      31.891  24.411  25.770  1.00  0.00     0.068 C 
ATOM      8  C   UNL A   1      30.415  24.846  25.887  1.00  0.00     0.040 C 
ATOM      9  C   UNL A   1      32.677  25.717  26.087  1.00  0.00     0.136 C 
ATOM     10  C   UNL A   1      30.466  26.308  25.487  1.00  0.00     0.121 C 
ATOM     11  N   UNL A   1      31.654  26.763  26.165  1.00  0.00    -0.339 N 
BRANCH   7  12
ATOM     12  C   UNL A   1      32.211  23.964  24.309  1.00  0.00     0.015 C 
ATOM     13  C   UNL A   1      31.008  23.540  23.464  1.00  0.00     0.005 C 
ENDBRANCH   7  12
BRANCH  11  14
ATOM     14  C   UNL A   1      31.812  27.889  26.952  1.00  0.00     0.254 C 
ATOM     15  O   UNL A   1      31.229  27.956  28.041  1.00  0.00    -0.272 OA
BRANCH  14  16
ATOM     16  C   UNL A   1      32.685  29.088  26.437  1.00  0.00     0.144 C 
ATOM     17  C   UNL A   1      34.194  28.807  26.466  1.00  0.00     0.048 C 
ATOM     18  O   UNL A   1      32.449  30.263  27.228  1.00  0.00    -0.365 OA
ATOM     19  C   UNL A   1      32.266  29.416  24.993  1.00  0.00     0.053 C 
ATOM     20  C   UNL A   1      34.804  29.897  27.322  1.00  0.00     0.032 C 
ATOM     21  C   UNL A   1      33.688  30.888  27.562  1.00  0.00     0.162 C 
ENDBRANCH  14  16
ENDBRANCH  11  14
ENDBRANCH   4   7
ENDBRANCH   2   3
ENDBRANCH   1   2
BRANCH   1  22
ATOM     22  C   UNL A   1      36.864  23.805  25.317  1.00  0.00     0.118 C 
BRANCH  22  23
ATOM     23  N   UNL A   1      37.946  22.854  25.535  1.00  0.00    -0.352 N 
ATOM     24  C   UNL A   1      39.176  23.036  26.121  1.00  0.00     0.251 C 
ATOM     25  H   UNL A   1      37.769  21.941  25.212  1.00  0.00     0.163 HD
ATOM     26  O   UNL A   1      40.020  22.152  26.048  1.00  0.00    -0.269 OA
BRANCH  24  27
ATOM     27  C   UNL A   1      39.485  24.306  26.814  1.00  0.00     0.039 A 
ATOM     28  C   UNL A   1      39.048  24.482  28.129  1.00  0.00     0.014 A 
ATOM     29  C   UNL A   1      40.203  25.318  26.174  1.00  0.00     0.014 A 
ATOM     30  C   UNL A   1      39.394  25.644  28.822  1.00  0.00     0.010 A 
ATOM     31  C   UNL A   1      40.628  26.428  26.895  1.00  0.00     0.010 A 
ATOM     32  C   UNL A   1      40.224  26.608  28.226  1.00  0.00    -0.014 A 
BRANCH  32  33
ATOM     33  C   UNL A   1      40.674  27.810  28.974  1.00  0.00     0.031 A 
ATOM     34  C   UNL A   1      42.038  27.835  29.614  1.00  0.00     0.074 A 
ATOM     35  C   UNL A   1      39.833  28.851  29.133  1.00  0.00     0.049 A 
ATOM     36  N   UNL A   1      42.582  28.759  30.362  1.00  0.00    -0.248 NA
ATOM     37  C   UNL A   1      42.891  26.653  29.409  1.00  0.00     0.031 C 
ATOM     38  C   UNL A   1      38.468  28.925  28.605  1.00  0.00     0.029 A 
ATOM     39  N   UNL A   1      39.995  30.044  29.792  1.00  0.00    -0.354 N 
ATOM     40  C   UNL A   1      43.829  28.267  30.726  1.00  0.00     0.074 A 
ATOM     41  C   UNL A   1      43.937  26.937  30.169  1.00  0.00     0.031 C 
ATOM     42  C   UNL A   1      37.930  30.109  28.937  1.00  0.00     0.029 A 
ATOM     43  C   UNL A   1      38.890  30.861  29.738  1.00  0.00     0.049 A 
ATOM     44  H   UNL A   1      40.826  30.292  30.259  1.00  0.00     0.167 HD
ATOM     45  C   UNL A   1      44.806  28.877  31.438  1.00  0.00     0.037 A 
ATOM     46  C   UNL A   1      38.671  32.075  30.281  1.00  0.00     0.037 A 
ATOM     47  C   UNL A   1      44.699  30.211  31.971  1.00  0.00     0.049 A 
ATOM     48  C   UNL A   1      39.767  32.730  31.077  1.00  0.00     0.074 A 
ATOM     49  C   UNL A   1      45.652  30.942  32.657  1.00  0.00     0.029 A 
ATOM     50  N   UNL A   1      43.570  31.013  31.881  1.00  0.00    -0.354 N 
ATOM     51  N   UNL A   1      40.967  32.276  31.355  1.00  0.00    -0.248 NA
ATOM     52  C   UNL A   1      39.487  34.062  31.625  1.00  0.00     0.031 C 
ATOM     53  C   UNL A   1      45.082  32.163  33.030  1.00  0.00     0.029 A 
ATOM     54  C   UNL A   1      43.794  32.220  32.522  1.00  0.00     0.049 A 
ATOM     55  H   UNL A   1      42.733  30.759  31.429  1.00  0.00     0.167 HD
ATOM     56  C   UNL A   1      41.593  33.279  32.085  1.00  0.00     0.074 A 
ATOM     57  C   UNL A   1      40.645  34.369  32.193  1.00  0.00     0.031 C 
ATOM     58  C   UNL A   1      42.841  33.299  32.616  1.00  0.00     0.037 A 
BRANCH  45  59
ATOM     59  C   UNL A   1      46.079  28.109  31.682  1.00  0.00     0.058 A 
ATOM     60  C   UNL A   1      47.195  28.242  30.840  1.00  0.00     0.135 A 
ATOM     61  C   UNL A   1      46.198  27.257  32.793  1.00  0.00     0.135 A 
ATOM     62  F   UNL A   1      47.135  29.030  29.754  1.00  0.00    -0.206 F 
ATOM     63  C   UNL A   1      48.371  27.535  31.071  1.00  0.00     0.059 A 
ATOM     64  C   UNL A   1      47.374  26.566  33.063  1.00  0.00     0.059 A 
ATOM     65  F   UNL A   1      45.163  27.092  33.632  1.00  0.00    -0.206 F 
ATOM     66  C   UNL A   1      48.451  26.700  32.187  1.00  0.00     0.060 A 
BRANCH  66  67
ATOM     67  S   UNL A   1      49.987  25.797  32.476  1.00  0.00     0.124 S 
ATOM     68  O   UNL A   1      50.979  26.859  32.344  1.00  0.00    -0.237 OA
ATOM     69  O   UNL A   1      49.792  25.276  33.826  1.00  0.00    -0.237 OA
ATOM     70  O   UNL A   1      49.997  24.794  31.416  1.00  0.00    -0.744 OA
ENDBRANCH  66  67
ENDBRANCH  45  59
BRANCH  46  71
ATOM     71  C   UNL A   1      37.364  32.757  30.074  1.00  0.00     0.058 A 
ATOM     72  C   UNL A   1      36.258  32.464  30.886  1.00  0.00     0.135 A 
ATOM     73  C   UNL A   1      37.197  33.724  29.071  1.00  0.00     0.135 A 
ATOM     74  F   UNL A   1      36.364  31.542  31.856  1.00  0.00    -0.206 F 
ATOM     75  C   UNL A   1      35.029  33.089  30.700  1.00  0.00     0.059 A 
ATOM     76  C   UNL A   1      35.986  34.384  28.884  1.00  0.00     0.059 A 
ATOM     77  F   UNL A   1      38.227  34.056  28.278  1.00  0.00    -0.206 F 
ATOM     78  C   UNL A   1      34.905  34.052  29.699  1.00  0.00     0.060 A 
BRANCH  78  79
ATOM     79  S   UNL A   1      33.320  34.894  29.497  1.00  0.00     0.124 S 
ATOM     80  O   UNL A   1      32.615  33.985  28.601  1.00  0.00    -0.237 OA
ATOM     81  O   UNL A   1      32.828  34.950  30.871  1.00  0.00    -0.237 OA
ATOM     82  O   UNL A   1      33.695  36.183  28.923  1.00  0.00    -0.744 OA
ENDBRANCH  78  79
ENDBRANCH  46  71
BRANCH  58  83
ATOM     83  C   UNL A   1      43.274  34.552  33.331  1.00  0.00     0.058 A 
ATOM     84  C   UNL A   1      43.835  35.639  32.645  1.00  0.00     0.135 A 
ATOM     85  C   UNL A   1      43.073  34.681  34.715  1.00  0.00     0.135 A 
ATOM     86  F   UNL A   1      44.055  35.565  31.322  1.00  0.00    -0.206 F 
ATOM     87  C   UNL A   1      44.206  36.803  33.310  1.00  0.00     0.059 A 
ATOM     88  C   UNL A   1      43.407  35.849  35.395  1.00  0.00     0.059 A 
ATOM     89  F   UNL A   1      42.529  33.675  35.417  1.00  0.00    -0.206 F 
ATOM     90  C   UNL A   1      43.985  36.900  34.686  1.00  0.00     0.060 A 
BRANCH  90  91
ATOM     91  S   UNL A   1      44.441  38.428  35.530  1.00  0.00     0.124 S 
ATOM     92  O   UNL A   1      43.761  39.429  34.714  1.00  0.00    -0.237 OA
ATOM     93  O   UNL A   1      43.893  38.221  36.866  1.00  0.00    -0.237 OA
ATOM     94  O   UNL A   1      45.899  38.440  35.451  1.00  0.00    -0.744 OA
ENDBRANCH  90  91
ENDBRANCH  58  83
ENDBRANCH  32  33
ENDBRANCH  24  27
ENDBRANCH  22  23
ENDBRANCH   1  22
TORSDOF 16
ENDMDL
MODEL 3
REMARK VINA RESULT:      -9.8      3.654      6.229
REMARK SMILES CC[C@]1(C(=O)NCCCNC(=O)c2ccc(-c3c4nc(c(-c5c(F)cc(S(=O)(=O)[O-])cc5F)c5ccc([nH]5)c(-c5c(F)cc(S(=O)(=O)[O-])cc5F)c5nc(c(-c6c(F)cc(S(=O)(=O)[O-])cc6F)c6ccc3[nH]6)C=C5)C=C4)cc2)CCN(C(=O)[C@]2(C)CCCO2)C1
REMARK SMILES IDX 8 1 7 2 6 3 4 4 5 5 3 7 79 8 90 9 80 10 81 11 2 12 1 13
REMARK SMILES IDX 82 14 83 15 84 16 86 17 89 18 85 19 87 20 88 21 9 22 10 23
REMARK SMILES IDX 11 24 12 26 13 27 14 28 78 29 15 30 77 31 16 32 17 33 18 34
REMARK SMILES IDX 71 35 19 36 76 37 70 38 72 39 20 40 75 41 69 42 68 43 21 45
REMARK SMILES IDX 55 46 34 47 54 48 35 49 38 50 53 51 73 52 36 53 37 54 52 56
REMARK SMILES IDX 74 57 39 58 22 59 23 60 32 61 24 62 25 63 31 64 33 65 26 66
REMARK SMILES IDX 27 67 28 68 29 69 30 70 56 71 57 72 66 73 58 74 59 75 65 76
REMARK SMILES IDX 67 77 60 78 61 79 62 80 63 81 64 82 40 83 41 84 50 85 42 86
REMARK SMILES IDX 43 87 49 88 51 89 44 90 45 91 46 92 47 93 48 94
REMARK H PARENT 6 6 10 25 72 44 38 55
REMARK Flexibility Score: inf
ROOT
ATOM      1  C   UNL A   1      38.876  22.662  26.490  1.00  0.00     0.042 C 
ENDROOT
BRANCH   1   2
ATOM      2  C   UNL A   1      37.851  23.679  26.011  1.00  0.00     0.117 C 
BRANCH   2   3
ATOM      3  N   UNL A   1      36.562  23.509  26.661  1.00  0.00    -0.355 N 
ATOM      4  C   UNL A   1      35.350  23.092  26.212  1.00  0.00     0.228 C 
ATOM      5  O   UNL A   1      34.477  22.976  27.078  1.00  0.00    -0.274 OA
ATOM      6  H   UNL A   1      36.570  23.741  27.618  1.00  0.00     0.163 HD
BRANCH   4   7
ATOM      7  C   UNL A   1      35.062  22.771  24.737  1.00  0.00     0.068 C 
ATOM      8  C   UNL A   1      33.600  22.356  24.471  1.00  0.00     0.040 C 
ATOM      9  C   UNL A   1      35.235  24.054  23.874  1.00  0.00     0.136 C 
ATOM     10  C   UNL A   1      33.364  22.857  23.059  1.00  0.00     0.121 C 
ATOM     11  N   UNL A   1      34.002  24.150  23.089  1.00  0.00    -0.339 N 
BRANCH   7  12
ATOM     12  C   UNL A   1      36.042  21.670  24.221  1.00  0.00     0.015 C 
ATOM     13  C   UNL A   1      36.049  20.361  25.012  1.00  0.00     0.005 C 
ENDBRANCH   7  12
BRANCH  11  14
ATOM     14  C   UNL A   1      33.497  25.362  22.655  1.00  0.00     0.254 C 
ATOM     15  O   UNL A   1      33.681  25.712  21.483  1.00  0.00    -0.272 OA
BRANCH  14  16
ATOM     16  C   UNL A   1      32.742  26.301  23.662  1.00  0.00     0.144 C 
ATOM     17  C   UNL A   1      33.678  27.165  24.518  1.00  0.00     0.048 C 
ATOM     18  O   UNL A   1      31.925  25.530  24.557  1.00  0.00    -0.365 OA
ATOM     19  C   UNL A   1      31.802  27.222  22.864  1.00  0.00     0.053 C 
ATOM     20  C   UNL A   1      33.343  26.841  25.958  1.00  0.00     0.032 C 
ATOM     21  C   UNL A   1      32.092  25.995  25.897  1.00  0.00     0.162 C 
ENDBRANCH  14  16
ENDBRANCH  11  14
ENDBRANCH   4   7
ENDBRANCH   2   3
ENDBRANCH   1   2
BRANCH   1  22
ATOM     22  C   UNL A   1      40.129  23.284  27.092  1.00  0.00     0.118 C 
BRANCH  22  23
ATOM     23  N   UNL A   1      40.963  23.946  26.098  1.00  0.00    -0.352 N 
ATOM     24  C   UNL A   1      41.495  25.214  26.097  1.00  0.00     0.251 C 
ATOM     25  H   UNL A   1      41.179  23.404  25.307  1.00  0.00     0.163 HD
ATOM     26  O   UNL A   1      42.024  25.650  25.082  1.00  0.00    -0.269 OA
BRANCH  24  27
ATOM     27  C   UNL A   1      41.403  26.057  27.309  1.00  0.00     0.039 A 
ATOM     28  C   UNL A   1      42.397  27.010  27.547  1.00  0.00     0.014 A 
ATOM     29  C   UNL A   1      40.344  25.911  28.208  1.00  0.00     0.014 A 
ATOM     30  C   UNL A   1      42.288  27.863  28.647  1.00  0.00     0.010 A 
ATOM     31  C   UNL A   1      40.187  26.823  29.246  1.00  0.00     0.010 A 
ATOM     32  C   UNL A   1      41.159  27.805  29.483  1.00  0.00    -0.014 A 
BRANCH  32  33
ATOM     33  C   UNL A   1      40.981  28.759  30.607  1.00  0.00     0.031 A 
ATOM     34  C   UNL A   1      41.837  28.643  31.841  1.00  0.00     0.074 A 
ATOM     35  C   UNL A   1      40.005  29.687  30.546  1.00  0.00     0.049 A 
ATOM     36  N   UNL A   1      41.786  29.334  32.950  1.00  0.00    -0.248 NA
ATOM     37  C   UNL A   1      42.869  27.593  31.838  1.00  0.00     0.031 C 
ATOM     38  C   UNL A   1      39.076  29.866  29.427  1.00  0.00     0.029 A 
ATOM     39  N   UNL A   1      39.622  30.649  31.448  1.00  0.00    -0.354 N 
ATOM     40  C   UNL A   1      42.764  28.797  33.778  1.00  0.00     0.074 A 
ATOM     41  C   UNL A   1      43.352  27.682  33.068  1.00  0.00     0.031 C 
ATOM     42  C   UNL A   1      38.252  30.891  29.698  1.00  0.00     0.029 A 
ATOM     43  C   UNL A   1      38.561  31.414  31.024  1.00  0.00     0.049 A 
ATOM     44  H   UNL A   1      40.068  30.780  32.316  1.00  0.00     0.167 HD
ATOM     45  C   UNL A   1      43.156  29.210  35.007  1.00  0.00     0.037 A 
ATOM     46  C   UNL A   1      37.904  32.417  31.639  1.00  0.00     0.037 A 
ATOM     47  C   UNL A   1      42.579  30.334  35.697  1.00  0.00     0.049 A 
ATOM     48  C   UNL A   1      38.350  32.853  33.009  1.00  0.00     0.074 A 
ATOM     49  C   UNL A   1      42.942  30.870  36.920  1.00  0.00     0.029 A 
ATOM     50  N   UNL A   1      41.517  31.094  35.228  1.00  0.00    -0.354 N 
ATOM     51  N   UNL A   1      39.322  32.375  33.750  1.00  0.00    -0.248 NA
ATOM     52  C   UNL A   1      37.617  33.967  33.624  1.00  0.00     0.031 C 
ATOM     53  C   UNL A   1      42.065  31.918  37.217  1.00  0.00     0.029 A 
ATOM     54  C   UNL A   1      41.194  32.077  36.150  1.00  0.00     0.049 A 
ATOM     55  H   UNL A   1      41.060  30.954  34.368  1.00  0.00     0.167 HD
ATOM     56  C   UNL A   1      39.336  33.150  34.904  1.00  0.00     0.074 A 
ATOM     57  C   UNL A   1      38.285  34.135  34.757  1.00  0.00     0.031 C 
ATOM     58  C   UNL A   1      40.148  33.056  35.987  1.00  0.00     0.037 A 
BRANCH  45  59
ATOM     59  C   UNL A   1      44.261  28.443  35.684  1.00  0.00     0.058 A 
ATOM     60  C   UNL A   1      43.994  27.367  36.545  1.00  0.00     0.135 A 
ATOM     61  C   UNL A   1      45.607  28.764  35.439  1.00  0.00     0.135 A 
ATOM     62  F   UNL A   1      42.727  27.024  36.828  1.00  0.00    -0.206 F 
ATOM     63  C   UNL A   1      45.017  26.657  37.165  1.00  0.00     0.059 A 
ATOM     64  C   UNL A   1      46.648  28.047  36.021  1.00  0.00     0.059 A 
ATOM     65  F   UNL A   1      45.922  29.783  34.624  1.00  0.00    -0.206 F 
ATOM     66  C   UNL A   1      46.343  27.005  36.895  1.00  0.00     0.060 A 
BRANCH  66  67
ATOM     67  S   UNL A   1      47.658  26.067  37.701  1.00  0.00     0.124 S 
ATOM     68  O   UNL A   1      47.472  26.447  39.098  1.00  0.00    -0.237 OA
ATOM     69  O   UNL A   1      47.308  24.690  37.367  1.00  0.00    -0.237 OA
ATOM     70  O   UNL A   1      48.873  26.574  37.071  1.00  0.00    -0.744 OA
ENDBRANCH  66  67
ENDBRANCH  45  59
BRANCH  46  71
ATOM     71  C   UNL A   1      36.766  33.090  30.955  1.00  0.00     0.058 A 
ATOM     72  C   UNL A   1      35.439  32.819  31.320  1.00  0.00     0.135 A 
ATOM     73  C   UNL A   1      36.982  34.027  29.932  1.00  0.00     0.135 A 
ATOM     74  F   UNL A   1      35.179  31.926  32.289  1.00  0.00    -0.206 F 
ATOM     75  C   UNL A   1      34.366  33.436  30.685  1.00  0.00     0.059 A 
ATOM     76  C   UNL A   1      35.925  34.679  29.302  1.00  0.00     0.059 A 
ATOM     77  F   UNL A   1      38.231  34.338  29.556  1.00  0.00    -0.206 F 
ATOM     78  C   UNL A   1      34.620  34.369  29.680  1.00  0.00     0.060 A 
BRANCH  78  79
ATOM     79  S   UNL A   1      33.222  35.202  28.895  1.00  0.00     0.124 S 
ATOM     80  O   UNL A   1      32.656  34.128  28.087  1.00  0.00    -0.237 OA
ATOM     81  O   UNL A   1      32.432  35.621  30.049  1.00  0.00    -0.237 OA
ATOM     82  O   UNL A   1      33.853  36.287  28.151  1.00  0.00    -0.744 OA
ENDBRANCH  78  79
ENDBRANCH  46  71
BRANCH  58  83
ATOM     83  C   UNL A   1      39.961  34.068  37.086  1.00  0.00     0.058 A 
ATOM     84  C   UNL A   1      40.686  35.268  37.119  1.00  0.00     0.135 A 
ATOM     85  C   UNL A   1      39.003  33.852  38.090  1.00  0.00     0.135 A 
ATOM     86  F   UNL A   1      41.618  35.522  36.186  1.00  0.00    -0.206 F 
ATOM     87  C   UNL A   1      40.486  36.209  38.123  1.00  0.00     0.059 A 
ATOM     88  C   UNL A   1      38.764  34.794  39.087  1.00  0.00     0.059 A 
ATOM     89  F   UNL A   1      38.275  32.725  38.100  1.00  0.00    -0.206 F 
ATOM     90  C   UNL A   1      39.520  35.964  39.102  1.00  0.00     0.060 A 
BRANCH  90  91
ATOM     91  S   UNL A   1      39.249  37.209  40.380  1.00  0.00     0.124 S 
ATOM     92  O   UNL A   1      38.272  38.083  39.738  1.00  0.00    -0.237 OA
ATOM     93  O   UNL A   1      38.748  36.408  41.492  1.00  0.00    -0.237 OA
ATOM     94  O   UNL A   1      40.574  37.788  40.579  1.00  0.00    -0.744 OA
ENDBRANCH  90  91
ENDBRANCH  58  83
ENDBRANCH  32  33
ENDBRANCH  24  27
ENDBRANCH  22  23
ENDBRANCH   1  22
TORSDOF 16
ENDMDL
