MODEL 1
REMARK VINA RESULT:     -11.9      0.000      0.000
REMARK SMILES COc1ccc(OC)c(/C=N/[NH+]=C2/NC(=O)[C@@H](CC(=O)NCCCNC(=O)c3ccc(-c4c5nc(c(-c6c(F)cc(S(=O)(=O)[O-])cc6F)c6ccc([nH]6)c(-c6c(F)cc(S(=O)(=O)[O-])cc6F)c6nc(c(-c7c(F)cc(S(=O)(=O)[O-])cc7F)c7ccc4[nH]7)C=C6)C=C5)cc3)S2)c1
REMARK SMILES IDX 22 1 21 2 19 3 20 4 18 6 17 7 12 8 13 9 14 11 94 12 15 13
REMARK SMILES IDX 16 15 11 16 10 17 9 18 3 19 4 20 95 21 5 22 6 23 2 24 1 25
REMARK SMILES IDX 7 26 8 27 23 28 24 29 25 30 26 31 27 33 28 34 29 35 93 36
REMARK SMILES IDX 30 37 92 38 31 39 32 40 33 41 86 42 34 43 91 44 85 45 87 46
REMARK SMILES IDX 35 47 90 48 84 49 83 50 36 52 70 53 49 54 69 55 50 56 53 57
REMARK SMILES IDX 68 58 88 59 51 60 52 61 67 63 89 64 54 65 37 66 38 67 47 68
REMARK SMILES IDX 39 69 40 70 46 71 48 72 41 73 42 74 43 75 44 76 45 77 71 78
REMARK SMILES IDX 72 79 81 80 73 81 74 82 80 83 82 84 75 85 76 86 77 87 78 88
REMARK SMILES IDX 79 89 55 90 56 91 65 92 57 93 58 94 64 95 66 96 59 97 60 98
REMARK SMILES IDX 61 99 62 100 63 101
REMARK H PARENT 21 5 12 10 14 14 25 32 87 51 53 62
REMARK Flexibility Score: inf
ROOT
ATOM      1  C   UNL A   1      37.867  21.436  25.224  1.00  0.00     0.117 C 
ENDROOT
BRANCH   1   2
ATOM      2  N   UNL A   1      37.051  20.236  25.121  1.00  0.00    -0.356 N 
ATOM      3  C   UNL A   1      35.719  20.076  24.861  1.00  0.00     0.221 C 
ATOM      4  O   UNL A   1      35.321  18.944  24.575  1.00  0.00    -0.275 OA
ATOM      5  H   UNL A   1      37.543  19.395  25.264  1.00  0.00     0.163 HD
BRANCH   3   6
ATOM      6  C   UNL A   1      34.739  21.235  24.913  1.00  0.00     0.127 C 
BRANCH   6   7
ATOM      7  C   UNL A   1      33.765  21.270  26.099  1.00  0.00     0.183 C 
ATOM      8  N   UNL A   1      31.234  24.080  25.720  1.00  0.00    -0.142 N 
ATOM      9  C   UNL A   1      31.910  23.021  26.005  1.00  0.00     0.337 C 
ATOM     10  H   UNL A   1      30.368  24.064  25.253  1.00  0.00     0.343 HD
ATOM     11  N   UNL A   1      31.495  21.805  25.588  1.00  0.00    -0.202 N 
ATOM     12  S   UNL A   1      33.436  22.900  26.824  1.00  0.00    -0.020 SA
ATOM     13  C   UNL A   1      32.398  20.783  25.641  1.00  0.00     0.322 C 
ATOM     14  H   UNL A   1      30.579  21.662  25.258  1.00  0.00     0.316 HD
ATOM     15  O   UNL A   1      32.157  19.649  25.269  1.00  0.00    -0.246 OA
BRANCH   8  16
ATOM     16  N   UNL A   1      31.857  25.249  26.144  1.00  0.00    -0.093 NA
ATOM     17  C   UNL A   1      31.541  26.251  25.396  1.00  0.00     0.170 C 
BRANCH  17  18
ATOM     18  C   UNL A   1      31.973  27.605  25.726  1.00  0.00     0.042 A 
ATOM     19  C   UNL A   1      33.608  28.985  26.876  1.00  0.00     0.119 A 
ATOM     20  C   UNL A   1      33.011  30.108  26.306  1.00  0.00     0.050 A 
ATOM     21  C   UNL A   1      33.057  27.733  26.620  1.00  0.00     0.060 A 
ATOM     22  C   UNL A   1      31.916  29.976  25.442  1.00  0.00     0.051 A 
ATOM     23  C   UNL A   1      31.396  28.719  25.115  1.00  0.00     0.128 A 
BRANCH  19  24
ATOM     24  O   UNL A   1      34.709  29.231  27.648  1.00  0.00    -0.497 OA
ATOM     25  C   UNL A   1      35.157  30.579  27.746  1.00  0.00     0.278 C 
ENDBRANCH  19  24
BRANCH  23  26
ATOM     26  O   UNL A   1      30.375  28.779  24.212  1.00  0.00    -0.496 OA
ATOM     27  C   UNL A   1      30.634  29.099  22.852  1.00  0.00     0.278 C 
ENDBRANCH  23  26
ENDBRANCH  17  18
ENDBRANCH   8  16
ENDBRANCH   6   7
ENDBRANCH   3   6
ENDBRANCH   1   2
BRANCH   1  28
ATOM     28  C   UNL A   1      39.176  21.286  26.026  1.00  0.00     0.042 C 
BRANCH  28  29
ATOM     29  C   UNL A   1      39.746  22.536  26.729  1.00  0.00     0.118 C 
BRANCH  29  30
ATOM     30  N   UNL A   1      40.983  23.021  26.109  1.00  0.00    -0.352 N 
ATOM     31  C   UNL A   1      41.855  24.078  26.256  1.00  0.00     0.251 C 
ATOM     32  H   UNL A   1      41.273  22.422  25.384  1.00  0.00     0.163 HD
ATOM     33  O   UNL A   1      42.767  24.141  25.425  1.00  0.00    -0.269 OA
BRANCH  31  34
ATOM     34  C   UNL A   1      41.815  25.158  27.285  1.00  0.00     0.039 A 
ATOM     35  C   UNL A   1      40.713  25.215  28.145  1.00  0.00     0.014 A 
ATOM     36  C   UNL A   1      42.625  26.284  27.257  1.00  0.00     0.014 A 
ATOM     37  C   UNL A   1      40.490  26.318  29.014  1.00  0.00     0.010 A 
ATOM     38  C   UNL A   1      42.433  27.353  28.187  1.00  0.00     0.010 A 
ATOM     39  C   UNL A   1      41.394  27.386  29.142  1.00  0.00    -0.014 A 
BRANCH  39  40
ATOM     40  C   UNL A   1      41.302  28.460  30.254  1.00  0.00     0.031 A 
ATOM     41  C   UNL A   1      42.094  28.366  31.569  1.00  0.00     0.074 A 
ATOM     42  C   UNL A   1      40.433  29.508  30.205  1.00  0.00     0.049 A 
ATOM     43  N   UNL A   1      41.907  28.999  32.711  1.00  0.00    -0.248 NA
ATOM     44  C   UNL A   1      43.240  27.449  31.601  1.00  0.00     0.031 C 
ATOM     45  C   UNL A   1      39.575  29.884  29.081  1.00  0.00     0.029 A 
ATOM     46  N   UNL A   1      40.077  30.437  31.179  1.00  0.00    -0.354 N 
ATOM     47  C   UNL A   1      42.869  28.519  33.601  1.00  0.00     0.074 A 
ATOM     48  C   UNL A   1      43.605  27.501  32.876  1.00  0.00     0.031 C 
ATOM     49  C   UNL A   1      38.765  30.891  29.437  1.00  0.00     0.029 A 
ATOM     50  C   UNL A   1      38.999  31.231  30.833  1.00  0.00     0.049 A 
ATOM     51  H   UNL A   1      40.551  30.523  32.038  1.00  0.00     0.167 HD
ATOM     52  C   UNL A   1      43.167  28.900  34.876  1.00  0.00     0.037 A 
ATOM     53  C   UNL A   1      38.232  32.108  31.518  1.00  0.00     0.037 A 
ATOM     54  C   UNL A   1      42.575  30.002  35.601  1.00  0.00     0.049 A 
ATOM     55  C   UNL A   1      38.536  32.497  32.935  1.00  0.00     0.074 A 
ATOM     56  C   UNL A   1      42.945  30.505  36.844  1.00  0.00     0.029 A 
ATOM     57  N   UNL A   1      41.524  30.788  35.166  1.00  0.00    -0.354 N 
ATOM     58  N   UNL A   1      39.468  32.040  33.728  1.00  0.00    -0.248 NA
ATOM     59  C   UNL A   1      37.710  33.560  33.538  1.00  0.00     0.031 C 
ATOM     60  C   UNL A   1      42.106  31.576  37.168  1.00  0.00     0.029 A 
ATOM     61  C   UNL A   1      41.237  31.766  36.112  1.00  0.00     0.049 A 
ATOM     62  H   UNL A   1      41.050  30.672  34.312  1.00  0.00     0.167 HD
ATOM     63  C   UNL A   1      39.396  32.814  34.882  1.00  0.00     0.074 A 
ATOM     64  C   UNL A   1      38.305  33.744  34.710  1.00  0.00     0.031 C 
ATOM     65  C   UNL A   1      40.202  32.757  35.967  1.00  0.00     0.037 A 
BRANCH  52  66
ATOM     66  C   UNL A   1      44.254  28.142  35.604  1.00  0.00     0.058 A 
ATOM     67  C   UNL A   1      43.971  26.991  36.357  1.00  0.00     0.135 A 
ATOM     68  C   UNL A   1      45.603  28.514  35.464  1.00  0.00     0.135 A 
ATOM     69  F   UNL A   1      42.703  26.579  36.510  1.00  0.00    -0.206 F 
ATOM     70  C   UNL A   1      44.978  26.271  36.992  1.00  0.00     0.059 A 
ATOM     71  C   UNL A   1      46.630  27.787  36.063  1.00  0.00     0.059 A 
ATOM     72  F   UNL A   1      45.937  29.583  34.723  1.00  0.00    -0.206 F 
ATOM     73  C   UNL A   1      46.304  26.681  36.845  1.00  0.00     0.060 A 
BRANCH  73  74
ATOM     74  S   UNL A   1      47.597  25.748  37.693  1.00  0.00     0.124 S 
ATOM     75  O   UNL A   1      48.631  26.768  37.849  1.00  0.00    -0.237 OA
ATOM     76  O   UNL A   1      46.931  25.331  38.924  1.00  0.00    -0.237 OA
ATOM     77  O   UNL A   1      47.910  24.673  36.758  1.00  0.00    -0.744 OA
ENDBRANCH  73  74
ENDBRANCH  52  66
BRANCH  53  78
ATOM     78  C   UNL A   1      37.055  32.729  30.845  1.00  0.00     0.058 A 
ATOM     79  C   UNL A   1      37.223  33.761  29.912  1.00  0.00     0.135 A 
ATOM     80  C   UNL A   1      35.748  32.311  31.137  1.00  0.00     0.135 A 
ATOM     81  F   UNL A   1      38.456  34.201  29.615  1.00  0.00    -0.206 F 
ATOM     82  C   UNL A   1      36.135  34.372  29.301  1.00  0.00     0.059 A 
ATOM     83  C   UNL A   1      34.642  32.894  30.525  1.00  0.00     0.059 A 
ATOM     84  F   UNL A   1      35.539  31.319  32.016  1.00  0.00    -0.206 F 
ATOM     85  C   UNL A   1      34.847  33.930  29.613  1.00  0.00     0.060 A 
BRANCH  85  86
ATOM     86  S   UNL A   1      33.446  34.706  28.777  1.00  0.00     0.124 S 
ATOM     87  O   UNL A   1      32.527  34.929  29.886  1.00  0.00    -0.237 OA
ATOM     88  O   UNL A   1      34.059  35.900  28.204  1.00  0.00    -0.237 OA
ATOM     89  O   UNL A   1      33.033  33.697  27.807  1.00  0.00    -0.744 OA
ENDBRANCH  85  86
ENDBRANCH  53  78
BRANCH  65  90
ATOM     90  C   UNL A   1      40.051  33.803  37.039  1.00  0.00     0.058 A 
ATOM     91  C   UNL A   1      40.653  35.067  36.952  1.00  0.00     0.135 A 
ATOM     92  C   UNL A   1      39.215  33.557  38.144  1.00  0.00     0.135 A 
ATOM     93  F   UNL A   1      41.474  35.355  35.930  1.00  0.00    -0.206 F 
ATOM     94  C   UNL A   1      40.428  36.051  37.915  1.00  0.00     0.059 A 
ATOM     95  C   UNL A   1      38.962  34.531  39.107  1.00  0.00     0.059 A 
ATOM     96  F   UNL A   1      38.616  32.364  38.283  1.00  0.00    -0.206 F 
ATOM     97  C   UNL A   1      39.572  35.776  38.984  1.00  0.00     0.060 A 
BRANCH  97  98
ATOM     98  S   UNL A   1      39.219  37.087  40.180  1.00  0.00     0.124 S 
ATOM     99  O   UNL A   1      38.506  38.057  39.356  1.00  0.00    -0.237 OA
ATOM    100  O   UNL A   1      38.414  36.391  41.179  1.00  0.00    -0.237 OA
ATOM    101  O   UNL A   1      40.543  37.501  40.633  1.00  0.00    -0.744 OA
ENDBRANCH  97  98
ENDBRANCH  65  90
ENDBRANCH  39  40
ENDBRANCH  31  34
ENDBRANCH  29  30
ENDBRANCH  28  29
ENDBRANCH   1  28
TORSDOF 18
ENDMDL
MODEL 2
REMARK VINA RESULT:     -11.5      1.124      2.405
REMARK SMILES COc1ccc(OC)c(/C=N/[NH+]=C2/NC(=O)[C@@H](CC(=O)NCCCNC(=O)c3ccc(-c4c5nc(c(-c6c(F)cc(S(=O)(=O)[O-])cc6F)c6ccc([nH]6)c(-c6c(F)cc(S(=O)(=O)[O-])cc6F)c6nc(c(-c7c(F)cc(S(=O)(=O)[O-])cc7F)c7ccc4[nH]7)C=C6)C=C5)cc3)S2)c1
REMARK SMILES IDX 22 1 21 2 19 3 20 4 18 6 17 7 12 8 13 9 14 11 94 12 15 13
REMARK SMILES IDX 16 15 11 16 10 17 9 18 3 19 4 20 95 21 5 22 6 23 2 24 1 25
REMARK SMILES IDX 7 26 8 27 23 28 24 29 25 30 26 31 27 33 28 34 29 35 93 36
REMARK SMILES IDX 30 37 92 38 31 39 32 40 33 41 86 42 34 43 91 44 85 45 87 46
REMARK SMILES IDX 35 47 90 48 84 49 83 50 36 52 70 53 49 54 69 55 50 56 53 57
REMARK SMILES IDX 68 58 88 59 51 60 52 61 67 63 89 64 54 65 37 66 38 67 47 68
REMARK SMILES IDX 39 69 40 70 46 71 48 72 41 73 42 74 43 75 44 76 45 77 71 78
REMARK SMILES IDX 72 79 81 80 73 81 74 82 80 83 82 84 75 85 76 86 77 87 78 88
REMARK SMILES IDX 79 89 55 90 56 91 65 92 57 93 58 94 64 95 66 96 59 97 60 98
REMARK SMILES IDX 61 99 62 100 63 101
REMARK H PARENT 21 5 12 10 14 14 25 32 87 51 53 62
REMARK Flexibility Score: inf
ROOT
ATOM      1  C   UNL A   1      38.184  21.701  25.432  1.00  0.00     0.117 C 
ENDROOT
BRANCH   1   2
ATOM      2  N   UNL A   1      37.314  22.402  24.499  1.00  0.00    -0.356 N 
ATOM      3  C   UNL A   1      36.134  23.063  24.695  1.00  0.00     0.221 C 
ATOM      4  O   UNL A   1      35.724  23.791  23.788  1.00  0.00    -0.275 OA
ATOM      5  H   UNL A   1      37.630  22.400  23.566  1.00  0.00     0.163 HD
BRANCH   3   6
ATOM      6  C   UNL A   1      35.333  22.925  25.979  1.00  0.00     0.127 C 
BRANCH   6   7
ATOM      7  C   UNL A   1      33.982  22.203  25.881  1.00  0.00     0.183 C 
ATOM      8  N   UNL A   1      31.901  23.556  23.003  1.00  0.00    -0.142 N 
ATOM      9  C   UNL A   1      32.457  22.884  23.950  1.00  0.00     0.337 C 
ATOM     10  H   UNL A   1      31.906  23.276  22.060  1.00  0.00     0.343 HD
ATOM     11  N   UNL A   1      33.171  21.770  23.678  1.00  0.00    -0.202 N 
ATOM     12  S   UNL A   1      32.522  23.253  25.646  1.00  0.00    -0.020 SA
ATOM     13  C   UNL A   1      33.986  21.292  24.663  1.00  0.00     0.322 C 
ATOM     14  H   UNL A   1      33.106  21.321  22.804  1.00  0.00     0.316 HD
ATOM     15  O   UNL A   1      34.700  20.314  24.534  1.00  0.00    -0.246 OA
BRANCH   8  16
ATOM     16  N   UNL A   1      31.292  24.723  23.455  1.00  0.00    -0.093 NA
ATOM     17  C   UNL A   1      31.922  25.772  23.047  1.00  0.00     0.170 C 
BRANCH  17  18
ATOM     18  C   UNL A   1      31.394  27.111  23.290  1.00  0.00     0.042 A 
ATOM     19  C   UNL A   1      29.808  28.817  22.603  1.00  0.00     0.119 A 
ATOM     20  C   UNL A   1      30.178  29.563  23.721  1.00  0.00     0.050 A 
ATOM     21  C   UNL A   1      30.452  27.608  22.364  1.00  0.00     0.060 A 
ATOM     22  C   UNL A   1      31.135  29.077  24.621  1.00  0.00     0.051 A 
ATOM     23  C   UNL A   1      31.739  27.828  24.436  1.00  0.00     0.128 A 
BRANCH  19  24
ATOM     24  O   UNL A   1      28.818  29.362  21.833  1.00  0.00    -0.497 OA
ATOM     25  C   UNL A   1      28.990  30.704  21.392  1.00  0.00     0.278 C 
ENDBRANCH  19  24
BRANCH  23  26
ATOM     26  O   UNL A   1      32.595  27.492  25.443  1.00  0.00    -0.496 OA
ATOM     27  C   UNL A   1      32.502  28.128  26.710  1.00  0.00     0.278 C 
ENDBRANCH  23  26
ENDBRANCH  17  18
ENDBRANCH   8  16
ENDBRANCH   6   7
ENDBRANCH   3   6
ENDBRANCH   1   2
BRANCH   1  28
ATOM     28  C   UNL A   1      38.890  22.586  26.479  1.00  0.00     0.042 C 
BRANCH  28  29
ATOM     29  C   UNL A   1      40.293  22.161  26.964  1.00  0.00     0.118 C 
BRANCH  29  30
ATOM     30  N   UNL A   1      41.372  22.815  26.217  1.00  0.00    -0.352 N 
ATOM     31  C   UNL A   1      42.086  23.993  26.271  1.00  0.00     0.251 C 
ATOM     32  H   UNL A   1      41.671  22.256  25.464  1.00  0.00     0.163 HD
ATOM     33  O   UNL A   1      42.886  24.179  25.349  1.00  0.00    -0.269 OA
BRANCH  31  34
ATOM     34  C   UNL A   1      41.991  25.071  27.299  1.00  0.00     0.039 A 
ATOM     35  C   UNL A   1      40.808  25.183  28.037  1.00  0.00     0.014 A 
ATOM     36  C   UNL A   1      42.857  26.153  27.368  1.00  0.00     0.014 A 
ATOM     37  C   UNL A   1      40.550  26.294  28.886  1.00  0.00     0.010 A 
ATOM     38  C   UNL A   1      42.622  27.228  28.282  1.00  0.00     0.010 A 
ATOM     39  C   UNL A   1      41.489  27.312  29.120  1.00  0.00    -0.014 A 
BRANCH  39  40
ATOM     40  C   UNL A   1      41.334  28.386  30.224  1.00  0.00     0.031 A 
ATOM     41  C   UNL A   1      42.076  28.309  31.569  1.00  0.00     0.074 A 
ATOM     42  C   UNL A   1      40.449  29.419  30.139  1.00  0.00     0.049 A 
ATOM     43  N   UNL A   1      41.833  28.941  32.702  1.00  0.00    -0.248 NA
ATOM     44  C   UNL A   1      43.236  27.413  31.649  1.00  0.00     0.031 C 
ATOM     45  C   UNL A   1      39.629  29.777  28.982  1.00  0.00     0.029 A 
ATOM     46  N   UNL A   1      40.038  30.342  31.096  1.00  0.00    -0.354 N 
ATOM     47  C   UNL A   1      42.768  28.480  33.630  1.00  0.00     0.074 A 
ATOM     48  C   UNL A   1      43.550  27.474  32.937  1.00  0.00     0.031 C 
ATOM     49  C   UNL A   1      38.787  30.769  29.303  1.00  0.00     0.029 A 
ATOM     50  C   UNL A   1      38.960  31.116  30.706  1.00  0.00     0.049 A 
ATOM     51  H   UNL A   1      40.477  30.438  31.973  1.00  0.00     0.167 HD
ATOM     52  C   UNL A   1      43.009  28.868  34.915  1.00  0.00     0.037 A 
ATOM     53  C   UNL A   1      38.151  31.979  31.358  1.00  0.00     0.037 A 
ATOM     54  C   UNL A   1      42.369  29.961  35.614  1.00  0.00     0.049 A 
ATOM     55  C   UNL A   1      38.392  32.376  32.786  1.00  0.00     0.074 A 
ATOM     56  C   UNL A   1      42.680  30.472  36.869  1.00  0.00     0.029 A 
ATOM     57  N   UNL A   1      41.321  30.726  35.136  1.00  0.00    -0.354 N 
ATOM     58  N   UNL A   1      39.301  31.938  33.615  1.00  0.00    -0.248 NA
ATOM     59  C   UNL A   1      37.524  33.425  33.353  1.00  0.00     0.031 C 
ATOM     60  C   UNL A   1      41.810  31.529  37.157  1.00  0.00     0.029 A 
ATOM     61  C   UNL A   1      40.979  31.701  36.068  1.00  0.00     0.049 A 
ATOM     62  H   UNL A   1      40.883  30.601  34.264  1.00  0.00     0.167 HD
ATOM     63  C   UNL A   1      39.169  32.712  34.764  1.00  0.00     0.074 A 
ATOM     64  C   UNL A   1      38.069  33.622  34.547  1.00  0.00     0.031 C 
ATOM     65  C   UNL A   1      39.933  32.672  35.880  1.00  0.00     0.037 A 
BRANCH  52  66
ATOM     66  C   UNL A   1      44.080  28.131  35.687  1.00  0.00     0.058 A 
ATOM     67  C   UNL A   1      45.417  28.556  35.680  1.00  0.00     0.135 A 
ATOM     68  C   UNL A   1      43.744  27.049  36.520  1.00  0.00     0.135 A 
ATOM     69  F   UNL A   1      45.791  29.595  34.916  1.00  0.00    -0.206 F 
ATOM     70  C   UNL A   1      46.393  27.902  36.423  1.00  0.00     0.059 A 
ATOM     71  C   UNL A   1      44.700  26.401  37.300  1.00  0.00     0.059 A 
ATOM     72  F   UNL A   1      42.473  26.623  36.598  1.00  0.00    -0.206 F 
ATOM     73  C   UNL A   1      46.026  26.820  37.225  1.00  0.00     0.060 A 
BRANCH  73  74
ATOM     74  S   UNL A   1      47.309  25.967  38.168  1.00  0.00     0.124 S 
ATOM     75  O   UNL A   1      46.573  25.579  39.368  1.00  0.00    -0.237 OA
ATOM     76  O   UNL A   1      47.684  24.874  37.276  1.00  0.00    -0.237 OA
ATOM     77  O   UNL A   1      48.329  26.993  38.360  1.00  0.00    -0.744 OA
ENDBRANCH  73  74
ENDBRANCH  52  66
BRANCH  53  78
ATOM     78  C   UNL A   1      36.990  32.578  30.639  1.00  0.00     0.058 A 
ATOM     79  C   UNL A   1      37.169  33.651  29.756  1.00  0.00     0.135 A 
ATOM     80  C   UNL A   1      35.687  32.096  30.835  1.00  0.00     0.135 A 
ATOM     81  F   UNL A   1      38.396  34.153  29.551  1.00  0.00    -0.206 F 
ATOM     82  C   UNL A   1      36.092  34.241  29.103  1.00  0.00     0.059 A 
ATOM     83  C   UNL A   1      34.596  32.656  30.179  1.00  0.00     0.059 A 
ATOM     84  F   UNL A   1      35.470  31.062  31.663  1.00  0.00    -0.206 F 
ATOM     85  C   UNL A   1      34.809  33.734  29.320  1.00  0.00     0.060 A 
BRANCH  85  86
ATOM     86  S   UNL A   1      33.428  34.484  28.429  1.00  0.00     0.124 S 
ATOM     87  O   UNL A   1      34.093  35.565  27.711  1.00  0.00    -0.237 OA
ATOM     88  O   UNL A   1      32.954  33.372  27.612  1.00  0.00    -0.237 OA
ATOM     89  O   UNL A   1      32.523  34.897  29.497  1.00  0.00    -0.744 OA
ENDBRANCH  85  86
ENDBRANCH  53  78
BRANCH  65  90
ATOM     90  C   UNL A   1      39.721  33.717  36.943  1.00  0.00     0.058 A 
ATOM     91  C   UNL A   1      38.891  33.507  38.054  1.00  0.00     0.135 A 
ATOM     92  C   UNL A   1      40.431  34.930  36.883  1.00  0.00     0.135 A 
ATOM     93  F   UNL A   1      38.175  32.376  38.158  1.00  0.00    -0.206 F 
ATOM     94  C   UNL A   1      38.777  34.455  39.070  1.00  0.00     0.059 A 
ATOM     95  C   UNL A   1      40.346  35.883  37.895  1.00  0.00     0.059 A 
ATOM     96  F   UNL A   1      41.236  35.189  35.842  1.00  0.00    -0.206 F 
ATOM     97  C   UNL A   1      39.517  35.637  38.987  1.00  0.00     0.060 A 
BRANCH  97  98
ATOM     98  S   UNL A   1      39.429  36.822  40.350  1.00  0.00     0.124 S 
ATOM     99  O   UNL A   1      38.591  36.110  41.309  1.00  0.00    -0.237 OA
ATOM    100  O   UNL A   1      40.832  36.973  40.726  1.00  0.00    -0.237 OA
ATOM    101  O   UNL A   1      38.822  38.001  39.740  1.00  0.00    -0.744 OA
ENDBRANCH  97  98
ENDBRANCH  65  90
ENDBRANCH  39  40
ENDBRANCH  31  34
ENDBRANCH  29  30
ENDBRANCH  28  29
ENDBRANCH   1  28
TORSDOF 18
ENDMDL
MODEL 3
REMARK VINA RESULT:     -11.5      0.987      8.029
REMARK SMILES COc1ccc(OC)c(/C=N/[NH+]=C2/NC(=O)[C@@H](CC(=O)NCCCNC(=O)c3ccc(-c4c5nc(c(-c6c(F)cc(S(=O)(=O)[O-])cc6F)c6ccc([nH]6)c(-c6c(F)cc(S(=O)(=O)[O-])cc6F)c6nc(c(-c7c(F)cc(S(=O)(=O)[O-])cc7F)c7ccc4[nH]7)C=C6)C=C5)cc3)S2)c1
REMARK SMILES IDX 22 1 21 2 19 3 20 4 18 6 17 7 12 8 13 9 14 11 94 12 15 13
REMARK SMILES IDX 16 15 11 16 10 17 9 18 3 19 4 20 95 21 5 22 6 23 2 24 1 25
REMARK SMILES IDX 7 26 8 27 23 28 24 29 25 30 26 31 27 33 28 34 29 35 93 36
REMARK SMILES IDX 30 37 92 38 31 39 32 40 33 41 86 42 34 43 91 44 85 45 87 46
REMARK SMILES IDX 35 47 90 48 84 49 83 50 36 52 70 53 49 54 69 55 50 56 53 57
REMARK SMILES IDX 68 58 88 59 51 60 52 61 67 63 89 64 54 65 37 66 38 67 47 68
REMARK SMILES IDX 39 69 40 70 46 71 48 72 41 73 42 74 43 75 44 76 45 77 71 78
REMARK SMILES IDX 72 79 81 80 73 81 74 82 80 83 82 84 75 85 76 86 77 87 78 88
REMARK SMILES IDX 79 89 55 90 56 91 65 92 57 93 58 94 64 95 66 96 59 97 60 98
REMARK SMILES IDX 61 99 62 100 63 101
REMARK H PARENT 21 5 12 10 14 14 25 32 87 51 53 62
REMARK Flexibility Score: inf
ROOT
ATOM      1  C   UNL A   1      38.191  21.836  25.370  1.00  0.00     0.117 C 
ENDROOT
BRANCH   1   2
ATOM      2  N   UNL A   1      37.309  22.511  24.429  1.00  0.00    -0.356 N 
ATOM      3  C   UNL A   1      35.982  22.334  24.158  1.00  0.00     0.221 C 
ATOM      4  O   UNL A   1      35.409  23.205  23.500  1.00  0.00    -0.275 OA
ATOM      5  H   UNL A   1      37.745  23.216  23.898  1.00  0.00     0.163 HD
BRANCH   3   6
ATOM      6  C   UNL A   1      35.213  21.115  24.638  1.00  0.00     0.127 C 
BRANCH   6   7
ATOM      7  C   UNL A   1      34.534  21.218  26.010  1.00  0.00     0.183 C 
ATOM      8  N   UNL A   1      31.751  23.807  25.981  1.00  0.00    -0.142 N 
ATOM      9  C   UNL A   1      32.563  22.829  26.195  1.00  0.00     0.337 C 
ATOM     10  H   UNL A   1      30.807  23.687  25.733  1.00  0.00     0.343 HD
ATOM     11  N   UNL A   1      32.170  21.552  25.998  1.00  0.00    -0.202 N 
ATOM     12  S   UNL A   1      34.240  22.892  26.642  1.00  0.00    -0.020 SA
ATOM     13  C   UNL A   1      33.146  20.600  25.931  1.00  0.00     0.322 C 
ATOM     14  H   UNL A   1      31.218  21.317  25.906  1.00  0.00     0.316 HD
ATOM     15  O   UNL A   1      32.925  19.420  25.731  1.00  0.00    -0.246 OA
BRANCH   8  16
ATOM     16  N   UNL A   1      32.353  25.052  26.140  1.00  0.00    -0.093 NA
ATOM     17  C   UNL A   1      31.628  25.993  25.638  1.00  0.00     0.170 C 
BRANCH  17  18
ATOM     18  C   UNL A   1      31.995  27.396  25.801  1.00  0.00     0.042 A 
ATOM     19  C   UNL A   1      33.519  28.984  26.829  1.00  0.00     0.119 A 
ATOM     20  C   UNL A   1      32.915  29.995  26.084  1.00  0.00     0.050 A 
ATOM     21  C   UNL A   1      33.026  27.687  26.720  1.00  0.00     0.060 A 
ATOM     22  C   UNL A   1      31.872  29.703  25.195  1.00  0.00     0.051 A 
ATOM     23  C   UNL A   1      31.413  28.393  25.017  1.00  0.00     0.128 A 
BRANCH  19  24
ATOM     24  O   UNL A   1      34.568  29.377  27.612  1.00  0.00    -0.497 OA
ATOM     25  C   UNL A   1      34.756  30.774  27.809  1.00  0.00     0.278 C 
ENDBRANCH  19  24
BRANCH  23  26
ATOM     26  O   UNL A   1      30.440  28.290  24.067  1.00  0.00    -0.496 OA
ATOM     27  C   UNL A   1      30.769  27.914  22.737  1.00  0.00     0.278 C 
ENDBRANCH  23  26
ENDBRANCH  17  18
ENDBRANCH   8  16
ENDBRANCH   6   7
ENDBRANCH   3   6
ENDBRANCH   1   2
BRANCH   1  28
ATOM     28  C   UNL A   1      38.845  22.738  26.437  1.00  0.00     0.042 C 
BRANCH  28  29
ATOM     29  C   UNL A   1      40.331  22.498  26.780  1.00  0.00     0.118 C 
BRANCH  29  30
ATOM     30  N   UNL A   1      41.227  23.447  26.110  1.00  0.00    -0.352 N 
ATOM     31  C   UNL A   1      41.722  24.715  26.328  1.00  0.00     0.251 C 
ATOM     32  H   UNL A   1      41.572  23.074  25.267  1.00  0.00     0.163 HD
ATOM     33  O   UNL A   1      42.415  25.184  25.420  1.00  0.00    -0.269 OA
BRANCH  31  34
ATOM     34  C   UNL A   1      41.503  25.588  27.518  1.00  0.00     0.039 A 
ATOM     35  C   UNL A   1      40.236  25.596  28.113  1.00  0.00     0.014 A 
ATOM     36  C   UNL A   1      42.359  26.614  27.894  1.00  0.00     0.014 A 
ATOM     37  C   UNL A   1      39.879  26.539  29.115  1.00  0.00     0.010 A 
ATOM     38  C   UNL A   1      42.015  27.509  28.955  1.00  0.00     0.010 A 
ATOM     39  C   UNL A   1      40.786  27.470  29.648  1.00  0.00    -0.014 A 
BRANCH  39  40
ATOM     40  C   UNL A   1      40.497  28.327  30.905  1.00  0.00     0.031 A 
ATOM     41  C   UNL A   1      39.474  29.475  30.912  1.00  0.00     0.074 A 
ATOM     42  C   UNL A   1      41.203  28.208  32.064  1.00  0.00     0.049 A 
ATOM     43  N   UNL A   1      39.333  30.472  31.765  1.00  0.00    -0.248 NA
ATOM     44  C   UNL A   1      38.485  29.503  29.827  1.00  0.00     0.031 C 
ATOM     45  C   UNL A   1      42.212  27.196  32.376  1.00  0.00     0.029 A 
ATOM     46  N   UNL A   1      41.219  29.009  33.203  1.00  0.00    -0.354 N 
ATOM     47  C   UNL A   1      38.286  31.264  31.291  1.00  0.00     0.074 A 
ATOM     48  C   UNL A   1      37.863  30.655  30.043  1.00  0.00     0.031 C 
ATOM     49  C   UNL A   1      42.783  27.464  33.559  1.00  0.00     0.029 A 
ATOM     50  C   UNL A   1      42.223  28.694  34.099  1.00  0.00     0.049 A 
ATOM     51  H   UNL A   1      40.572  29.736  33.357  1.00  0.00     0.167 HD
ATOM     52  C   UNL A   1      37.683  32.357  31.837  1.00  0.00     0.037 A 
ATOM     53  C   UNL A   1      42.704  29.300  35.207  1.00  0.00     0.037 A 
ATOM     54  C   UNL A   1      37.954  32.924  33.140  1.00  0.00     0.049 A 
ATOM     55  C   UNL A   1      42.065  30.528  35.787  1.00  0.00     0.074 A 
ATOM     56  C   UNL A   1      37.272  33.949  33.786  1.00  0.00     0.029 A 
ATOM     57  N   UNL A   1      38.952  32.520  34.007  1.00  0.00    -0.354 N 
ATOM     58  N   UNL A   1      41.064  31.226  35.323  1.00  0.00    -0.248 NA
ATOM     59  C   UNL A   1      42.594  31.025  37.072  1.00  0.00     0.031 C 
ATOM     60  C   UNL A   1      37.868  34.178  35.030  1.00  0.00     0.029 A 
ATOM     61  C   UNL A   1      38.900  33.272  35.176  1.00  0.00     0.049 A 
ATOM     62  H   UNL A   1      39.602  31.805  33.825  1.00  0.00     0.167 HD
ATOM     63  C   UNL A   1      40.789  32.185  36.294  1.00  0.00     0.074 A 
ATOM     64  C   UNL A   1      41.752  32.011  37.356  1.00  0.00     0.031 C 
ATOM     65  C   UNL A   1      39.794  33.102  36.292  1.00  0.00     0.037 A 
BRANCH  52  66
ATOM     66  C   UNL A   1      36.587  33.031  31.043  1.00  0.00     0.058 A 
ATOM     67  C   UNL A   1      35.236  32.911  31.403  1.00  0.00     0.135 A 
ATOM     68  C   UNL A   1      36.902  33.885  29.970  1.00  0.00     0.135 A 
ATOM     69  F   UNL A   1      34.878  32.124  32.430  1.00  0.00    -0.206 F 
ATOM     70  C   UNL A   1      34.233  33.565  30.696  1.00  0.00     0.059 A 
ATOM     71  C   UNL A   1      35.916  34.576  29.270  1.00  0.00     0.059 A 
ATOM     72  F   UNL A   1      38.181  34.069  29.605  1.00  0.00    -0.206 F 
ATOM     73  C   UNL A   1      34.582  34.390  29.625  1.00  0.00     0.060 A 
BRANCH  73  74
ATOM     74  S   UNL A   1      33.266  35.215  28.703  1.00  0.00     0.124 S 
ATOM     75  O   UNL A   1      32.483  35.805  29.786  1.00  0.00    -0.237 OA
ATOM     76  O   UNL A   1      34.006  36.160  27.872  1.00  0.00    -0.237 OA
ATOM     77  O   UNL A   1      32.620  34.123  27.982  1.00  0.00    -0.744 OA
ENDBRANCH  73  74
ENDBRANCH  52  66
BRANCH  53  78
ATOM     78  C   UNL A   1      43.895  28.725  35.895  1.00  0.00     0.058 A 
ATOM     79  C   UNL A   1      45.179  29.230  35.652  1.00  0.00     0.135 A 
ATOM     80  C   UNL A   1      43.768  27.653  36.792  1.00  0.00     0.135 A 
ATOM     81  F   UNL A   1      45.347  30.245  34.790  1.00  0.00    -0.206 F 
ATOM     82  C   UNL A   1      46.303  28.683  36.261  1.00  0.00     0.059 A 
ATOM     83  C   UNL A   1      44.875  27.100  37.429  1.00  0.00     0.059 A 
ATOM     84  F   UNL A   1      42.557  27.143  37.065  1.00  0.00    -0.206 F 
ATOM     85  C   UNL A   1      46.140  27.619  37.150  1.00  0.00     0.060 A 
BRANCH  85  86
ATOM     86  S   UNL A   1      47.606  26.949  37.966  1.00  0.00     0.124 S 
ATOM     87  O   UNL A   1      47.144  26.819  39.343  1.00  0.00    -0.237 OA
ATOM     88  O   UNL A   1      47.813  25.700  37.241  1.00  0.00    -0.237 OA
ATOM     89  O   UNL A   1      48.618  27.975  37.733  1.00  0.00    -0.744 OA
ENDBRANCH  85  86
ENDBRANCH  53  78
BRANCH  65  90
ATOM     90  C   UNL A   1      39.575  33.937  37.525  1.00  0.00     0.058 A 
ATOM     91  C   UNL A   1      38.838  33.479  38.628  1.00  0.00     0.135 A 
ATOM     92  C   UNL A   1      40.188  35.199  37.633  1.00  0.00     0.135 A 
ATOM     93  F   UNL A   1      38.216  32.291  38.577  1.00  0.00    -0.206 F 
ATOM     94  C   UNL A   1      38.722  34.236  39.793  1.00  0.00     0.059 A 
ATOM     95  C   UNL A   1      40.100  35.963  38.794  1.00  0.00     0.059 A 
ATOM     96  F   UNL A   1      40.901  35.692  36.609  1.00  0.00    -0.206 F 
ATOM     97  C   UNL A   1      39.365  35.473  39.871  1.00  0.00     0.060 A 
BRANCH  97  98
ATOM     98  S   UNL A   1      39.280  36.408  41.417  1.00  0.00     0.124 S 
ATOM     99  O   UNL A   1      38.205  35.718  42.123  1.00  0.00    -0.237 OA
ATOM    100  O   UNL A   1      40.619  36.224  41.970  1.00  0.00    -0.237 OA
ATOM    101  O   UNL A   1      38.973  37.765  40.979  1.00  0.00    -0.744 OA
ENDBRANCH  97  98
ENDBRANCH  65  90
ENDBRANCH  39  40
ENDBRANCH  31  34
ENDBRANCH  29  30
ENDBRANCH  28  29
ENDBRANCH   1  28
TORSDOF 18
ENDMDL
