MODEL 1
REMARK VINA RESULT:     -12.6      0.000      0.000
REMARK SMILES C=CCn1nc(C(=O)NCCCNC(=O)c2ccc(-c3c4nc(c(-c5c(F)cc(S(=O)(=O)[O-])cc5F)c5ccc([nH]5)c(-c5c(F)cc(S(=O)(=O)[O-])cc5F)c5nc(c(-c6c(F)cc(S(=O)(=O)[O-])cc6F)c6ccc3[nH]6)C=C5)C=C4)cc2)c2c1CC[C@@H]([NH+]1CCC(C(C)(C)O)CC1)C2
REMARK SMILES IDX 11 1 10 2 9 3 7 4 8 5 6 7 4 8 5 9 83 10 82 11 84 12 97 13
REMARK SMILES IDX 85 14 86 15 3 16 2 17 1 18 87 19 88 20 96 21 89 23 95 24
REMARK SMILES IDX 90 25 91 26 92 27 93 28 94 29 12 31 13 32 14 33 15 35 16 36
REMARK SMILES IDX 17 37 81 38 18 39 80 40 19 41 20 42 21 43 74 44 22 45 79 46
REMARK SMILES IDX 73 47 75 48 23 49 78 50 72 51 71 52 24 54 58 55 37 56 57 57
REMARK SMILES IDX 38 58 41 59 56 60 76 61 39 62 40 63 55 65 77 66 42 67 25 68
REMARK SMILES IDX 26 69 35 70 27 71 28 72 34 73 36 74 29 75 30 76 31 77 32 78
REMARK SMILES IDX 33 79 59 80 60 81 69 82 61 83 62 84 68 85 70 86 63 87 64 88
REMARK SMILES IDX 65 89 66 90 67 91 43 92 44 93 53 94 45 95 46 96 52 97 54 98
REMARK SMILES IDX 47 99 48 100 49 101 50 102 51 103
REMARK H PARENT 9 6 87 22 94 30 13 34 75 53 41 64
REMARK Flexibility Score: inf
ROOT
ATOM      1  C   UNL A   1      34.499  30.578  27.175  1.00  0.00     0.042 C 
ENDROOT
BRANCH   1   2
ATOM      2  C   UNL A   1      34.155  29.082  27.314  1.00  0.00     0.118 C 
BRANCH   2   3
ATOM      3  N   UNL A   1      32.815  28.842  27.853  1.00  0.00    -0.351 N 
ATOM      4  C   UNL A   1      31.694  28.121  27.470  1.00  0.00     0.272 C 
ATOM      5  O   UNL A   1      30.827  28.037  28.347  1.00  0.00    -0.267 OA
ATOM      6  H   UNL A   1      32.672  29.314  28.706  1.00  0.00     0.163 HD
BRANCH   4   7
ATOM      7  C   UNL A   1      31.501  27.480  26.138  1.00  0.00     0.153 A 
ATOM      8  N   UNL A   1      31.454  27.366  23.981  1.00  0.00    -0.265 N 
ATOM      9  N   UNL A   1      31.450  28.240  25.014  1.00  0.00    -0.167 NA
ATOM     10  C   UNL A   1      31.182  26.094  24.395  1.00  0.00     0.043 A 
ATOM     11  C   UNL A   1      31.439  26.121  25.741  1.00  0.00     0.012 A 
ATOM     12  C   UNL A   1      30.910  24.876  23.593  1.00  0.00     0.062 C 
ATOM     13  C   UNL A   1      31.680  24.888  26.483  1.00  0.00     0.105 C 
ATOM     14  C   UNL A   1      31.032  23.609  24.474  1.00  0.00     0.072 C 
ATOM     15  C   UNL A   1      32.024  23.645  25.661  1.00  0.00     0.189 C 
BRANCH   8  16
ATOM     16  C   UNL A   1      31.837  27.772  22.623  1.00  0.00     0.171 C 
BRANCH  16  17
ATOM     17  C   UNL A   1      33.008  28.717  22.540  1.00  0.00    -0.011 C 
ATOM     18  C   UNL A   1      34.197  28.538  23.135  1.00  0.00     0.006 C 
ENDBRANCH  16  17
ENDBRANCH   8  16
BRANCH  15  19
ATOM     19  N   UNL A   1      33.492  23.488  25.612  1.00  0.00    -0.332 N 
ATOM     20  C   UNL A   1      34.163  23.248  24.350  1.00  0.00     0.262 C 
ATOM     21  C   UNL A   1      34.100  22.683  26.654  1.00  0.00     0.262 C 
ATOM     22  H   UNL A   1      33.672  24.473  25.802  1.00  0.00     0.348 HD
ATOM     23  C   UNL A   1      34.036  21.811  23.882  1.00  0.00     0.068 C 
ATOM     24  C   UNL A   1      33.866  21.204  26.425  1.00  0.00     0.068 C 
ATOM     25  C   UNL A   1      34.105  20.711  24.972  1.00  0.00     0.031 C 
BRANCH  25  26
ATOM     26  C   UNL A   1      33.202  19.467  24.647  1.00  0.00     0.062 C 
ATOM     27  C   UNL A   1      32.328  19.655  23.403  1.00  0.00     0.042 C 
ATOM     28  C   UNL A   1      34.056  18.204  24.514  1.00  0.00     0.042 C 
BRANCH  26  29
ATOM     29  O   UNL A   1      32.295  19.218  25.723  1.00  0.00    -0.390 OA
ATOM     30  H   UNL A   1      32.649  19.603  26.540  1.00  0.00     0.211 HD
ENDBRANCH  26  29
ENDBRANCH  25  26
ENDBRANCH  15  19
ENDBRANCH   4   7
ENDBRANCH   2   3
ENDBRANCH   1   2
BRANCH   1  31
ATOM     31  C   UNL A   1      35.643  31.117  27.983  1.00  0.00     0.118 C 
BRANCH  31  32
ATOM     32  N   UNL A   1      35.197  31.990  29.076  1.00  0.00    -0.352 N 
ATOM     33  C   UNL A   1      35.430  31.809  30.433  1.00  0.00     0.251 C 
ATOM     34  H   UNL A   1      34.679  32.788  28.819  1.00  0.00     0.163 HD
ATOM     35  O   UNL A   1      34.702  32.297  31.274  1.00  0.00    -0.269 OA
BRANCH  33  36
ATOM     36  C   UNL A   1      36.597  30.985  30.794  1.00  0.00     0.039 A 
ATOM     37  C   UNL A   1      36.583  29.593  30.724  1.00  0.00     0.014 A 
ATOM     38  C   UNL A   1      37.774  31.684  31.022  1.00  0.00     0.014 A 
ATOM     39  C   UNL A   1      37.805  28.927  30.783  1.00  0.00     0.010 A 
ATOM     40  C   UNL A   1      38.952  31.057  30.752  1.00  0.00     0.010 A 
ATOM     41  C   UNL A   1      38.994  29.676  30.755  1.00  0.00    -0.014 A 
BRANCH  41  42
ATOM     42  C   UNL A   1      40.309  29.063  30.624  1.00  0.00     0.031 A 
ATOM     43  C   UNL A   1      41.024  28.907  31.915  1.00  0.00     0.074 A 
ATOM     44  C   UNL A   1      40.750  28.507  29.471  1.00  0.00     0.049 A 
ATOM     45  N   UNL A   1      41.954  29.671  32.378  1.00  0.00    -0.248 NA
ATOM     46  C   UNL A   1      40.507  27.942  32.901  1.00  0.00     0.031 C 
ATOM     47  C   UNL A   1      40.028  28.297  28.207  1.00  0.00     0.029 A 
ATOM     48  N   UNL A   1      41.948  27.920  29.211  1.00  0.00    -0.354 N 
ATOM     49  C   UNL A   1      42.347  29.092  33.579  1.00  0.00     0.074 A 
ATOM     50  C   UNL A   1      41.270  28.220  33.962  1.00  0.00     0.031 C 
ATOM     51  C   UNL A   1      40.707  27.432  27.423  1.00  0.00     0.029 A 
ATOM     52  C   UNL A   1      41.999  27.184  28.029  1.00  0.00     0.049 A 
ATOM     53  H   UNL A   1      42.722  28.009  29.813  1.00  0.00     0.167 HD
ATOM     54  C   UNL A   1      43.649  29.153  33.977  1.00  0.00     0.037 A 
ATOM     55  C   UNL A   1      43.036  26.429  27.583  1.00  0.00     0.037 A 
ATOM     56  C   UNL A   1      44.375  30.126  33.189  1.00  0.00     0.049 A 
ATOM     57  C   UNL A   1      44.247  26.913  28.297  1.00  0.00     0.074 A 
ATOM     58  C   UNL A   1      44.225  31.475  32.929  1.00  0.00     0.029 A 
ATOM     59  N   UNL A   1      45.187  29.642  32.190  1.00  0.00    -0.354 N 
ATOM     60  N   UNL A   1      44.762  28.100  28.123  1.00  0.00    -0.248 NA
ATOM     61  C   UNL A   1      44.584  26.269  29.557  1.00  0.00     0.031 C 
ATOM     62  C   UNL A   1      44.540  31.622  31.545  1.00  0.00     0.029 A 
ATOM     63  C   UNL A   1      44.960  30.382  31.059  1.00  0.00     0.049 A 
ATOM     64  H   UNL A   1      45.822  28.894  32.274  1.00  0.00     0.167 HD
ATOM     65  C   UNL A   1      45.098  28.531  29.398  1.00  0.00     0.074 A 
ATOM     66  C   UNL A   1      45.043  27.328  30.229  1.00  0.00     0.031 C 
ATOM     67  C   UNL A   1      45.096  29.860  29.715  1.00  0.00     0.037 A 
BRANCH  54  68
ATOM     68  C   UNL A   1      44.366  28.069  34.756  1.00  0.00     0.058 A 
ATOM     69  C   UNL A   1      44.386  26.759  34.229  1.00  0.00     0.135 A 
ATOM     70  C   UNL A   1      44.776  28.184  36.103  1.00  0.00     0.135 A 
ATOM     71  F   UNL A   1      44.022  26.527  32.958  1.00  0.00    -0.206 F 
ATOM     72  C   UNL A   1      44.699  25.644  35.005  1.00  0.00     0.059 A 
ATOM     73  C   UNL A   1      45.143  27.092  36.879  1.00  0.00     0.059 A 
ATOM     74  F   UNL A   1      44.756  29.343  36.770  1.00  0.00    -0.206 F 
ATOM     75  C   UNL A   1      45.061  25.821  36.336  1.00  0.00     0.060 A 
BRANCH  75  76
ATOM     76  S   UNL A   1      45.380  24.381  37.366  1.00  0.00     0.124 S 
ATOM     77  O   UNL A   1      46.826  24.461  37.535  1.00  0.00    -0.237 OA
ATOM     78  O   UNL A   1      44.579  24.676  38.549  1.00  0.00    -0.237 OA
ATOM     79  O   UNL A   1      44.897  23.272  36.549  1.00  0.00    -0.744 OA
ENDBRANCH  75  76
ENDBRANCH  54  68
BRANCH  55  80
ATOM     80  C   UNL A   1      43.006  25.131  26.857  1.00  0.00     0.058 A 
ATOM     81  C   UNL A   1      43.368  25.050  25.499  1.00  0.00     0.135 A 
ATOM     82  C   UNL A   1      42.924  23.907  27.550  1.00  0.00     0.135 A 
ATOM     83  F   UNL A   1      43.483  26.167  24.765  1.00  0.00    -0.206 F 
ATOM     84  C   UNL A   1      43.697  23.836  24.883  1.00  0.00     0.059 A 
ATOM     85  C   UNL A   1      43.240  22.684  26.955  1.00  0.00     0.059 A 
ATOM     86  F   UNL A   1      42.626  23.875  28.858  1.00  0.00    -0.206 F 
ATOM     87  C   UNL A   1      43.655  22.659  25.628  1.00  0.00     0.060 A 
BRANCH  87  88
ATOM     88  S   UNL A   1      44.266  21.121  24.894  1.00  0.00     0.124 S 
ATOM     89  O   UNL A   1      43.164  20.201  25.157  1.00  0.00    -0.237 OA
ATOM     90  O   UNL A   1      44.461  21.499  23.499  1.00  0.00    -0.237 OA
ATOM     91  O   UNL A   1      45.494  20.853  25.640  1.00  0.00    -0.744 OA
ENDBRANCH  87  88
ENDBRANCH  55  80
BRANCH  67  92
ATOM     92  C   UNL A   1      45.062  30.863  28.588  1.00  0.00     0.058 A 
ATOM     93  C   UNL A   1      43.904  31.300  27.917  1.00  0.00     0.135 A 
ATOM     94  C   UNL A   1      46.268  31.497  28.251  1.00  0.00     0.135 A 
ATOM     95  F   UNL A   1      42.693  30.830  28.250  1.00  0.00    -0.206 F 
ATOM     96  C   UNL A   1      43.956  32.275  26.916  1.00  0.00     0.059 A 
ATOM     97  C   UNL A   1      46.338  32.494  27.284  1.00  0.00     0.059 A 
ATOM     98  F   UNL A   1      47.400  31.175  28.897  1.00  0.00    -0.206 F 
ATOM     99  C   UNL A   1      45.182  32.861  26.602  1.00  0.00     0.060 A 
BRANCH  99 100
ATOM    100  S   UNL A   1      45.257  34.134  25.323  1.00  0.00     0.124 S 
ATOM    101  O   UNL A   1      44.622  33.468  24.190  1.00  0.00    -0.237 OA
ATOM    102  O   UNL A   1      44.499  35.231  25.920  1.00  0.00    -0.237 OA
ATOM    103  O   UNL A   1      46.688  34.386  25.174  1.00  0.00    -0.744 OA
ENDBRANCH  99 100
ENDBRANCH  67  92
ENDBRANCH  41  42
ENDBRANCH  33  36
ENDBRANCH  31  32
ENDBRANCH   1  31
TORSDOF 18
ENDMDL
MODEL 2
REMARK VINA RESULT:     -12.5      2.800      9.605
REMARK SMILES C=CCn1nc(C(=O)NCCCNC(=O)c2ccc(-c3c4nc(c(-c5c(F)cc(S(=O)(=O)[O-])cc5F)c5ccc([nH]5)c(-c5c(F)cc(S(=O)(=O)[O-])cc5F)c5nc(c(-c6c(F)cc(S(=O)(=O)[O-])cc6F)c6ccc3[nH]6)C=C5)C=C4)cc2)c2c1CC[C@@H]([NH+]1CCC(C(C)(C)O)CC1)C2
REMARK SMILES IDX 11 1 10 2 9 3 7 4 8 5 6 7 4 8 5 9 83 10 82 11 84 12 97 13
REMARK SMILES IDX 85 14 86 15 3 16 2 17 1 18 87 19 88 20 96 21 89 23 95 24
REMARK SMILES IDX 90 25 91 26 92 27 93 28 94 29 12 31 13 32 14 33 15 35 16 36
REMARK SMILES IDX 17 37 81 38 18 39 80 40 19 41 20 42 21 43 74 44 22 45 79 46
REMARK SMILES IDX 73 47 75 48 23 49 78 50 72 51 71 52 24 54 58 55 37 56 57 57
REMARK SMILES IDX 38 58 41 59 56 60 76 61 39 62 40 63 55 65 77 66 42 67 25 68
REMARK SMILES IDX 26 69 35 70 27 71 28 72 34 73 36 74 29 75 30 76 31 77 32 78
REMARK SMILES IDX 33 79 59 80 60 81 69 82 61 83 62 84 68 85 70 86 63 87 64 88
REMARK SMILES IDX 65 89 66 90 67 91 43 92 44 93 53 94 45 95 46 96 52 97 54 98
REMARK SMILES IDX 47 99 48 100 49 101 50 102 51 103
REMARK H PARENT 9 6 87 22 94 30 13 34 75 53 41 64
REMARK Flexibility Score: inf
ROOT
ATOM      1  C   UNL A   1      38.385  23.589  25.896  1.00  0.00     0.042 C 
ENDROOT
BRANCH   1   2
ATOM      2  C   UNL A   1      37.531  22.338  25.604  1.00  0.00     0.118 C 
BRANCH   2   3
ATOM      3  N   UNL A   1      36.423  22.159  26.544  1.00  0.00    -0.351 N 
ATOM      4  C   UNL A   1      35.086  21.801  26.460  1.00  0.00     0.272 C 
ATOM      5  O   UNL A   1      34.557  21.577  27.555  1.00  0.00    -0.267 OA
ATOM      6  H   UNL A   1      36.696  22.339  27.472  1.00  0.00     0.163 HD
BRANCH   4   7
ATOM      7  C   UNL A   1      34.308  21.677  25.195  1.00  0.00     0.153 A 
ATOM      8  N   UNL A   1      33.101  20.691  23.698  1.00  0.00    -0.265 N 
ATOM      9  N   UNL A   1      33.931  20.454  24.740  1.00  0.00    -0.167 NA
ATOM     10  C   UNL A   1      33.186  21.984  23.270  1.00  0.00     0.043 A 
ATOM     11  C   UNL A   1      33.749  22.648  24.328  1.00  0.00     0.012 A 
ATOM     12  C   UNL A   1      32.603  22.620  22.063  1.00  0.00     0.062 C 
ATOM     13  C   UNL A   1      33.630  24.097  24.453  1.00  0.00     0.105 C 
ATOM     14  C   UNL A   1      32.645  24.163  22.190  1.00  0.00     0.072 C 
ATOM     15  C   UNL A   1      32.549  24.775  23.609  1.00  0.00     0.189 C 
BRANCH   8  16
ATOM     16  C   UNL A   1      32.156  19.677  23.213  1.00  0.00     0.171 C 
BRANCH  16  17
ATOM     17  C   UNL A   1      32.458  18.262  23.636  1.00  0.00    -0.011 C 
ATOM     18  C   UNL A   1      33.278  17.415  22.994  1.00  0.00     0.006 C 
ENDBRANCH  16  17
ENDBRANCH   8  16
BRANCH  15  19
ATOM     19  N   UNL A   1      31.335  24.957  24.430  1.00  0.00    -0.332 N 
ATOM     20  C   UNL A   1      30.124  25.493  23.842  1.00  0.00     0.262 C 
ATOM     21  C   UNL A   1      31.521  25.503  25.761  1.00  0.00     0.262 C 
ATOM     22  H   UNL A   1      31.151  23.957  24.502  1.00  0.00     0.348 HD
ATOM     23  C   UNL A   1      30.176  26.998  23.663  1.00  0.00     0.068 C 
ATOM     24  C   UNL A   1      31.798  26.991  25.721  1.00  0.00     0.068 C 
ATOM     25  C   UNL A   1      30.875  27.813  24.781  1.00  0.00     0.031 C 
BRANCH  25  26
ATOM     26  C   UNL A   1      31.617  29.088  24.240  1.00  0.00     0.062 C 
ATOM     27  C   UNL A   1      32.720  29.595  25.174  1.00  0.00     0.042 C 
ATOM     28  C   UNL A   1      32.179  28.827  22.840  1.00  0.00     0.042 C 
BRANCH  26  29
ATOM     29  O   UNL A   1      30.698  30.174  24.100  1.00  0.00    -0.390 OA
ATOM     30  H   UNL A   1      31.189  31.010  24.060  1.00  0.00     0.211 HD
ENDBRANCH  26  29
ENDBRANCH  25  26
ENDBRANCH  15  19
ENDBRANCH   4   7
ENDBRANCH   2   3
ENDBRANCH   1   2
BRANCH   1  31
ATOM     31  C   UNL A   1      39.421  23.498  26.977  1.00  0.00     0.118 C 
BRANCH  31  32
ATOM     32  N   UNL A   1      40.654  22.844  26.520  1.00  0.00    -0.352 N 
ATOM     33  C   UNL A   1      41.796  23.468  26.034  1.00  0.00     0.251 C 
ATOM     34  H   UNL A   1      40.672  21.860  26.563  1.00  0.00     0.163 HD
ATOM     35  O   UNL A   1      42.572  22.892  25.299  1.00  0.00    -0.269 OA
BRANCH  33  36
ATOM     36  C   UNL A   1      42.005  24.867  26.448  1.00  0.00     0.039 A 
ATOM     37  C   UNL A   1      41.334  25.934  25.853  1.00  0.00     0.014 A 
ATOM     38  C   UNL A   1      42.765  25.043  27.596  1.00  0.00     0.014 A 
ATOM     39  C   UNL A   1      41.360  27.164  26.506  1.00  0.00     0.010 A 
ATOM     40  C   UNL A   1      42.512  26.135  28.369  1.00  0.00     0.010 A 
ATOM     41  C   UNL A   1      41.921  27.243  27.792  1.00  0.00    -0.014 A 
BRANCH  41  42
ATOM     42  C   UNL A   1      41.826  28.437  28.622  1.00  0.00     0.031 A 
ATOM     43  C   UNL A   1      42.937  29.397  28.414  1.00  0.00     0.074 A 
ATOM     44  C   UNL A   1      40.730  28.734  29.359  1.00  0.00     0.049 A 
ATOM     45  N   UNL A   1      43.979  29.544  29.158  1.00  0.00    -0.248 NA
ATOM     46  C   UNL A   1      43.023  30.115  27.130  1.00  0.00     0.031 C 
ATOM     47  C   UNL A   1      39.431  28.046  29.410  1.00  0.00     0.029 A 
ATOM     48  N   UNL A   1      40.517  29.796  30.180  1.00  0.00    -0.354 N 
ATOM     49  C   UNL A   1      44.695  30.593  28.594  1.00  0.00     0.074 A 
ATOM     50  C   UNL A   1      44.213  30.712  27.244  1.00  0.00     0.031 C 
ATOM     51  C   UNL A   1      38.512  28.832  30.012  1.00  0.00     0.029 A 
ATOM     52  C   UNL A   1      39.192  29.983  30.570  1.00  0.00     0.049 A 
ATOM     53  H   UNL A   1      41.244  30.389  30.477  1.00  0.00     0.167 HD
ATOM     54  C   UNL A   1      45.389  31.456  29.388  1.00  0.00     0.037 A 
ATOM     55  C   UNL A   1      38.696  31.012  31.304  1.00  0.00     0.037 A 
ATOM     56  C   UNL A   1      45.518  30.922  30.727  1.00  0.00     0.049 A 
ATOM     57  C   UNL A   1      39.851  31.614  32.021  1.00  0.00     0.074 A 
ATOM     58  C   UNL A   1      46.036  29.759  31.266  1.00  0.00     0.029 A 
ATOM     59  N   UNL A   1      44.683  31.439  31.690  1.00  0.00    -0.354 N 
ATOM     60  N   UNL A   1      40.523  30.995  32.955  1.00  0.00    -0.248 NA
ATOM     61  C   UNL A   1      40.561  32.696  31.358  1.00  0.00     0.031 C 
ATOM     62  C   UNL A   1      45.122  29.392  32.299  1.00  0.00     0.029 A 
ATOM     63  C   UNL A   1      44.156  30.394  32.403  1.00  0.00     0.049 A 
ATOM     64  H   UNL A   1      44.496  32.394  31.840  1.00  0.00     0.167 HD
ATOM     65  C   UNL A   1      41.852  31.294  32.691  1.00  0.00     0.074 A 
ATOM     66  C   UNL A   1      41.806  32.412  31.748  1.00  0.00     0.031 C 
ATOM     67  C   UNL A   1      42.849  30.422  33.026  1.00  0.00     0.037 A 
BRANCH  54  68
ATOM     68  C   UNL A   1      45.578  32.932  29.101  1.00  0.00     0.058 A 
ATOM     69  C   UNL A   1      44.438  33.718  28.826  1.00  0.00     0.135 A 
ATOM     70  C   UNL A   1      46.817  33.541  28.804  1.00  0.00     0.135 A 
ATOM     71  F   UNL A   1      43.205  33.246  29.073  1.00  0.00    -0.206 F 
ATOM     72  C   UNL A   1      44.520  34.970  28.219  1.00  0.00     0.059 A 
ATOM     73  C   UNL A   1      46.923  34.810  28.247  1.00  0.00     0.059 A 
ATOM     74  F   UNL A   1      47.987  32.911  28.947  1.00  0.00    -0.206 F 
ATOM     75  C   UNL A   1      45.769  35.501  27.918  1.00  0.00     0.060 A 
BRANCH  75  76
ATOM     76  S   UNL A   1      45.878  37.076  27.055  1.00  0.00     0.124 S 
ATOM     77  O   UNL A   1      44.469  37.395  26.857  1.00  0.00    -0.237 OA
ATOM     78  O   UNL A   1      46.593  37.899  28.025  1.00  0.00    -0.237 OA
ATOM     79  O   UNL A   1      46.630  36.745  25.848  1.00  0.00    -0.744 OA
ENDBRANCH  75  76
ENDBRANCH  54  68
BRANCH  55  80
ATOM     80  C   UNL A   1      37.388  31.709  31.176  1.00  0.00     0.058 A 
ATOM     81  C   UNL A   1      36.339  31.459  32.081  1.00  0.00     0.135 A 
ATOM     82  C   UNL A   1      37.244  32.852  30.363  1.00  0.00     0.135 A 
ATOM     83  F   UNL A   1      36.397  30.400  32.902  1.00  0.00    -0.206 F 
ATOM     84  C   UNL A   1      35.248  32.326  32.221  1.00  0.00     0.059 A 
ATOM     85  C   UNL A   1      36.163  33.727  30.481  1.00  0.00     0.059 A 
ATOM     86  F   UNL A   1      38.206  33.204  29.496  1.00  0.00    -0.206 F 
ATOM     87  C   UNL A   1      35.182  33.473  31.433  1.00  0.00     0.060 A 
BRANCH  87  88
ATOM     88  S   UNL A   1      33.882  34.694  31.748  1.00  0.00     0.124 S 
ATOM     89  O   UNL A   1      33.069  34.017  32.753  1.00  0.00    -0.237 OA
ATOM     90  O   UNL A   1      34.644  35.846  32.215  1.00  0.00    -0.237 OA
ATOM     91  O   UNL A   1      33.249  34.859  30.441  1.00  0.00    -0.744 OA
ENDBRANCH  87  88
ENDBRANCH  55  80
BRANCH  67  92
ATOM     92  C   UNL A   1      42.526  29.301  33.983  1.00  0.00     0.058 A 
ATOM     93  C   UNL A   1      41.957  28.062  33.630  1.00  0.00     0.135 A 
ATOM     94  C   UNL A   1      42.923  29.459  35.320  1.00  0.00     0.135 A 
ATOM     95  F   UNL A   1      41.649  27.781  32.355  1.00  0.00    -0.206 F 
ATOM     96  C   UNL A   1      41.739  27.056  34.576  1.00  0.00     0.059 A 
ATOM     97  C   UNL A   1      42.749  28.459  36.270  1.00  0.00     0.059 A 
ATOM     98  F   UNL A   1      43.530  30.591  35.711  1.00  0.00    -0.206 F 
ATOM     99  C   UNL A   1      42.133  27.268  35.897  1.00  0.00     0.060 A 
BRANCH  99 100
ATOM    100  S   UNL A   1      41.871  25.967  37.122  1.00  0.00     0.124 S 
ATOM    101  O   UNL A   1      42.147  24.759  36.351  1.00  0.00    -0.237 OA
ATOM    102  O   UNL A   1      42.850  26.298  38.153  1.00  0.00    -0.237 OA
ATOM    103  O   UNL A   1      40.476  26.147  37.520  1.00  0.00    -0.744 OA
ENDBRANCH  99 100
ENDBRANCH  67  92
ENDBRANCH  41  42
ENDBRANCH  33  36
ENDBRANCH  31  32
ENDBRANCH   1  31
TORSDOF 18
ENDMDL
MODEL 3
REMARK VINA RESULT:     -12.3      1.351      2.152
REMARK SMILES C=CCn1nc(C(=O)NCCCNC(=O)c2ccc(-c3c4nc(c(-c5c(F)cc(S(=O)(=O)[O-])cc5F)c5ccc([nH]5)c(-c5c(F)cc(S(=O)(=O)[O-])cc5F)c5nc(c(-c6c(F)cc(S(=O)(=O)[O-])cc6F)c6ccc3[nH]6)C=C5)C=C4)cc2)c2c1CC[C@@H]([NH+]1CCC(C(C)(C)O)CC1)C2
REMARK SMILES IDX 11 1 10 2 9 3 7 4 8 5 6 7 4 8 5 9 83 10 82 11 84 12 97 13
REMARK SMILES IDX 85 14 86 15 3 16 2 17 1 18 87 19 88 20 96 21 89 23 95 24
REMARK SMILES IDX 90 25 91 26 92 27 93 28 94 29 12 31 13 32 14 33 15 35 16 36
REMARK SMILES IDX 17 37 81 38 18 39 80 40 19 41 20 42 21 43 74 44 22 45 79 46
REMARK SMILES IDX 73 47 75 48 23 49 78 50 72 51 71 52 24 54 58 55 37 56 57 57
REMARK SMILES IDX 38 58 41 59 56 60 76 61 39 62 40 63 55 65 77 66 42 67 25 68
REMARK SMILES IDX 26 69 35 70 27 71 28 72 34 73 36 74 29 75 30 76 31 77 32 78
REMARK SMILES IDX 33 79 59 80 60 81 69 82 61 83 62 84 68 85 70 86 63 87 64 88
REMARK SMILES IDX 65 89 66 90 67 91 43 92 44 93 53 94 45 95 46 96 52 97 54 98
REMARK SMILES IDX 47 99 48 100 49 101 50 102 51 103
REMARK H PARENT 9 6 87 22 94 30 13 34 75 53 41 64
REMARK Flexibility Score: inf
ROOT
ATOM      1  C   UNL A   1      33.021  31.542  27.547  1.00  0.00     0.042 C 
ENDROOT
BRANCH   1   2
ATOM      2  C   UNL A   1      33.354  30.099  27.117  1.00  0.00     0.118 C 
BRANCH   2   3
ATOM      3  N   UNL A   1      33.608  29.965  25.682  1.00  0.00    -0.351 N 
ATOM      4  C   UNL A   1      33.203  29.110  24.668  1.00  0.00     0.272 C 
ATOM      5  O   UNL A   1      33.514  29.493  23.534  1.00  0.00    -0.267 OA
ATOM      6  H   UNL A   1      34.223  30.659  25.351  1.00  0.00     0.163 HD
BRANCH   4   7
ATOM      7  C   UNL A   1      32.457  27.835  24.867  1.00  0.00     0.153 A 
ATOM      8  N   UNL A   1      30.838  26.426  24.614  1.00  0.00    -0.265 N 
ATOM      9  N   UNL A   1      31.162  27.731  24.468  1.00  0.00    -0.167 NA
ATOM     10  C   UNL A   1      31.751  25.763  25.382  1.00  0.00     0.043 A 
ATOM     11  C   UNL A   1      32.862  26.566  25.345  1.00  0.00     0.012 A 
ATOM     12  C   UNL A   1      31.697  24.389  25.941  1.00  0.00     0.062 C 
ATOM     13  C   UNL A   1      34.180  26.036  25.678  1.00  0.00     0.105 C 
ATOM     14  C   UNL A   1      33.101  23.943  26.418  1.00  0.00     0.072 C 
ATOM     15  C   UNL A   1      34.333  24.514  25.675  1.00  0.00     0.189 C 
BRANCH   8  16
ATOM     16  C   UNL A   1      29.702  25.825  23.905  1.00  0.00     0.171 C 
BRANCH  16  17
ATOM     17  C   UNL A   1      28.412  26.600  23.983  1.00  0.00    -0.011 C 
ATOM     18  C   UNL A   1      28.135  27.724  23.304  1.00  0.00     0.006 C 
ENDBRANCH  16  17
ENDBRANCH   8  16
BRANCH  15  19
ATOM     19  N   UNL A   1      34.877  24.084  24.371  1.00  0.00    -0.332 N 
ATOM     20  C   UNL A   1      33.987  23.689  23.298  1.00  0.00     0.262 C 
ATOM     21  C   UNL A   1      36.033  23.209  24.400  1.00  0.00     0.262 C 
ATOM     22  H   UNL A   1      35.175  25.023  24.109  1.00  0.00     0.348 HD
ATOM     23  C   UNL A   1      33.435  22.288  23.481  1.00  0.00     0.068 C 
ATOM     24  C   UNL A   1      35.653  21.794  24.784  1.00  0.00     0.068 C 
ATOM     25  C   UNL A   1      34.400  21.226  24.066  1.00  0.00     0.031 C 
BRANCH  25  26
ATOM     26  C   UNL A   1      33.671  20.163  24.966  1.00  0.00     0.062 C 
ATOM     27  C   UNL A   1      32.146  20.307  24.967  1.00  0.00     0.042 C 
ATOM     28  C   UNL A   1      34.074  18.745  24.555  1.00  0.00     0.042 C 
BRANCH  26  29
ATOM     29  O   UNL A   1      34.074  20.309  26.329  1.00  0.00    -0.390 OA
ATOM     30  H   UNL A   1      33.289  20.345  26.897  1.00  0.00     0.211 HD
ENDBRANCH  26  29
ENDBRANCH  25  26
ENDBRANCH  15  19
ENDBRANCH   4   7
ENDBRANCH   2   3
ENDBRANCH   1   2
BRANCH   1  31
ATOM     31  C   UNL A   1      34.154  32.435  27.957  1.00  0.00     0.118 C 
BRANCH  31  32
ATOM     32  N   UNL A   1      34.112  32.778  29.384  1.00  0.00    -0.352 N 
ATOM     33  C   UNL A   1      34.930  32.271  30.385  1.00  0.00     0.251 C 
ATOM     34  H   UNL A   1      33.432  33.436  29.659  1.00  0.00     0.163 HD
ATOM     35  O   UNL A   1      34.579  32.258  31.548  1.00  0.00    -0.269 OA
BRANCH  33  36
ATOM     36  C   UNL A   1      36.237  31.740  29.958  1.00  0.00     0.039 A 
ATOM     37  C   UNL A   1      37.362  32.548  29.808  1.00  0.00     0.014 A 
ATOM     38  C   UNL A   1      36.329  30.357  29.900  1.00  0.00     0.014 A 
ATOM     39  C   UNL A   1      38.603  31.924  29.705  1.00  0.00     0.010 A 
ATOM     40  C   UNL A   1      37.546  29.788  30.125  1.00  0.00     0.010 A 
ATOM     41  C   UNL A   1      38.687  30.536  29.908  1.00  0.00    -0.014 A 
BRANCH  41  42
ATOM     42  C   UNL A   1      39.958  29.829  30.005  1.00  0.00     0.031 A 
ATOM     43  C   UNL A   1      40.387  29.566  31.400  1.00  0.00     0.074 A 
ATOM     44  C   UNL A   1      40.582  29.288  28.933  1.00  0.00     0.049 A 
ATOM     45  N   UNL A   1      41.255  30.236  32.080  1.00  0.00    -0.248 NA
ATOM     46  C   UNL A   1      39.619  28.604  32.210  1.00  0.00     0.031 C 
ATOM     47  C   UNL A   1      40.116  29.186  27.541  1.00  0.00     0.029 A 
ATOM     48  N   UNL A   1      41.766  28.622  28.881  1.00  0.00    -0.354 N 
ATOM     49  C   UNL A   1      41.359  29.580  33.300  1.00  0.00     0.074 A 
ATOM     50  C   UNL A   1      40.171  28.779  33.415  1.00  0.00     0.031 C 
ATOM     51  C   UNL A   1      40.879  28.304  26.859  1.00  0.00     0.029 A 
ATOM     52  C   UNL A   1      42.003  27.933  27.694  1.00  0.00     0.049 A 
ATOM     53  H   UNL A   1      42.408  28.627  29.628  1.00  0.00     0.167 HD
ATOM     54  C   UNL A   1      42.556  29.524  33.950  1.00  0.00     0.037 A 
ATOM     55  C   UNL A   1      43.056  27.119  27.420  1.00  0.00     0.037 A 
ATOM     56  C   UNL A   1      43.489  30.470  33.376  1.00  0.00     0.049 A 
ATOM     57  C   UNL A   1      44.128  27.478  28.384  1.00  0.00     0.074 A 
ATOM     58  C   UNL A   1      43.486  31.836  33.166  1.00  0.00     0.029 A 
ATOM     59  N   UNL A   1      44.451  29.965  32.531  1.00  0.00    -0.354 N 
ATOM     60  N   UNL A   1      44.746  28.629  28.380  1.00  0.00    -0.248 NA
ATOM     61  C   UNL A   1      44.162  26.759  29.648  1.00  0.00     0.031 C 
ATOM     62  C   UNL A   1      44.081  32.014  31.881  1.00  0.00     0.029 A 
ATOM     63  C   UNL A   1      44.505  30.766  31.420  1.00  0.00     0.049 A 
ATOM     64  H   UNL A   1      45.004  29.168  32.697  1.00  0.00     0.167 HD
ATOM     65  C   UNL A   1      44.848  28.980  29.719  1.00  0.00     0.074 A 
ATOM     66  C   UNL A   1      44.546  27.751  30.455  1.00  0.00     0.031 C 
ATOM     67  C   UNL A   1      44.873  30.291  30.103  1.00  0.00     0.037 A 
BRANCH  54  68
ATOM     68  C   UNL A   1      43.027  28.358  34.794  1.00  0.00     0.058 A 
ATOM     69  C   UNL A   1      43.476  28.612  36.108  1.00  0.00     0.135 A 
ATOM     70  C   UNL A   1      43.324  27.071  34.293  1.00  0.00     0.135 A 
ATOM     71  F   UNL A   1      43.246  29.799  36.692  1.00  0.00    -0.206 F 
ATOM     72  C   UNL A   1      44.241  27.696  36.829  1.00  0.00     0.059 A 
ATOM     73  C   UNL A   1      44.040  26.123  35.016  1.00  0.00     0.059 A 
ATOM     74  F   UNL A   1      43.025  26.691  33.047  1.00  0.00    -0.206 F 
ATOM     75  C   UNL A   1      44.530  26.459  36.266  1.00  0.00     0.060 A 
BRANCH  75  76
ATOM     76  S   UNL A   1      45.589  25.307  37.155  1.00  0.00     0.124 S 
ATOM     77  O   UNL A   1      46.289  24.651  36.056  1.00  0.00    -0.237 OA
ATOM     78  O   UNL A   1      46.389  26.210  37.977  1.00  0.00    -0.237 OA
ATOM     79  O   UNL A   1      44.639  24.476  37.888  1.00  0.00    -0.744 OA
ENDBRANCH  75  76
ENDBRANCH  54  68
BRANCH  55  80
ATOM     80  C   UNL A   1      43.084  25.858  26.631  1.00  0.00     0.058 A 
ATOM     81  C   UNL A   1      43.897  25.734  25.489  1.00  0.00     0.135 A 
ATOM     82  C   UNL A   1      42.560  24.658  27.151  1.00  0.00     0.135 A 
ATOM     83  F   UNL A   1      44.449  26.823  24.933  1.00  0.00    -0.206 F 
ATOM     84  C   UNL A   1      44.228  24.490  24.937  1.00  0.00     0.059 A 
ATOM     85  C   UNL A   1      42.871  23.407  26.614  1.00  0.00     0.059 A 
ATOM     86  F   UNL A   1      41.806  24.660  28.261  1.00  0.00    -0.206 F 
ATOM     87  C   UNL A   1      43.730  23.328  25.524  1.00  0.00     0.060 A 
BRANCH  87  88
ATOM     88  S   UNL A   1      44.311  21.717  24.938  1.00  0.00     0.124 S 
ATOM     89  O   UNL A   1      44.463  21.952  23.505  1.00  0.00    -0.237 OA
ATOM     90  O   UNL A   1      45.549  21.542  25.689  1.00  0.00    -0.237 OA
ATOM     91  O   UNL A   1      43.228  20.809  25.310  1.00  0.00    -0.744 OA
ENDBRANCH  87  88
ENDBRANCH  55  80
BRANCH  67  92
ATOM     92  C   UNL A   1      45.133  31.339  29.048  1.00  0.00     0.058 A 
ATOM     93  C   UNL A   1      46.400  31.718  28.567  1.00  0.00     0.135 A 
ATOM     94  C   UNL A   1      44.017  31.907  28.413  1.00  0.00     0.135 A 
ATOM     95  F   UNL A   1      47.518  31.145  29.037  1.00  0.00    -0.206 F 
ATOM     96  C   UNL A   1      46.548  32.663  27.547  1.00  0.00     0.059 A 
ATOM     97  C   UNL A   1      44.140  32.821  27.373  1.00  0.00     0.059 A 
ATOM     98  F   UNL A   1      42.778  31.541  28.779  1.00  0.00    -0.206 F 
ATOM     99  C   UNL A   1      45.409  33.214  26.960  1.00  0.00     0.060 A 
BRANCH  99 100
ATOM    100  S   UNL A   1      45.590  34.422  25.630  1.00  0.00     0.124 S 
ATOM    101  O   UNL A   1      44.704  33.883  24.603  1.00  0.00    -0.237 OA
ATOM    102  O   UNL A   1      45.148  35.662  26.263  1.00  0.00    -0.237 OA
ATOM    103  O   UNL A   1      47.015  34.370  25.312  1.00  0.00    -0.744 OA
ENDBRANCH  99 100
ENDBRANCH  67  92
ENDBRANCH  41  42
ENDBRANCH  33  36
ENDBRANCH  31  32
ENDBRANCH   1  31
TORSDOF 18
ENDMDL
