MODEL 1
REMARK VINA RESULT:      -9.7      0.000      0.000
REMARK SMILES O=C(CSC(=S)N1CCCC1)NCCCNC(=O)c1ccc(-c2c3nc(c(-c4c(F)cc(S(=O)(=O)[O-])cc4F)c4ccc([nH]4)c(-c4c(F)cc(S(=O)(=O)[O-])cc4F)c4nc(c(-c5c(F)cc(S(=O)(=O)[O-])cc5F)c5ccc2[nH]5)C=C4)C=C3)cc1
REMARK SMILES IDX 14 1 13 2 12 3 1 4 2 5 3 7 4 8 5 9 6 10 7 11 8 12 11 13 9 14
REMARK SMILES IDX 10 15 15 16 16 17 17 18 18 20 19 21 20 22 84 23 21 24 83 25
REMARK SMILES IDX 22 26 23 27 24 28 77 29 25 30 82 31 76 32 78 33 26 34 81 35
REMARK SMILES IDX 75 36 74 37 27 39 61 40 40 41 60 42 41 43 44 44 59 45 79 46
REMARK SMILES IDX 42 47 43 48 58 50 80 51 45 52 28 53 29 54 38 55 30 56 31 57
REMARK SMILES IDX 37 58 39 59 32 60 33 61 34 62 35 63 36 64 62 65 63 66 72 67
REMARK SMILES IDX 64 68 65 69 71 70 73 71 66 72 67 73 68 74 69 75 70 76 46 77
REMARK SMILES IDX 47 78 56 79 48 80 49 81 55 82 57 83 50 84 51 85 52 86 53 87
REMARK SMILES IDX 54 88
REMARK H PARENT 12 6 16 19 78 38 44 49
REMARK Flexibility Score: inf
ROOT
ATOM      1  C   UNL A   1      37.472  34.553  32.633  1.00  0.00     0.042 C 
ENDROOT
BRANCH   1   2
ATOM      2  C   UNL A   1      35.986  34.760  32.901  1.00  0.00     0.117 C 
BRANCH   2   3
ATOM      3  N   UNL A   1      35.223  35.127  31.724  1.00  0.00    -0.355 N 
ATOM      4  O   UNL A   1      34.095  33.141  31.576  1.00  0.00    -0.274 OA
ATOM      5  C   UNL A   1      34.246  34.304  31.206  1.00  0.00     0.230 C 
ATOM      6  H   UNL A   1      35.410  35.986  31.281  1.00  0.00     0.163 HD
BRANCH   5   7
ATOM      7  C   UNL A   1      33.400  34.880  30.079  1.00  0.00     0.177 C 
BRANCH   7   8
ATOM      8  S   UNL A   1      34.184  34.902  28.449  1.00  0.00    -0.087 SA
BRANCH   8   9
ATOM      9  C   UNL A   1      35.306  33.536  28.403  1.00  0.00     0.136 C 
ATOM     10  S   UNL A   1      36.938  33.613  28.786  1.00  0.00    -0.053 S 
BRANCH   9  11
ATOM     11  N   UNL A   1      34.676  32.332  28.090  1.00  0.00    -0.358 N 
ATOM     12  C   UNL A   1      35.208  30.986  28.291  1.00  0.00     0.118 C 
ATOM     13  C   UNL A   1      33.337  32.252  27.504  1.00  0.00     0.118 C 
ATOM     14  C   UNL A   1      34.459  30.136  27.282  1.00  0.00     0.023 C 
ATOM     15  C   UNL A   1      33.076  30.771  27.256  1.00  0.00     0.023 C 
ENDBRANCH   9  11
ENDBRANCH   8   9
ENDBRANCH   7   8
ENDBRANCH   5   7
ENDBRANCH   2   3
ENDBRANCH   1   2
BRANCH   1  16
ATOM     16  C   UNL A   1      37.965  33.118  32.805  1.00  0.00     0.118 C 
BRANCH  16  17
ATOM     17  N   UNL A   1      36.942  32.118  32.539  1.00  0.00    -0.352 N 
ATOM     18  C   UNL A   1      36.985  30.949  31.820  1.00  0.00     0.251 C 
ATOM     19  H   UNL A   1      36.066  32.313  32.945  1.00  0.00     0.163 HD
ATOM     20  O   UNL A   1      35.937  30.325  31.652  1.00  0.00    -0.269 OA
BRANCH  18  21
ATOM     21  C   UNL A   1      38.244  30.439  31.226  1.00  0.00     0.039 A 
ATOM     22  C   UNL A   1      38.408  30.541  29.840  1.00  0.00     0.014 A 
ATOM     23  C   UNL A   1      39.239  29.826  31.990  1.00  0.00     0.014 A 
ATOM     24  C   UNL A   1      39.586  30.090  29.236  1.00  0.00     0.010 A 
ATOM     25  C   UNL A   1      40.445  29.439  31.396  1.00  0.00     0.010 A 
ATOM     26  C   UNL A   1      40.633  29.569  30.013  1.00  0.00    -0.014 A 
BRANCH  26  27
ATOM     27  C   UNL A   1      41.930  29.194  29.384  1.00  0.00     0.031 A 
ATOM     28  C   UNL A   1      43.045  30.195  29.245  1.00  0.00     0.074 A 
ATOM     29  C   UNL A   1      42.088  27.945  28.900  1.00  0.00     0.049 A 
ATOM     30  N   UNL A   1      44.238  30.035  28.728  1.00  0.00    -0.248 NA
ATOM     31  C   UNL A   1      42.781  31.560  29.727  1.00  0.00     0.031 C 
ATOM     32  C   UNL A   1      41.064  26.898  28.915  1.00  0.00     0.029 A 
ATOM     33  N   UNL A   1      43.167  27.343  28.302  1.00  0.00    -0.354 N 
ATOM     34  C   UNL A   1      44.862  31.275  28.815  1.00  0.00     0.074 A 
ATOM     35  C   UNL A   1      43.897  32.190  29.387  1.00  0.00     0.031 C 
ATOM     36  C   UNL A   1      41.573  25.775  28.382  1.00  0.00     0.029 A 
ATOM     37  C   UNL A   1      42.947  26.029  27.960  1.00  0.00     0.049 A 
ATOM     38  H   UNL A   1      44.018  27.808  28.134  1.00  0.00     0.167 HD
ATOM     39  C   UNL A   1      46.129  31.615  28.470  1.00  0.00     0.037 A 
ATOM     40  C   UNL A   1      43.759  25.126  27.378  1.00  0.00     0.037 A 
ATOM     41  C   UNL A   1      47.095  30.697  27.917  1.00  0.00     0.049 A 
ATOM     42  C   UNL A   1      45.168  25.519  27.032  1.00  0.00     0.074 A 
ATOM     43  C   UNL A   1      48.417  30.935  27.587  1.00  0.00     0.029 A 
ATOM     44  N   UNL A   1      46.842  29.368  27.612  1.00  0.00    -0.354 N 
ATOM     45  N   UNL A   1      45.762  26.678  27.184  1.00  0.00    -0.248 NA
ATOM     46  C   UNL A   1      46.023  24.476  26.449  1.00  0.00     0.031 C 
ATOM     47  C   UNL A   1      48.955  29.760  27.047  1.00  0.00     0.029 A 
ATOM     48  C   UNL A   1      47.980  28.776  27.085  1.00  0.00     0.049 A 
ATOM     49  H   UNL A   1      45.981  28.910  27.749  1.00  0.00     0.167 HD
ATOM     50  C   UNL A   1      47.067  26.497  26.739  1.00  0.00     0.074 A 
ATOM     51  C   UNL A   1      47.179  25.113  26.330  1.00  0.00     0.031 C 
ATOM     52  C   UNL A   1      48.081  27.397  26.677  1.00  0.00     0.037 A 
BRANCH  39  53
ATOM     53  C   UNL A   1      46.551  33.044  28.688  1.00  0.00     0.058 A 
ATOM     54  C   UNL A   1      46.400  34.017  27.685  1.00  0.00     0.135 A 
ATOM     55  C   UNL A   1      47.073  33.457  29.925  1.00  0.00     0.135 A 
ATOM     56  F   UNL A   1      45.918  33.676  26.480  1.00  0.00    -0.206 F 
ATOM     57  C   UNL A   1      46.781  35.339  27.890  1.00  0.00     0.059 A 
ATOM     58  C   UNL A   1      47.435  34.782  30.160  1.00  0.00     0.059 A 
ATOM     59  F   UNL A   1      47.236  32.572  30.920  1.00  0.00    -0.206 F 
ATOM     60  C   UNL A   1      47.299  35.711  29.131  1.00  0.00     0.060 A 
BRANCH  60  61
ATOM     61  S   UNL A   1      47.787  37.432  29.382  1.00  0.00     0.124 S 
ATOM     62  O   UNL A   1      48.624  37.670  28.208  1.00  0.00    -0.237 OA
ATOM     63  O   UNL A   1      46.500  38.124  29.391  1.00  0.00    -0.237 OA
ATOM     64  O   UNL A   1      48.489  37.405  30.659  1.00  0.00    -0.744 OA
ENDBRANCH  60  61
ENDBRANCH  39  53
BRANCH  40  65
ATOM     65  C   UNL A   1      43.269  23.745  27.123  1.00  0.00     0.058 A 
ATOM     66  C   UNL A   1      42.872  23.346  25.839  1.00  0.00     0.135 A 
ATOM     67  C   UNL A   1      43.202  22.795  28.154  1.00  0.00     0.135 A 
ATOM     68  F   UNL A   1      42.912  24.221  24.822  1.00  0.00    -0.206 F 
ATOM     69  C   UNL A   1      42.408  22.059  25.586  1.00  0.00     0.059 A 
ATOM     70  C   UNL A   1      42.767  21.493  27.920  1.00  0.00     0.059 A 
ATOM     71  F   UNL A   1      43.587  23.122  29.397  1.00  0.00    -0.206 F 
ATOM     72  C   UNL A   1      42.361  21.139  26.634  1.00  0.00     0.060 A 
BRANCH  72  73
ATOM     73  S   UNL A   1      41.807  19.456  26.286  1.00  0.00     0.124 S 
ATOM     74  O   UNL A   1      40.375  19.652  26.090  1.00  0.00    -0.237 OA
ATOM     75  O   UNL A   1      42.575  19.120  25.091  1.00  0.00    -0.237 OA
ATOM     76  O   UNL A   1      42.186  18.723  27.489  1.00  0.00    -0.744 OA
ENDBRANCH  72  73
ENDBRANCH  40  65
BRANCH  52  77
ATOM     77  C   UNL A   1      49.409  26.897  26.178  1.00  0.00     0.058 A 
ATOM     78  C   UNL A   1      50.354  26.318  27.041  1.00  0.00     0.135 A 
ATOM     79  C   UNL A   1      49.740  26.995  24.816  1.00  0.00     0.135 A 
ATOM     80  F   UNL A   1      50.090  26.202  28.352  1.00  0.00    -0.206 F 
ATOM     81  C   UNL A   1      51.598  25.897  26.580  1.00  0.00     0.059 A 
ATOM     82  C   UNL A   1      50.966  26.556  24.329  1.00  0.00     0.059 A 
ATOM     83  F   UNL A   1      48.869  27.527  23.945  1.00  0.00    -0.206 F 
ATOM     84  C   UNL A   1      51.898  26.027  25.222  1.00  0.00     0.060 A 
BRANCH  84  85
ATOM     85  S   UNL A   1      53.518  25.490  24.635  1.00  0.00     0.124 S 
ATOM     86  O   UNL A   1      53.517  24.083  25.018  1.00  0.00    -0.237 OA
ATOM     87  O   UNL A   1      53.438  25.758  23.203  1.00  0.00    -0.237 OA
ATOM     88  O   UNL A   1      54.445  26.342  25.374  1.00  0.00    -0.744 OA
ENDBRANCH  84  85
ENDBRANCH  52  77
ENDBRANCH  26  27
ENDBRANCH  18  21
ENDBRANCH  16  17
ENDBRANCH   1  16
TORSDOF 16
ENDMDL
MODEL 2
REMARK VINA RESULT:      -9.7      6.640     13.192
REMARK SMILES O=C(CSC(=S)N1CCCC1)NCCCNC(=O)c1ccc(-c2c3nc(c(-c4c(F)cc(S(=O)(=O)[O-])cc4F)c4ccc([nH]4)c(-c4c(F)cc(S(=O)(=O)[O-])cc4F)c4nc(c(-c5c(F)cc(S(=O)(=O)[O-])cc5F)c5ccc2[nH]5)C=C4)C=C3)cc1
REMARK SMILES IDX 14 1 13 2 12 3 1 4 2 5 3 7 4 8 5 9 6 10 7 11 8 12 11 13 9 14
REMARK SMILES IDX 10 15 15 16 16 17 17 18 18 20 19 21 20 22 84 23 21 24 83 25
REMARK SMILES IDX 22 26 23 27 24 28 77 29 25 30 82 31 76 32 78 33 26 34 81 35
REMARK SMILES IDX 75 36 74 37 27 39 61 40 40 41 60 42 41 43 44 44 59 45 79 46
REMARK SMILES IDX 42 47 43 48 58 50 80 51 45 52 28 53 29 54 38 55 30 56 31 57
REMARK SMILES IDX 37 58 39 59 32 60 33 61 34 62 35 63 36 64 62 65 63 66 72 67
REMARK SMILES IDX 64 68 65 69 71 70 73 71 66 72 67 73 68 74 69 75 70 76 46 77
REMARK SMILES IDX 47 78 56 79 48 80 49 81 55 82 57 83 50 84 51 85 52 86 53 87
REMARK SMILES IDX 54 88
REMARK H PARENT 12 6 16 19 78 38 44 49
REMARK Flexibility Score: inf
ROOT
ATOM      1  C   UNL A   1      40.475  22.220  27.492  1.00  0.00     0.042 C 
ENDROOT
BRANCH   1   2
ATOM      2  C   UNL A   1      39.777  21.760  26.217  1.00  0.00     0.117 C 
BRANCH   2   3
ATOM      3  N   UNL A   1      38.646  22.585  25.839  1.00  0.00    -0.355 N 
ATOM      4  O   UNL A   1      37.334  20.841  25.150  1.00  0.00    -0.274 OA
ATOM      5  C   UNL A   1      37.453  22.035  25.421  1.00  0.00     0.230 C 
ATOM      6  H   UNL A   1      38.732  23.565  25.882  1.00  0.00     0.163 HD
BRANCH   5   7
ATOM      7  C   UNL A   1      36.292  22.999  25.224  1.00  0.00     0.177 C 
BRANCH   7   8
ATOM      8  S   UNL A   1      34.997  22.928  26.484  1.00  0.00    -0.087 SA
BRANCH   8   9
ATOM      9  C   UNL A   1      33.468  23.272  25.665  1.00  0.00     0.136 C 
ATOM     10  S   UNL A   1      32.513  24.627  25.932  1.00  0.00    -0.053 S 
BRANCH   9  11
ATOM     11  N   UNL A   1      33.157  22.330  24.686  1.00  0.00    -0.358 N 
ATOM     12  C   UNL A   1      33.061  22.561  23.246  1.00  0.00     0.118 C 
ATOM     13  C   UNL A   1      32.884  20.922  24.981  1.00  0.00     0.118 C 
ATOM     14  C   UNL A   1      32.148  21.453  22.753  1.00  0.00     0.023 C 
ATOM     15  C   UNL A   1      32.517  20.279  23.648  1.00  0.00     0.023 C 
ENDBRANCH   9  11
ENDBRANCH   8   9
ENDBRANCH   7   8
ENDBRANCH   5   7
ENDBRANCH   2   3
ENDBRANCH   1   2
BRANCH   1  16
ATOM     16  C   UNL A   1      41.735  23.055  27.273  1.00  0.00     0.118 C 
BRANCH  16  17
ATOM     17  N   UNL A   1      41.635  23.968  26.144  1.00  0.00    -0.352 N 
ATOM     18  C   UNL A   1      41.351  25.311  26.090  1.00  0.00     0.251 C 
ATOM     19  H   UNL A   1      41.800  23.552  25.267  1.00  0.00     0.163 HD
ATOM     20  O   UNL A   1      41.217  25.837  24.985  1.00  0.00    -0.269 OA
BRANCH  18  21
ATOM     21  C   UNL A   1      41.179  26.127  27.316  1.00  0.00     0.039 A 
ATOM     22  C   UNL A   1      42.148  27.095  27.604  1.00  0.00     0.014 A 
ATOM     23  C   UNL A   1      40.119  25.932  28.203  1.00  0.00     0.014 A 
ATOM     24  C   UNL A   1      42.020  27.901  28.739  1.00  0.00     0.010 A 
ATOM     25  C   UNL A   1      39.953  26.785  29.299  1.00  0.00     0.010 A 
ATOM     26  C   UNL A   1      40.900  27.780  29.578  1.00  0.00    -0.014 A 
BRANCH  26  27
ATOM     27  C   UNL A   1      40.706  28.714  30.723  1.00  0.00     0.031 A 
ATOM     28  C   UNL A   1      41.539  28.596  31.971  1.00  0.00     0.074 A 
ATOM     29  C   UNL A   1      39.742  29.653  30.648  1.00  0.00     0.049 A 
ATOM     30  N   UNL A   1      41.505  29.327  33.058  1.00  0.00    -0.248 NA
ATOM     31  C   UNL A   1      42.522  27.503  32.017  1.00  0.00     0.031 C 
ATOM     32  C   UNL A   1      38.823  29.833  29.521  1.00  0.00     0.029 A 
ATOM     33  N   UNL A   1      39.372  30.634  31.535  1.00  0.00    -0.354 N 
ATOM     34  C   UNL A   1      42.452  28.781  33.917  1.00  0.00     0.074 A 
ATOM     35  C   UNL A   1      43.008  27.625  33.245  1.00  0.00     0.031 C 
ATOM     36  C   UNL A   1      38.019  30.879  29.770  1.00  0.00     0.029 A 
ATOM     37  C   UNL A   1      38.342  31.425  31.084  1.00  0.00     0.049 A 
ATOM     38  H   UNL A   1      39.804  30.759  32.411  1.00  0.00     0.167 HD
ATOM     39  C   UNL A   1      42.839  29.214  35.143  1.00  0.00     0.037 A 
ATOM     40  C   UNL A   1      37.727  32.477  31.659  1.00  0.00     0.037 A 
ATOM     41  C   UNL A   1      42.296  30.376  35.802  1.00  0.00     0.049 A 
ATOM     42  C   UNL A   1      38.194  32.956  33.006  1.00  0.00     0.074 A 
ATOM     43  C   UNL A   1      42.662  30.925  37.019  1.00  0.00     0.029 A 
ATOM     44  N   UNL A   1      41.274  31.168  35.301  1.00  0.00    -0.354 N 
ATOM     45  N   UNL A   1      39.138  32.467  33.774  1.00  0.00    -0.248 NA
ATOM     46  C   UNL A   1      37.521  34.140  33.557  1.00  0.00     0.031 C 
ATOM     47  C   UNL A   1      41.835  32.026  37.272  1.00  0.00     0.029 A 
ATOM     48  C   UNL A   1      40.986  32.192  36.190  1.00  0.00     0.049 A 
ATOM     49  H   UNL A   1      40.819  31.025  34.439  1.00  0.00     0.167 HD
ATOM     50  C   UNL A   1      39.190  33.298  34.887  1.00  0.00     0.074 A 
ATOM     51  C   UNL A   1      38.195  34.330  34.683  1.00  0.00     0.031 C 
ATOM     52  C   UNL A   1      39.991  33.214  35.979  1.00  0.00     0.037 A 
BRANCH  39  53
ATOM     53  C   UNL A   1      43.910  28.428  35.853  1.00  0.00     0.058 A 
ATOM     54  C   UNL A   1      43.595  27.348  36.694  1.00  0.00     0.135 A 
ATOM     55  C   UNL A   1      45.268  28.731  35.661  1.00  0.00     0.135 A 
ATOM     56  F   UNL A   1      42.313  27.021  36.923  1.00  0.00    -0.206 F 
ATOM     57  C   UNL A   1      44.585  26.617  37.343  1.00  0.00     0.059 A 
ATOM     58  C   UNL A   1      46.276  27.996  36.279  1.00  0.00     0.059 A 
ATOM     59  F   UNL A   1      45.628  29.751  34.866  1.00  0.00    -0.206 F 
ATOM     60  C   UNL A   1      45.923  26.950  37.130  1.00  0.00     0.060 A 
BRANCH  60  61
ATOM     61  S   UNL A   1      47.197  25.990  37.978  1.00  0.00     0.124 S 
ATOM     62  O   UNL A   1      47.437  24.915  37.018  1.00  0.00    -0.237 OA
ATOM     63  O   UNL A   1      48.279  26.963  38.119  1.00  0.00    -0.237 OA
ATOM     64  O   UNL A   1      46.553  25.590  39.221  1.00  0.00    -0.744 OA
ENDBRANCH  60  61
ENDBRANCH  39  53
BRANCH  40  65
ATOM     65  C   UNL A   1      36.628  33.176  30.941  1.00  0.00     0.058 A 
ATOM     66  C   UNL A   1      36.892  33.973  29.818  1.00  0.00     0.135 A 
ATOM     67  C   UNL A   1      35.293  33.048  31.354  1.00  0.00     0.135 A 
ATOM     68  F   UNL A   1      38.153  34.131  29.389  1.00  0.00    -0.206 F 
ATOM     69  C   UNL A   1      35.874  34.635  29.139  1.00  0.00     0.059 A 
ATOM     70  C   UNL A   1      34.254  33.678  30.674  1.00  0.00     0.059 A 
ATOM     71  F   UNL A   1      34.986  32.281  32.412  1.00  0.00    -0.206 F 
ATOM     72  C   UNL A   1      34.558  34.479  29.574  1.00  0.00     0.060 A 
BRANCH  72  73
ATOM     73  S   UNL A   1      33.237  35.300  28.654  1.00  0.00     0.124 S 
ATOM     74  O   UNL A   1      32.631  34.177  27.947  1.00  0.00    -0.237 OA
ATOM     75  O   UNL A   1      32.437  35.888  29.724  1.00  0.00    -0.237 OA
ATOM     76  O   UNL A   1      33.955  36.258  27.821  1.00  0.00    -0.744 OA
ENDBRANCH  72  73
ENDBRANCH  40  65
BRANCH  52  77
ATOM     77  C   UNL A   1      39.844  34.291  37.020  1.00  0.00     0.058 A 
ATOM     78  C   UNL A   1      40.513  35.520  36.913  1.00  0.00     0.135 A 
ATOM     79  C   UNL A   1      39.018  34.090  38.139  1.00  0.00     0.135 A 
ATOM     80  F   UNL A   1      41.317  35.764  35.866  1.00  0.00    -0.206 F 
ATOM     81  C   UNL A   1      40.406  36.494  37.901  1.00  0.00     0.059 A 
ATOM     82  C   UNL A   1      38.875  35.061  39.124  1.00  0.00     0.059 A 
ATOM     83  F   UNL A   1      38.344  32.938  38.284  1.00  0.00    -0.206 F 
ATOM     84  C   UNL A   1      39.590  36.252  39.007  1.00  0.00     0.060 A 
BRANCH  84  85
ATOM     85  S   UNL A   1      39.467  37.516  40.290  1.00  0.00     0.124 S 
ATOM     86  O   UNL A   1      38.504  38.439  39.700  1.00  0.00    -0.237 OA
ATOM     87  O   UNL A   1      38.991  36.753  41.439  1.00  0.00    -0.237 OA
ATOM     88  O   UNL A   1      40.833  38.019  40.402  1.00  0.00    -0.744 OA
ENDBRANCH  84  85
ENDBRANCH  52  77
ENDBRANCH  26  27
ENDBRANCH  18  21
ENDBRANCH  16  17
ENDBRANCH   1  16
TORSDOF 16
ENDMDL
MODEL 3
REMARK VINA RESULT:      -9.6      3.929      5.925
REMARK SMILES O=C(CSC(=S)N1CCCC1)NCCCNC(=O)c1ccc(-c2c3nc(c(-c4c(F)cc(S(=O)(=O)[O-])cc4F)c4ccc([nH]4)c(-c4c(F)cc(S(=O)(=O)[O-])cc4F)c4nc(c(-c5c(F)cc(S(=O)(=O)[O-])cc5F)c5ccc2[nH]5)C=C4)C=C3)cc1
REMARK SMILES IDX 14 1 13 2 12 3 1 4 2 5 3 7 4 8 5 9 6 10 7 11 8 12 11 13 9 14
REMARK SMILES IDX 10 15 15 16 16 17 17 18 18 20 19 21 20 22 84 23 21 24 83 25
REMARK SMILES IDX 22 26 23 27 24 28 77 29 25 30 82 31 76 32 78 33 26 34 81 35
REMARK SMILES IDX 75 36 74 37 27 39 61 40 40 41 60 42 41 43 44 44 59 45 79 46
REMARK SMILES IDX 42 47 43 48 58 50 80 51 45 52 28 53 29 54 38 55 30 56 31 57
REMARK SMILES IDX 37 58 39 59 32 60 33 61 34 62 35 63 36 64 62 65 63 66 72 67
REMARK SMILES IDX 64 68 65 69 71 70 73 71 66 72 67 73 68 74 69 75 70 76 46 77
REMARK SMILES IDX 47 78 56 79 48 80 49 81 55 82 57 83 50 84 51 85 52 86 53 87
REMARK SMILES IDX 54 88
REMARK H PARENT 12 6 16 19 78 38 44 49
REMARK Flexibility Score: inf
ROOT
ATOM      1  C   UNL A   1      32.239  27.664  26.877  1.00  0.00     0.042 C 
ENDROOT
BRANCH   1   2
ATOM      2  C   UNL A   1      31.845  27.390  25.430  1.00  0.00     0.117 C 
BRANCH   2   3
ATOM      3  N   UNL A   1      31.844  25.983  25.080  1.00  0.00    -0.355 N 
ATOM      4  O   UNL A   1      34.026  25.934  24.393  1.00  0.00    -0.274 OA
ATOM      5  C   UNL A   1      32.990  25.333  24.675  1.00  0.00     0.230 C 
ATOM      6  H   UNL A   1      31.000  25.477  25.132  1.00  0.00     0.163 HD
BRANCH   5   7
ATOM      7  C   UNL A   1      32.893  23.824  24.508  1.00  0.00     0.177 C 
BRANCH   7   8
ATOM      8  S   UNL A   1      34.251  23.051  23.596  1.00  0.00    -0.087 SA
BRANCH   8   9
ATOM      9  C   UNL A   1      34.956  21.833  24.667  1.00  0.00     0.136 C 
ATOM     10  S   UNL A   1      34.361  20.279  24.886  1.00  0.00    -0.053 S 
BRANCH   9  11
ATOM     11  N   UNL A   1      36.138  22.264  25.268  1.00  0.00    -0.358 N 
ATOM     12  C   UNL A   1      36.317  23.453  26.099  1.00  0.00     0.118 C 
ATOM     13  C   UNL A   1      37.409  21.546  25.151  1.00  0.00     0.118 C 
ATOM     14  C   UNL A   1      37.795  23.773  25.976  1.00  0.00     0.023 C 
ATOM     15  C   UNL A   1      38.439  22.397  25.886  1.00  0.00     0.023 C 
ENDBRANCH   9  11
ENDBRANCH   8   9
ENDBRANCH   7   8
ENDBRANCH   5   7
ENDBRANCH   2   3
ENDBRANCH   1   2
BRANCH   1  16
ATOM     16  C   UNL A   1      33.603  28.324  27.061  1.00  0.00     0.118 C 
BRANCH  16  17
ATOM     17  N   UNL A   1      33.521  29.707  27.508  1.00  0.00    -0.352 N 
ATOM     18  C   UNL A   1      34.442  30.512  28.134  1.00  0.00     0.251 C 
ATOM     19  H   UNL A   1      32.655  30.142  27.331  1.00  0.00     0.163 HD
ATOM     20  O   UNL A   1      34.084  31.628  28.511  1.00  0.00    -0.269 OA
BRANCH  18  21
ATOM     21  C   UNL A   1      35.833  30.064  28.386  1.00  0.00     0.039 A 
ATOM     22  C   UNL A   1      36.745  30.118  27.326  1.00  0.00     0.014 A 
ATOM     23  C   UNL A   1      36.244  29.554  29.619  1.00  0.00     0.014 A 
ATOM     24  C   UNL A   1      38.072  29.723  27.520  1.00  0.00     0.010 A 
ATOM     25  C   UNL A   1      37.587  29.227  29.832  1.00  0.00     0.010 A 
ATOM     26  C   UNL A   1      38.516  29.309  28.786  1.00  0.00    -0.014 A 
BRANCH  26  27
ATOM     27  C   UNL A   1      39.954  28.997  29.020  1.00  0.00     0.031 A 
ATOM     28  C   UNL A   1      40.886  30.021  29.609  1.00  0.00     0.074 A 
ATOM     29  C   UNL A   1      40.430  27.787  28.662  1.00  0.00     0.049 A 
ATOM     30  N   UNL A   1      42.162  29.915  29.883  1.00  0.00    -0.248 NA
ATOM     31  C   UNL A   1      40.319  31.346  29.908  1.00  0.00     0.031 C 
ATOM     32  C   UNL A   1      39.647  26.726  28.024  1.00  0.00     0.029 A 
ATOM     33  N   UNL A   1      41.684  27.243  28.782  1.00  0.00    -0.354 N 
ATOM     34  C   UNL A   1      42.553  31.155  30.378  1.00  0.00     0.074 A 
ATOM     35  C   UNL A   1      41.389  32.014  30.318  1.00  0.00     0.031 C 
ATOM     36  C   UNL A   1      40.429  25.651  27.838  1.00  0.00     0.029 A 
ATOM     37  C   UNL A   1      41.775  25.953  28.314  1.00  0.00     0.049 A 
ATOM     38  H   UNL A   1      42.448  27.732  29.167  1.00  0.00     0.167 HD
ATOM     39  C   UNL A   1      43.763  31.536  30.858  1.00  0.00     0.037 A 
ATOM     40  C   UNL A   1      42.820  25.104  28.277  1.00  0.00     0.037 A 
ATOM     41  C   UNL A   1      44.916  30.673  30.933  1.00  0.00     0.049 A 
ATOM     42  C   UNL A   1      44.143  25.541  28.843  1.00  0.00     0.074 A 
ATOM     43  C   UNL A   1      46.167  30.952  31.453  1.00  0.00     0.029 A 
ATOM     44  N   UNL A   1      44.959  29.364  30.475  1.00  0.00    -0.354 N 
ATOM     45  N   UNL A   1      44.475  26.695  29.368  1.00  0.00    -0.248 NA
ATOM     46  C   UNL A   1      45.230  24.553  28.823  1.00  0.00     0.031 C 
ATOM     47  C   UNL A   1      46.979  29.825  31.276  1.00  0.00     0.029 A 
ATOM     48  C   UNL A   1      46.219  28.827  30.688  1.00  0.00     0.049 A 
ATOM     49  H   UNL A   1      44.205  28.886  30.060  1.00  0.00     0.167 HD
ATOM     50  C   UNL A   1      45.801  26.564  29.766  1.00  0.00     0.074 A 
ATOM     51  C   UNL A   1      46.202  25.213  29.435  1.00  0.00     0.031 C 
ATOM     52  C   UNL A   1      46.611  27.481  30.352  1.00  0.00     0.037 A 
BRANCH  39  53
ATOM     53  C   UNL A   1      43.902  32.953  31.349  1.00  0.00     0.058 A 
ATOM     54  C   UNL A   1      44.292  33.995  30.490  1.00  0.00     0.135 A 
ATOM     55  C   UNL A   1      43.604  33.283  32.681  1.00  0.00     0.135 A 
ATOM     56  F   UNL A   1      44.600  33.735  29.209  1.00  0.00    -0.206 F 
ATOM     57  C   UNL A   1      44.412  35.305  30.941  1.00  0.00     0.059 A 
ATOM     58  C   UNL A   1      43.691  34.593  33.148  1.00  0.00     0.059 A 
ATOM     59  F   UNL A   1      43.224  32.329  33.545  1.00  0.00    -0.206 F 
ATOM     60  C   UNL A   1      44.110  35.593  32.273  1.00  0.00     0.060 A 
BRANCH  60  61
ATOM     61  S   UNL A   1      44.269  37.300  32.844  1.00  0.00     0.124 S 
ATOM     62  O   UNL A   1      44.130  38.039  31.591  1.00  0.00    -0.237 OA
ATOM     63  O   UNL A   1      43.150  37.422  33.777  1.00  0.00    -0.237 OA
ATOM     64  O   UNL A   1      45.593  37.335  33.451  1.00  0.00    -0.744 OA
ENDBRANCH  60  61
ENDBRANCH  39  53
BRANCH  40  65
ATOM     65  C   UNL A   1      42.643  23.737  27.719  1.00  0.00     0.058 A 
ATOM     66  C   UNL A   1      42.419  22.637  28.559  1.00  0.00     0.135 A 
ATOM     67  C   UNL A   1      42.682  23.506  26.335  1.00  0.00     0.135 A 
ATOM     68  F   UNL A   1      42.379  22.808  29.890  1.00  0.00    -0.206 F 
ATOM     69  C   UNL A   1      42.255  21.353  28.051  1.00  0.00     0.059 A 
ATOM     70  C   UNL A   1      42.495  22.234  25.802  1.00  0.00     0.059 A 
ATOM     71  F   UNL A   1      42.877  24.528  25.487  1.00  0.00    -0.206 F 
ATOM     72  C   UNL A   1      42.293  21.162  26.670  1.00  0.00     0.060 A 
BRANCH  72  73
ATOM     73  S   UNL A   1      42.028  19.499  26.017  1.00  0.00     0.124 S 
ATOM     74  O   UNL A   1      42.882  19.509  24.834  1.00  0.00    -0.237 OA
ATOM     75  O   UNL A   1      42.479  18.659  27.122  1.00  0.00    -0.237 OA
ATOM     76  O   UNL A   1      40.593  19.464  25.760  1.00  0.00    -0.744 OA
ENDBRANCH  72  73
ENDBRANCH  40  65
BRANCH  52  77
ATOM     77  C   UNL A   1      48.004  27.035  30.704  1.00  0.00     0.058 A 
ATOM     78  C   UNL A   1      48.296  26.411  31.928  1.00  0.00     0.135 A 
ATOM     79  C   UNL A   1      49.063  27.235  29.803  1.00  0.00     0.135 A 
ATOM     80  F   UNL A   1      47.322  26.198  32.826  1.00  0.00    -0.206 F 
ATOM     81  C   UNL A   1      49.594  26.041  32.264  1.00  0.00     0.059 A 
ATOM     82  C   UNL A   1      50.364  26.848  30.107  1.00  0.00     0.059 A 
ATOM     83  F   UNL A   1      48.839  27.815  28.613  1.00  0.00    -0.206 F 
ATOM     84  C   UNL A   1      50.624  26.270  31.349  1.00  0.00     0.060 A 
BRANCH  84  85
ATOM     85  S   UNL A   1      52.307  25.799  31.799  1.00  0.00     0.124 S 
ATOM     86  O   UNL A   1      53.036  26.111  30.575  1.00  0.00    -0.237 OA
ATOM     87  O   UNL A   1      52.583  26.667  32.940  1.00  0.00    -0.237 OA
ATOM     88  O   UNL A   1      52.188  24.379  32.115  1.00  0.00    -0.744 OA
ENDBRANCH  84  85
ENDBRANCH  52  77
ENDBRANCH  26  27
ENDBRANCH  18  21
ENDBRANCH  16  17
ENDBRANCH   1  16
TORSDOF 16
ENDMDL
