MODEL 1
REMARK VINA RESULT:     -11.7      0.000      0.000
REMARK SMILES O=C(NCCCNC(=O)C1(NC(=O)c2c[nH]c(=O)c(Cl)c2)CCCCC1)c1ccc(-c2c3nc(c(-c4c(F)cc(S(=O)(=O)[O-])cc4F)c4ccc([nH]4)c(-c4c(F)cc(S(=O)(=O)[O-])cc4F)c4nc(c(-c5c(F)cc(S(=O)(=O)[O-])cc5F)c5ccc2[nH]5)C=C4)C=C3)cc1
REMARK SMILES IDX 4 1 3 2 1 3 2 4 27 6 28 7 92 8 29 9 91 10 30 11 31 12 32 13
REMARK SMILES IDX 85 14 33 15 90 16 84 17 86 18 34 19 89 20 83 21 82 22 35 24
REMARK SMILES IDX 69 25 48 26 68 27 49 28 52 29 67 30 87 31 50 32 51 33 66 35
REMARK SMILES IDX 88 36 53 37 36 38 37 39 46 40 38 41 39 42 45 43 47 44 40 45
REMARK SMILES IDX 41 46 42 47 43 48 44 49 70 50 71 51 80 52 72 53 73 54 79 55
REMARK SMILES IDX 81 56 74 57 75 58 76 59 77 60 78 61 54 62 55 63 64 64 56 65
REMARK SMILES IDX 57 66 63 67 65 68 58 69 59 70 60 71 61 72 62 73 5 74 6 75
REMARK SMILES IDX 7 76 8 77 9 79 10 80 22 81 26 82 23 83 25 84 24 85 11 86
REMARK SMILES IDX 12 87 13 89 14 90 15 91 21 92 16 93 19 94 17 95 20 97 18 98
REMARK H PARENT 3 5 86 23 52 34 7 78 11 88 16 96
REMARK Flexibility Score: inf
ROOT
ATOM      1  C   UNL A   1      34.345  27.690  26.489  1.00  0.00     0.118 C 
ENDROOT
BRANCH   1   2
ATOM      2  N   UNL A   1      33.673  28.938  26.840  1.00  0.00    -0.352 N 
ATOM      3  O   UNL A   1      33.411  30.909  27.926  1.00  0.00    -0.269 OA
ATOM      4  C   UNL A   1      34.148  29.987  27.595  1.00  0.00     0.251 C 
ATOM      5  H   UNL A   1      32.758  29.044  26.492  1.00  0.00     0.163 HD
BRANCH   4   6
ATOM      6  C   UNL A   1      35.554  29.942  28.036  1.00  0.00     0.039 A 
ATOM      7  C   UNL A   1      36.561  30.229  27.116  1.00  0.00     0.014 A 
ATOM      8  C   UNL A   1      35.863  29.480  29.315  1.00  0.00     0.014 A 
ATOM      9  C   UNL A   1      37.852  29.818  27.387  1.00  0.00     0.010 A 
ATOM     10  C   UNL A   1      37.194  29.217  29.641  1.00  0.00     0.010 A 
ATOM     11  C   UNL A   1      38.193  29.336  28.662  1.00  0.00    -0.014 A 
BRANCH  11  12
ATOM     12  C   UNL A   1      39.618  29.041  28.948  1.00  0.00     0.031 A 
ATOM     13  C   UNL A   1      40.241  27.724  28.573  1.00  0.00     0.074 A 
ATOM     14  C   UNL A   1      40.355  30.018  29.514  1.00  0.00     0.049 A 
ATOM     15  N   UNL A   1      41.467  27.313  28.775  1.00  0.00    -0.248 NA
ATOM     16  C   UNL A   1      39.384  26.734  27.898  1.00  0.00     0.031 C 
ATOM     17  C   UNL A   1      39.839  31.331  29.921  1.00  0.00     0.029 A 
ATOM     18  N   UNL A   1      41.687  30.082  29.818  1.00  0.00    -0.354 N 
ATOM     19  C   UNL A   1      41.524  26.013  28.284  1.00  0.00     0.074 A 
ATOM     20  C   UNL A   1      40.203  25.695  27.785  1.00  0.00     0.031 C 
ATOM     21  C   UNL A   1      40.852  32.092  30.351  1.00  0.00     0.029 A 
ATOM     22  C   UNL A   1      42.067  31.291  30.349  1.00  0.00     0.049 A 
ATOM     23  H   UNL A   1      42.312  29.336  29.670  1.00  0.00     0.167 HD
ATOM     24  C   UNL A   1      42.584  25.170  28.257  1.00  0.00     0.037 A 
ATOM     25  C   UNL A   1      43.256  31.704  30.820  1.00  0.00     0.037 A 
ATOM     26  C   UNL A   1      43.898  25.521  28.740  1.00  0.00     0.049 A 
ATOM     27  C   UNL A   1      44.405  30.745  30.786  1.00  0.00     0.074 A 
ATOM     28  C   UNL A   1      45.048  24.750  28.743  1.00  0.00     0.029 A 
ATOM     29  N   UNL A   1      44.238  26.745  29.300  1.00  0.00    -0.354 N 
ATOM     30  N   UNL A   1      44.437  29.517  30.325  1.00  0.00    -0.248 NA
ATOM     31  C   UNL A   1      45.675  31.218  31.347  1.00  0.00     0.031 C 
ATOM     32  C   UNL A   1      46.072  25.494  29.340  1.00  0.00     0.029 A 
ATOM     33  C   UNL A   1      45.573  26.745  29.667  1.00  0.00     0.049 A 
ATOM     34  H   UNL A   1      43.619  27.502  29.419  1.00  0.00     0.167 HD
ATOM     35  C   UNL A   1      45.733  29.069  30.538  1.00  0.00     0.074 A 
ATOM     36  C   UNL A   1      46.460  30.170  31.138  1.00  0.00     0.031 C 
ATOM     37  C   UNL A   1      46.271  27.854  30.270  1.00  0.00     0.037 A 
BRANCH  24  38
ATOM     38  C   UNL A   1      42.378  23.784  27.707  1.00  0.00     0.058 A 
ATOM     39  C   UNL A   1      42.307  23.536  26.327  1.00  0.00     0.135 A 
ATOM     40  C   UNL A   1      42.321  22.677  28.571  1.00  0.00     0.135 A 
ATOM     41  F   UNL A   1      42.339  24.556  25.455  1.00  0.00    -0.206 F 
ATOM     42  C   UNL A   1      42.175  22.245  25.824  1.00  0.00     0.059 A 
ATOM     43  C   UNL A   1      42.212  21.375  28.090  1.00  0.00     0.059 A 
ATOM     44  F   UNL A   1      42.383  22.854  29.899  1.00  0.00    -0.206 F 
ATOM     45  C   UNL A   1      42.132  21.169  26.713  1.00  0.00     0.060 A 
BRANCH  45  46
ATOM     46  S   UNL A   1      41.985  19.498  26.042  1.00  0.00     0.124 S 
ATOM     47  O   UNL A   1      42.473  18.693  27.158  1.00  0.00    -0.237 OA
ATOM     48  O   UNL A   1      40.555  19.397  25.768  1.00  0.00    -0.237 OA
ATOM     49  O   UNL A   1      42.847  19.526  24.865  1.00  0.00    -0.744 OA
ENDBRANCH  45  46
ENDBRANCH  24  38
BRANCH  25  50
ATOM     50  C   UNL A   1      43.389  33.067  31.395  1.00  0.00     0.058 A 
ATOM     51  C   UNL A   1      43.218  33.296  32.768  1.00  0.00     0.135 A 
ATOM     52  C   UNL A   1      43.725  34.165  30.585  1.00  0.00     0.135 A 
ATOM     53  F   UNL A   1      42.899  32.278  33.583  1.00  0.00    -0.206 F 
ATOM     54  C   UNL A   1      43.354  34.567  33.315  1.00  0.00     0.059 A 
ATOM     55  C   UNL A   1      43.899  35.438  31.113  1.00  0.00     0.059 A 
ATOM     56  F   UNL A   1      43.925  33.993  29.269  1.00  0.00    -0.206 F 
ATOM     57  C   UNL A   1      43.695  35.632  32.477  1.00  0.00     0.060 A 
BRANCH  57  58
ATOM     58  S   UNL A   1      43.902  37.274  33.198  1.00  0.00     0.124 S 
ATOM     59  O   UNL A   1      42.751  37.347  34.089  1.00  0.00    -0.237 OA
ATOM     60  O   UNL A   1      45.206  37.165  33.845  1.00  0.00    -0.237 OA
ATOM     61  O   UNL A   1      43.861  38.156  32.036  1.00  0.00    -0.744 OA
ENDBRANCH  57  58
ENDBRANCH  25  50
BRANCH  37  62
ATOM     62  C   UNL A   1      47.720  27.673  30.613  1.00  0.00     0.058 A 
ATOM     63  C   UNL A   1      48.735  27.989  29.696  1.00  0.00     0.135 A 
ATOM     64  C   UNL A   1      48.097  27.188  31.874  1.00  0.00     0.135 A 
ATOM     65  F   UNL A   1      48.423  28.446  28.472  1.00  0.00    -0.206 F 
ATOM     66  C   UNL A   1      50.076  27.796  30.006  1.00  0.00     0.059 A 
ATOM     67  C   UNL A   1      49.433  27.013  32.216  1.00  0.00     0.059 A 
ATOM     68  F   UNL A   1      47.163  26.879  32.788  1.00  0.00    -0.206 F 
ATOM     69  C   UNL A   1      50.415  27.305  31.269  1.00  0.00     0.060 A 
BRANCH  69  70
ATOM     70  S   UNL A   1      52.158  27.068  31.666  1.00  0.00     0.124 S 
ATOM     71  O   UNL A   1      52.808  27.710  30.529  1.00  0.00    -0.237 OA
ATOM     72  O   UNL A   1      52.286  27.761  32.944  1.00  0.00    -0.237 OA
ATOM     73  O   UNL A   1      52.296  25.616  31.732  1.00  0.00    -0.744 OA
ENDBRANCH  69  70
ENDBRANCH  37  62
ENDBRANCH  11  12
ENDBRANCH   4   6
ENDBRANCH   1   2
BRANCH   1  74
ATOM     74  C   UNL A   1      33.717  26.981  25.305  1.00  0.00     0.042 C 
BRANCH  74  75
ATOM     75  C   UNL A   1      33.868  25.483  25.400  1.00  0.00     0.117 C 
BRANCH  75  76
ATOM     76  N   UNL A   1      34.091  24.873  24.095  1.00  0.00    -0.354 N 
ATOM     77  C   UNL A   1      34.782  23.740  23.769  1.00  0.00     0.245 C 
ATOM     78  H   UNL A   1      33.683  25.349  23.335  1.00  0.00     0.163 HD
ATOM     79  O   UNL A   1      34.835  23.421  22.578  1.00  0.00    -0.272 OA
BRANCH  77  80
ATOM     80  C   UNL A   1      35.571  22.969  24.861  1.00  0.00     0.119 C 
ATOM     81  C   UNL A   1      36.386  21.789  24.278  1.00  0.00     0.038 C 
ATOM     82  C   UNL A   1      36.585  24.034  25.392  1.00  0.00     0.038 C 
ATOM     83  C   UNL A   1      37.447  21.253  25.246  1.00  0.00     0.003 C 
ATOM     84  C   UNL A   1      37.653  23.497  26.333  1.00  0.00     0.003 C 
ATOM     85  C   UNL A   1      38.408  22.345  25.695  1.00  0.00     0.000 C 
BRANCH  80  86
ATOM     86  N   UNL A   1      34.677  22.454  25.936  1.00  0.00    -0.338 N 
ATOM     87  C   UNL A   1      34.028  21.255  26.098  1.00  0.00     0.253 C 
ATOM     88  H   UNL A   1      34.522  23.094  26.667  1.00  0.00     0.164 HD
ATOM     89  O   UNL A   1      33.622  20.955  27.221  1.00  0.00    -0.269 OA
BRANCH  87  90
ATOM     90  C   UNL A   1      33.603  20.429  24.920  1.00  0.00     0.057 A 
ATOM     91  C   UNL A   1      32.721  20.853  24.002  1.00  0.00     0.099 A 
ATOM     92  C   UNL A   1      34.163  19.087  24.769  1.00  0.00     0.041 A 
ATOM     93  N   UNL A   1      32.228  19.990  23.050  1.00  0.00    -0.327 N 
ATOM     94  C   UNL A   1      33.680  18.226  23.861  1.00  0.00     0.106 A 
ATOM     95  C   UNL A   1      32.584  18.662  22.942  1.00  0.00     0.266 A 
ATOM     96  H   UNL A   1      31.578  20.345  22.402  1.00  0.00     0.169 HD
ATOM     97  Cl  UNL A   1      34.280  16.623  23.722  1.00  0.00    -0.078 Cl
ATOM     98  O   UNL A   1      32.032  17.916  22.141  1.00  0.00    -0.268 OA
ENDBRANCH  87  90
ENDBRANCH  80  86
ENDBRANCH  77  80
ENDBRANCH  75  76
ENDBRANCH  74  75
ENDBRANCH   1  74
TORSDOF 15
ENDMDL
MODEL 2
REMARK VINA RESULT:     -11.6      0.333      8.344
REMARK SMILES O=C(NCCCNC(=O)C1(NC(=O)c2c[nH]c(=O)c(Cl)c2)CCCCC1)c1ccc(-c2c3nc(c(-c4c(F)cc(S(=O)(=O)[O-])cc4F)c4ccc([nH]4)c(-c4c(F)cc(S(=O)(=O)[O-])cc4F)c4nc(c(-c5c(F)cc(S(=O)(=O)[O-])cc5F)c5ccc2[nH]5)C=C4)C=C3)cc1
REMARK SMILES IDX 4 1 3 2 1 3 2 4 27 6 28 7 92 8 29 9 91 10 30 11 31 12 32 13
REMARK SMILES IDX 85 14 33 15 90 16 84 17 86 18 34 19 89 20 83 21 82 22 35 24
REMARK SMILES IDX 69 25 48 26 68 27 49 28 52 29 67 30 87 31 50 32 51 33 66 35
REMARK SMILES IDX 88 36 53 37 36 38 37 39 46 40 38 41 39 42 45 43 47 44 40 45
REMARK SMILES IDX 41 46 42 47 43 48 44 49 70 50 71 51 80 52 72 53 73 54 79 55
REMARK SMILES IDX 81 56 74 57 75 58 76 59 77 60 78 61 54 62 55 63 64 64 56 65
REMARK SMILES IDX 57 66 63 67 65 68 58 69 59 70 60 71 61 72 62 73 5 74 6 75
REMARK SMILES IDX 7 76 8 77 9 79 10 80 22 81 26 82 23 83 25 84 24 85 11 86
REMARK SMILES IDX 12 87 13 89 14 90 15 91 21 92 16 93 19 94 17 95 20 97 18 98
REMARK H PARENT 3 5 86 23 52 34 7 78 11 88 16 96
REMARK Flexibility Score: inf
ROOT
ATOM      1  C   UNL A   1      34.395  27.531  26.456  1.00  0.00     0.118 C 
ENDROOT
BRANCH   1   2
ATOM      2  N   UNL A   1      33.682  28.755  26.814  1.00  0.00    -0.352 N 
ATOM      3  O   UNL A   1      33.360  30.715  27.902  1.00  0.00    -0.269 OA
ATOM      4  C   UNL A   1      34.127  29.821  27.563  1.00  0.00     0.251 C 
ATOM      5  H   UNL A   1      32.760  28.826  26.477  1.00  0.00     0.163 HD
BRANCH   4   6
ATOM      6  C   UNL A   1      35.539  29.828  27.986  1.00  0.00     0.039 A 
ATOM      7  C   UNL A   1      36.525  30.125  27.048  1.00  0.00     0.014 A 
ATOM      8  C   UNL A   1      35.877  29.404  29.272  1.00  0.00     0.014 A 
ATOM      9  C   UNL A   1      37.832  29.760  27.312  1.00  0.00     0.010 A 
ATOM     10  C   UNL A   1      37.219  29.188  29.586  1.00  0.00     0.010 A 
ATOM     11  C   UNL A   1      38.202  29.316  28.592  1.00  0.00    -0.014 A 
BRANCH  11  12
ATOM     12  C   UNL A   1      39.639  29.071  28.867  1.00  0.00     0.031 A 
ATOM     13  C   UNL A   1      40.507  30.114  29.514  1.00  0.00     0.074 A 
ATOM     14  C   UNL A   1      40.132  27.853  28.561  1.00  0.00     0.049 A 
ATOM     15  N   UNL A   1      41.783  30.054  29.799  1.00  0.00    -0.248 NA
ATOM     16  C   UNL A   1      39.876  31.394  29.878  1.00  0.00     0.031 C 
ATOM     17  C   UNL A   1      39.369  26.774  27.923  1.00  0.00     0.029 A 
ATOM     18  N   UNL A   1      41.368  27.304  28.765  1.00  0.00    -0.354 N 
ATOM     19  C   UNL A   1      42.116  31.289  30.345  1.00  0.00     0.074 A 
ATOM     20  C   UNL A   1      40.910  32.088  30.339  1.00  0.00     0.031 C 
ATOM     21  C   UNL A   1      40.128  25.674  27.856  1.00  0.00     0.029 A 
ATOM     22  C   UNL A   1      41.459  25.998  28.348  1.00  0.00     0.049 A 
ATOM     23  H   UNL A   1      42.118  27.794  29.172  1.00  0.00     0.167 HD
ATOM     24  C   UNL A   1      43.319  31.708  30.805  1.00  0.00     0.037 A 
ATOM     25  C   UNL A   1      42.508  25.157  28.326  1.00  0.00     0.037 A 
ATOM     26  C   UNL A   1      44.502  30.882  30.822  1.00  0.00     0.049 A 
ATOM     27  C   UNL A   1      43.826  25.655  28.831  1.00  0.00     0.074 A 
ATOM     28  C   UNL A   1      45.768  31.199  31.283  1.00  0.00     0.029 A 
ATOM     29  N   UNL A   1      44.563  29.573  30.362  1.00  0.00    -0.354 N 
ATOM     30  N   UNL A   1      44.122  26.829  29.336  1.00  0.00    -0.248 NA
ATOM     31  C   UNL A   1      44.956  24.723  28.754  1.00  0.00     0.031 C 
ATOM     32  C   UNL A   1      46.603  30.098  31.066  1.00  0.00     0.029 A 
ATOM     33  C   UNL A   1      45.847  29.076  30.513  1.00  0.00     0.049 A 
ATOM     34  H   UNL A   1      43.804  29.072  29.984  1.00  0.00     0.167 HD
ATOM     35  C   UNL A   1      45.475  26.777  29.640  1.00  0.00     0.074 A 
ATOM     36  C   UNL A   1      45.929  25.445  29.292  1.00  0.00     0.031 C 
ATOM     37  C   UNL A   1      46.273  27.747  30.152  1.00  0.00     0.037 A 
BRANCH  24  38
ATOM     38  C   UNL A   1      43.434  33.120  31.314  1.00  0.00     0.058 A 
ATOM     39  C   UNL A   1      43.248  33.438  32.668  1.00  0.00     0.135 A 
ATOM     40  C   UNL A   1      43.806  34.161  30.446  1.00  0.00     0.135 A 
ATOM     41  F   UNL A   1      42.876  32.489  33.541  1.00  0.00    -0.206 F 
ATOM     42  C   UNL A   1      43.413  34.738  33.142  1.00  0.00     0.059 A 
ATOM     43  C   UNL A   1      43.999  35.463  30.901  1.00  0.00     0.059 A 
ATOM     44  F   UNL A   1      43.996  33.916  29.140  1.00  0.00    -0.206 F 
ATOM     45  C   UNL A   1      43.793  35.743  32.250  1.00  0.00     0.060 A 
BRANCH  45  46
ATOM     46  S   UNL A   1      44.027  37.418  32.886  1.00  0.00     0.124 S 
ATOM     47  O   UNL A   1      43.846  38.216  31.677  1.00  0.00    -0.237 OA
ATOM     48  O   UNL A   1      42.963  37.526  33.879  1.00  0.00    -0.237 OA
ATOM     49  O   UNL A   1      45.383  37.393  33.424  1.00  0.00    -0.744 OA
ENDBRANCH  45  46
ENDBRANCH  24  38
BRANCH  25  50
ATOM     50  C   UNL A   1      42.347  23.790  27.769  1.00  0.00     0.058 A 
ATOM     51  C   UNL A   1      42.290  23.572  26.385  1.00  0.00     0.135 A 
ATOM     52  C   UNL A   1      42.281  22.668  28.613  1.00  0.00     0.135 A 
ATOM     53  F   UNL A   1      42.353  24.612  25.539  1.00  0.00    -0.206 F 
ATOM     54  C   UNL A   1      42.153  22.293  25.857  1.00  0.00     0.059 A 
ATOM     55  C   UNL A   1      42.177  21.378  28.107  1.00  0.00     0.059 A 
ATOM     56  F   UNL A   1      42.357  22.822  29.944  1.00  0.00    -0.206 F 
ATOM     57  C   UNL A   1      42.098  21.202  26.727  1.00  0.00     0.060 A 
BRANCH  57  58
ATOM     58  S   UNL A   1      41.952  19.542  26.034  1.00  0.00     0.124 S 
ATOM     59  O   UNL A   1      42.802  19.644  24.854  1.00  0.00    -0.237 OA
ATOM     60  O   UNL A   1      42.460  18.708  27.119  1.00  0.00    -0.237 OA
ATOM     61  O   UNL A   1      40.521  19.413  25.775  1.00  0.00    -0.744 OA
ENDBRANCH  57  58
ENDBRANCH  25  50
BRANCH  37  62
ATOM     62  C   UNL A   1      47.710  27.381  30.376  1.00  0.00     0.058 A 
ATOM     63  C   UNL A   1      48.125  26.721  31.544  1.00  0.00     0.135 A 
ATOM     64  C   UNL A   1      48.681  27.686  29.410  1.00  0.00     0.135 A 
ATOM     65  F   UNL A   1      47.235  26.419  32.502  1.00  0.00    -0.206 F 
ATOM     66  C   UNL A   1      49.461  26.406  31.761  1.00  0.00     0.059 A 
ATOM     67  C   UNL A   1      50.019  27.356  29.594  1.00  0.00     0.059 A 
ATOM     68  F   UNL A   1      48.333  28.310  28.273  1.00  0.00    -0.206 F 
ATOM     69  C   UNL A   1      50.401  26.731  30.781  1.00  0.00     0.060 A 
BRANCH  69  70
ATOM     70  S   UNL A   1      52.132  26.309  31.068  1.00  0.00     0.124 S 
ATOM     71  O   UNL A   1      52.010  25.062  31.814  1.00  0.00    -0.237 OA
ATOM     72  O   UNL A   1      52.655  26.189  29.711  1.00  0.00    -0.237 OA
ATOM     73  O   UNL A   1      52.636  27.449  31.828  1.00  0.00    -0.744 OA
ENDBRANCH  69  70
ENDBRANCH  37  62
ENDBRANCH  11  12
ENDBRANCH   4   6
ENDBRANCH   1   2
BRANCH   1  74
ATOM     74  C   UNL A   1      33.934  26.929  25.144  1.00  0.00     0.042 C 
BRANCH  74  75
ATOM     75  C   UNL A   1      33.781  25.431  25.234  1.00  0.00     0.117 C 
BRANCH  75  76
ATOM     76  N   UNL A   1      34.040  24.777  23.957  1.00  0.00    -0.354 N 
ATOM     77  C   UNL A   1      34.762  23.650  23.684  1.00  0.00     0.245 C 
ATOM     78  H   UNL A   1      33.634  25.214  23.172  1.00  0.00     0.163 HD
ATOM     79  O   UNL A   1      34.842  23.288  22.508  1.00  0.00    -0.272 OA
BRANCH  77  80
ATOM     80  C   UNL A   1      35.550  22.939  24.818  1.00  0.00     0.119 C 
ATOM     81  C   UNL A   1      36.413  21.766  24.291  1.00  0.00     0.038 C 
ATOM     82  C   UNL A   1      36.521  24.051  25.334  1.00  0.00     0.038 C 
ATOM     83  C   UNL A   1      37.468  21.295  25.298  1.00  0.00     0.003 C 
ATOM     84  C   UNL A   1      37.583  23.578  26.314  1.00  0.00     0.003 C 
ATOM     85  C   UNL A   1      38.386  22.430  25.730  1.00  0.00     0.000 C 
BRANCH  80  86
ATOM     86  N   UNL A   1      34.649  22.432  25.891  1.00  0.00    -0.338 N 
ATOM     87  C   UNL A   1      33.997  21.235  26.056  1.00  0.00     0.253 C 
ATOM     88  H   UNL A   1      34.491  23.077  26.617  1.00  0.00     0.164 HD
ATOM     89  O   UNL A   1      33.584  20.942  27.178  1.00  0.00    -0.269 OA
BRANCH  87  90
ATOM     90  C   UNL A   1      33.577  20.403  24.881  1.00  0.00     0.057 A 
ATOM     91  C   UNL A   1      32.688  20.816  23.965  1.00  0.00     0.099 A 
ATOM     92  C   UNL A   1      34.151  19.067  24.729  1.00  0.00     0.041 A 
ATOM     93  N   UNL A   1      32.201  19.946  23.016  1.00  0.00    -0.327 N 
ATOM     94  C   UNL A   1      33.676  18.199  23.824  1.00  0.00     0.106 A 
ATOM     95  C   UNL A   1      32.571  18.621  22.908  1.00  0.00     0.266 A 
ATOM     96  H   UNL A   1      31.545  20.293  22.369  1.00  0.00     0.169 HD
ATOM     97  Cl  UNL A   1      34.293  16.603  23.685  1.00  0.00    -0.078 Cl
ATOM     98  O   UNL A   1      32.026  17.868  22.110  1.00  0.00    -0.268 OA
ENDBRANCH  87  90
ENDBRANCH  80  86
ENDBRANCH  77  80
ENDBRANCH  75  76
ENDBRANCH  74  75
ENDBRANCH   1  74
TORSDOF 15
ENDMDL
MODEL 3
REMARK VINA RESULT:     -11.5      4.002      9.717
REMARK SMILES O=C(NCCCNC(=O)C1(NC(=O)c2c[nH]c(=O)c(Cl)c2)CCCCC1)c1ccc(-c2c3nc(c(-c4c(F)cc(S(=O)(=O)[O-])cc4F)c4ccc([nH]4)c(-c4c(F)cc(S(=O)(=O)[O-])cc4F)c4nc(c(-c5c(F)cc(S(=O)(=O)[O-])cc5F)c5ccc2[nH]5)C=C4)C=C3)cc1
REMARK SMILES IDX 4 1 3 2 1 3 2 4 27 6 28 7 92 8 29 9 91 10 30 11 31 12 32 13
REMARK SMILES IDX 85 14 33 15 90 16 84 17 86 18 34 19 89 20 83 21 82 22 35 24
REMARK SMILES IDX 69 25 48 26 68 27 49 28 52 29 67 30 87 31 50 32 51 33 66 35
REMARK SMILES IDX 88 36 53 37 36 38 37 39 46 40 38 41 39 42 45 43 47 44 40 45
REMARK SMILES IDX 41 46 42 47 43 48 44 49 70 50 71 51 80 52 72 53 73 54 79 55
REMARK SMILES IDX 81 56 74 57 75 58 76 59 77 60 78 61 54 62 55 63 64 64 56 65
REMARK SMILES IDX 57 66 63 67 65 68 58 69 59 70 60 71 61 72 62 73 5 74 6 75
REMARK SMILES IDX 7 76 8 77 9 79 10 80 22 81 26 82 23 83 25 84 24 85 11 86
REMARK SMILES IDX 12 87 13 89 14 90 15 91 21 92 16 93 19 94 17 95 20 97 18 98
REMARK H PARENT 3 5 86 23 52 34 7 78 11 88 16 96
REMARK Flexibility Score: inf
ROOT
ATOM      1  C   UNL A   1      35.308  30.215  27.689  1.00  0.00     0.118 C 
ENDROOT
BRANCH   1   2
ATOM      2  N   UNL A   1      35.310  30.410  29.137  1.00  0.00    -0.352 N 
ATOM      3  O   UNL A   1      36.076  30.160  31.254  1.00  0.00    -0.269 OA
ATOM      4  C   UNL A   1      36.281  30.063  30.050  1.00  0.00     0.251 C 
ATOM      5  H   UNL A   1      34.510  30.845  29.510  1.00  0.00     0.163 HD
BRANCH   4   6
ATOM      6  C   UNL A   1      37.553  29.525  29.536  1.00  0.00     0.039 A 
ATOM      7  C   UNL A   1      38.397  28.836  30.406  1.00  0.00     0.014 A 
ATOM      8  C   UNL A   1      37.958  29.829  28.236  1.00  0.00     0.014 A 
ATOM      9  C   UNL A   1      39.726  28.675  30.062  1.00  0.00     0.010 A 
ATOM     10  C   UNL A   1      39.259  29.519  27.838  1.00  0.00     0.010 A 
ATOM     11  C   UNL A   1      40.168  28.985  28.765  1.00  0.00    -0.014 A 
BRANCH  11  12
ATOM     12  C   UNL A   1      41.570  28.664  28.401  1.00  0.00     0.031 A 
ATOM     13  C   UNL A   1      42.656  29.703  28.456  1.00  0.00     0.074 A 
ATOM     14  C   UNL A   1      41.850  27.389  28.066  1.00  0.00     0.049 A 
ATOM     15  N   UNL A   1      43.922  29.579  28.150  1.00  0.00    -0.248 NA
ATOM     16  C   UNL A   1      42.280  31.057  28.897  1.00  0.00     0.031 C 
ATOM     17  C   UNL A   1      40.861  26.307  27.977  1.00  0.00     0.029 A 
ATOM     18  N   UNL A   1      43.034  26.774  27.768  1.00  0.00    -0.354 N 
ATOM     19  C   UNL A   1      44.488  30.837  28.329  1.00  0.00     0.074 A 
ATOM     20  C   UNL A   1      43.424  31.718  28.758  1.00  0.00     0.031 C 
ATOM     21  C   UNL A   1      41.488  25.153  27.721  1.00  0.00     0.029 A 
ATOM     22  C   UNL A   1      42.903  25.428  27.523  1.00  0.00     0.049 A 
ATOM     23  H   UNL A   1      43.897  27.248  27.732  1.00  0.00     0.167 HD
ATOM     24  C   UNL A   1      45.777  31.212  28.149  1.00  0.00     0.037 A 
ATOM     25  C   UNL A   1      43.814  24.515  27.145  1.00  0.00     0.037 A 
ATOM     26  C   UNL A   1      46.826  30.307  27.743  1.00  0.00     0.049 A 
ATOM     27  C   UNL A   1      45.228  24.964  26.944  1.00  0.00     0.074 A 
ATOM     28  C   UNL A   1      48.169  30.577  27.549  1.00  0.00     0.029 A 
ATOM     29  N   UNL A   1      46.649  28.956  27.475  1.00  0.00    -0.354 N 
ATOM     30  N   UNL A   1      45.742  26.159  27.110  1.00  0.00    -0.248 NA
ATOM     31  C   UNL A   1      46.184  23.948  26.491  1.00  0.00     0.031 C 
ATOM     32  C   UNL A   1      48.796  29.400  27.125  1.00  0.00     0.029 A 
ATOM     33  C   UNL A   1      47.853  28.384  27.101  1.00  0.00     0.049 A 
ATOM     34  H   UNL A   1      45.792  28.475  27.540  1.00  0.00     0.167 HD
ATOM     35  C   UNL A   1      47.085  26.040  26.785  1.00  0.00     0.074 A 
ATOM     36  C   UNL A   1      47.308  24.649  26.444  1.00  0.00     0.031 C 
ATOM     37  C   UNL A   1      48.046  26.996  26.760  1.00  0.00     0.037 A 
BRANCH  24  38
ATOM     38  C   UNL A   1      46.136  32.657  28.369  1.00  0.00     0.058 A 
ATOM     39  C   UNL A   1      46.612  33.124  29.604  1.00  0.00     0.135 A 
ATOM     40  C   UNL A   1      46.069  33.576  27.308  1.00  0.00     0.135 A 
ATOM     41  F   UNL A   1      46.682  32.295  30.658  1.00  0.00    -0.206 F 
ATOM     42  C   UNL A   1      46.996  34.450  29.784  1.00  0.00     0.059 A 
ATOM     43  C   UNL A   1      46.469  34.902  27.458  1.00  0.00     0.059 A 
ATOM     44  F   UNL A   1      45.620  33.187  26.105  1.00  0.00    -0.206 F 
ATOM     45  C   UNL A   1      46.925  35.331  28.703  1.00  0.00     0.060 A 
BRANCH  45  46
ATOM     46  S   UNL A   1      47.451  37.042  28.947  1.00  0.00     0.124 S 
ATOM     47  O   UNL A   1      46.589  37.749  28.004  1.00  0.00    -0.237 OA
ATOM     48  O   UNL A   1      47.156  37.261  30.359  1.00  0.00    -0.237 OA
ATOM     49  O   UNL A   1      48.869  37.017  28.602  1.00  0.00    -0.744 OA
ENDBRANCH  45  46
ENDBRANCH  24  38
BRANCH  25  50
ATOM     50  C   UNL A   1      43.394  23.111  26.896  1.00  0.00     0.058 A 
ATOM     51  C   UNL A   1      43.321  22.596  25.595  1.00  0.00     0.135 A 
ATOM     52  C   UNL A   1      43.090  22.248  27.962  1.00  0.00     0.135 A 
ATOM     53  F   UNL A   1      43.606  23.382  24.545  1.00  0.00    -0.206 F 
ATOM     54  C   UNL A   1      42.942  21.279  25.356  1.00  0.00     0.059 A 
ATOM     55  C   UNL A   1      42.740  20.920  27.750  1.00  0.00     0.059 A 
ATOM     56  F   UNL A   1      43.170  22.687  29.228  1.00  0.00    -0.206 F 
ATOM     57  C   UNL A   1      42.653  20.450  26.442  1.00  0.00     0.060 A 
BRANCH  57  58
ATOM     58  S   UNL A   1      42.192  18.733  26.126  1.00  0.00     0.124 S 
ATOM     59  O   UNL A   1      43.108  18.379  25.049  1.00  0.00    -0.237 OA
ATOM     60  O   UNL A   1      42.449  18.102  27.417  1.00  0.00    -0.237 OA
ATOM     61  O   UNL A   1      40.784  18.829  25.754  1.00  0.00    -0.744 OA
ENDBRANCH  57  58
ENDBRANCH  25  50
BRANCH  37  62
ATOM     62  C   UNL A   1      49.423  26.551  26.367  1.00  0.00     0.058 A 
ATOM     63  C   UNL A   1      50.285  25.933  27.287  1.00  0.00     0.135 A 
ATOM     64  C   UNL A   1      49.883  26.736  25.054  1.00  0.00     0.135 A 
ATOM     65  F   UNL A   1      49.894  25.745  28.558  1.00  0.00    -0.206 F 
ATOM     66  C   UNL A   1      51.570  25.545  26.928  1.00  0.00     0.059 A 
ATOM     67  C   UNL A   1      51.154  26.331  24.665  1.00  0.00     0.059 A 
ATOM     68  F   UNL A   1      49.093  27.315  24.135  1.00  0.00    -0.206 F 
ATOM     69  C   UNL A   1      51.996  25.751  25.614  1.00  0.00     0.060 A 
BRANCH  69  70
ATOM     70  S   UNL A   1      53.663  25.234  25.154  1.00  0.00     0.124 S 
ATOM     71  O   UNL A   1      54.475  25.993  26.098  1.00  0.00    -0.237 OA
ATOM     72  O   UNL A   1      53.615  23.792  25.374  1.00  0.00    -0.237 OA
ATOM     73  O   UNL A   1      53.772  25.645  23.758  1.00  0.00    -0.744 OA
ENDBRANCH  69  70
ENDBRANCH  37  62
ENDBRANCH  11  12
ENDBRANCH   4   6
ENDBRANCH   1   2
BRANCH   1  74
ATOM     74  C   UNL A   1      34.570  28.967  27.251  1.00  0.00     0.042 C 
BRANCH  74  75
ATOM     75  C   UNL A   1      33.347  29.294  26.430  1.00  0.00     0.117 C 
BRANCH  75  76
ATOM     76  N   UNL A   1      33.663  29.446  25.016  1.00  0.00    -0.354 N 
ATOM     77  C   UNL A   1      33.475  28.572  23.981  1.00  0.00     0.245 C 
ATOM     78  H   UNL A   1      34.075  30.305  24.768  1.00  0.00     0.163 HD
ATOM     79  O   UNL A   1      33.831  28.929  22.855  1.00  0.00    -0.272 OA
BRANCH  77  80
ATOM     80  C   UNL A   1      32.947  27.139  24.260  1.00  0.00     0.119 C 
ATOM     81  C   UNL A   1      34.028  26.222  24.882  1.00  0.00     0.038 C 
ATOM     82  C   UNL A   1      31.837  27.368  25.338  1.00  0.00     0.038 C 
ATOM     83  C   UNL A   1      33.451  24.946  25.504  1.00  0.00     0.003 C 
ATOM     84  C   UNL A   1      31.282  26.103  25.973  1.00  0.00     0.003 C 
ATOM     85  C   UNL A   1      32.397  25.256  26.559  1.00  0.00     0.000 C 
BRANCH  80  86
ATOM     86  N   UNL A   1      32.414  26.491  23.029  1.00  0.00    -0.338 N 
ATOM     87  C   UNL A   1      31.428  26.861  22.147  1.00  0.00     0.253 C 
ATOM     88  H   UNL A   1      32.850  25.638  22.806  1.00  0.00     0.164 HD
ATOM     89  O   UNL A   1      31.403  26.328  21.038  1.00  0.00    -0.269 OA
BRANCH  87  90
ATOM     90  C   UNL A   1      30.266  27.706  22.580  1.00  0.00     0.057 A 
ATOM     91  C   UNL A   1      29.207  27.218  23.245  1.00  0.00     0.099 A 
ATOM     92  C   UNL A   1      30.277  29.130  22.252  1.00  0.00     0.041 A 
ATOM     93  N   UNL A   1      28.090  27.995  23.453  1.00  0.00    -0.327 N 
ATOM     94  C   UNL A   1      29.191  29.897  22.429  1.00  0.00     0.106 A 
ATOM     95  C   UNL A   1      27.957  29.301  23.029  1.00  0.00     0.266 A 
ATOM     96  H   UNL A   1      27.335  27.591  23.939  1.00  0.00     0.169 HD
ATOM     97  Cl  UNL A   1      29.167  31.554  21.980  1.00  0.00    -0.078 Cl
ATOM     98  O   UNL A   1      26.900  29.907  23.150  1.00  0.00    -0.268 OA
ENDBRANCH  87  90
ENDBRANCH  80  86
ENDBRANCH  77  80
ENDBRANCH  75  76
ENDBRANCH  74  75
ENDBRANCH   1  74
TORSDOF 15
ENDMDL
