MODEL 1
REMARK VINA RESULT:     -11.5      0.000      0.000
REMARK SMILES CCC[C@@](C)(NC(=O)N1CCN(C)C(=O)C1(C)C)C(=O)NCCCNC(=O)c1ccc(-c2c3nc(c(-c4c(F)cc(S(=O)(=O)[O-])cc4F)c4ccc([nH]4)c(-c4c(F)cc(S(=O)(=O)[O-])cc4F)c4nc(c(-c5c(F)cc(S(=O)(=O)[O-])cc5F)c5ccc2[nH]5)C=C4)C=C3)cc1
REMARK SMILES IDX 23 1 22 2 21 3 19 4 20 5 4 7 5 8 3 9 2 10 1 11 6 12 7 13
REMARK SMILES IDX 8 15 9 16 10 17 16 18 11 19 14 20 17 21 18 22 12 23 15 24
REMARK SMILES IDX 13 25 24 26 25 27 26 28 27 30 28 31 29 32 93 33 30 34 92 35
REMARK SMILES IDX 31 36 32 37 33 38 86 39 34 40 91 41 85 42 87 43 35 44 90 45
REMARK SMILES IDX 84 46 83 47 36 49 70 50 49 51 69 52 50 53 53 54 68 55 88 56
REMARK SMILES IDX 51 57 52 58 67 60 89 61 54 62 37 63 38 64 47 65 39 66 40 67
REMARK SMILES IDX 46 68 48 69 41 70 42 71 43 72 44 73 45 74 71 75 72 76 81 77
REMARK SMILES IDX 73 78 74 79 80 80 82 81 75 82 76 83 77 84 78 85 79 86 55 87
REMARK SMILES IDX 56 88 65 89 57 90 58 91 64 92 66 93 59 94 60 95 61 96 62 97
REMARK SMILES IDX 63 98
REMARK H PARENT 21 6 6 14 25 29 87 48 53 59
REMARK Flexibility Score: inf
ROOT
ATOM      1  C   UNL A   1      31.682  32.725  26.578  1.00  0.00     0.042 C 
ENDROOT
BRANCH   1   2
ATOM      2  C   UNL A   1      31.436  31.189  26.427  1.00  0.00     0.117 C 
BRANCH   2   3
ATOM      3  N   UNL A   1      31.443  30.325  25.187  1.00  0.00    -0.354 N 
ATOM      4  C   UNL A   1      31.365  29.090  24.608  1.00  0.00     0.245 C 
ATOM      5  O   UNL A   1      30.359  29.066  23.864  1.00  0.00    -0.272 OA
ATOM      6  H   UNL A   1      31.558  30.953  24.437  1.00  0.00     0.163 HD
BRANCH   4   7
ATOM      7  C   UNL A   1      32.169  27.676  24.734  1.00  0.00     0.117 C 
ATOM      8  C   UNL A   1      33.271  27.779  23.653  1.00  0.00     0.045 C 
BRANCH   7   9
ATOM      9  C   UNL A   1      32.858  27.575  26.166  1.00  0.00     0.038 C 
BRANCH   9  10
ATOM     10  C   UNL A   1      34.255  28.159  26.450  1.00  0.00    -0.000 C 
ATOM     11  C   UNL A   1      34.244  29.243  27.529  1.00  0.00     0.004 C 
ENDBRANCH   9  10
ENDBRANCH   7   9
BRANCH   7  12
ATOM     12  N   UNL A   1      31.573  26.269  24.563  1.00  0.00    -0.324 N 
ATOM     13  C   UNL A   1      32.182  25.051  24.346  1.00  0.00     0.319 C 
ATOM     14  H   UNL A   1      30.590  26.232  24.616  1.00  0.00     0.166 HD
ATOM     15  O   UNL A   1      32.155  24.583  23.207  1.00  0.00    -0.249 OA
BRANCH  13  16
ATOM     16  N   UNL A   1      32.614  24.311  25.434  1.00  0.00    -0.309 N 
ATOM     17  C   UNL A   1      31.659  23.771  26.371  1.00  0.00     0.144 C 
ATOM     18  C   UNL A   1      33.920  23.676  25.479  1.00  0.00     0.118 C 
ATOM     19  C   UNL A   1      31.336  22.347  25.926  1.00  0.00     0.140 C 
ATOM     20  C   UNL A   1      33.611  22.312  24.733  1.00  0.00     0.247 C 
ATOM     21  C   UNL A   1      34.900  24.822  25.227  1.00  0.00     0.045 C 
ATOM     22  C   UNL A   1      34.463  23.042  26.792  1.00  0.00     0.045 C 
ATOM     23  N   UNL A   1      32.432  21.658  25.208  1.00  0.00    -0.342 N 
ATOM     24  O   UNL A   1      34.445  21.673  24.096  1.00  0.00    -0.272 OA
ATOM     25  C   UNL A   1      32.350  20.212  25.137  1.00  0.00     0.146 C 
ENDBRANCH  13  16
ENDBRANCH   7  12
ENDBRANCH   4   7
ENDBRANCH   2   3
ENDBRANCH   1   2
BRANCH   1  26
ATOM     26  C   UNL A   1      32.728  33.307  27.580  1.00  0.00     0.118 C 
BRANCH  26  27
ATOM     27  N   UNL A   1      32.543  34.688  27.997  1.00  0.00    -0.352 N 
ATOM     28  C   UNL A   1      33.243  35.388  28.960  1.00  0.00     0.251 C 
ATOM     29  H   UNL A   1      31.829  35.185  27.537  1.00  0.00     0.163 HD
ATOM     30  O   UNL A   1      32.909  36.543  29.241  1.00  0.00    -0.269 OA
BRANCH  28  31
ATOM     31  C   UNL A   1      34.382  34.775  29.691  1.00  0.00     0.039 A 
ATOM     32  C   UNL A   1      35.628  34.680  29.060  1.00  0.00     0.014 A 
ATOM     33  C   UNL A   1      34.203  34.195  30.951  1.00  0.00     0.014 A 
ATOM     34  C   UNL A   1      36.702  34.050  29.706  1.00  0.00     0.010 A 
ATOM     35  C   UNL A   1      35.288  33.585  31.605  1.00  0.00     0.010 A 
ATOM     36  C   UNL A   1      36.549  33.503  30.990  1.00  0.00    -0.014 A 
BRANCH  36  37
ATOM     37  C   UNL A   1      37.691  32.802  31.657  1.00  0.00     0.031 A 
ATOM     38  C   UNL A   1      38.180  33.264  33.009  1.00  0.00     0.074 A 
ATOM     39  C   UNL A   1      38.284  31.744  31.061  1.00  0.00     0.049 A 
ATOM     40  N   UNL A   1      39.155  32.793  33.745  1.00  0.00    -0.248 NA
ATOM     41  C   UNL A   1      37.487  34.417  33.606  1.00  0.00     0.031 C 
ATOM     42  C   UNL A   1      37.926  31.208  29.747  1.00  0.00     0.029 A 
ATOM     43  N   UNL A   1      39.308  30.928  31.480  1.00  0.00    -0.354 N 
ATOM     44  C   UNL A   1      39.190  33.586  34.889  1.00  0.00     0.074 A 
ATOM     45  C   UNL A   1      38.177  34.605  34.722  1.00  0.00     0.031 C 
ATOM     46  C   UNL A   1      38.702  30.143  29.477  1.00  0.00     0.029 A 
ATOM     47  C   UNL A   1      39.630  29.931  30.585  1.00  0.00     0.049 A 
ATOM     48  H   UNL A   1      39.770  31.044  32.342  1.00  0.00     0.167 HD
ATOM     49  C   UNL A   1      39.967  33.458  35.993  1.00  0.00     0.037 A 
ATOM     50  C   UNL A   1      40.564  28.958  30.649  1.00  0.00     0.037 A 
ATOM     51  C   UNL A   1      40.958  32.429  36.171  1.00  0.00     0.049 A 
ATOM     52  C   UNL A   1      41.428  28.850  31.882  1.00  0.00     0.074 A 
ATOM     53  C   UNL A   1      41.792  32.211  37.254  1.00  0.00     0.029 A 
ATOM     54  N   UNL A   1      41.238  31.433  35.246  1.00  0.00    -0.354 N 
ATOM     55  N   UNL A   1      41.417  29.592  32.964  1.00  0.00    -0.248 NA
ATOM     56  C   UNL A   1      42.421  27.766  31.910  1.00  0.00     0.031 C 
ATOM     57  C   UNL A   1      42.594  31.100  36.975  1.00  0.00     0.029 A 
ATOM     58  C   UNL A   1      42.229  30.599  35.735  1.00  0.00     0.049 A 
ATOM     59  H   UNL A   1      40.797  31.333  34.372  1.00  0.00     0.167 HD
ATOM     60  C   UNL A   1      42.372  29.040  33.814  1.00  0.00     0.074 A 
ATOM     61  C   UNL A   1      42.935  27.898  33.126  1.00  0.00     0.031 C 
ATOM     62  C   UNL A   1      42.750  29.444  35.051  1.00  0.00     0.037 A 
BRANCH  49  63
ATOM     63  C   UNL A   1      39.760  34.440  37.115  1.00  0.00     0.058 A 
ATOM     64  C   UNL A   1      38.978  34.111  38.235  1.00  0.00     0.135 A 
ATOM     65  C   UNL A   1      40.392  35.693  37.108  1.00  0.00     0.135 A 
ATOM     66  F   UNL A   1      38.338  32.931  38.289  1.00  0.00    -0.206 F 
ATOM     67  C   UNL A   1      38.814  34.996  39.295  1.00  0.00     0.059 A 
ATOM     68  C   UNL A   1      40.265  36.585  38.170  1.00  0.00     0.059 A 
ATOM     69  F   UNL A   1      41.154  36.060  36.064  1.00  0.00    -0.206 F 
ATOM     70  C   UNL A   1      39.464  36.229  39.255  1.00  0.00     0.060 A 
BRANCH  70  71
ATOM     71  S   UNL A   1      39.259  37.355  40.653  1.00  0.00     0.124 S 
ATOM     72  O   UNL A   1      40.636  37.784  40.886  1.00  0.00    -0.237 OA
ATOM     73  O   UNL A   1      38.364  38.369  40.106  1.00  0.00    -0.237 OA
ATOM     74  O   UNL A   1      38.683  36.507  41.692  1.00  0.00    -0.744 OA
ENDBRANCH  70  71
ENDBRANCH  49  63
BRANCH  50  75
ATOM     75  C   UNL A   1      40.739  27.992  29.527  1.00  0.00     0.058 A 
ATOM     76  C   UNL A   1      39.898  26.877  29.387  1.00  0.00     0.135 A 
ATOM     77  C   UNL A   1      41.785  28.135  28.601  1.00  0.00     0.135 A 
ATOM     78  F   UNL A   1      38.886  26.689  30.247  1.00  0.00    -0.206 F 
ATOM     79  C   UNL A   1      40.111  25.917  28.401  1.00  0.00     0.059 A 
ATOM     80  C   UNL A   1      42.001  27.203  27.588  1.00  0.00     0.059 A 
ATOM     81  F   UNL A   1      42.610  29.191  28.675  1.00  0.00    -0.206 F 
ATOM     82  C   UNL A   1      41.172  26.085  27.511  1.00  0.00     0.060 A 
BRANCH  82  83
ATOM     83  S   UNL A   1      41.449  24.833  26.238  1.00  0.00     0.124 S 
ATOM     84  O   UNL A   1      41.343  25.628  25.019  1.00  0.00    -0.237 OA
ATOM     85  O   UNL A   1      42.785  24.346  26.568  1.00  0.00    -0.237 OA
ATOM     86  O   UNL A   1      40.368  23.879  26.467  1.00  0.00    -0.744 OA
ENDBRANCH  82  83
ENDBRANCH  50  75
BRANCH  62  87
ATOM     87  C   UNL A   1      43.778  28.615  35.773  1.00  0.00     0.058 A 
ATOM     88  C   UNL A   1      45.149  28.892  35.679  1.00  0.00     0.135 A 
ATOM     89  C   UNL A   1      43.373  27.575  36.625  1.00  0.00     0.135 A 
ATOM     90  F   UNL A   1      45.587  29.873  34.874  1.00  0.00    -0.206 F 
ATOM     91  C   UNL A   1      46.088  28.154  36.392  1.00  0.00     0.059 A 
ATOM     92  C   UNL A   1      44.292  26.842  37.368  1.00  0.00     0.059 A 
ATOM     93  F   UNL A   1      42.071  27.277  36.758  1.00  0.00    -0.206 F 
ATOM     94  C   UNL A   1      45.649  27.133  37.237  1.00  0.00     0.060 A 
BRANCH  94  95
ATOM     95  S   UNL A   1      46.874  26.216  38.196  1.00  0.00     0.124 S 
ATOM     96  O   UNL A   1      47.905  27.228  38.400  1.00  0.00    -0.237 OA
ATOM     97  O   UNL A   1      46.118  25.834  39.385  1.00  0.00    -0.237 OA
ATOM     98  O   UNL A   1      47.241  25.113  37.314  1.00  0.00    -0.744 OA
ENDBRANCH  94  95
ENDBRANCH  62  87
ENDBRANCH  36  37
ENDBRANCH  28  31
ENDBRANCH  26  27
ENDBRANCH   1  26
TORSDOF 17
ENDMDL
MODEL 2
REMARK VINA RESULT:     -11.4      2.239      8.918
REMARK SMILES CCC[C@@](C)(NC(=O)N1CCN(C)C(=O)C1(C)C)C(=O)NCCCNC(=O)c1ccc(-c2c3nc(c(-c4c(F)cc(S(=O)(=O)[O-])cc4F)c4ccc([nH]4)c(-c4c(F)cc(S(=O)(=O)[O-])cc4F)c4nc(c(-c5c(F)cc(S(=O)(=O)[O-])cc5F)c5ccc2[nH]5)C=C4)C=C3)cc1
REMARK SMILES IDX 23 1 22 2 21 3 19 4 20 5 4 7 5 8 3 9 2 10 1 11 6 12 7 13
REMARK SMILES IDX 8 15 9 16 10 17 16 18 11 19 14 20 17 21 18 22 12 23 15 24
REMARK SMILES IDX 13 25 24 26 25 27 26 28 27 30 28 31 29 32 93 33 30 34 92 35
REMARK SMILES IDX 31 36 32 37 33 38 86 39 34 40 91 41 85 42 87 43 35 44 90 45
REMARK SMILES IDX 84 46 83 47 36 49 70 50 49 51 69 52 50 53 53 54 68 55 88 56
REMARK SMILES IDX 51 57 52 58 67 60 89 61 54 62 37 63 38 64 47 65 39 66 40 67
REMARK SMILES IDX 46 68 48 69 41 70 42 71 43 72 44 73 45 74 71 75 72 76 81 77
REMARK SMILES IDX 73 78 74 79 80 80 82 81 75 82 76 83 77 84 78 85 79 86 55 87
REMARK SMILES IDX 56 88 65 89 57 90 58 91 64 92 66 93 59 94 60 95 61 96 62 97
REMARK SMILES IDX 63 98
REMARK H PARENT 21 6 6 14 25 29 87 48 53 59
REMARK Flexibility Score: inf
ROOT
ATOM      1  C   UNL A   1      38.004  23.970  26.064  1.00  0.00     0.042 C 
ENDROOT
BRANCH   1   2
ATOM      2  C   UNL A   1      36.747  23.076  25.813  1.00  0.00     0.117 C 
BRANCH   2   3
ATOM      3  N   UNL A   1      35.296  23.330  26.148  1.00  0.00    -0.354 N 
ATOM      4  C   UNL A   1      33.979  22.984  26.032  1.00  0.00     0.245 C 
ATOM      5  O   UNL A   1      33.545  22.694  27.169  1.00  0.00    -0.272 OA
ATOM      6  H   UNL A   1      35.302  24.125  26.729  1.00  0.00     0.163 HD
BRANCH   4   7
ATOM      7  C   UNL A   1      32.921  22.767  24.809  1.00  0.00     0.117 C 
ATOM      8  C   UNL A   1      33.820  22.660  23.555  1.00  0.00     0.045 C 
BRANCH   7   9
ATOM      9  C   UNL A   1      32.146  21.390  25.007  1.00  0.00     0.038 C 
BRANCH   9  10
ATOM     10  C   UNL A   1      32.852  20.025  24.903  1.00  0.00    -0.000 C 
ATOM     11  C   UNL A   1      32.524  19.275  23.611  1.00  0.00     0.004 C 
ENDBRANCH   9  10
ENDBRANCH   7   9
BRANCH   7  12
ATOM     12  N   UNL A   1      31.785  23.722  24.405  1.00  0.00    -0.324 N 
ATOM     13  C   UNL A   1      31.537  25.031  24.761  1.00  0.00     0.319 C 
ATOM     14  H   UNL A   1      31.122  23.332  23.790  1.00  0.00     0.166 HD
ATOM     15  O   UNL A   1      30.659  25.250  25.596  1.00  0.00    -0.249 OA
BRANCH  13  16
ATOM     16  N   UNL A   1      32.127  26.050  24.032  1.00  0.00    -0.309 N 
ATOM     17  C   UNL A   1      31.779  26.248  22.646  1.00  0.00     0.144 C 
ATOM     18  C   UNL A   1      32.753  27.201  24.660  1.00  0.00     0.118 C 
ATOM     19  C   UNL A   1      30.658  27.284  22.600  1.00  0.00     0.140 C 
ATOM     20  C   UNL A   1      31.496  28.142  24.872  1.00  0.00     0.247 C 
ATOM     21  C   UNL A   1      33.790  26.591  25.605  1.00  0.00     0.045 C 
ATOM     22  C   UNL A   1      33.596  28.213  23.832  1.00  0.00     0.045 C 
ATOM     23  N   UNL A   1      30.676  28.266  23.709  1.00  0.00    -0.342 N 
ATOM     24  O   UNL A   1      31.405  28.976  25.771  1.00  0.00    -0.272 OA
ATOM     25  C   UNL A   1      29.926  29.490  23.500  1.00  0.00     0.146 C 
ENDBRANCH  13  16
ENDBRANCH   7  12
ENDBRANCH   4   7
ENDBRANCH   2   3
ENDBRANCH   1   2
BRANCH   1  26
ATOM     26  C   UNL A   1      39.291  23.423  26.758  1.00  0.00     0.118 C 
BRANCH  26  27
ATOM     27  N   UNL A   1      40.564  23.739  26.130  1.00  0.00    -0.352 N 
ATOM     28  C   UNL A   1      41.401  24.807  26.389  1.00  0.00     0.251 C 
ATOM     29  H   UNL A   1      40.866  23.115  25.431  1.00  0.00     0.163 HD
ATOM     30  O   UNL A   1      42.419  24.965  25.709  1.00  0.00    -0.269 OA
BRANCH  28  31
ATOM     31  C   UNL A   1      41.093  25.792  27.457  1.00  0.00     0.039 A 
ATOM     32  C   UNL A   1      41.914  26.917  27.606  1.00  0.00     0.014 A 
ATOM     33  C   UNL A   1      40.069  25.561  28.380  1.00  0.00     0.014 A 
ATOM     34  C   UNL A   1      41.680  27.831  28.645  1.00  0.00     0.010 A 
ATOM     35  C   UNL A   1      39.823  26.490  29.406  1.00  0.00     0.010 A 
ATOM     36  C   UNL A   1      40.626  27.635  29.552  1.00  0.00    -0.014 A 
BRANCH  36  37
ATOM     37  C   UNL A   1      40.407  28.595  30.678  1.00  0.00     0.031 A 
ATOM     38  C   UNL A   1      41.246  28.501  31.931  1.00  0.00     0.074 A 
ATOM     39  C   UNL A   1      39.467  29.560  30.579  1.00  0.00     0.049 A 
ATOM     40  N   UNL A   1      41.205  29.233  33.015  1.00  0.00    -0.248 NA
ATOM     41  C   UNL A   1      42.256  27.431  31.972  1.00  0.00     0.031 C 
ATOM     42  C   UNL A   1      38.572  29.751  29.436  1.00  0.00     0.029 A 
ATOM     43  N   UNL A   1      39.108  30.565  31.447  1.00  0.00    -0.354 N 
ATOM     44  C   UNL A   1      42.183  28.719  33.863  1.00  0.00     0.074 A 
ATOM     45  C   UNL A   1      42.758  27.575  33.191  1.00  0.00     0.031 C 
ATOM     46  C   UNL A   1      37.783  30.816  29.664  1.00  0.00     0.029 A 
ATOM     47  C   UNL A   1      38.095  31.374  30.978  1.00  0.00     0.049 A 
ATOM     48  H   UNL A   1      39.534  30.695  32.326  1.00  0.00     0.167 HD
ATOM     49  C   UNL A   1      42.590  29.176  35.073  1.00  0.00     0.037 A 
ATOM     50  C   UNL A   1      37.489  32.441  31.539  1.00  0.00     0.037 A 
ATOM     51  C   UNL A   1      42.034  30.329  35.731  1.00  0.00     0.049 A 
ATOM     52  C   UNL A   1      37.950  32.918  32.896  1.00  0.00     0.074 A 
ATOM     53  C   UNL A   1      42.382  30.876  36.955  1.00  0.00     0.029 A 
ATOM     54  N   UNL A   1      41.024  31.126  35.212  1.00  0.00    -0.354 N 
ATOM     55  N   UNL A   1      38.899  32.433  33.662  1.00  0.00    -0.248 NA
ATOM     56  C   UNL A   1      37.268  34.092  33.460  1.00  0.00     0.031 C 
ATOM     57  C   UNL A   1      41.565  31.987  37.188  1.00  0.00     0.029 A 
ATOM     58  C   UNL A   1      40.738  32.158  36.090  1.00  0.00     0.049 A 
ATOM     59  H   UNL A   1      40.577  30.979  34.348  1.00  0.00     0.167 HD
ATOM     60  C   UNL A   1      38.953  33.266  34.775  1.00  0.00     0.074 A 
ATOM     61  C   UNL A   1      37.949  34.290  34.581  1.00  0.00     0.031 C 
ATOM     62  C   UNL A   1      39.760  33.189  35.862  1.00  0.00     0.037 A 
BRANCH  49  63
ATOM     63  C   UNL A   1      43.714  28.445  35.758  1.00  0.00     0.058 A 
ATOM     64  C   UNL A   1      45.054  28.805  35.542  1.00  0.00     0.135 A 
ATOM     65  C   UNL A   1      43.454  27.420  36.683  1.00  0.00     0.135 A 
ATOM     66  F   UNL A   1      45.361  29.768  34.658  1.00  0.00    -0.206 F 
ATOM     67  C   UNL A   1      46.097  28.162  36.202  1.00  0.00     0.059 A 
ATOM     68  C   UNL A   1      44.481  26.781  37.374  1.00  0.00     0.059 A 
ATOM     69  F   UNL A   1      42.192  27.036  36.930  1.00  0.00    -0.206 F 
ATOM     70  C   UNL A   1      45.800  27.153  37.119  1.00  0.00     0.060 A 
BRANCH  70  71
ATOM     71  S   UNL A   1      47.166  26.347  37.983  1.00  0.00     0.124 S 
ATOM     72  O   UNL A   1      48.005  27.491  38.332  1.00  0.00    -0.237 OA
ATOM     73  O   UNL A   1      46.487  25.697  39.098  1.00  0.00    -0.237 OA
ATOM     74  O   UNL A   1      47.721  25.446  36.977  1.00  0.00    -0.744 OA
ENDBRANCH  70  71
ENDBRANCH  49  63
BRANCH  50  75
ATOM     75  C   UNL A   1      36.386  33.153  30.833  1.00  0.00     0.058 A 
ATOM     76  C   UNL A   1      36.643  33.984  29.731  1.00  0.00     0.135 A 
ATOM     77  C   UNL A   1      35.057  33.060  31.278  1.00  0.00     0.135 A 
ATOM     78  F   UNL A   1      37.896  34.113  29.268  1.00  0.00    -0.206 F 
ATOM     79  C   UNL A   1      35.636  34.729  29.123  1.00  0.00     0.059 A 
ATOM     80  C   UNL A   1      34.027  33.772  30.667  1.00  0.00     0.059 A 
ATOM     81  F   UNL A   1      34.749  32.267  32.316  1.00  0.00    -0.206 F 
ATOM     82  C   UNL A   1      34.331  34.622  29.605  1.00  0.00     0.060 A 
BRANCH  82  83
ATOM     83  S   UNL A   1      33.028  35.595  28.818  1.00  0.00     0.124 S 
ATOM     84  O   UNL A   1      32.379  34.592  27.983  1.00  0.00    -0.237 OA
ATOM     85  O   UNL A   1      32.258  36.067  29.966  1.00  0.00    -0.237 OA
ATOM     86  O   UNL A   1      33.770  36.630  28.104  1.00  0.00    -0.744 OA
ENDBRANCH  82  83
ENDBRANCH  50  75
BRANCH  62  87
ATOM     87  C   UNL A   1      39.638  34.272  36.899  1.00  0.00     0.058 A 
ATOM     88  C   UNL A   1      38.908  34.084  38.082  1.00  0.00     0.135 A 
ATOM     89  C   UNL A   1      40.323  35.487  36.735  1.00  0.00     0.135 A 
ATOM     90  F   UNL A   1      38.232  32.942  38.284  1.00  0.00    -0.206 F 
ATOM     91  C   UNL A   1      38.847  35.071  39.060  1.00  0.00     0.059 A 
ATOM     92  C   UNL A   1      40.297  36.477  37.712  1.00  0.00     0.059 A 
ATOM     93  F   UNL A   1      41.045  35.712  35.626  1.00  0.00    -0.206 F 
ATOM     94  C   UNL A   1      39.548  36.263  38.867  1.00  0.00     0.060 A 
BRANCH  94  95
ATOM     95  S   UNL A   1      39.500  37.515  40.168  1.00  0.00     0.124 S 
ATOM     96  O   UNL A   1      38.534  38.464  39.626  1.00  0.00    -0.237 OA
ATOM     97  O   UNL A   1      39.052  36.746  41.325  1.00  0.00    -0.237 OA
ATOM     98  O   UNL A   1      40.878  37.989  40.234  1.00  0.00    -0.744 OA
ENDBRANCH  94  95
ENDBRANCH  62  87
ENDBRANCH  36  37
ENDBRANCH  28  31
ENDBRANCH  26  27
ENDBRANCH   1  26
TORSDOF 17
ENDMDL
MODEL 3
REMARK VINA RESULT:     -11.4      6.178      8.590
REMARK SMILES CCC[C@@](C)(NC(=O)N1CCN(C)C(=O)C1(C)C)C(=O)NCCCNC(=O)c1ccc(-c2c3nc(c(-c4c(F)cc(S(=O)(=O)[O-])cc4F)c4ccc([nH]4)c(-c4c(F)cc(S(=O)(=O)[O-])cc4F)c4nc(c(-c5c(F)cc(S(=O)(=O)[O-])cc5F)c5ccc2[nH]5)C=C4)C=C3)cc1
REMARK SMILES IDX 23 1 22 2 21 3 19 4 20 5 4 7 5 8 3 9 2 10 1 11 6 12 7 13
REMARK SMILES IDX 8 15 9 16 10 17 16 18 11 19 14 20 17 21 18 22 12 23 15 24
REMARK SMILES IDX 13 25 24 26 25 27 26 28 27 30 28 31 29 32 93 33 30 34 92 35
REMARK SMILES IDX 31 36 32 37 33 38 86 39 34 40 91 41 85 42 87 43 35 44 90 45
REMARK SMILES IDX 84 46 83 47 36 49 70 50 49 51 69 52 50 53 53 54 68 55 88 56
REMARK SMILES IDX 51 57 52 58 67 60 89 61 54 62 37 63 38 64 47 65 39 66 40 67
REMARK SMILES IDX 46 68 48 69 41 70 42 71 43 72 44 73 45 74 71 75 72 76 81 77
REMARK SMILES IDX 73 78 74 79 80 80 82 81 75 82 76 83 77 84 78 85 79 86 55 87
REMARK SMILES IDX 56 88 65 89 57 90 58 91 64 92 66 93 59 94 60 95 61 96 62 97
REMARK SMILES IDX 63 98
REMARK H PARENT 21 6 6 14 25 29 87 48 53 59
REMARK Flexibility Score: inf
ROOT
ATOM      1  C   UNL A   1      34.236  31.379  27.778  1.00  0.00     0.042 C 
ENDROOT
BRANCH   1   2
ATOM      2  C   UNL A   1      33.378  30.444  26.865  1.00  0.00     0.117 C 
BRANCH   2   3
ATOM      3  N   UNL A   1      33.796  29.588  25.692  1.00  0.00    -0.354 N 
ATOM      4  C   UNL A   1      33.492  28.647  24.749  1.00  0.00     0.245 C 
ATOM      5  O   UNL A   1      33.622  29.165  23.618  1.00  0.00    -0.272 OA
ATOM      6  H   UNL A   1      34.739  29.818  25.529  1.00  0.00     0.163 HD
BRANCH   4   7
ATOM      7  C   UNL A   1      32.924  27.117  24.750  1.00  0.00     0.117 C 
ATOM      8  C   UNL A   1      31.711  27.173  25.708  1.00  0.00     0.045 C 
BRANCH   7   9
ATOM      9  C   UNL A   1      32.412  26.733  23.292  1.00  0.00     0.038 C 
BRANCH   9  10
ATOM     10  C   UNL A   1      33.380  26.468  22.123  1.00  0.00    -0.000 C 
ATOM     11  C   UNL A   1      32.748  25.652  20.993  1.00  0.00     0.004 C 
ENDBRANCH   9  10
ENDBRANCH   7   9
BRANCH   7  12
ATOM     12  N   UNL A   1      33.701  25.856  25.162  1.00  0.00    -0.324 N 
ATOM     13  C   UNL A   1      33.283  24.551  25.324  1.00  0.00     0.319 C 
ATOM     14  H   UNL A   1      34.658  26.005  25.341  1.00  0.00     0.166 HD
ATOM     15  O   UNL A   1      33.116  24.134  26.471  1.00  0.00    -0.249 OA
BRANCH  13  16
ATOM     16  N   UNL A   1      33.265  23.709  24.226  1.00  0.00    -0.309 N 
ATOM     17  C   UNL A   1      34.494  23.368  23.551  1.00  0.00     0.144 C 
ATOM     18  C   UNL A   1      32.164  22.802  23.953  1.00  0.00     0.118 C 
ATOM     19  C   UNL A   1      35.001  22.061  24.156  1.00  0.00     0.140 C 
ATOM     20  C   UNL A   1      32.578  21.557  24.843  1.00  0.00     0.247 C 
ATOM     21  C   UNL A   1      30.935  23.711  23.911  1.00  0.00     0.045 C 
ATOM     22  C   UNL A   1      32.068  22.032  22.604  1.00  0.00     0.045 C 
ATOM     23  N   UNL A   1      33.941  21.166  24.675  1.00  0.00    -0.342 N 
ATOM     24  O   UNL A   1      31.775  20.767  25.335  1.00  0.00    -0.272 OA
ATOM     25  C   UNL A   1      34.306  19.775  24.865  1.00  0.00     0.146 C 
ENDBRANCH  13  16
ENDBRANCH   7  12
ENDBRANCH   4   7
ENDBRANCH   2   3
ENDBRANCH   1   2
BRANCH   1  26
ATOM     26  C   UNL A   1      35.528  30.882  28.499  1.00  0.00     0.118 C 
BRANCH  26  27
ATOM     27  N   UNL A   1      35.458  30.723  29.943  1.00  0.00    -0.352 N 
ATOM     28  C   UNL A   1      36.449  30.293  30.803  1.00  0.00     0.251 C 
ATOM     29  H   UNL A   1      34.595  30.950  30.360  1.00  0.00     0.163 HD
ATOM     30  O   UNL A   1      36.198  30.147  32.002  1.00  0.00    -0.269 OA
BRANCH  28  31
ATOM     31  C   UNL A   1      37.814  29.971  30.313  1.00  0.00     0.039 A 
ATOM     32  C   UNL A   1      38.055  29.935  28.934  1.00  0.00     0.014 A 
ATOM     33  C   UNL A   1      38.830  29.599  31.199  1.00  0.00     0.014 A 
ATOM     34  C   UNL A   1      39.320  29.574  28.446  1.00  0.00     0.010 A 
ATOM     35  C   UNL A   1      40.103  29.260  30.707  1.00  0.00     0.010 A 
ATOM     36  C   UNL A   1      40.363  29.242  29.326  1.00  0.00    -0.014 A 
BRANCH  36  37
ATOM     37  C   UNL A   1      41.698  28.824  28.795  1.00  0.00     0.031 A 
ATOM     38  C   UNL A   1      42.826  29.825  28.702  1.00  0.00     0.074 A 
ATOM     39  C   UNL A   1      41.910  27.547  28.408  1.00  0.00     0.049 A 
ATOM     40  N   UNL A   1      44.049  29.660  28.267  1.00  0.00    -0.248 NA
ATOM     41  C   UNL A   1      42.531  31.197  29.147  1.00  0.00     0.031 C 
ATOM     42  C   UNL A   1      40.903  26.484  28.424  1.00  0.00     0.029 A 
ATOM     43  N   UNL A   1      43.038  26.923  27.928  1.00  0.00    -0.354 N 
ATOM     44  C   UNL A   1      44.670  30.900  28.389  1.00  0.00     0.074 A 
ATOM     45  C   UNL A   1      43.671  31.822  28.882  1.00  0.00     0.031 C 
ATOM     46  C   UNL A   1      41.463  25.338  27.995  1.00  0.00     0.029 A 
ATOM     47  C   UNL A   1      42.860  25.584  27.650  1.00  0.00     0.049 A 
ATOM     48  H   UNL A   1      43.895  27.389  27.796  1.00  0.00     0.167 HD
ATOM     49  C   UNL A   1      45.962  31.235  28.147  1.00  0.00     0.037 A 
ATOM     50  C   UNL A   1      43.723  24.662  27.174  1.00  0.00     0.037 A 
ATOM     51  C   UNL A   1      46.964  30.313  27.679  1.00  0.00     0.049 A 
ATOM     52  C   UNL A   1      45.151  25.067  26.896  1.00  0.00     0.074 A 
ATOM     53  C   UNL A   1      48.300  30.554  27.409  1.00  0.00     0.029 A 
ATOM     54  N   UNL A   1      46.743  28.967  27.427  1.00  0.00    -0.354 N 
ATOM     55  N   UNL A   1      45.721  26.239  27.051  1.00  0.00    -0.248 NA
ATOM     56  C   UNL A   1      46.056  24.025  26.390  1.00  0.00     0.031 C 
ATOM     57  C   UNL A   1      48.882  29.361  26.970  1.00  0.00     0.029 A 
ATOM     58  C   UNL A   1      47.918  28.366  27.007  1.00  0.00     0.049 A 
ATOM     59  H   UNL A   1      45.880  28.507  27.532  1.00  0.00     0.167 HD
ATOM     60  C   UNL A   1      47.056  26.062  26.701  1.00  0.00     0.074 A 
ATOM     61  C   UNL A   1      47.213  24.671  26.335  1.00  0.00     0.031 C 
ATOM     62  C   UNL A   1      48.062  26.971  26.682  1.00  0.00     0.037 A 
BRANCH  49  63
ATOM     63  C   UNL A   1      46.379  32.657  28.411  1.00  0.00     0.058 A 
ATOM     64  C   UNL A   1      46.283  33.641  27.413  1.00  0.00     0.135 A 
ATOM     65  C   UNL A   1      46.818  33.060  29.683  1.00  0.00     0.135 A 
ATOM     66  F   UNL A   1      45.883  33.311  26.174  1.00  0.00    -0.206 F 
ATOM     67  C   UNL A   1      46.628  34.966  27.660  1.00  0.00     0.059 A 
ATOM     68  C   UNL A   1      47.143  34.386  29.960  1.00  0.00     0.059 A 
ATOM     69  F   UNL A   1      46.927  32.162  30.675  1.00  0.00    -0.206 F 
ATOM     70  C   UNL A   1      47.053  35.330  28.938  1.00  0.00     0.060 A 
BRANCH  70  71
ATOM     71  S   UNL A   1      47.473  37.060  29.245  1.00  0.00     0.124 S 
ATOM     72  O   UNL A   1      48.929  36.994  29.340  1.00  0.00    -0.237 OA
ATOM     73  O   UNL A   1      46.945  37.723  28.058  1.00  0.00    -0.237 OA
ATOM     74  O   UNL A   1      46.776  37.362  30.492  1.00  0.00    -0.744 OA
ENDBRANCH  70  71
ENDBRANCH  49  63
BRANCH  50  75
ATOM     75  C   UNL A   1      43.285  23.258  26.932  1.00  0.00     0.058 A 
ATOM     76  C   UNL A   1      43.060  22.371  27.998  1.00  0.00     0.135 A 
ATOM     77  C   UNL A   1      43.133  22.757  25.629  1.00  0.00     0.135 A 
ATOM     78  F   UNL A   1      43.197  22.796  29.262  1.00  0.00    -0.206 F 
ATOM     79  C   UNL A   1      42.745  21.032  27.783  1.00  0.00     0.059 A 
ATOM     80  C   UNL A   1      42.788  21.429  25.389  1.00  0.00     0.059 A 
ATOM     81  F   UNL A   1      43.317  23.563  24.573  1.00  0.00    -0.206 F 
ATOM     82  C   UNL A   1      42.619  20.568  26.473  1.00  0.00     0.060 A 
BRANCH  82  83
ATOM     83  S   UNL A   1      42.216  18.829  26.199  1.00  0.00     0.124 S 
ATOM     84  O   UNL A   1      42.444  18.264  27.524  1.00  0.00    -0.237 OA
ATOM     85  O   UNL A   1      40.824  18.899  25.764  1.00  0.00    -0.237 OA
ATOM     86  O   UNL A   1      43.167  18.424  25.168  1.00  0.00    -0.744 OA
ENDBRANCH  82  83
ENDBRANCH  50  75
BRANCH  62  87
ATOM     87  C   UNL A   1      49.437  26.483  26.313  1.00  0.00     0.058 A 
ATOM     88  C   UNL A   1      49.952  26.636  25.018  1.00  0.00     0.135 A 
ATOM     89  C   UNL A   1      50.272  25.920  27.291  1.00  0.00     0.135 A 
ATOM     90  F   UNL A   1      49.191  27.165  24.046  1.00  0.00    -0.206 F 
ATOM     91  C   UNL A   1      51.244  26.232  24.699  1.00  0.00     0.059 A 
ATOM     92  C   UNL A   1      51.577  25.533  27.001  1.00  0.00     0.059 A 
ATOM     93  F   UNL A   1      49.830  25.762  28.549  1.00  0.00    -0.206 F 
ATOM     94  C   UNL A   1      52.050  25.684  25.699  1.00  0.00     0.060 A 
BRANCH  94  95
ATOM     95  S   UNL A   1      53.742  25.210  25.284  1.00  0.00     0.124 S 
ATOM     96  O   UNL A   1      53.676  23.757  25.398  1.00  0.00    -0.237 OA
ATOM     97  O   UNL A   1      53.889  25.733  23.929  1.00  0.00    -0.237 OA
ATOM     98  O   UNL A   1      54.544  25.885  26.300  1.00  0.00    -0.744 OA
ENDBRANCH  94  95
ENDBRANCH  62  87
ENDBRANCH  36  37
ENDBRANCH  28  31
ENDBRANCH  26  27
ENDBRANCH   1  26
TORSDOF 17
ENDMDL
