MODEL 1
REMARK VINA RESULT:     -12.0      0.000      0.000
REMARK SMILES O=C(NCCCNC(=O)[C@@H]1CC[C@@H](CS(=O)(=O)c2cccc(F)c2)O1)c1ccc(-c2c3nc(c(-c4c(F)cc(S(=O)(=O)[O-])cc4F)c4ccc([nH]4)c(-c4c(F)cc(S(=O)(=O)[O-])cc4F)c4nc(c(-c5c(F)cc(S(=O)(=O)[O-])cc5F)c5ccc2[nH]5)C=C4)C=C3)cc1
REMARK SMILES IDX 5 1 4 2 3 3 1 4 2 5 26 7 27 8 91 9 28 10 90 11 29 12 30 13
REMARK SMILES IDX 31 14 84 15 32 16 89 17 83 18 85 19 33 20 88 21 82 22 81 23
REMARK SMILES IDX 34 25 68 26 47 27 67 28 48 29 51 30 66 31 86 32 49 33 50 34
REMARK SMILES IDX 65 36 87 37 52 38 35 39 36 40 45 41 37 42 38 43 44 44 46 45
REMARK SMILES IDX 39 46 40 47 41 48 42 49 43 50 69 51 70 52 79 53 71 54 72 55
REMARK SMILES IDX 78 56 80 57 73 58 74 59 75 60 76 61 77 62 53 63 54 64 63 65
REMARK SMILES IDX 55 66 56 67 62 68 64 69 57 70 58 71 59 72 60 73 61 74 6 75
REMARK SMILES IDX 7 76 8 77 9 79 10 80 11 81 25 82 12 83 13 84 14 85 15 86
REMARK SMILES IDX 16 87 17 88 18 89 19 90 24 91 20 92 22 93 21 94 23 95
REMARK H PARENT 3 6 85 24 51 35 7 78
REMARK Flexibility Score: inf
ROOT
ATOM      1  C   UNL A   1      38.289  23.554  26.433  1.00  0.00     0.042 C 
ENDROOT
BRANCH   1   2
ATOM      2  C   UNL A   1      39.723  23.461  26.924  1.00  0.00     0.118 C 
BRANCH   2   3
ATOM      3  N   UNL A   1      40.656  24.150  26.041  1.00  0.00    -0.352 N 
ATOM      4  O   UNL A   1      41.763  25.841  25.081  1.00  0.00    -0.269 OA
ATOM      5  C   UNL A   1      41.210  25.406  26.092  1.00  0.00     0.251 C 
ATOM      6  H   UNL A   1      40.942  23.617  25.265  1.00  0.00     0.163 HD
BRANCH   5   7
ATOM      7  C   UNL A   1      41.149  26.248  27.312  1.00  0.00     0.039 A 
ATOM      8  C   UNL A   1      41.914  27.404  27.445  1.00  0.00     0.014 A 
ATOM      9  C   UNL A   1      40.222  25.928  28.314  1.00  0.00     0.014 A 
ATOM     10  C   UNL A   1      41.873  28.148  28.619  1.00  0.00     0.010 A 
ATOM     11  C   UNL A   1      40.087  26.748  29.442  1.00  0.00     0.010 A 
ATOM     12  C   UNL A   1      40.921  27.862  29.608  1.00  0.00    -0.014 A 
BRANCH  12  13
ATOM     13  C   UNL A   1      40.729  28.834  30.715  1.00  0.00     0.031 A 
ATOM     14  C   UNL A   1      39.632  29.859  30.678  1.00  0.00     0.074 A 
ATOM     15  C   UNL A   1      41.559  28.758  31.776  1.00  0.00     0.049 A 
ATOM     16  N   UNL A   1      39.343  30.774  31.566  1.00  0.00    -0.248 NA
ATOM     17  C   UNL A   1      38.749  29.869  29.500  1.00  0.00     0.031 C 
ATOM     18  C   UNL A   1      42.674  27.812  31.905  1.00  0.00     0.029 A 
ATOM     19  N   UNL A   1      41.595  29.463  32.951  1.00  0.00    -0.354 N 
ATOM     20  C   UNL A   1      38.262  31.479  31.052  1.00  0.00     0.074 A 
ATOM     21  C   UNL A   1      37.950  30.896  29.766  1.00  0.00     0.031 C 
ATOM     22  C   UNL A   1      43.252  27.964  33.104  1.00  0.00     0.029 A 
ATOM     23  C   UNL A   1      42.605  29.070  33.799  1.00  0.00     0.049 A 
ATOM     24  H   UNL A   1      40.960  30.185  33.168  1.00  0.00     0.167 HD
ATOM     25  C   UNL A   1      37.593  32.512  31.615  1.00  0.00     0.037 A 
ATOM     26  C   UNL A   1      42.999  29.561  34.989  1.00  0.00     0.037 A 
ATOM     27  C   UNL A   1      37.895  33.059  32.914  1.00  0.00     0.049 A 
ATOM     28  C   UNL A   1      42.256  30.729  35.569  1.00  0.00     0.074 A 
ATOM     29  C   UNL A   1      37.227  34.060  33.597  1.00  0.00     0.029 A 
ATOM     30  N   UNL A   1      38.951  32.660  33.721  1.00  0.00    -0.354 N 
ATOM     31  N   UNL A   1      41.205  31.347  35.090  1.00  0.00    -0.248 NA
ATOM     32  C   UNL A   1      42.758  31.279  36.835  1.00  0.00     0.031 C 
ATOM     33  C   UNL A   1      37.907  34.303  34.792  1.00  0.00     0.029 A 
ATOM     34  C   UNL A   1      38.975  33.424  34.876  1.00  0.00     0.049 A 
ATOM     35  H   UNL A   1      39.589  31.942  33.505  1.00  0.00     0.167 HD
ATOM     36  C   UNL A   1      40.924  32.365  35.989  1.00  0.00     0.074 A 
ATOM     37  C   UNL A   1      41.895  32.261  37.059  1.00  0.00     0.031 C 
ATOM     38  C   UNL A   1      39.954  33.309  35.927  1.00  0.00     0.037 A 
BRANCH  25  39
ATOM     39  C   UNL A   1      36.458  33.141  30.856  1.00  0.00     0.058 A 
ATOM     40  C   UNL A   1      36.721  34.029  29.800  1.00  0.00     0.135 A 
ATOM     41  C   UNL A   1      35.126  32.985  31.266  1.00  0.00     0.135 A 
ATOM     42  F   UNL A   1      37.979  34.209  29.365  1.00  0.00    -0.206 F 
ATOM     43  C   UNL A   1      35.707  34.772  29.205  1.00  0.00     0.059 A 
ATOM     44  C   UNL A   1      34.092  33.703  30.673  1.00  0.00     0.059 A 
ATOM     45  F   UNL A   1      34.821  32.133  32.259  1.00  0.00    -0.206 F 
ATOM     46  C   UNL A   1      34.396  34.613  29.658  1.00  0.00     0.060 A 
BRANCH  46  47
ATOM     47  S   UNL A   1      33.097  35.613  28.903  1.00  0.00     0.124 S 
ATOM     48  O   UNL A   1      32.410  34.635  28.067  1.00  0.00    -0.237 OA
ATOM     49  O   UNL A   1      32.358  36.086  30.069  1.00  0.00    -0.237 OA
ATOM     50  O   UNL A   1      33.840  36.644  28.183  1.00  0.00    -0.744 OA
ENDBRANCH  46  47
ENDBRANCH  25  39
BRANCH  26  51
ATOM     51  C   UNL A   1      44.185  28.980  35.671  1.00  0.00     0.058 A 
ATOM     52  C   UNL A   1      44.040  27.937  36.602  1.00  0.00     0.135 A 
ATOM     53  C   UNL A   1      45.477  29.471  35.438  1.00  0.00     0.135 A 
ATOM     54  F   UNL A   1      42.823  27.438  36.870  1.00  0.00    -0.206 F 
ATOM     55  C   UNL A   1      45.127  27.423  37.297  1.00  0.00     0.059 A 
ATOM     56  C   UNL A   1      46.586  28.952  36.100  1.00  0.00     0.059 A 
ATOM     57  F   UNL A   1      45.667  30.459  34.549  1.00  0.00    -0.206 F 
ATOM     58  C   UNL A   1      46.397  27.939  37.042  1.00  0.00     0.060 A 
BRANCH  58  59
ATOM     59  S   UNL A   1      47.798  27.249  37.946  1.00  0.00     0.124 S 
ATOM     60  O   UNL A   1      47.518  27.703  39.304  1.00  0.00    -0.237 OA
ATOM     61  O   UNL A   1      47.644  25.817  37.708  1.00  0.00    -0.237 OA
ATOM     62  O   UNL A   1      48.952  27.869  37.300  1.00  0.00    -0.744 OA
ENDBRANCH  58  59
ENDBRANCH  26  51
BRANCH  38  63
ATOM     63  C   UNL A   1      39.896  34.321  37.033  1.00  0.00     0.058 A 
ATOM     64  C   UNL A   1      39.082  34.110  38.155  1.00  0.00     0.135 A 
ATOM     65  C   UNL A   1      40.569  35.548  36.925  1.00  0.00     0.135 A 
ATOM     66  F   UNL A   1      38.418  32.952  38.302  1.00  0.00    -0.206 F 
ATOM     67  C   UNL A   1      38.907  35.096  39.118  1.00  0.00     0.059 A 
ATOM     68  C   UNL A   1      40.428  36.540  37.889  1.00  0.00     0.059 A 
ATOM     69  F   UNL A   1      41.374  35.786  35.877  1.00  0.00    -0.206 F 
ATOM     70  C   UNL A   1      39.576  36.313  38.970  1.00  0.00     0.060 A 
BRANCH  70  71
ATOM     71  S   UNL A   1      39.314  37.594  40.214  1.00  0.00     0.124 S 
ATOM     72  O   UNL A   1      40.631  38.217  40.282  1.00  0.00    -0.237 OA
ATOM     73  O   UNL A   1      38.260  38.400  39.607  1.00  0.00    -0.237 OA
ATOM     74  O   UNL A   1      38.914  36.841  41.398  1.00  0.00    -0.744 OA
ENDBRANCH  70  71
ENDBRANCH  38  63
ENDBRANCH  12  13
ENDBRANCH   5   7
ENDBRANCH   2   3
ENDBRANCH   1   2
BRANCH   1  75
ATOM     75  C   UNL A   1      37.822  22.304  25.704  1.00  0.00     0.117 C 
BRANCH  75  76
ATOM     76  N   UNL A   1      37.551  22.562  24.303  1.00  0.00    -0.354 N 
ATOM     77  C   UNL A   1      36.375  22.885  23.692  1.00  0.00     0.249 C 
ATOM     78  H   UNL A   1      38.330  22.495  23.704  1.00  0.00     0.163 HD
ATOM     79  O   UNL A   1      36.394  23.044  22.467  1.00  0.00    -0.272 OA
BRANCH  77  80
ATOM     80  C   UNL A   1      35.062  22.956  24.501  1.00  0.00     0.207 C 
ATOM     81  C   UNL A   1      33.860  22.702  23.596  1.00  0.00     0.045 C 
ATOM     82  O   UNL A   1      34.790  24.189  25.179  1.00  0.00    -0.364 OA
ATOM     83  C   UNL A   1      32.755  23.466  24.277  1.00  0.00     0.036 C 
ATOM     84  C   UNL A   1      33.492  24.675  24.832  1.00  0.00     0.134 C 
BRANCH  84  85
ATOM     85  C   UNL A   1      32.791  25.238  26.052  1.00  0.00     0.174 C 
BRANCH  85  86
ATOM     86  S   UNL A   1      31.781  26.655  25.726  1.00  0.00     0.181 S 
ATOM     87  O   UNL A   1      31.660  26.787  24.285  1.00  0.00    -0.224 OA
ATOM     88  O   UNL A   1      30.588  26.514  26.542  1.00  0.00    -0.224 OA
BRANCH  86  89
ATOM     89  C   UNL A   1      32.595  28.114  26.333  1.00  0.00     0.070 A 
ATOM     90  C   UNL A   1      31.848  29.294  26.453  1.00  0.00     0.020 A 
ATOM     91  C   UNL A   1      33.933  28.084  26.729  1.00  0.00     0.059 A 
ATOM     92  C   UNL A   1      32.441  30.449  26.971  1.00  0.00     0.004 A 
ATOM     93  C   UNL A   1      34.509  29.246  27.233  1.00  0.00     0.124 A 
ATOM     94  C   UNL A   1      33.777  30.423  27.364  1.00  0.00     0.039 A 
ATOM     95  F   UNL A   1      35.804  29.237  27.573  1.00  0.00    -0.207 F 
ENDBRANCH  86  89
ENDBRANCH  85  86
ENDBRANCH  84  85
ENDBRANCH  77  80
ENDBRANCH  75  76
ENDBRANCH   1  75
TORSDOF 16
ENDMDL
MODEL 2
REMARK VINA RESULT:     -11.9      4.862     11.527
REMARK SMILES O=C(NCCCNC(=O)[C@@H]1CC[C@@H](CS(=O)(=O)c2cccc(F)c2)O1)c1ccc(-c2c3nc(c(-c4c(F)cc(S(=O)(=O)[O-])cc4F)c4ccc([nH]4)c(-c4c(F)cc(S(=O)(=O)[O-])cc4F)c4nc(c(-c5c(F)cc(S(=O)(=O)[O-])cc5F)c5ccc2[nH]5)C=C4)C=C3)cc1
REMARK SMILES IDX 5 1 4 2 3 3 1 4 2 5 26 7 27 8 91 9 28 10 90 11 29 12 30 13
REMARK SMILES IDX 31 14 84 15 32 16 89 17 83 18 85 19 33 20 88 21 82 22 81 23
REMARK SMILES IDX 34 25 68 26 47 27 67 28 48 29 51 30 66 31 86 32 49 33 50 34
REMARK SMILES IDX 65 36 87 37 52 38 35 39 36 40 45 41 37 42 38 43 44 44 46 45
REMARK SMILES IDX 39 46 40 47 41 48 42 49 43 50 69 51 70 52 79 53 71 54 72 55
REMARK SMILES IDX 78 56 80 57 73 58 74 59 75 60 76 61 77 62 53 63 54 64 63 65
REMARK SMILES IDX 55 66 56 67 62 68 64 69 57 70 58 71 59 72 60 73 61 74 6 75
REMARK SMILES IDX 7 76 8 77 9 79 10 80 11 81 25 82 12 83 13 84 14 85 15 86
REMARK SMILES IDX 16 87 17 88 18 89 19 90 24 91 20 92 22 93 21 94 23 95
REMARK H PARENT 3 6 85 24 51 35 7 78
REMARK Flexibility Score: inf
ROOT
ATOM      1  C   UNL A   1      34.145  33.364  27.993  1.00  0.00     0.042 C 
ENDROOT
BRANCH   1   2
ATOM      2  C   UNL A   1      34.281  32.201  28.961  1.00  0.00     0.118 C 
BRANCH   2   3
ATOM      3  N   UNL A   1      33.856  30.937  28.371  1.00  0.00    -0.352 N 
ATOM      4  O   UNL A   1      33.977  29.028  27.212  1.00  0.00    -0.269 OA
ATOM      5  C   UNL A   1      34.567  29.858  27.904  1.00  0.00     0.251 C 
ATOM      6  H   UNL A   1      32.880  30.839  28.293  1.00  0.00     0.163 HD
BRANCH   5   7
ATOM      7  C   UNL A   1      36.010  29.675  28.198  1.00  0.00     0.039 A 
ATOM      8  C   UNL A   1      36.455  29.236  29.442  1.00  0.00     0.014 A 
ATOM      9  C   UNL A   1      36.942  29.851  27.166  1.00  0.00     0.014 A 
ATOM     10  C   UNL A   1      37.815  29.119  29.705  1.00  0.00     0.010 A 
ATOM     11  C   UNL A   1      38.303  29.610  27.392  1.00  0.00     0.010 A 
ATOM     12  C   UNL A   1      38.752  29.250  28.670  1.00  0.00    -0.014 A 
BRANCH  12  13
ATOM     13  C   UNL A   1      40.161  28.855  28.930  1.00  0.00     0.031 A 
ATOM     14  C   UNL A   1      40.689  27.512  28.517  1.00  0.00     0.074 A 
ATOM     15  C   UNL A   1      40.970  29.753  29.532  1.00  0.00     0.049 A 
ATOM     16  N   UNL A   1      41.892  27.024  28.679  1.00  0.00    -0.248 NA
ATOM     17  C   UNL A   1      39.757  26.593  27.844  1.00  0.00     0.031 C 
ATOM     18  C   UNL A   1      40.553  31.082  29.995  1.00  0.00     0.029 A 
ATOM     19  N   UNL A   1      42.303  29.704  29.846  1.00  0.00    -0.354 N 
ATOM     20  C   UNL A   1      41.860  25.742  28.147  1.00  0.00     0.074 A 
ATOM     21  C   UNL A   1      40.514  25.516  27.666  1.00  0.00     0.031 C 
ATOM     22  C   UNL A   1      41.614  31.735  30.488  1.00  0.00     0.029 A 
ATOM     23  C   UNL A   1      42.769  30.847  30.454  1.00  0.00     0.049 A 
ATOM     24  H   UNL A   1      42.875  28.924  29.657  1.00  0.00     0.167 HD
ATOM     25  C   UNL A   1      42.871  24.846  28.065  1.00  0.00     0.037 A 
ATOM     26  C   UNL A   1      43.979  31.145  30.965  1.00  0.00     0.037 A 
ATOM     27  C   UNL A   1      44.215  25.099  28.518  1.00  0.00     0.049 A 
ATOM     28  C   UNL A   1      45.067  30.115  30.887  1.00  0.00     0.074 A 
ATOM     29  C   UNL A   1      45.323  24.276  28.413  1.00  0.00     0.029 A 
ATOM     30  N   UNL A   1      44.634  26.253  29.165  1.00  0.00    -0.354 N 
ATOM     31  N   UNL A   1      45.030  28.928  30.334  1.00  0.00    -0.248 NA
ATOM     32  C   UNL A   1      46.352  30.451  31.514  1.00  0.00     0.031 C 
ATOM     33  C   UNL A   1      46.398  24.909  29.040  1.00  0.00     0.029 A 
ATOM     34  C   UNL A   1      45.974  26.145  29.500  1.00  0.00     0.049 A 
ATOM     35  H   UNL A   1      44.064  27.032  29.358  1.00  0.00     0.167 HD
ATOM     36  C   UNL A   1      46.281  28.370  30.554  1.00  0.00     0.074 A 
ATOM     37  C   UNL A   1      47.064  29.361  31.262  1.00  0.00     0.031 C 
ATOM     38  C   UNL A   1      46.735  27.141  30.210  1.00  0.00     0.037 A 
BRANCH  25  39
ATOM     39  C   UNL A   1      42.595  23.495  27.465  1.00  0.00     0.058 A 
ATOM     40  C   UNL A   1      42.210  22.422  28.286  1.00  0.00     0.135 A 
ATOM     41  C   UNL A   1      42.856  23.227  26.113  1.00  0.00     0.135 A 
ATOM     42  F   UNL A   1      41.943  22.627  29.585  1.00  0.00    -0.206 F 
ATOM     43  C   UNL A   1      42.134  21.123  27.796  1.00  0.00     0.059 A 
ATOM     44  C   UNL A   1      42.767  21.937  25.596  1.00  0.00     0.059 A 
ATOM     45  F   UNL A   1      43.208  24.222  25.283  1.00  0.00    -0.206 F 
ATOM     46  C   UNL A   1      42.429  20.887  26.452  1.00  0.00     0.060 A 
BRANCH  46  47
ATOM     47  S   UNL A   1      42.364  19.190  25.841  1.00  0.00     0.124 S 
ATOM     48  O   UNL A   1      42.958  18.448  26.947  1.00  0.00    -0.237 OA
ATOM     49  O   UNL A   1      40.931  18.993  25.638  1.00  0.00    -0.237 OA
ATOM     50  O   UNL A   1      43.159  19.240  24.618  1.00  0.00    -0.744 OA
ENDBRANCH  46  47
ENDBRANCH  25  39
BRANCH  26  51
ATOM     51  C   UNL A   1      44.193  32.452  31.638  1.00  0.00     0.058 A 
ATOM     52  C   UNL A   1      43.948  32.602  33.013  1.00  0.00     0.135 A 
ATOM     53  C   UNL A   1      44.611  33.583  30.923  1.00  0.00     0.135 A 
ATOM     54  F   UNL A   1      43.537  31.553  33.742  1.00  0.00    -0.206 F 
ATOM     55  C   UNL A   1      44.081  33.830  33.649  1.00  0.00     0.059 A 
ATOM     56  C   UNL A   1      44.780  34.818  31.543  1.00  0.00     0.059 A 
ATOM     57  F   UNL A   1      44.868  33.487  29.609  1.00  0.00    -0.206 F 
ATOM     58  C   UNL A   1      44.495  34.934  32.905  1.00  0.00     0.060 A 
BRANCH  58  59
ATOM     59  S   UNL A   1      44.674  36.518  33.751  1.00  0.00     0.124 S 
ATOM     60  O   UNL A   1      45.051  36.088  35.094  1.00  0.00    -0.237 OA
ATOM     61  O   UNL A   1      45.725  37.167  32.973  1.00  0.00    -0.237 OA
ATOM     62  O   UNL A   1      43.348  37.115  33.630  1.00  0.00    -0.744 OA
ENDBRANCH  58  59
ENDBRANCH  26  51
BRANCH  38  63
ATOM     63  C   UNL A   1      48.136  26.781  30.606  1.00  0.00     0.058 A 
ATOM     64  C   UNL A   1      48.392  26.128  31.821  1.00  0.00     0.135 A 
ATOM     65  C   UNL A   1      49.232  27.182  29.826  1.00  0.00     0.135 A 
ATOM     66  F   UNL A   1      47.376  25.727  32.601  1.00  0.00    -0.206 F 
ATOM     67  C   UNL A   1      49.690  25.915  32.267  1.00  0.00     0.059 A 
ATOM     68  C   UNL A   1      50.539  26.957  30.242  1.00  0.00     0.059 A 
ATOM     69  F   UNL A   1      49.034  27.793  28.647  1.00  0.00    -0.206 F 
ATOM     70  C   UNL A   1      50.758  26.344  31.476  1.00  0.00     0.060 A 
BRANCH  70  71
ATOM     71  S   UNL A   1      52.437  26.086  32.086  1.00  0.00     0.124 S 
ATOM     72  O   UNL A   1      53.236  26.458  30.923  1.00  0.00    -0.237 OA
ATOM     73  O   UNL A   1      52.497  27.005  33.217  1.00  0.00    -0.237 OA
ATOM     74  O   UNL A   1      52.458  24.670  32.435  1.00  0.00    -0.744 OA
ENDBRANCH  70  71
ENDBRANCH  38  63
ENDBRANCH  12  13
ENDBRANCH   5   7
ENDBRANCH   2   3
ENDBRANCH   1   2
BRANCH   1  75
ATOM     75  C   UNL A   1      34.977  34.573  28.388  1.00  0.00     0.117 C 
BRANCH  75  76
ATOM     76  N   UNL A   1      34.241  35.813  28.228  1.00  0.00    -0.354 N 
ATOM     77  C   UNL A   1      33.484  36.496  29.133  1.00  0.00     0.249 C 
ATOM     78  H   UNL A   1      34.296  36.223  27.334  1.00  0.00     0.163 HD
ATOM     79  O   UNL A   1      32.936  37.535  28.751  1.00  0.00    -0.272 OA
BRANCH  77  80
ATOM     80  C   UNL A   1      33.256  35.932  30.553  1.00  0.00     0.207 C 
ATOM     81  C   UNL A   1      33.217  37.061  31.579  1.00  0.00     0.045 C 
ATOM     82  O   UNL A   1      34.224  34.994  31.036  1.00  0.00    -0.364 OA
ATOM     83  C   UNL A   1      33.698  36.390  32.839  1.00  0.00     0.036 C 
ATOM     84  C   UNL A   1      34.728  35.406  32.308  1.00  0.00     0.134 C 
BRANCH  84  85
ATOM     85  C   UNL A   1      34.879  34.213  33.231  1.00  0.00     0.174 C 
BRANCH  85  86
ATOM     86  S   UNL A   1      36.550  33.674  33.462  1.00  0.00     0.181 S 
ATOM     87  O   UNL A   1      37.163  34.551  34.444  1.00  0.00    -0.224 OA
ATOM     88  O   UNL A   1      36.498  32.243  33.702  1.00  0.00    -0.224 OA
BRANCH  86  89
ATOM     89  C   UNL A   1      37.449  33.862  31.940  1.00  0.00     0.070 A 
ATOM     90  C   UNL A   1      38.517  34.770  31.903  1.00  0.00     0.020 A 
ATOM     91  C   UNL A   1      37.139  33.093  30.817  1.00  0.00     0.059 A 
ATOM     92  C   UNL A   1      39.277  34.909  30.738  1.00  0.00     0.004 A 
ATOM     93  C   UNL A   1      37.901  33.253  29.664  1.00  0.00     0.124 A 
ATOM     94  C   UNL A   1      38.967  34.146  29.615  1.00  0.00     0.039 A 
ATOM     95  F   UNL A   1      37.580  32.552  28.569  1.00  0.00    -0.207 F 
ENDBRANCH  86  89
ENDBRANCH  85  86
ENDBRANCH  84  85
ENDBRANCH  77  80
ENDBRANCH  75  76
ENDBRANCH   1  75
TORSDOF 16
ENDMDL
MODEL 3
REMARK VINA RESULT:     -11.8      5.112     10.659
REMARK SMILES O=C(NCCCNC(=O)[C@@H]1CC[C@@H](CS(=O)(=O)c2cccc(F)c2)O1)c1ccc(-c2c3nc(c(-c4c(F)cc(S(=O)(=O)[O-])cc4F)c4ccc([nH]4)c(-c4c(F)cc(S(=O)(=O)[O-])cc4F)c4nc(c(-c5c(F)cc(S(=O)(=O)[O-])cc5F)c5ccc2[nH]5)C=C4)C=C3)cc1
REMARK SMILES IDX 5 1 4 2 3 3 1 4 2 5 26 7 27 8 91 9 28 10 90 11 29 12 30 13
REMARK SMILES IDX 31 14 84 15 32 16 89 17 83 18 85 19 33 20 88 21 82 22 81 23
REMARK SMILES IDX 34 25 68 26 47 27 67 28 48 29 51 30 66 31 86 32 49 33 50 34
REMARK SMILES IDX 65 36 87 37 52 38 35 39 36 40 45 41 37 42 38 43 44 44 46 45
REMARK SMILES IDX 39 46 40 47 41 48 42 49 43 50 69 51 70 52 79 53 71 54 72 55
REMARK SMILES IDX 78 56 80 57 73 58 74 59 75 60 76 61 77 62 53 63 54 64 63 65
REMARK SMILES IDX 55 66 56 67 62 68 64 69 57 70 58 71 59 72 60 73 61 74 6 75
REMARK SMILES IDX 7 76 8 77 9 79 10 80 11 81 25 82 12 83 13 84 14 85 15 86
REMARK SMILES IDX 16 87 17 88 18 89 19 90 24 91 20 92 22 93 21 94 23 95
REMARK H PARENT 3 6 85 24 51 35 7 78
REMARK Flexibility Score: inf
ROOT
ATOM      1  C   UNL A   1      32.510  28.159  27.568  1.00  0.00     0.042 C 
ENDROOT
BRANCH   1   2
ATOM      2  C   UNL A   1      33.855  28.790  27.250  1.00  0.00     0.118 C 
BRANCH   2   3
ATOM      3  N   UNL A   1      33.975  30.139  27.790  1.00  0.00    -0.352 N 
ATOM      4  O   UNL A   1      34.722  31.822  29.060  1.00  0.00    -0.269 OA
ATOM      5  C   UNL A   1      34.979  30.760  28.491  1.00  0.00     0.251 C 
ATOM      6  H   UNL A   1      33.192  30.710  27.620  1.00  0.00     0.163 HD
BRANCH   5   7
ATOM      7  C   UNL A   1      36.344  30.188  28.591  1.00  0.00     0.039 A 
ATOM      8  C   UNL A   1      37.263  30.294  27.549  1.00  0.00     0.014 A 
ATOM      9  C   UNL A   1      36.755  29.615  29.802  1.00  0.00     0.014 A 
ATOM     10  C   UNL A   1      38.519  29.707  27.650  1.00  0.00     0.010 A 
ATOM     11  C   UNL A   1      38.063  29.136  29.951  1.00  0.00     0.010 A 
ATOM     12  C   UNL A   1      38.954  29.170  28.870  1.00  0.00    -0.014 A 
BRANCH  12  13
ATOM     13  C   UNL A   1      40.386  28.799  29.015  1.00  0.00     0.031 A 
ATOM     14  C   UNL A   1      40.901  27.464  28.562  1.00  0.00     0.074 A 
ATOM     15  C   UNL A   1      41.226  29.711  29.549  1.00  0.00     0.049 A 
ATOM     16  N   UNL A   1      42.121  26.997  28.625  1.00  0.00    -0.248 NA
ATOM     17  C   UNL A   1      39.933  26.528  27.967  1.00  0.00     0.031 C 
ATOM     18  C   UNL A   1      40.825  31.034  30.043  1.00  0.00     0.029 A 
ATOM     19  N   UNL A   1      42.581  29.685  29.754  1.00  0.00    -0.354 N 
ATOM     20  C   UNL A   1      42.068  25.713  28.098  1.00  0.00     0.074 A 
ATOM     21  C   UNL A   1      40.692  25.463  27.729  1.00  0.00     0.031 C 
ATOM     22  C   UNL A   1      41.912  31.706  30.448  1.00  0.00     0.029 A 
ATOM     23  C   UNL A   1      43.075  30.838  30.321  1.00  0.00     0.049 A 
ATOM     24  H   UNL A   1      43.148  28.915  29.519  1.00  0.00     0.167 HD
ATOM     25  C   UNL A   1      43.084  24.834  27.936  1.00  0.00     0.037 A 
ATOM     26  C   UNL A   1      44.317  31.157  30.731  1.00  0.00     0.037 A 
ATOM     27  C   UNL A   1      44.456  25.111  28.277  1.00  0.00     0.049 A 
ATOM     28  C   UNL A   1      45.413  30.145  30.566  1.00  0.00     0.074 A 
ATOM     29  C   UNL A   1      45.565  24.306  28.083  1.00  0.00     0.029 A 
ATOM     30  N   UNL A   1      44.906  26.272  28.888  1.00  0.00    -0.354 N 
ATOM     31  N   UNL A   1      45.351  28.956  30.018  1.00  0.00    -0.248 NA
ATOM     32  C   UNL A   1      46.739  30.504  31.086  1.00  0.00     0.031 C 
ATOM     33  C   UNL A   1      46.677  24.958  28.620  1.00  0.00     0.029 A 
ATOM     34  C   UNL A   1      46.271  26.188  29.112  1.00  0.00     0.049 A 
ATOM     35  H   UNL A   1      44.341  27.042  29.126  1.00  0.00     0.167 HD
ATOM     36  C   UNL A   1      46.625  28.419  30.137  1.00  0.00     0.074 A 
ATOM     37  C   UNL A   1      47.446  29.425  30.778  1.00  0.00     0.031 C 
ATOM     38  C   UNL A   1      47.070  27.197  29.758  1.00  0.00     0.037 A 
BRANCH  25  39
ATOM     39  C   UNL A   1      42.783  23.478  27.360  1.00  0.00     0.058 A 
ATOM     40  C   UNL A   1      42.320  22.444  28.192  1.00  0.00     0.135 A 
ATOM     41  C   UNL A   1      43.094  23.160  26.030  1.00  0.00     0.135 A 
ATOM     42  F   UNL A   1      42.003  22.697  29.472  1.00  0.00    -0.206 F 
ATOM     43  C   UNL A   1      42.215  21.135  27.735  1.00  0.00     0.059 A 
ATOM     44  C   UNL A   1      42.978  21.860  25.545  1.00  0.00     0.059 A 
ATOM     45  F   UNL A   1      43.522  24.117  25.190  1.00  0.00    -0.206 F 
ATOM     46  C   UNL A   1      42.561  20.849  26.413  1.00  0.00     0.060 A 
BRANCH  46  47
ATOM     47  S   UNL A   1      42.457  19.139  25.847  1.00  0.00     0.124 S 
ATOM     48  O   UNL A   1      43.062  18.415  26.959  1.00  0.00    -0.237 OA
ATOM     49  O   UNL A   1      41.018  18.960  25.677  1.00  0.00    -0.237 OA
ATOM     50  O   UNL A   1      43.229  19.145  24.607  1.00  0.00    -0.744 OA
ENDBRANCH  46  47
ENDBRANCH  25  39
BRANCH  26  51
ATOM     51  C   UNL A   1      44.564  32.469  31.383  1.00  0.00     0.058 A 
ATOM     52  C   UNL A   1      44.376  32.631  32.767  1.00  0.00     0.135 A 
ATOM     53  C   UNL A   1      44.956  33.592  30.642  1.00  0.00     0.135 A 
ATOM     54  F   UNL A   1      43.991  31.590  33.521  1.00  0.00    -0.206 F 
ATOM     55  C   UNL A   1      44.540  33.864  33.385  1.00  0.00     0.059 A 
ATOM     56  C   UNL A   1      45.155  34.832  31.244  1.00  0.00     0.059 A 
ATOM     57  F   UNL A   1      45.158  33.484  29.319  1.00  0.00    -0.206 F 
ATOM     58  C   UNL A   1      44.926  34.960  32.616  1.00  0.00     0.060 A 
BRANCH  58  59
ATOM     59  S   UNL A   1      45.145  36.550  33.441  1.00  0.00     0.124 S 
ATOM     60  O   UNL A   1      43.776  37.053  33.469  1.00  0.00    -0.237 OA
ATOM     61  O   UNL A   1      45.705  36.155  34.729  1.00  0.00    -0.237 OA
ATOM     62  O   UNL A   1      46.060  37.264  32.555  1.00  0.00    -0.744 OA
ENDBRANCH  58  59
ENDBRANCH  26  51
BRANCH  38  63
ATOM     63  C   UNL A   1      48.505  26.862  30.038  1.00  0.00     0.058 A 
ATOM     64  C   UNL A   1      48.868  26.203  31.222  1.00  0.00     0.135 A 
ATOM     65  C   UNL A   1      49.528  27.293  29.179  1.00  0.00     0.135 A 
ATOM     66  F   UNL A   1      47.925  25.773  32.074  1.00  0.00    -0.206 F 
ATOM     67  C   UNL A   1      50.201  26.011  31.562  1.00  0.00     0.059 A 
ATOM     68  C   UNL A   1      50.868  27.090  29.489  1.00  0.00     0.059 A 
ATOM     69  F   UNL A   1      49.226  27.912  28.027  1.00  0.00    -0.206 F 
ATOM     70  C   UNL A   1      51.195  26.469  30.695  1.00  0.00     0.060 A 
BRANCH  70  71
ATOM     71  S   UNL A   1      52.921  26.240  31.169  1.00  0.00     0.124 S 
ATOM     72  O   UNL A   1      53.563  26.049  29.872  1.00  0.00    -0.237 OA
ATOM     73  O   UNL A   1      53.223  27.495  31.847  1.00  0.00    -0.237 OA
ATOM     74  O   UNL A   1      52.883  25.062  32.030  1.00  0.00    -0.744 OA
ENDBRANCH  70  71
ENDBRANCH  38  63
ENDBRANCH  12  13
ENDBRANCH   5   7
ENDBRANCH   2   3
ENDBRANCH   1   2
BRANCH   1  75
ATOM     75  C   UNL A   1      31.818  27.574  26.347  1.00  0.00     0.117 C 
BRANCH  75  76
ATOM     76  N   UNL A   1      30.784  26.625  26.713  1.00  0.00    -0.354 N 
ATOM     77  C   UNL A   1      30.516  25.392  26.196  1.00  0.00     0.249 C 
ATOM     78  H   UNL A   1      30.187  26.913  27.441  1.00  0.00     0.163 HD
ATOM     79  O   UNL A   1      29.559  24.771  26.669  1.00  0.00    -0.272 OA
BRANCH  77  80
ATOM     80  C   UNL A   1      31.331  24.845  25.003  1.00  0.00     0.207 C 
ATOM     81  C   UNL A   1      30.401  24.286  23.931  1.00  0.00     0.045 C 
ATOM     82  O   UNL A   1      32.271  23.803  25.291  1.00  0.00    -0.364 OA
ATOM     83  C   UNL A   1      31.246  23.230  23.267  1.00  0.00     0.036 C 
ATOM     84  C   UNL A   1      32.053  22.682  24.433  1.00  0.00     0.134 C 
BRANCH  84  85
ATOM     85  C   UNL A   1      33.374  22.103  23.968  1.00  0.00     0.174 C 
BRANCH  85  86
ATOM     86  S   UNL A   1      34.275  21.237  25.221  1.00  0.00     0.181 S 
ATOM     87  O   UNL A   1      33.505  21.315  26.450  1.00  0.00    -0.224 OA
ATOM     88  O   UNL A   1      34.623  19.941  24.667  1.00  0.00    -0.224 OA
BRANCH  86  89
ATOM     89  C   UNL A   1      35.827  22.055  25.508  1.00  0.00     0.070 A 
ATOM     90  C   UNL A   1      35.814  23.426  25.800  1.00  0.00     0.020 A 
ATOM     91  C   UNL A   1      37.030  21.349  25.494  1.00  0.00     0.059 A 
ATOM     92  C   UNL A   1      37.011  24.093  26.079  1.00  0.00     0.004 A 
ATOM     93  C   UNL A   1      38.212  22.032  25.764  1.00  0.00     0.124 A 
ATOM     94  C   UNL A   1      38.214  23.392  26.061  1.00  0.00     0.039 A 
ATOM     95  F   UNL A   1      39.375  21.370  25.707  1.00  0.00    -0.207 F 
ENDBRANCH  86  89
ENDBRANCH  85  86
ENDBRANCH  84  85
ENDBRANCH  77  80
ENDBRANCH  75  76
ENDBRANCH   1  75
TORSDOF 16
ENDMDL
