MODEL 1
REMARK VINA RESULT:     -13.7      0.000      0.000
REMARK SMILES COc1cc2c(cc1OC)[C@H](C(=O)NCCCNC(=O)c1ccc(-c3c4nc(c(-c5c(F)cc(S(=O)(=O)[O-])cc5F)c5ccc([nH]5)c(-c5c(F)cc(S(=O)(=O)[O-])cc5F)c5nc(c(-c6c(F)cc(S(=O)(=O)[O-])cc6F)c6ccc3[nH]6)C=C5)C=C4)cc1)[C@H](c1cccc(Cl)c1)N(C)C2=O
REMARK SMILES IDX 17 1 16 2 15 3 14 4 12 5 13 6 11 8 3 9 4 10 8 11 5 12 7 13
REMARK SMILES IDX 6 14 97 15 95 16 98 17 87 18 96 19 2 20 1 21 9 22 10 23
REMARK SMILES IDX 88 24 89 25 94 26 90 27 92 28 91 29 93 30 18 31 19 32 20 34
REMARK SMILES IDX 21 35 22 36 86 37 23 38 85 39 24 40 25 41 26 42 79 43 27 44
REMARK SMILES IDX 84 45 78 46 80 47 28 48 83 49 77 50 76 51 29 53 63 54 42 55
REMARK SMILES IDX 62 56 43 57 46 58 61 59 81 60 44 61 45 62 60 64 82 65 47 66
REMARK SMILES IDX 30 67 31 68 40 69 32 70 33 71 39 72 41 73 34 74 35 75 36 76
REMARK SMILES IDX 37 77 38 78 64 79 65 80 74 81 66 82 67 83 73 84 75 85 68 86
REMARK SMILES IDX 69 87 70 88 71 89 72 90 48 91 49 92 58 93 50 94 51 95 57 96
REMARK SMILES IDX 59 97 52 98 53 99 54 100 55 101 56 102
REMARK H PARENT 14 7 18 33 80 52 46 63
REMARK Flexibility Score: inf
ROOT
ATOM      1  C   UNL A   1      35.702  31.394  28.368  1.00  0.00     0.118 C 
ENDROOT
BRANCH   1   2
ATOM      2  C   UNL A   1      34.749  30.823  27.326  1.00  0.00     0.042 C 
BRANCH   2   3
ATOM      3  C   UNL A   1      34.653  29.308  27.324  1.00  0.00     0.117 C 
BRANCH   3   4
ATOM      4  N   UNL A   1      33.354  28.824  27.760  1.00  0.00    -0.355 N 
ATOM      5  C   UNL A   1      32.525  27.896  27.207  1.00  0.00     0.230 C 
ATOM      6  O   UNL A   1      31.408  27.808  27.724  1.00  0.00    -0.274 OA
ATOM      7  H   UNL A   1      33.020  29.233  28.591  1.00  0.00     0.163 HD
BRANCH   5   8
ATOM      8  C   UNL A   1      32.888  27.164  25.927  1.00  0.00     0.136 C 
ATOM      9  C   UNL A   1      32.194  22.941  25.264  1.00  0.00     0.161 A 
ATOM     10  C   UNL A   1      32.886  23.728  24.339  1.00  0.00     0.064 A 
ATOM     11  C   UNL A   1      31.605  23.555  26.381  1.00  0.00     0.161 A 
ATOM     12  C   UNL A   1      33.048  25.100  24.566  1.00  0.00     0.048 A 
ATOM     13  C   UNL A   1      31.739  24.934  26.577  1.00  0.00     0.056 A 
ATOM     14  C   UNL A   1      32.546  25.699  25.736  1.00  0.00    -0.016 A 
ATOM     15  C   UNL A   1      33.631  25.964  23.488  1.00  0.00     0.254 C 
ATOM     16  N   UNL A   1      33.317  27.328  23.543  1.00  0.00    -0.333 N 
ATOM     17  O   UNL A   1      34.293  25.452  22.591  1.00  0.00    -0.269 OA
ATOM     18  C   UNL A   1      32.445  27.878  24.618  1.00  0.00     0.132 C 
ATOM     19  C   UNL A   1      33.745  28.206  22.471  1.00  0.00     0.147 C 
BRANCH   9  20
ATOM     20  O   UNL A   1      31.971  21.604  25.062  1.00  0.00    -0.493 OA
ATOM     21  C   UNL A   1      32.689  21.035  23.970  1.00  0.00     0.278 C 
ENDBRANCH   9  20
BRANCH  11  22
ATOM     22  O   UNL A   1      30.849  22.932  27.340  1.00  0.00    -0.493 OA
ATOM     23  C   UNL A   1      29.439  23.041  27.167  1.00  0.00     0.278 C 
ENDBRANCH  11  22
BRANCH  18  24
ATOM     24  C   UNL A   1      30.940  27.738  24.307  1.00  0.00    -0.023 A 
ATOM     25  C   UNL A   1      30.250  26.564  24.663  1.00  0.00     0.006 A 
ATOM     26  C   UNL A   1      30.215  28.714  23.598  1.00  0.00     0.026 A 
ATOM     27  C   UNL A   1      28.937  26.327  24.245  1.00  0.00     0.002 A 
ATOM     28  C   UNL A   1      28.897  28.481  23.194  1.00  0.00     0.041 A 
ATOM     29  C   UNL A   1      28.263  27.282  23.495  1.00  0.00     0.020 A 
ATOM     30  Cl  UNL A   1      28.057  29.684  22.292  1.00  0.00    -0.084 Cl
ENDBRANCH  18  24
ENDBRANCH   5   8
ENDBRANCH   3   4
ENDBRANCH   2   3
ENDBRANCH   1   2
BRANCH   1  31
ATOM     31  N   UNL A   1      35.523  30.843  29.705  1.00  0.00    -0.352 N 
ATOM     32  C   UNL A   1      36.429  30.201  30.520  1.00  0.00     0.251 C 
ATOM     33  H   UNL A   1      34.618  30.945  30.082  1.00  0.00     0.163 HD
ATOM     34  O   UNL A   1      36.064  29.710  31.579  1.00  0.00    -0.269 OA
BRANCH  32  35
ATOM     35  C   UNL A   1      37.835  30.069  30.080  1.00  0.00     0.039 A 
ATOM     36  C   UNL A   1      38.853  30.128  31.035  1.00  0.00     0.014 A 
ATOM     37  C   UNL A   1      38.141  29.826  28.740  1.00  0.00     0.014 A 
ATOM     38  C   UNL A   1      40.168  29.841  30.659  1.00  0.00     0.010 A 
ATOM     39  C   UNL A   1      39.428  29.436  28.390  1.00  0.00     0.010 A 
ATOM     40  C   UNL A   1      40.457  29.436  29.344  1.00  0.00    -0.014 A 
BRANCH  40  41
ATOM     41  C   UNL A   1      41.818  28.999  28.943  1.00  0.00     0.031 A 
ATOM     42  C   UNL A   1      42.936  30.003  28.858  1.00  0.00     0.074 A 
ATOM     43  C   UNL A   1      42.025  27.725  28.554  1.00  0.00     0.049 A 
ATOM     44  N   UNL A   1      44.158  29.845  28.418  1.00  0.00    -0.248 NA
ATOM     45  C   UNL A   1      42.624  31.378  29.279  1.00  0.00     0.031 C 
ATOM     46  C   UNL A   1      41.005  26.675  28.510  1.00  0.00     0.029 A 
ATOM     47  N   UNL A   1      43.159  27.100  28.099  1.00  0.00    -0.354 N 
ATOM     48  C   UNL A   1      44.746  31.102  28.479  1.00  0.00     0.074 A 
ATOM     49  C   UNL A   1      43.731  32.022  28.941  1.00  0.00     0.031 C 
ATOM     50  C   UNL A   1      41.561  25.536  28.070  1.00  0.00     0.029 A 
ATOM     51  C   UNL A   1      42.968  25.779  27.766  1.00  0.00     0.049 A 
ATOM     52  H   UNL A   1      44.028  27.555  28.019  1.00  0.00     0.167 HD
ATOM     53  C   UNL A   1      46.023  31.457  28.199  1.00  0.00     0.037 A 
ATOM     54  C   UNL A   1      43.825  24.869  27.267  1.00  0.00     0.037 A 
ATOM     55  C   UNL A   1      47.042  30.528  27.784  1.00  0.00     0.049 A 
ATOM     56  C   UNL A   1      45.255  25.264  27.023  1.00  0.00     0.074 A 
ATOM     57  C   UNL A   1      48.386  30.766  27.563  1.00  0.00     0.029 A 
ATOM     58  N   UNL A   1      46.826  29.181  27.529  1.00  0.00    -0.354 N 
ATOM     59  N   UNL A   1      45.817  26.441  27.167  1.00  0.00    -0.248 NA
ATOM     60  C   UNL A   1      46.169  24.209  26.565  1.00  0.00     0.031 C 
ATOM     61  C   UNL A   1      48.977  29.569  27.143  1.00  0.00     0.029 A 
ATOM     62  C   UNL A   1      48.009  28.577  27.139  1.00  0.00     0.049 A 
ATOM     63  H   UNL A   1      45.957  28.723  27.612  1.00  0.00     0.167 HD
ATOM     64  C   UNL A   1      47.155  26.266  26.829  1.00  0.00     0.074 A 
ATOM     65  C   UNL A   1      47.320  24.866  26.492  1.00  0.00     0.031 C 
ATOM     66  C   UNL A   1      48.154  27.182  26.803  1.00  0.00     0.037 A 
BRANCH  53  67
ATOM     67  C   UNL A   1      46.381  32.910  28.342  1.00  0.00     0.058 A 
ATOM     68  C   UNL A   1      46.271  33.808  27.267  1.00  0.00     0.135 A 
ATOM     69  C   UNL A   1      46.856  33.411  29.565  1.00  0.00     0.135 A 
ATOM     70  F   UNL A   1      45.837  33.378  26.071  1.00  0.00    -0.206 F 
ATOM     71  C   UNL A   1      46.669  35.135  27.382  1.00  0.00     0.059 A 
ATOM     72  C   UNL A   1      47.231  34.744  29.712  1.00  0.00     0.059 A 
ATOM     73  F   UNL A   1      46.979  32.600  30.627  1.00  0.00    -0.206 F 
ATOM     74  C   UNL A   1      47.156  35.592  28.607  1.00  0.00     0.060 A 
BRANCH  74  75
ATOM     75  S   UNL A   1      47.703  37.307  28.734  1.00  0.00     0.124 S 
ATOM     76  O   UNL A   1      48.862  37.308  27.846  1.00  0.00    -0.237 OA
ATOM     77  O   UNL A   1      46.539  38.045  28.256  1.00  0.00    -0.237 OA
ATOM     78  O   UNL A   1      48.000  37.463  30.154  1.00  0.00    -0.744 OA
ENDBRANCH  74  75
ENDBRANCH  53  67
BRANCH  54  79
ATOM     79  C   UNL A   1      43.348  23.488  26.994  1.00  0.00     0.058 A 
ATOM     80  C   UNL A   1      43.157  23.038  25.679  1.00  0.00     0.135 A 
ATOM     81  C   UNL A   1      43.130  22.575  28.037  1.00  0.00     0.135 A 
ATOM     82  F   UNL A   1      43.348  23.875  24.649  1.00  0.00    -0.206 F 
ATOM     83  C   UNL A   1      42.768  21.730  25.407  1.00  0.00     0.059 A 
ATOM     84  C   UNL A   1      42.759  21.257  27.789  1.00  0.00     0.059 A 
ATOM     85  F   UNL A   1      43.317  22.953  29.311  1.00  0.00    -0.206 F 
ATOM     86  C   UNL A   1      42.579  20.844  26.469  1.00  0.00     0.060 A 
BRANCH  86  87
ATOM     87  S   UNL A   1      42.162  19.125  26.101  1.00  0.00     0.124 S 
ATOM     88  O   UNL A   1      40.743  19.229  25.782  1.00  0.00    -0.237 OA
ATOM     89  O   UNL A   1      43.049  18.827  24.981  1.00  0.00    -0.237 OA
ATOM     90  O   UNL A   1      42.481  18.430  27.345  1.00  0.00    -0.744 OA
ENDBRANCH  86  87
ENDBRANCH  54  79
BRANCH  66  91
ATOM     91  C   UNL A   1      49.523  26.699  26.413  1.00  0.00     0.058 A 
ATOM     92  C   UNL A   1      50.381  26.096  27.345  1.00  0.00     0.135 A 
ATOM     93  C   UNL A   1      49.955  26.790  25.080  1.00  0.00     0.135 A 
ATOM     94  F   UNL A   1      50.016  25.992  28.632  1.00  0.00    -0.206 F 
ATOM     95  C   UNL A   1      51.631  25.614  26.971  1.00  0.00     0.059 A 
ATOM     96  C   UNL A   1      51.192  26.294  24.681  1.00  0.00     0.059 A 
ATOM     97  F   UNL A   1      49.167  27.350  24.149  1.00  0.00    -0.206 F 
ATOM     98  C   UNL A   1      52.028  25.716  25.636  1.00  0.00     0.060 A 
BRANCH  98  99
ATOM     99  S   UNL A   1      53.637  25.054  25.156  1.00  0.00     0.124 S 
ATOM    100  O   UNL A   1      54.478  25.499  26.262  1.00  0.00    -0.237 OA
ATOM    101  O   UNL A   1      53.379  23.619  25.091  1.00  0.00    -0.237 OA
ATOM    102  O   UNL A   1      53.897  25.696  23.871  1.00  0.00    -0.744 OA
ENDBRANCH  98  99
ENDBRANCH  66  91
ENDBRANCH  40  41
ENDBRANCH  32  35
ENDBRANCH   1  31
TORSDOF 16
ENDMDL
MODEL 2
REMARK VINA RESULT:     -13.5      6.501     11.882
REMARK SMILES COc1cc2c(cc1OC)[C@H](C(=O)NCCCNC(=O)c1ccc(-c3c4nc(c(-c5c(F)cc(S(=O)(=O)[O-])cc5F)c5ccc([nH]5)c(-c5c(F)cc(S(=O)(=O)[O-])cc5F)c5nc(c(-c6c(F)cc(S(=O)(=O)[O-])cc6F)c6ccc3[nH]6)C=C5)C=C4)cc1)[C@H](c1cccc(Cl)c1)N(C)C2=O
REMARK SMILES IDX 17 1 16 2 15 3 14 4 12 5 13 6 11 8 3 9 4 10 8 11 5 12 7 13
REMARK SMILES IDX 6 14 97 15 95 16 98 17 87 18 96 19 2 20 1 21 9 22 10 23
REMARK SMILES IDX 88 24 89 25 94 26 90 27 92 28 91 29 93 30 18 31 19 32 20 34
REMARK SMILES IDX 21 35 22 36 86 37 23 38 85 39 24 40 25 41 26 42 79 43 27 44
REMARK SMILES IDX 84 45 78 46 80 47 28 48 83 49 77 50 76 51 29 53 63 54 42 55
REMARK SMILES IDX 62 56 43 57 46 58 61 59 81 60 44 61 45 62 60 64 82 65 47 66
REMARK SMILES IDX 30 67 31 68 40 69 32 70 33 71 39 72 41 73 34 74 35 75 36 76
REMARK SMILES IDX 37 77 38 78 64 79 65 80 74 81 66 82 67 83 73 84 75 85 68 86
REMARK SMILES IDX 69 87 70 88 71 89 72 90 48 91 49 92 58 93 50 94 51 95 57 96
REMARK SMILES IDX 59 97 52 98 53 99 54 100 55 101 56 102
REMARK H PARENT 14 7 18 33 80 52 46 63
REMARK Flexibility Score: inf
ROOT
ATOM      1  C   UNL A   1      40.365  23.216  27.081  1.00  0.00     0.118 C 
ENDROOT
BRANCH   1   2
ATOM      2  C   UNL A   1      39.026  22.607  26.687  1.00  0.00     0.042 C 
BRANCH   2   3
ATOM      3  C   UNL A   1      38.022  23.600  26.129  1.00  0.00     0.117 C 
BRANCH   3   4
ATOM      4  N   UNL A   1      37.702  23.355  24.733  1.00  0.00    -0.355 N 
ATOM      5  C   UNL A   1      36.507  23.394  24.080  1.00  0.00     0.230 C 
ATOM      6  O   UNL A   1      36.526  22.983  22.917  1.00  0.00    -0.274 OA
ATOM      7  H   UNL A   1      38.474  23.125  24.168  1.00  0.00     0.163 HD
BRANCH   5   8
ATOM      8  C   UNL A   1      35.216  23.739  24.801  1.00  0.00     0.136 C 
ATOM      9  C   UNL A   1      32.112  26.265  23.145  1.00  0.00     0.161 A 
ATOM     10  C   UNL A   1      32.050  25.785  24.456  1.00  0.00     0.064 A 
ATOM     11  C   UNL A   1      33.144  25.823  22.302  1.00  0.00     0.161 A 
ATOM     12  C   UNL A   1      33.048  24.931  24.939  1.00  0.00     0.048 A 
ATOM     13  C   UNL A   1      34.115  24.938  22.784  1.00  0.00     0.056 A 
ATOM     14  C   UNL A   1      34.139  24.568  24.129  1.00  0.00    -0.016 A 
ATOM     15  C   UNL A   1      32.879  24.281  26.281  1.00  0.00     0.254 C 
ATOM     16  N   UNL A   1      33.600  23.099  26.496  1.00  0.00    -0.333 N 
ATOM     17  O   UNL A   1      32.096  24.759  27.094  1.00  0.00    -0.269 OA
ATOM     18  C   UNL A   1      34.480  22.526  25.440  1.00  0.00     0.132 C 
ATOM     19  C   UNL A   1      33.398  22.349  27.722  1.00  0.00     0.147 C 
BRANCH   9  20
ATOM     20  O   UNL A   1      31.134  27.065  22.614  1.00  0.00    -0.493 OA
ATOM     21  C   UNL A   1      30.604  28.039  23.510  1.00  0.00     0.278 C 
ENDBRANCH   9  20
BRANCH  11  22
ATOM     22  O   UNL A   1      33.307  26.155  20.982  1.00  0.00    -0.493 OA
ATOM     23  C   UNL A   1      32.560  25.364  20.062  1.00  0.00     0.278 C 
ENDBRANCH  11  22
BRANCH  18  24
ATOM     24  C   UNL A   1      33.716  21.651  24.424  1.00  0.00    -0.023 A 
ATOM     25  C   UNL A   1      33.008  22.249  23.365  1.00  0.00     0.006 A 
ATOM     26  C   UNL A   1      33.621  20.252  24.545  1.00  0.00     0.026 A 
ATOM     27  C   UNL A   1      32.164  21.509  22.532  1.00  0.00     0.002 A 
ATOM     28  C   UNL A   1      32.787  19.510  23.702  1.00  0.00     0.041 A 
ATOM     29  C   UNL A   1      32.041  20.137  22.710  1.00  0.00     0.020 A 
ATOM     30  Cl  UNL A   1      32.666  17.805  23.908  1.00  0.00    -0.084 Cl
ENDBRANCH  18  24
ENDBRANCH   5   8
ENDBRANCH   3   4
ENDBRANCH   2   3
ENDBRANCH   1   2
BRANCH   1  31
ATOM     31  N   UNL A   1      40.993  24.007  26.028  1.00  0.00    -0.352 N 
ATOM     32  C   UNL A   1      41.449  25.306  26.059  1.00  0.00     0.251 C 
ATOM     33  H   UNL A   1      41.107  23.542  25.167  1.00  0.00     0.163 HD
ATOM     34  O   UNL A   1      41.855  25.840  25.037  1.00  0.00    -0.269 OA
BRANCH  32  35
ATOM     35  C   UNL A   1      41.398  26.065  27.328  1.00  0.00     0.039 A 
ATOM     36  C   UNL A   1      42.469  26.893  27.668  1.00  0.00     0.014 A 
ATOM     37  C   UNL A   1      40.268  26.005  28.147  1.00  0.00     0.014 A 
ATOM     38  C   UNL A   1      42.363  27.738  28.775  1.00  0.00     0.010 A 
ATOM     39  C   UNL A   1      40.121  26.921  29.181  1.00  0.00     0.010 A 
ATOM     40  C   UNL A   1      41.165  27.800  29.507  1.00  0.00    -0.014 A 
BRANCH  40  41
ATOM     41  C   UNL A   1      40.972  28.779  30.608  1.00  0.00     0.031 A 
ATOM     42  C   UNL A   1      41.783  28.661  31.869  1.00  0.00     0.074 A 
ATOM     43  C   UNL A   1      39.997  29.705  30.517  1.00  0.00     0.049 A 
ATOM     44  N   UNL A   1      41.683  29.339  32.984  1.00  0.00    -0.248 NA
ATOM     45  C   UNL A   1      42.813  27.610  31.899  1.00  0.00     0.031 C 
ATOM     46  C   UNL A   1      39.085  29.870  29.382  1.00  0.00     0.029 A 
ATOM     47  N   UNL A   1      39.593  30.671  31.404  1.00  0.00    -0.354 N 
ATOM     48  C   UNL A   1      42.609  28.777  33.853  1.00  0.00     0.074 A 
ATOM     49  C   UNL A   1      43.220  27.665  33.158  1.00  0.00     0.031 C 
ATOM     50  C   UNL A   1      38.243  30.883  29.635  1.00  0.00     0.029 A 
ATOM     51  C   UNL A   1      38.527  31.419  30.962  1.00  0.00     0.049 A 
ATOM     52  H   UNL A   1      40.027  30.815  32.276  1.00  0.00     0.167 HD
ATOM     53  C   UNL A   1      42.941  29.163  35.108  1.00  0.00     0.037 A 
ATOM     54  C   UNL A   1      37.851  32.419  31.559  1.00  0.00     0.037 A 
ATOM     55  C   UNL A   1      42.363  30.299  35.777  1.00  0.00     0.049 A 
ATOM     56  C   UNL A   1      38.275  32.878  32.926  1.00  0.00     0.074 A 
ATOM     57  C   UNL A   1      42.692  30.832  37.010  1.00  0.00     0.029 A 
ATOM     58  N   UNL A   1      41.335  31.079  35.264  1.00  0.00    -0.354 N 
ATOM     59  N   UNL A   1      39.212  32.387  33.702  1.00  0.00    -0.248 NA
ATOM     60  C   UNL A   1      37.564  34.031  33.493  1.00  0.00     0.031 C 
ATOM     61  C   UNL A   1      41.840  31.915  37.258  1.00  0.00     0.029 A 
ATOM     62  C   UNL A   1      41.007  32.080  36.163  1.00  0.00     0.049 A 
ATOM     63  H   UNL A   1      40.902  30.939  34.390  1.00  0.00     0.167 HD
ATOM     64  C   UNL A   1      39.213  33.180  34.845  1.00  0.00     0.074 A 
ATOM     65  C   UNL A   1      38.194  34.192  34.649  1.00  0.00     0.031 C 
ATOM     66  C   UNL A   1      39.988  33.078  35.953  1.00  0.00     0.037 A 
BRANCH  53  67
ATOM     67  C   UNL A   1      43.981  28.350  35.827  1.00  0.00     0.058 A 
ATOM     68  C   UNL A   1      45.354  28.600  35.669  1.00  0.00     0.135 A 
ATOM     69  C   UNL A   1      43.603  27.295  36.674  1.00  0.00     0.135 A 
ATOM     70  F   UNL A   1      45.772  29.586  34.859  1.00  0.00    -0.206 F 
ATOM     71  C   UNL A   1      46.316  27.803  36.280  1.00  0.00     0.059 A 
ATOM     72  C   UNL A   1      44.548  26.503  37.320  1.00  0.00     0.059 A 
ATOM     73  F   UNL A   1      42.305  27.013  36.865  1.00  0.00    -0.206 F 
ATOM     74  C   UNL A   1      45.902  26.750  37.097  1.00  0.00     0.060 A 
BRANCH  74  75
ATOM     75  S   UNL A   1      47.159  25.699  37.855  1.00  0.00     0.124 S 
ATOM     76  O   UNL A   1      47.446  26.434  39.083  1.00  0.00    -0.237 OA
ATOM     77  O   UNL A   1      46.451  24.434  38.025  1.00  0.00    -0.237 OA
ATOM     78  O   UNL A   1      48.231  25.686  36.865  1.00  0.00    -0.744 OA
ENDBRANCH  74  75
ENDBRANCH  53  67
BRANCH  54  79
ATOM     79  C   UNL A   1      36.719  33.065  30.843  1.00  0.00     0.058 A 
ATOM     80  C   UNL A   1      35.391  32.791  31.199  1.00  0.00     0.135 A 
ATOM     81  C   UNL A   1      36.945  34.012  29.832  1.00  0.00     0.135 A 
ATOM     82  F   UNL A   1      35.125  31.889  32.157  1.00  0.00    -0.206 F 
ATOM     83  C   UNL A   1      34.324  33.432  30.578  1.00  0.00     0.059 A 
ATOM     84  C   UNL A   1      35.895  34.681  29.211  1.00  0.00     0.059 A 
ATOM     85  F   UNL A   1      38.199  34.321  29.469  1.00  0.00    -0.206 F 
ATOM     86  C   UNL A   1      34.587  34.383  29.590  1.00  0.00     0.060 A 
BRANCH  86  87
ATOM     87  S   UNL A   1      33.198  35.275  28.854  1.00  0.00     0.124 S 
ATOM     88  O   UNL A   1      33.879  36.371  28.175  1.00  0.00    -0.237 OA
ATOM     89  O   UNL A   1      32.603  34.259  27.992  1.00  0.00    -0.237 OA
ATOM     90  O   UNL A   1      32.392  35.652  30.013  1.00  0.00    -0.744 OA
ENDBRANCH  86  87
ENDBRANCH  54  79
BRANCH  66  91
ATOM     91  C   UNL A   1      39.778  34.098  37.036  1.00  0.00     0.058 A 
ATOM     92  C   UNL A   1      39.003  33.814  38.171  1.00  0.00     0.135 A 
ATOM     93  C   UNL A   1      40.407  35.352  36.964  1.00  0.00     0.135 A 
ATOM     94  F   UNL A   1      38.376  32.633  38.283  1.00  0.00    -0.206 F 
ATOM     95  C   UNL A   1      38.844  34.746  39.191  1.00  0.00     0.059 A 
ATOM     96  C   UNL A   1      40.279  36.290  37.984  1.00  0.00     0.059 A 
ATOM     97  F   UNL A   1      41.166  35.668  35.904  1.00  0.00    -0.206 F 
ATOM     98  C   UNL A   1      39.487  35.982  39.089  1.00  0.00     0.060 A 
BRANCH  98  99
ATOM     99  S   UNL A   1      39.304  37.169  40.436  1.00  0.00     0.124 S 
ATOM    100  O   UNL A   1      38.571  38.246  39.779  1.00  0.00    -0.237 OA
ATOM    101  O   UNL A   1      38.556  36.404  41.429  1.00  0.00    -0.237 OA
ATOM    102  O   UNL A   1      40.682  37.480  40.803  1.00  0.00    -0.744 OA
ENDBRANCH  98  99
ENDBRANCH  66  91
ENDBRANCH  40  41
ENDBRANCH  32  35
ENDBRANCH   1  31
TORSDOF 16
ENDMDL
MODEL 3
REMARK VINA RESULT:     -13.0      6.493     11.451
REMARK SMILES COc1cc2c(cc1OC)[C@H](C(=O)NCCCNC(=O)c1ccc(-c3c4nc(c(-c5c(F)cc(S(=O)(=O)[O-])cc5F)c5ccc([nH]5)c(-c5c(F)cc(S(=O)(=O)[O-])cc5F)c5nc(c(-c6c(F)cc(S(=O)(=O)[O-])cc6F)c6ccc3[nH]6)C=C5)C=C4)cc1)[C@H](c1cccc(Cl)c1)N(C)C2=O
REMARK SMILES IDX 17 1 16 2 15 3 14 4 12 5 13 6 11 8 3 9 4 10 8 11 5 12 7 13
REMARK SMILES IDX 6 14 97 15 95 16 98 17 87 18 96 19 2 20 1 21 9 22 10 23
REMARK SMILES IDX 88 24 89 25 94 26 90 27 92 28 91 29 93 30 18 31 19 32 20 34
REMARK SMILES IDX 21 35 22 36 86 37 23 38 85 39 24 40 25 41 26 42 79 43 27 44
REMARK SMILES IDX 84 45 78 46 80 47 28 48 83 49 77 50 76 51 29 53 63 54 42 55
REMARK SMILES IDX 62 56 43 57 46 58 61 59 81 60 44 61 45 62 60 64 82 65 47 66
REMARK SMILES IDX 30 67 31 68 40 69 32 70 33 71 39 72 41 73 34 74 35 75 36 76
REMARK SMILES IDX 37 77 38 78 64 79 65 80 74 81 66 82 67 83 73 84 75 85 68 86
REMARK SMILES IDX 69 87 70 88 71 89 72 90 48 91 49 92 58 93 50 94 51 95 57 96
REMARK SMILES IDX 59 97 52 98 53 99 54 100 55 101 56 102
REMARK H PARENT 14 7 18 33 80 52 46 63
REMARK Flexibility Score: inf
ROOT
ATOM      1  C   UNL A   1      40.286  23.478  27.101  1.00  0.00     0.118 C 
ENDROOT
BRANCH   1   2
ATOM      2  C   UNL A   1      39.164  22.621  26.529  1.00  0.00     0.042 C 
BRANCH   2   3
ATOM      3  C   UNL A   1      37.929  23.399  26.110  1.00  0.00     0.117 C 
BRANCH   3   4
ATOM      4  N   UNL A   1      37.636  23.270  24.693  1.00  0.00    -0.355 N 
ATOM      5  C   UNL A   1      36.463  23.418  24.015  1.00  0.00     0.230 C 
ATOM      6  O   UNL A   1      36.493  23.089  22.826  1.00  0.00    -0.274 OA
ATOM      7  H   UNL A   1      38.411  23.040  24.131  1.00  0.00     0.163 HD
BRANCH   5   8
ATOM      8  C   UNL A   1      35.172  23.779  24.727  1.00  0.00     0.136 C 
ATOM      9  C   UNL A   1      32.076  26.281  23.021  1.00  0.00     0.161 A 
ATOM     10  C   UNL A   1      32.010  25.825  24.340  1.00  0.00     0.064 A 
ATOM     11  C   UNL A   1      33.109  25.822  22.188  1.00  0.00     0.161 A 
ATOM     12  C   UNL A   1      33.006  24.978  24.841  1.00  0.00     0.048 A 
ATOM     13  C   UNL A   1      34.077  24.943  22.687  1.00  0.00     0.056 A 
ATOM     14  C   UNL A   1      34.097  24.598  24.038  1.00  0.00    -0.016 A 
ATOM     15  C   UNL A   1      32.834  24.353  26.193  1.00  0.00     0.254 C 
ATOM     16  N   UNL A   1      33.552  23.174  26.432  1.00  0.00    -0.333 N 
ATOM     17  O   UNL A   1      32.050  24.848  26.996  1.00  0.00    -0.269 OA
ATOM     18  C   UNL A   1      34.432  22.580  25.388  1.00  0.00     0.132 C 
ATOM     19  C   UNL A   1      33.346  22.447  27.670  1.00  0.00     0.147 C 
BRANCH   9  20
ATOM     20  O   UNL A   1      31.101  27.074  22.474  1.00  0.00    -0.493 OA
ATOM     21  C   UNL A   1      29.949  27.258  23.292  1.00  0.00     0.278 C 
ENDBRANCH   9  20
BRANCH  11  22
ATOM     22  O   UNL A   1      33.274  26.129  20.861  1.00  0.00    -0.493 OA
ATOM     23  C   UNL A   1      32.535  25.315  19.954  1.00  0.00     0.278 C 
ENDBRANCH  11  22
BRANCH  18  24
ATOM     24  C   UNL A   1      33.667  21.688  24.387  1.00  0.00    -0.023 A 
ATOM     25  C   UNL A   1      33.000  22.265  23.290  1.00  0.00     0.006 A 
ATOM     26  C   UNL A   1      33.532  20.298  24.557  1.00  0.00     0.026 A 
ATOM     27  C   UNL A   1      32.155  21.516  22.466  1.00  0.00     0.002 A 
ATOM     28  C   UNL A   1      32.698  19.547  23.722  1.00  0.00     0.041 A 
ATOM     29  C   UNL A   1      31.991  20.155  22.691  1.00  0.00     0.020 A 
ATOM     30  Cl  UNL A   1      32.526  17.854  23.987  1.00  0.00    -0.084 Cl
ENDBRANCH  18  24
ENDBRANCH   5   8
ENDBRANCH   3   4
ENDBRANCH   2   3
ENDBRANCH   1   2
BRANCH   1  31
ATOM     31  N   UNL A   1      41.087  24.161  26.092  1.00  0.00    -0.352 N 
ATOM     32  C   UNL A   1      41.439  25.490  26.001  1.00  0.00     0.251 C 
ATOM     33  H   UNL A   1      41.427  23.586  25.367  1.00  0.00     0.163 HD
ATOM     34  O   UNL A   1      42.035  25.902  25.016  1.00  0.00    -0.269 OA
BRANCH  32  35
ATOM     35  C   UNL A   1      41.047  26.421  27.081  1.00  0.00     0.039 A 
ATOM     36  C   UNL A   1      40.134  25.993  28.047  1.00  0.00     0.014 A 
ATOM     37  C   UNL A   1      41.629  27.687  27.174  1.00  0.00     0.014 A 
ATOM     38  C   UNL A   1      39.882  26.798  29.161  1.00  0.00     0.010 A 
ATOM     39  C   UNL A   1      41.460  28.435  28.332  1.00  0.00     0.010 A 
ATOM     40  C   UNL A   1      40.587  28.000  29.341  1.00  0.00    -0.014 A 
BRANCH  40  41
ATOM     41  C   UNL A   1      40.441  28.814  30.575  1.00  0.00     0.031 A 
ATOM     42  C   UNL A   1      39.385  29.884  30.648  1.00  0.00     0.074 A 
ATOM     43  C   UNL A   1      41.322  28.665  31.584  1.00  0.00     0.049 A 
ATOM     44  N   UNL A   1      39.173  30.775  31.583  1.00  0.00    -0.248 NA
ATOM     45  C   UNL A   1      38.477  29.999  29.496  1.00  0.00     0.031 C 
ATOM     46  C   UNL A   1      42.442  27.722  31.601  1.00  0.00     0.029 A 
ATOM     47  N   UNL A   1      41.428  29.322  32.785  1.00  0.00    -0.354 N 
ATOM     48  C   UNL A   1      38.135  31.571  31.119  1.00  0.00     0.074 A 
ATOM     49  C   UNL A   1      37.798  31.096  29.794  1.00  0.00     0.031 C 
ATOM     50  C   UNL A   1      43.110  27.849  32.758  1.00  0.00     0.029 A 
ATOM     51  C   UNL A   1      42.491  28.906  33.552  1.00  0.00     0.049 A 
ATOM     52  H   UNL A   1      40.801  30.025  33.071  1.00  0.00     0.167 HD
ATOM     53  C   UNL A   1      37.499  32.590  31.745  1.00  0.00     0.037 A 
ATOM     54  C   UNL A   1      42.923  29.330  34.754  1.00  0.00     0.037 A 
ATOM     55  C   UNL A   1      37.807  33.027  33.081  1.00  0.00     0.049 A 
ATOM     56  C   UNL A   1      42.166  30.418  35.463  1.00  0.00     0.074 A 
ATOM     57  C   UNL A   1      37.166  33.987  33.843  1.00  0.00     0.029 A 
ATOM     58  N   UNL A   1      38.846  32.530  33.855  1.00  0.00    -0.354 N 
ATOM     59  N   UNL A   1      41.131  31.106  35.043  1.00  0.00    -0.248 NA
ATOM     60  C   UNL A   1      42.625  30.780  36.811  1.00  0.00     0.031 C 
ATOM     61  C   UNL A   1      37.838  34.094  35.066  1.00  0.00     0.029 A 
ATOM     62  C   UNL A   1      38.873  33.172  35.081  1.00  0.00     0.049 A 
ATOM     63  H   UNL A   1      39.472  31.823  33.573  1.00  0.00     0.167 HD
ATOM     64  C   UNL A   1      40.804  31.972  36.080  1.00  0.00     0.074 A 
ATOM     65  C   UNL A   1      41.743  31.710  37.154  1.00  0.00     0.031 C 
ATOM     66  C   UNL A   1      39.817  32.900  36.137  1.00  0.00     0.037 A 
BRANCH  53  67
ATOM     67  C   UNL A   1      36.406  33.290  30.986  1.00  0.00     0.058 A 
ATOM     68  C   UNL A   1      36.687  34.155  29.915  1.00  0.00     0.135 A 
ATOM     69  C   UNL A   1      35.060  33.108  31.343  1.00  0.00     0.135 A 
ATOM     70  F   UNL A   1      37.957  34.377  29.542  1.00  0.00    -0.206 F 
ATOM     71  C   UNL A   1      35.679  34.855  29.260  1.00  0.00     0.059 A 
ATOM     72  C   UNL A   1      34.032  33.775  30.681  1.00  0.00     0.059 A 
ATOM     73  F   UNL A   1      34.733  32.291  32.357  1.00  0.00    -0.206 F 
ATOM     74  C   UNL A   1      34.355  34.665  29.657  1.00  0.00     0.060 A 
BRANCH  74  75
ATOM     75  S   UNL A   1      33.060  35.607  28.824  1.00  0.00     0.124 S 
ATOM     76  O   UNL A   1      32.403  34.564  28.042  1.00  0.00    -0.237 OA
ATOM     77  O   UNL A   1      32.289  36.139  29.943  1.00  0.00    -0.237 OA
ATOM     78  O   UNL A   1      33.804  36.597  28.052  1.00  0.00    -0.744 OA
ENDBRANCH  74  75
ENDBRANCH  53  67
BRANCH  54  79
ATOM     79  C   UNL A   1      44.120  28.695  35.367  1.00  0.00     0.058 A 
ATOM     80  C   UNL A   1      45.403  29.220  35.154  1.00  0.00     0.135 A 
ATOM     81  C   UNL A   1      43.998  27.590  36.222  1.00  0.00     0.135 A 
ATOM     82  F   UNL A   1      45.570  30.274  34.340  1.00  0.00    -0.206 F 
ATOM     83  C   UNL A   1      46.524  28.673  35.768  1.00  0.00     0.059 A 
ATOM     84  C   UNL A   1      45.102  27.037  36.864  1.00  0.00     0.059 A 
ATOM     85  F   UNL A   1      42.789  27.063  36.472  1.00  0.00    -0.206 F 
ATOM     86  C   UNL A   1      46.363  27.585  36.629  1.00  0.00     0.060 A 
BRANCH  86  87
ATOM     87  S   UNL A   1      47.813  26.939  37.491  1.00  0.00     0.124 S 
ATOM     88  O   UNL A   1      47.681  25.506  37.255  1.00  0.00    -0.237 OA
ATOM     89  O   UNL A   1      48.908  27.604  36.791  1.00  0.00    -0.237 OA
ATOM     90  O   UNL A   1      47.604  27.376  38.868  1.00  0.00    -0.744 OA
ENDBRANCH  86  87
ENDBRANCH  54  79
BRANCH  66  91
ATOM     91  C   UNL A   1      39.686  33.690  37.409  1.00  0.00     0.058 A 
ATOM     92  C   UNL A   1      38.832  33.279  38.444  1.00  0.00     0.135 A 
ATOM     93  C   UNL A   1      40.465  34.840  37.615  1.00  0.00     0.135 A 
ATOM     94  F   UNL A   1      38.062  32.190  38.292  1.00  0.00    -0.206 F 
ATOM     95  C   UNL A   1      38.743  33.991  39.635  1.00  0.00     0.059 A 
ATOM     96  C   UNL A   1      40.408  35.554  38.807  1.00  0.00     0.059 A 
ATOM     97  F   UNL A   1      41.303  35.270  36.659  1.00  0.00    -0.206 F 
ATOM     98  C   UNL A   1      39.536  35.127  39.809  1.00  0.00     0.060 A 
BRANCH  98  99
ATOM     99  S   UNL A   1      39.439  36.022  41.373  1.00  0.00     0.124 S 
ATOM    100  O   UNL A   1      38.052  35.788  41.759  1.00  0.00    -0.237 OA
ATOM    101  O   UNL A   1      40.447  35.346  42.185  1.00  0.00    -0.237 OA
ATOM    102  O   UNL A   1      39.765  37.395  40.998  1.00  0.00    -0.744 OA
ENDBRANCH  98  99
ENDBRANCH  66  91
ENDBRANCH  40  41
ENDBRANCH  32  35
ENDBRANCH   1  31
TORSDOF 16
ENDMDL
