MODEL 1
REMARK VINA RESULT:     -13.0      0.000      0.000
REMARK SMILES O=C(NCCCNC(=O)[C@H]1CC=CC[C@H]1C(=O)N[C@@H]1CCN(c2cccc(Cl)c2)C1)c1ccc(-c2c3nc(c(-c4c(F)cc(S(=O)(=O)[O-])cc4F)c4ccc([nH]4)c(-c4c(F)cc(S(=O)(=O)[O-])cc4F)c4nc(c(-c5c(F)cc(S(=O)(=O)[O-])cc5F)c5ccc2[nH]5)C=C4)C=C3)cc1
REMARK SMILES IDX 5 1 4 2 3 3 1 4 2 5 31 7 32 8 96 9 33 10 95 11 34 12 35 13
REMARK SMILES IDX 36 14 89 15 37 16 94 17 88 18 90 19 38 20 93 21 87 22 86 23
REMARK SMILES IDX 39 25 73 26 52 27 72 28 53 29 56 30 71 31 91 32 54 33 55 34
REMARK SMILES IDX 70 36 92 37 57 38 40 39 41 40 50 41 42 42 43 43 49 44 51 45
REMARK SMILES IDX 44 46 45 47 46 48 47 49 48 50 74 51 75 52 84 53 76 54 77 55
REMARK SMILES IDX 83 56 85 57 78 58 79 59 80 60 81 61 82 62 58 63 59 64 68 65
REMARK SMILES IDX 60 66 61 67 67 68 69 69 62 70 63 71 64 72 65 73 66 74 6 75
REMARK SMILES IDX 7 76 8 77 9 79 10 80 11 81 15 82 12 83 14 84 13 85 16 86
REMARK SMILES IDX 17 87 18 88 19 90 20 91 30 92 21 93 22 94 23 95 24 96 29 97
REMARK SMILES IDX 25 98 27 99 26 100 28 101
REMARK H PARENT 3 6 90 24 56 35 7 78 18 89
REMARK Flexibility Score: inf
ROOT
ATOM      1  C   UNL A   1      34.080  28.615  27.201  1.00  0.00     0.042 C 
ENDROOT
BRANCH   1   2
ATOM      2  C   UNL A   1      35.128  29.717  27.473  1.00  0.00     0.118 C 
BRANCH   2   3
ATOM      3  N   UNL A   1      35.066  30.370  28.773  1.00  0.00    -0.352 N 
ATOM      4  O   UNL A   1      35.834  31.173  30.737  1.00  0.00    -0.269 OA
ATOM      5  C   UNL A   1      36.090  30.610  29.675  1.00  0.00     0.251 C 
ATOM      6  H   UNL A   1      34.174  30.686  29.047  1.00  0.00     0.163 HD
BRANCH   5   7
ATOM      7  C   UNL A   1      37.492  30.169  29.421  1.00  0.00     0.039 A 
ATOM      8  C   UNL A   1      38.333  29.753  30.451  1.00  0.00     0.014 A 
ATOM      9  C   UNL A   1      37.943  30.049  28.101  1.00  0.00     0.014 A 
ATOM     10  C   UNL A   1      39.650  29.326  30.179  1.00  0.00     0.010 A 
ATOM     11  C   UNL A   1      39.243  29.582  27.827  1.00  0.00     0.010 A 
ATOM     12  C   UNL A   1      40.133  29.244  28.860  1.00  0.00    -0.014 A 
BRANCH  12  13
ATOM     13  C   UNL A   1      41.540  28.807  28.553  1.00  0.00     0.031 A 
ATOM     14  C   UNL A   1      42.680  29.808  28.548  1.00  0.00     0.074 A 
ATOM     15  C   UNL A   1      41.822  27.522  28.240  1.00  0.00     0.049 A 
ATOM     16  N   UNL A   1      43.941  29.637  28.225  1.00  0.00    -0.248 NA
ATOM     17  C   UNL A   1      42.354  31.184  28.948  1.00  0.00     0.031 C 
ATOM     18  C   UNL A   1      40.847  26.432  28.189  1.00  0.00     0.029 A 
ATOM     19  N   UNL A   1      43.010  26.915  27.893  1.00  0.00    -0.354 N 
ATOM     20  C   UNL A   1      44.548  30.885  28.348  1.00  0.00     0.074 A 
ATOM     21  C   UNL A   1      43.508  31.809  28.756  1.00  0.00     0.031 C 
ATOM     22  C   UNL A   1      41.476  25.293  27.852  1.00  0.00     0.029 A 
ATOM     23  C   UNL A   1      42.888  25.573  27.607  1.00  0.00     0.049 A 
ATOM     24  H   UNL A   1      43.868  27.398  27.852  1.00  0.00     0.167 HD
ATOM     25  C   UNL A   1      45.845  31.237  28.152  1.00  0.00     0.037 A 
ATOM     26  C   UNL A   1      43.794  24.669  27.176  1.00  0.00     0.037 A 
ATOM     27  C   UNL A   1      46.895  30.323  27.770  1.00  0.00     0.049 A 
ATOM     28  C   UNL A   1      45.223  25.085  26.939  1.00  0.00     0.074 A 
ATOM     29  C   UNL A   1      48.245  30.589  27.600  1.00  0.00     0.029 A 
ATOM     30  N   UNL A   1      46.722  28.977  27.492  1.00  0.00    -0.354 N 
ATOM     31  N   UNL A   1      45.779  26.263  27.097  1.00  0.00    -0.248 NA
ATOM     32  C   UNL A   1      46.151  24.046  26.466  1.00  0.00     0.031 C 
ATOM     33  C   UNL A   1      48.876  29.418  27.168  1.00  0.00     0.029 A 
ATOM     34  C   UNL A   1      47.934  28.404  27.132  1.00  0.00     0.049 A 
ATOM     35  H   UNL A   1      45.865  28.496  27.543  1.00  0.00     0.167 HD
ATOM     36  C   UNL A   1      47.125  26.095  26.784  1.00  0.00     0.074 A 
ATOM     37  C   UNL A   1      47.302  24.703  26.432  1.00  0.00     0.031 C 
ATOM     38  C   UNL A   1      48.122  27.015  26.795  1.00  0.00     0.037 A 
BRANCH  25  39
ATOM     39  C   UNL A   1      46.216  32.691  28.323  1.00  0.00     0.058 A 
ATOM     40  C   UNL A   1      46.612  33.218  29.563  1.00  0.00     0.135 A 
ATOM     41  C   UNL A   1      46.227  33.557  27.216  1.00  0.00     0.135 A 
ATOM     42  F   UNL A   1      46.617  32.441  30.658  1.00  0.00    -0.206 F 
ATOM     43  C   UNL A   1      46.969  34.556  29.706  1.00  0.00     0.059 A 
ATOM     44  C   UNL A   1      46.611  34.891  27.329  1.00  0.00     0.059 A 
ATOM     45  F   UNL A   1      45.869  33.108  26.003  1.00  0.00    -0.206 F 
ATOM     46  C   UNL A   1      46.963  35.386  28.584  1.00  0.00     0.060 A 
BRANCH  46  47
ATOM     47  S   UNL A   1      47.424  37.120  28.787  1.00  0.00     0.124 S 
ATOM     48  O   UNL A   1      48.710  37.162  28.098  1.00  0.00    -0.237 OA
ATOM     49  O   UNL A   1      46.326  37.815  28.119  1.00  0.00    -0.237 OA
ATOM     50  O   UNL A   1      47.482  37.292  30.234  1.00  0.00    -0.744 OA
ENDBRANCH  46  47
ENDBRANCH  25  39
BRANCH  26  51
ATOM     51  C   UNL A   1      43.383  23.255  26.942  1.00  0.00     0.058 A 
ATOM     52  C   UNL A   1      43.227  22.756  25.639  1.00  0.00     0.135 A 
ATOM     53  C   UNL A   1      43.132  22.378  28.009  1.00  0.00     0.135 A 
ATOM     54  F   UNL A   1      43.437  23.558  24.584  1.00  0.00    -0.206 F 
ATOM     55  C   UNL A   1      42.826  21.445  25.402  1.00  0.00     0.059 A 
ATOM     56  C   UNL A   1      42.760  21.054  27.798  1.00  0.00     0.059 A 
ATOM     57  F   UNL A   1      43.271  22.803  29.274  1.00  0.00    -0.206 F 
ATOM     58  C   UNL A   1      42.600  20.599  26.489  1.00  0.00     0.060 A 
BRANCH  58  59
ATOM     59  S   UNL A   1      42.136  18.883  26.168  1.00  0.00     0.124 S 
ATOM     60  O   UNL A   1      43.053  18.526  25.091  1.00  0.00    -0.237 OA
ATOM     61  O   UNL A   1      42.392  18.252  27.460  1.00  0.00    -0.237 OA
ATOM     62  O   UNL A   1      40.729  18.979  25.795  1.00  0.00    -0.744 OA
ENDBRANCH  58  59
ENDBRANCH  26  51
BRANCH  38  63
ATOM     63  C   UNL A   1      49.519  26.539  26.485  1.00  0.00     0.058 A 
ATOM     64  C   UNL A   1      50.355  25.975  27.463  1.00  0.00     0.135 A 
ATOM     65  C   UNL A   1      50.019  26.625  25.174  1.00  0.00     0.135 A 
ATOM     66  F   UNL A   1      49.935  25.871  28.734  1.00  0.00    -0.206 F 
ATOM     67  C   UNL A   1      51.647  25.551  27.162  1.00  0.00     0.059 A 
ATOM     68  C   UNL A   1      51.295  26.177  24.843  1.00  0.00     0.059 A 
ATOM     69  F   UNL A   1      49.262  27.143  24.195  1.00  0.00    -0.206 F 
ATOM     70  C   UNL A   1      52.110  25.658  25.848  1.00  0.00     0.060 A 
BRANCH  70  71
ATOM     71  S   UNL A   1      53.782  25.095  25.466  1.00  0.00     0.124 S 
ATOM     72  O   UNL A   1      53.583  23.657  25.318  1.00  0.00    -0.237 OA
ATOM     73  O   UNL A   1      54.085  25.823  24.238  1.00  0.00    -0.237 OA
ATOM     74  O   UNL A   1      54.555  25.504  26.636  1.00  0.00    -0.744 OA
ENDBRANCH  70  71
ENDBRANCH  38  63
ENDBRANCH  12  13
ENDBRANCH   5   7
ENDBRANCH   2   3
ENDBRANCH   1   2
BRANCH   1  75
ATOM     75  C   UNL A   1      32.550  28.825  26.943  1.00  0.00     0.117 C 
BRANCH  75  76
ATOM     76  N   UNL A   1      31.579  27.733  26.971  1.00  0.00    -0.356 N 
ATOM     77  C   UNL A   1      31.067  26.809  26.105  1.00  0.00     0.224 C 
ATOM     78  H   UNL A   1      31.182  27.637  27.866  1.00  0.00     0.163 HD
ATOM     79  O   UNL A   1      30.464  25.883  26.667  1.00  0.00    -0.275 OA
BRANCH  77  80
ATOM     80  C   UNL A   1      31.169  26.825  24.564  1.00  0.00     0.095 C 
ATOM     81  C   UNL A   1      30.688  28.199  23.992  1.00  0.00     0.041 C 
ATOM     82  C   UNL A   1      32.493  26.385  23.897  1.00  0.00     0.095 C 
ATOM     83  C   UNL A   1      31.757  29.203  23.666  1.00  0.00    -0.030 C 
ATOM     84  C   UNL A   1      33.430  27.430  23.242  1.00  0.00     0.041 C 
ATOM     85  C   UNL A   1      32.995  28.850  23.316  1.00  0.00    -0.030 C 
BRANCH  82  86
ATOM     86  C   UNL A   1      33.372  25.480  24.724  1.00  0.00     0.224 C 
ATOM     87  O   UNL A   1      34.323  25.964  25.341  1.00  0.00    -0.275 OA
ATOM     88  N   UNL A   1      33.115  24.147  24.855  1.00  0.00    -0.351 N 
ATOM     89  H   UNL A   1      33.769  23.657  25.402  1.00  0.00     0.163 HD
BRANCH  88  90
ATOM     90  C   UNL A   1      32.024  23.316  24.314  1.00  0.00     0.103 C 
ATOM     91  C   UNL A   1      31.278  22.640  25.456  1.00  0.00     0.048 C 
ATOM     92  C   UNL A   1      32.464  22.109  23.443  1.00  0.00     0.141 C 
ATOM     93  C   UNL A   1      32.032  21.332  25.677  1.00  0.00     0.119 C 
ATOM     94  N   UNL A   1      32.558  20.989  24.365  1.00  0.00    -0.369 N 
BRANCH  94  95
ATOM     95  C   UNL A   1      32.852  19.723  23.919  1.00  0.00     0.038 A 
ATOM     96  C   UNL A   1      32.248  19.198  22.771  1.00  0.00     0.026 A 
ATOM     97  C   UNL A   1      33.769  18.901  24.592  1.00  0.00     0.046 A 
ATOM     98  C   UNL A   1      32.524  17.903  22.321  1.00  0.00     0.004 A 
ATOM     99  C   UNL A   1      34.025  17.594  24.165  1.00  0.00     0.043 A 
ATOM    100  C   UNL A   1      33.402  17.090  23.029  1.00  0.00     0.020 A 
ATOM    101  Cl  UNL A   1      35.110  16.595  25.054  1.00  0.00    -0.084 Cl
ENDBRANCH  94  95
ENDBRANCH  88  90
ENDBRANCH  82  86
ENDBRANCH  77  80
ENDBRANCH  75  76
ENDBRANCH   1  75
TORSDOF 16
ENDMDL
MODEL 2
REMARK VINA RESULT:     -12.6      1.642      2.376
REMARK SMILES O=C(NCCCNC(=O)[C@H]1CC=CC[C@H]1C(=O)N[C@@H]1CCN(c2cccc(Cl)c2)C1)c1ccc(-c2c3nc(c(-c4c(F)cc(S(=O)(=O)[O-])cc4F)c4ccc([nH]4)c(-c4c(F)cc(S(=O)(=O)[O-])cc4F)c4nc(c(-c5c(F)cc(S(=O)(=O)[O-])cc5F)c5ccc2[nH]5)C=C4)C=C3)cc1
REMARK SMILES IDX 5 1 4 2 3 3 1 4 2 5 31 7 32 8 96 9 33 10 95 11 34 12 35 13
REMARK SMILES IDX 36 14 89 15 37 16 94 17 88 18 90 19 38 20 93 21 87 22 86 23
REMARK SMILES IDX 39 25 73 26 52 27 72 28 53 29 56 30 71 31 91 32 54 33 55 34
REMARK SMILES IDX 70 36 92 37 57 38 40 39 41 40 50 41 42 42 43 43 49 44 51 45
REMARK SMILES IDX 44 46 45 47 46 48 47 49 48 50 74 51 75 52 84 53 76 54 77 55
REMARK SMILES IDX 83 56 85 57 78 58 79 59 80 60 81 61 82 62 58 63 59 64 68 65
REMARK SMILES IDX 60 66 61 67 67 68 69 69 62 70 63 71 64 72 65 73 66 74 6 75
REMARK SMILES IDX 7 76 8 77 9 79 10 80 11 81 15 82 12 83 14 84 13 85 16 86
REMARK SMILES IDX 17 87 18 88 19 90 20 91 30 92 21 93 22 94 23 95 24 96 29 97
REMARK SMILES IDX 25 98 27 99 26 100 28 101
REMARK H PARENT 3 6 90 24 56 35 7 78 18 89
REMARK Flexibility Score: inf
ROOT
ATOM      1  C   UNL A   1      34.369  31.498  27.477  1.00  0.00     0.042 C 
ENDROOT
BRANCH   1   2
ATOM      2  C   UNL A   1      35.594  31.650  28.405  1.00  0.00     0.118 C 
BRANCH   2   3
ATOM      3  N   UNL A   1      35.422  31.232  29.789  1.00  0.00    -0.352 N 
ATOM      4  O   UNL A   1      35.980  30.302  31.768  1.00  0.00    -0.269 OA
ATOM      5  C   UNL A   1      36.320  30.582  30.620  1.00  0.00     0.251 C 
ATOM      6  H   UNL A   1      34.547  31.442  30.189  1.00  0.00     0.163 HD
BRANCH   5   7
ATOM      7  C   UNL A   1      37.676  30.170  30.156  1.00  0.00     0.039 A 
ATOM      8  C   UNL A   1      38.011  30.126  28.803  1.00  0.00     0.014 A 
ATOM      9  C   UNL A   1      38.682  29.940  31.100  1.00  0.00     0.014 A 
ATOM     10  C   UNL A   1      39.307  29.747  28.394  1.00  0.00     0.010 A 
ATOM     11  C   UNL A   1      39.988  29.604  30.691  1.00  0.00     0.010 A 
ATOM     12  C   UNL A   1      40.317  29.467  29.332  1.00  0.00    -0.014 A 
BRANCH  12  13
ATOM     13  C   UNL A   1      41.700  29.046  28.913  1.00  0.00     0.031 A 
ATOM     14  C   UNL A   1      42.835  30.050  28.862  1.00  0.00     0.074 A 
ATOM     15  C   UNL A   1      41.960  27.773  28.539  1.00  0.00     0.049 A 
ATOM     16  N   UNL A   1      44.070  29.894  28.446  1.00  0.00    -0.248 NA
ATOM     17  C   UNL A   1      42.536  31.412  29.328  1.00  0.00     0.031 C 
ATOM     18  C   UNL A   1      40.986  26.682  28.520  1.00  0.00     0.029 A 
ATOM     19  N   UNL A   1      43.121  27.182  28.090  1.00  0.00    -0.354 N 
ATOM     20  C   UNL A   1      44.683  31.140  28.568  1.00  0.00     0.074 A 
ATOM     21  C   UNL A   1      43.673  32.046  29.077  1.00  0.00     0.031 C 
ATOM     22  C   UNL A   1      41.590  25.556  28.103  1.00  0.00     0.029 A 
ATOM     23  C   UNL A   1      42.982  25.849  27.770  1.00  0.00     0.049 A 
ATOM     24  H   UNL A   1      43.974  27.668  28.006  1.00  0.00     0.167 HD
ATOM     25  C   UNL A   1      45.963  31.502  28.293  1.00  0.00     0.037 A 
ATOM     26  C   UNL A   1      43.856  24.963  27.247  1.00  0.00     0.037 A 
ATOM     27  C   UNL A   1      46.985  30.605  27.809  1.00  0.00     0.049 A 
ATOM     28  C   UNL A   1      45.265  25.391  26.925  1.00  0.00     0.074 A 
ATOM     29  C   UNL A   1      48.320  30.880  27.554  1.00  0.00     0.029 A 
ATOM     30  N   UNL A   1      46.794  29.267  27.500  1.00  0.00    -0.354 N 
ATOM     31  N   UNL A   1      45.829  26.565  27.083  1.00  0.00    -0.248 NA
ATOM     32  C   UNL A   1      46.159  24.371  26.354  1.00  0.00     0.031 C 
ATOM     33  C   UNL A   1      48.920  29.726  27.041  1.00  0.00     0.029 A 
ATOM     34  C   UNL A   1      47.979  28.711  27.037  1.00  0.00     0.049 A 
ATOM     35  H   UNL A   1      45.943  28.782  27.595  1.00  0.00     0.167 HD
ATOM     36  C   UNL A   1      47.151  26.412  26.670  1.00  0.00     0.074 A 
ATOM     37  C   UNL A   1      47.304  25.033  26.261  1.00  0.00     0.031 C 
ATOM     38  C   UNL A   1      48.145  27.334  26.643  1.00  0.00     0.037 A 
BRANCH  25  39
ATOM     39  C   UNL A   1      46.344  32.951  28.486  1.00  0.00     0.058 A 
ATOM     40  C   UNL A   1      46.851  33.433  29.703  1.00  0.00     0.135 A 
ATOM     41  C   UNL A   1      46.250  33.859  27.416  1.00  0.00     0.135 A 
ATOM     42  F   UNL A   1      46.960  32.614  30.762  1.00  0.00    -0.206 F 
ATOM     43  C   UNL A   1      47.215  34.767  29.865  1.00  0.00     0.059 A 
ATOM     44  C   UNL A   1      46.638  35.190  27.546  1.00  0.00     0.059 A 
ATOM     45  F   UNL A   1      45.782  33.454  26.225  1.00  0.00    -0.206 F 
ATOM     46  C   UNL A   1      47.103  35.638  28.780  1.00  0.00     0.060 A 
BRANCH  46  47
ATOM     47  S   UNL A   1      47.575  37.367  29.008  1.00  0.00     0.124 S 
ATOM     48  O   UNL A   1      46.666  38.040  28.084  1.00  0.00    -0.237 OA
ATOM     49  O   UNL A   1      47.305  37.580  30.428  1.00  0.00    -0.237 OA
ATOM     50  O   UNL A   1      48.983  37.391  28.630  1.00  0.00    -0.744 OA
ENDBRANCH  46  47
ENDBRANCH  25  39
BRANCH  26  51
ATOM     51  C   UNL A   1      43.431  23.556  26.995  1.00  0.00     0.058 A 
ATOM     52  C   UNL A   1      43.119  23.118  25.699  1.00  0.00     0.135 A 
ATOM     53  C   UNL A   1      43.322  22.625  28.041  1.00  0.00     0.135 A 
ATOM     54  F   UNL A   1      43.190  23.972  24.667  1.00  0.00    -0.206 F 
ATOM     55  C   UNL A   1      42.703  21.814  25.448  1.00  0.00     0.059 A 
ATOM     56  C   UNL A   1      42.938  21.308  27.812  1.00  0.00     0.059 A 
ATOM     57  F   UNL A   1      43.614  22.990  29.299  1.00  0.00    -0.206 F 
ATOM     58  C   UNL A   1      42.621  20.913  26.512  1.00  0.00     0.060 A 
BRANCH  58  59
ATOM     59  S   UNL A   1      42.135  19.208  26.167  1.00  0.00     0.124 S 
ATOM     60  O   UNL A   1      40.735  19.371  25.793  1.00  0.00    -0.237 OA
ATOM     61  O   UNL A   1      43.047  18.845  25.085  1.00  0.00    -0.237 OA
ATOM     62  O   UNL A   1      42.376  18.526  27.434  1.00  0.00    -0.744 OA
ENDBRANCH  58  59
ENDBRANCH  26  51
BRANCH  38  63
ATOM     63  C   UNL A   1      49.517  26.873  26.221  1.00  0.00     0.058 A 
ATOM     64  C   UNL A   1      50.482  26.441  27.145  1.00  0.00     0.135 A 
ATOM     65  C   UNL A   1      49.862  26.839  24.858  1.00  0.00     0.135 A 
ATOM     66  F   UNL A   1      50.212  26.455  28.460  1.00  0.00    -0.206 F 
ATOM     67  C   UNL A   1      51.749  26.029  26.739  1.00  0.00     0.059 A 
ATOM     68  C   UNL A   1      51.111  26.401  24.427  1.00  0.00     0.059 A 
ATOM     69  F   UNL A   1      48.978  27.229  23.927  1.00  0.00    -0.206 F 
ATOM     70  C   UNL A   1      52.056  26.014  25.376  1.00  0.00     0.060 A 
BRANCH  70  71
ATOM     71  S   UNL A   1      53.697  25.468  24.859  1.00  0.00     0.124 S 
ATOM     72  O   UNL A   1      53.870  26.198  23.607  1.00  0.00    -0.237 OA
ATOM     73  O   UNL A   1      54.536  25.905  25.969  1.00  0.00    -0.237 OA
ATOM     74  O   UNL A   1      53.549  24.021  24.727  1.00  0.00    -0.744 OA
ENDBRANCH  70  71
ENDBRANCH  38  63
ENDBRANCH  12  13
ENDBRANCH   5   7
ENDBRANCH   2   3
ENDBRANCH   1   2
BRANCH   1  75
ATOM     75  C   UNL A   1      33.604  30.172  27.151  1.00  0.00     0.117 C 
BRANCH  75  76
ATOM     76  N   UNL A   1      33.876  29.364  25.964  1.00  0.00    -0.356 N 
ATOM     77  C   UNL A   1      33.195  28.901  24.874  1.00  0.00     0.224 C 
ATOM     78  H   UNL A   1      34.816  29.072  25.943  1.00  0.00     0.163 HD
ATOM     79  O   UNL A   1      33.931  28.486  23.967  1.00  0.00    -0.275 OA
BRANCH  77  80
ATOM     80  C   UNL A   1      31.662  28.852  24.691  1.00  0.00     0.095 C 
ATOM     81  C   UNL A   1      31.280  28.987  23.180  1.00  0.00     0.041 C 
ATOM     82  C   UNL A   1      30.865  27.707  25.360  1.00  0.00     0.095 C 
ATOM     83  C   UNL A   1      31.000  27.710  22.441  1.00  0.00    -0.030 C 
ATOM     84  C   UNL A   1      30.271  26.559  24.506  1.00  0.00     0.041 C 
ATOM     85  C   UNL A   1      30.533  26.615  23.043  1.00  0.00    -0.030 C 
BRANCH  82  86
ATOM     86  C   UNL A   1      31.527  27.059  26.550  1.00  0.00     0.224 C 
ATOM     87  O   UNL A   1      31.235  27.444  27.684  1.00  0.00    -0.275 OA
ATOM     88  N   UNL A   1      32.400  26.021  26.413  1.00  0.00    -0.351 N 
ATOM     89  H   UNL A   1      32.782  25.695  27.259  1.00  0.00     0.163 HD
BRANCH  88  90
ATOM     90  C   UNL A   1      32.870  25.305  25.214  1.00  0.00     0.103 C 
ATOM     91  C   UNL A   1      32.322  23.884  25.215  1.00  0.00     0.048 C 
ATOM     92  C   UNL A   1      34.401  25.071  25.124  1.00  0.00     0.141 C 
ATOM     93  C   UNL A   1      33.365  23.078  25.984  1.00  0.00     0.119 C 
ATOM     94  N   UNL A   1      34.621  23.762  25.717  1.00  0.00    -0.369 N 
BRANCH  94  95
ATOM     95  C   UNL A   1      35.871  23.191  25.736  1.00  0.00     0.038 A 
ATOM     96  C   UNL A   1      36.997  23.918  26.134  1.00  0.00     0.026 A 
ATOM     97  C   UNL A   1      36.074  21.854  25.356  1.00  0.00     0.046 A 
ATOM     98  C   UNL A   1      38.277  23.353  26.136  1.00  0.00     0.004 A 
ATOM     99  C   UNL A   1      37.355  21.293  25.325  1.00  0.00     0.043 A 
ATOM    100  C   UNL A   1      38.461  22.041  25.713  1.00  0.00     0.020 A 
ATOM    101  Cl  UNL A   1      37.570  19.669  24.794  1.00  0.00    -0.084 Cl
ENDBRANCH  94  95
ENDBRANCH  88  90
ENDBRANCH  82  86
ENDBRANCH  77  80
ENDBRANCH  75  76
ENDBRANCH   1  75
TORSDOF 16
ENDMDL
MODEL 3
REMARK VINA RESULT:     -12.5      6.929     11.896
REMARK SMILES O=C(NCCCNC(=O)[C@H]1CC=CC[C@H]1C(=O)N[C@@H]1CCN(c2cccc(Cl)c2)C1)c1ccc(-c2c3nc(c(-c4c(F)cc(S(=O)(=O)[O-])cc4F)c4ccc([nH]4)c(-c4c(F)cc(S(=O)(=O)[O-])cc4F)c4nc(c(-c5c(F)cc(S(=O)(=O)[O-])cc5F)c5ccc2[nH]5)C=C4)C=C3)cc1
REMARK SMILES IDX 5 1 4 2 3 3 1 4 2 5 31 7 32 8 96 9 33 10 95 11 34 12 35 13
REMARK SMILES IDX 36 14 89 15 37 16 94 17 88 18 90 19 38 20 93 21 87 22 86 23
REMARK SMILES IDX 39 25 73 26 52 27 72 28 53 29 56 30 71 31 91 32 54 33 55 34
REMARK SMILES IDX 70 36 92 37 57 38 40 39 41 40 50 41 42 42 43 43 49 44 51 45
REMARK SMILES IDX 44 46 45 47 46 48 47 49 48 50 74 51 75 52 84 53 76 54 77 55
REMARK SMILES IDX 83 56 85 57 78 58 79 59 80 60 81 61 82 62 58 63 59 64 68 65
REMARK SMILES IDX 60 66 61 67 67 68 69 69 62 70 63 71 64 72 65 73 66 74 6 75
REMARK SMILES IDX 7 76 8 77 9 79 10 80 11 81 15 82 12 83 14 84 13 85 16 86
REMARK SMILES IDX 17 87 18 88 19 90 20 91 30 92 21 93 22 94 23 95 24 96 29 97
REMARK SMILES IDX 25 98 27 99 26 100 28 101
REMARK H PARENT 3 6 90 24 56 35 7 78 18 89
REMARK Flexibility Score: inf
ROOT
ATOM      1  C   UNL A   1      37.518  23.801  26.122  1.00  0.00     0.042 C 
ENDROOT
BRANCH   1   2
ATOM      2  C   UNL A   1      38.938  23.753  26.728  1.00  0.00     0.118 C 
BRANCH   2   3
ATOM      3  N   UNL A   1      40.017  24.286  25.910  1.00  0.00    -0.352 N 
ATOM      4  O   UNL A   1      41.692  25.680  25.325  1.00  0.00    -0.269 OA
ATOM      5  C   UNL A   1      40.834  25.379  26.152  1.00  0.00     0.251 C 
ATOM      6  H   UNL A   1      40.190  23.803  25.069  1.00  0.00     0.163 HD
BRANCH   5   7
ATOM      7  C   UNL A   1      40.681  26.232  27.366  1.00  0.00     0.039 A 
ATOM      8  C   UNL A   1      39.700  25.981  28.324  1.00  0.00     0.014 A 
ATOM      9  C   UNL A   1      41.621  27.236  27.619  1.00  0.00     0.014 A 
ATOM     10  C   UNL A   1      39.589  26.795  29.471  1.00  0.00     0.010 A 
ATOM     11  C   UNL A   1      41.535  28.022  28.786  1.00  0.00     0.010 A 
ATOM     12  C   UNL A   1      40.499  27.840  29.717  1.00  0.00    -0.014 A 
BRANCH  12  13
ATOM     13  C   UNL A   1      40.384  28.728  30.926  1.00  0.00     0.031 A 
ATOM     14  C   UNL A   1      39.365  29.851  30.970  1.00  0.00     0.074 A 
ATOM     15  C   UNL A   1      41.206  28.574  31.988  1.00  0.00     0.049 A 
ATOM     16  N   UNL A   1      39.175  30.771  31.886  1.00  0.00    -0.248 NA
ATOM     17  C   UNL A   1      38.448  29.958  29.826  1.00  0.00     0.031 C 
ATOM     18  C   UNL A   1      42.247  27.553  32.110  1.00  0.00     0.029 A 
ATOM     19  N   UNL A   1      41.305  29.284  33.166  1.00  0.00    -0.354 N 
ATOM     20  C   UNL A   1      38.145  31.583  31.416  1.00  0.00     0.074 A 
ATOM     21  C   UNL A   1      37.766  31.057  30.120  1.00  0.00     0.031 C 
ATOM     22  C   UNL A   1      42.863  27.690  33.296  1.00  0.00     0.029 A 
ATOM     23  C   UNL A   1      42.304  28.840  34.003  1.00  0.00     0.049 A 
ATOM     24  H   UNL A   1      40.714  30.040  33.388  1.00  0.00     0.167 HD
ATOM     25  C   UNL A   1      37.559  32.660  32.002  1.00  0.00     0.037 A 
ATOM     26  C   UNL A   1      42.744  29.308  35.191  1.00  0.00     0.037 A 
ATOM     27  C   UNL A   1      37.909  33.180  33.302  1.00  0.00     0.049 A 
ATOM     28  C   UNL A   1      42.098  30.520  35.812  1.00  0.00     0.074 A 
ATOM     29  C   UNL A   1      37.330  34.235  33.990  1.00  0.00     0.029 A 
ATOM     30  N   UNL A   1      38.927  32.696  34.109  1.00  0.00    -0.354 N 
ATOM     31  N   UNL A   1      41.103  31.247  35.363  1.00  0.00    -0.248 NA
ATOM     32  C   UNL A   1      42.634  30.973  37.105  1.00  0.00     0.031 C 
ATOM     33  C   UNL A   1      38.032  34.423  35.185  1.00  0.00     0.029 A 
ATOM     34  C   UNL A   1      39.006  33.444  35.276  1.00  0.00     0.049 A 
ATOM     35  H   UNL A   1      39.509  31.934  33.888  1.00  0.00     0.167 HD
ATOM     36  C   UNL A   1      40.869  32.215  36.337  1.00  0.00     0.074 A 
ATOM     37  C   UNL A   1      41.822  31.978  37.400  1.00  0.00     0.031 C 
ATOM     38  C   UNL A   1      39.941  33.205  36.347  1.00  0.00     0.037 A 
BRANCH  25  39
ATOM     39  C   UNL A   1      36.478  33.381  31.232  1.00  0.00     0.058 A 
ATOM     40  C   UNL A   1      36.762  34.158  30.097  1.00  0.00     0.135 A 
ATOM     41  C   UNL A   1      35.129  33.246  31.606  1.00  0.00     0.135 A 
ATOM     42  F   UNL A   1      38.031  34.327  29.694  1.00  0.00    -0.206 F 
ATOM     43  C   UNL A   1      35.755  34.804  29.385  1.00  0.00     0.059 A 
ATOM     44  C   UNL A   1      34.103  33.857  30.890  1.00  0.00     0.059 A 
ATOM     45  F   UNL A   1      34.795  32.507  32.676  1.00  0.00    -0.206 F 
ATOM     46  C   UNL A   1      34.428  34.649  29.791  1.00  0.00     0.060 A 
BRANCH  46  47
ATOM     47  S   UNL A   1      33.135  35.498  28.859  1.00  0.00     0.124 S 
ATOM     48  O   UNL A   1      33.919  36.436  28.062  1.00  0.00    -0.237 OA
ATOM     49  O   UNL A   1      32.514  34.403  28.118  1.00  0.00    -0.237 OA
ATOM     50  O   UNL A   1      32.304  36.099  29.896  1.00  0.00    -0.744 OA
ENDBRANCH  46  47
ENDBRANCH  25  39
BRANCH  26  51
ATOM     51  C   UNL A   1      43.866  28.621  35.894  1.00  0.00     0.058 A 
ATOM     52  C   UNL A   1      45.196  29.019  35.690  1.00  0.00     0.135 A 
ATOM     53  C   UNL A   1      43.634  27.553  36.775  1.00  0.00     0.135 A 
ATOM     54  F   UNL A   1      45.473  30.023  34.844  1.00  0.00    -0.206 F 
ATOM     55  C   UNL A   1      46.256  28.377  36.323  1.00  0.00     0.059 A 
ATOM     56  C   UNL A   1      44.674  26.916  37.444  1.00  0.00     0.059 A 
ATOM     57  F   UNL A   1      42.380  27.136  37.011  1.00  0.00    -0.206 F 
ATOM     58  C   UNL A   1      45.985  27.329  37.204  1.00  0.00     0.060 A 
BRANCH  58  59
ATOM     59  S   UNL A   1      47.364  26.542  38.064  1.00  0.00     0.124 S 
ATOM     60  O   UNL A   1      46.667  25.633  38.967  1.00  0.00    -0.237 OA
ATOM     61  O   UNL A   1      48.091  25.916  36.964  1.00  0.00    -0.237 OA
ATOM     62  O   UNL A   1      48.048  27.663  38.700  1.00  0.00    -0.744 OA
ENDBRANCH  58  59
ENDBRANCH  26  51
BRANCH  38  63
ATOM     63  C   UNL A   1      39.855  34.073  37.576  1.00  0.00     0.058 A 
ATOM     64  C   UNL A   1      39.080  33.719  38.693  1.00  0.00     0.135 A 
ATOM     65  C   UNL A   1      40.586  35.272  37.648  1.00  0.00     0.135 A 
ATOM     66  F   UNL A   1      38.356  32.588  38.682  1.00  0.00    -0.206 F 
ATOM     67  C   UNL A   1      39.002  34.538  39.817  1.00  0.00     0.059 A 
ATOM     68  C   UNL A   1      40.549  36.090  38.773  1.00  0.00     0.059 A 
ATOM     69  F   UNL A   1      41.354  35.657  36.617  1.00  0.00    -0.206 F 
ATOM     70  C   UNL A   1      39.740  35.724  39.848  1.00  0.00     0.060 A 
BRANCH  70  71
ATOM     71  S   UNL A   1      39.640  36.773  41.313  1.00  0.00     0.124 S 
ATOM     72  O   UNL A   1      39.015  37.977  40.773  1.00  0.00    -0.237 OA
ATOM     73  O   UNL A   1      38.812  35.978  42.213  1.00  0.00    -0.237 OA
ATOM     74  O   UNL A   1      41.035  36.921  41.722  1.00  0.00    -0.744 OA
ENDBRANCH  70  71
ENDBRANCH  38  63
ENDBRANCH  12  13
ENDBRANCH   5   7
ENDBRANCH   2   3
ENDBRANCH   1   2
BRANCH   1  75
ATOM     75  C   UNL A   1      36.782  22.637  25.378  1.00  0.00     0.117 C 
BRANCH  75  76
ATOM     76  N   UNL A   1      36.140  22.803  24.074  1.00  0.00    -0.356 N 
ATOM     77  C   UNL A   1      34.873  22.874  23.569  1.00  0.00     0.224 C 
ATOM     78  H   UNL A   1      36.812  22.888  23.360  1.00  0.00     0.163 HD
ATOM     79  O   UNL A   1      34.824  23.317  22.412  1.00  0.00    -0.275 OA
BRANCH  77  80
ATOM     80  C   UNL A   1      33.566  22.465  24.282  1.00  0.00     0.095 C 
ATOM     81  C   UNL A   1      33.629  20.970  24.737  1.00  0.00     0.041 C 
ATOM     82  C   UNL A   1      33.020  23.363  25.417  1.00  0.00     0.095 C 
ATOM     83  C   UNL A   1      34.009  20.719  26.169  1.00  0.00    -0.030 C 
ATOM     84  C   UNL A   1      33.110  22.907  26.894  1.00  0.00     0.041 C 
ATOM     85  C   UNL A   1      33.762  21.594  27.145  1.00  0.00    -0.030 C 
BRANCH  82  86
ATOM     86  C   UNL A   1      33.469  24.803  25.384  1.00  0.00     0.224 C 
ATOM     87  O   UNL A   1      34.410  25.156  26.097  1.00  0.00    -0.275 OA
ATOM     88  N   UNL A   1      32.900  25.717  24.548  1.00  0.00    -0.351 N 
ATOM     89  H   UNL A   1      33.262  26.628  24.631  1.00  0.00     0.163 HD
BRANCH  88  90
ATOM     90  C   UNL A   1      31.832  25.573  23.542  1.00  0.00     0.103 C 
ATOM     91  C   UNL A   1      32.259  26.237  22.239  1.00  0.00     0.048 C 
ATOM     92  C   UNL A   1      30.499  26.299  23.864  1.00  0.00     0.141 C 
ATOM     93  C   UNL A   1      31.794  27.683  22.383  1.00  0.00     0.119 C 
ATOM     94  N   UNL A   1      30.613  27.602  23.229  1.00  0.00    -0.369 N 
BRANCH  94  95
ATOM     95  C   UNL A   1      29.567  28.493  23.243  1.00  0.00     0.038 A 
ATOM     96  C   UNL A   1      28.242  28.062  23.125  1.00  0.00     0.026 A 
ATOM     97  C   UNL A   1      29.782  29.875  23.376  1.00  0.00     0.046 A 
ATOM     98  C   UNL A   1      27.172  28.964  23.116  1.00  0.00     0.004 A 
ATOM     99  C   UNL A   1      28.718  30.783  23.336  1.00  0.00     0.043 A 
ATOM    100  C   UNL A   1      27.411  30.331  23.205  1.00  0.00     0.020 A 
ATOM    101  Cl  UNL A   1      29.028  32.474  23.441  1.00  0.00    -0.084 Cl
ENDBRANCH  94  95
ENDBRANCH  88  90
ENDBRANCH  82  86
ENDBRANCH  77  80
ENDBRANCH  75  76
ENDBRANCH   1  75
TORSDOF 16
ENDMDL
