MODEL 1
REMARK VINA RESULT:     -12.2      0.000      0.000
REMARK SMILES CN(c1ccc2ccccc2c1)S(=O)(=O)c1ccc(C(=O)CCC(=O)NCCCNC(=O)c2ccc(-c3c4nc(c(-c5c(F)cc(S(=O)(=O)[O-])cc5F)c5ccc([nH]5)c(-c5c(F)cc(S(=O)(=O)[O-])cc5F)c5nc(c(-c6c(F)cc(S(=O)(=O)[O-])cc6F)c6ccc3[nH]6)C=C5)C=C4)cc2)cc1
REMARK SMILES IDX 24 1 25 2 26 3 23 5 22 6 20 7 21 8 19 9 16 10 17 11 100 12
REMARK SMILES IDX 18 13 99 14 13 15 14 16 15 17 2 18 1 19 3 20 4 21 12 22 5 23
REMARK SMILES IDX 11 24 6 25 10 26 7 27 9 28 8 29 27 30 28 31 29 32 30 33
REMARK SMILES IDX 31 34 32 36 33 37 34 38 98 39 35 40 97 41 36 42 37 43 38 44
REMARK SMILES IDX 91 45 39 46 96 47 90 48 92 49 40 50 95 51 89 52 88 53 41 55
REMARK SMILES IDX 75 56 54 57 74 58 55 59 58 60 73 61 93 62 56 63 57 64 72 66
REMARK SMILES IDX 94 67 59 68 42 69 43 70 52 71 44 72 45 73 51 74 53 75 46 76
REMARK SMILES IDX 47 77 48 78 49 79 50 80 76 81 77 82 86 83 78 84 79 85 85 86
REMARK SMILES IDX 87 87 80 88 81 89 82 90 83 91 84 92 60 93 61 94 70 95 62 96
REMARK SMILES IDX 63 97 69 98 71 99 64 100 65 101 66 102 67 103 68 104
REMARK H PARENT 26 4 30 35 92 54 58 65
REMARK Flexibility Score: inf
ROOT
ATOM      1  C   UNL A   1      41.654  21.520  27.656  1.00  0.00     0.220 C 
ATOM      2  O   UNL A   1      41.727  20.493  26.979  1.00  0.00    -0.275 OA
ATOM      3  N   UNL A   1      42.728  21.832  28.450  1.00  0.00    -0.356 N 
ATOM      4  H   UNL A   1      43.518  21.257  28.326  1.00  0.00     0.163 HD
ENDROOT
BRANCH   1   5
ATOM      5  C   UNL A   1      40.382  22.396  27.616  1.00  0.00     0.108 C 
BRANCH   5   6
ATOM      6  C   UNL A   1      39.886  22.758  26.185  1.00  0.00     0.091 C 
BRANCH   6   7
ATOM      7  C   UNL A   1      38.508  22.176  25.754  1.00  0.00     0.163 C 
ATOM      8  O   UNL A   1      38.312  20.970  25.643  1.00  0.00    -0.294 OA
BRANCH   7   9
ATOM      9  C   UNL A   1      37.441  23.131  25.252  1.00  0.00     0.018 A 
ATOM     10  C   UNL A   1      33.906  23.154  24.381  1.00  0.00     0.088 A 
ATOM     11  C   UNL A   1      34.434  23.545  26.074  1.00  0.00     0.023 A 
ATOM     12  C   UNL A   1      35.172  22.822  23.125  1.00  0.00     0.023 A 
ATOM     13  C   UNL A   1      36.205  23.542  26.511  1.00  0.00     0.013 A 
ATOM     14  C   UNL A   1      36.917  22.802  23.558  1.00  0.00     0.013 A 
BRANCH  10  15
ATOM     15  S   UNL A   1      32.255  23.309  23.671  1.00  0.00     0.264 S 
ATOM     16  O   UNL A   1      31.907  21.998  23.167  1.00  0.00    -0.201 OA
ATOM     17  O   UNL A   1      32.410  24.419  22.745  1.00  0.00    -0.201 OA
BRANCH  15  18
ATOM     18  N   UNL A   1      31.153  23.787  24.859  1.00  0.00    -0.269 N 
ATOM     19  C   UNL A   1      31.032  22.894  26.029  1.00  0.00     0.164 C 
BRANCH  18  20
ATOM     20  C   UNL A   1      30.969  25.183  25.072  1.00  0.00     0.052 A 
ATOM     21  C   UNL A   1      31.848  25.928  25.848  1.00  0.00     0.027 A 
ATOM     22  C   UNL A   1      29.960  25.818  24.362  1.00  0.00     0.035 A 
ATOM     23  C   UNL A   1      31.808  27.320  25.782  1.00  0.00     0.011 A 
ATOM     24  C   UNL A   1      30.014  27.196  24.148  1.00  0.00    -0.016 A 
ATOM     25  C   UNL A   1      30.951  27.963  24.871  1.00  0.00    -0.018 A 
ATOM     26  C   UNL A   1      29.222  27.803  23.160  1.00  0.00     0.009 A 
ATOM     27  C   UNL A   1      31.036  29.339  24.614  1.00  0.00     0.009 A 
ATOM     28  C   UNL A   1      29.378  29.154  22.863  1.00  0.00     0.001 A 
ATOM     29  C   UNL A   1      30.272  29.925  23.601  1.00  0.00     0.001 A 
ENDBRANCH  18  20
ENDBRANCH  15  18
ENDBRANCH  10  15
ENDBRANCH   7   9
ENDBRANCH   6   7
ENDBRANCH   5   6
ENDBRANCH   1   5
BRANCH   3  30
ATOM     30  C   UNL A   1      42.881  22.885  29.451  1.00  0.00     0.117 C 
BRANCH  30  31
ATOM     31  C   UNL A   1      44.056  23.975  29.048  1.00  0.00     0.042 C 
BRANCH  31  32
ATOM     32  C   UNL A   1      44.461  25.620  27.667  1.00  0.00     0.118 C 
BRANCH  32  33
ATOM     33  N   UNL A   1      43.874  25.896  26.201  1.00  0.00    -0.352 N 
ATOM     34  C   UNL A   1      42.593  26.003  25.743  1.00  0.00     0.251 C 
ATOM     35  H   UNL A   1      44.561  26.009  25.505  1.00  0.00     0.163 HD
ATOM     36  O   UNL A   1      42.270  25.610  24.626  1.00  0.00    -0.269 OA
BRANCH  34  37
ATOM     37  C   UNL A   1      41.622  26.840  26.425  1.00  0.00     0.039 A 
ATOM     38  C   UNL A   1      41.978  28.191  26.590  1.00  0.00     0.014 A 
ATOM     39  C   UNL A   1      40.842  26.147  27.349  1.00  0.00     0.014 A 
ATOM     40  C   UNL A   1      41.706  28.805  27.797  1.00  0.00     0.010 A 
ATOM     41  C   UNL A   1      40.566  26.763  28.542  1.00  0.00     0.010 A 
ATOM     42  C   UNL A   1      41.051  28.060  28.779  1.00  0.00    -0.014 A 
BRANCH  42  43
ATOM     43  C   UNL A   1      40.745  28.601  30.099  1.00  0.00     0.031 A 
ATOM     44  C   UNL A   1      39.700  29.664  30.205  1.00  0.00     0.074 A 
ATOM     45  C   UNL A   1      41.685  28.324  31.013  1.00  0.00     0.049 A 
ATOM     46  N   UNL A   1      39.547  30.571  31.125  1.00  0.00    -0.248 NA
ATOM     47  C   UNL A   1      38.737  29.764  29.091  1.00  0.00     0.031 C 
ATOM     48  C   UNL A   1      42.770  27.348  30.825  1.00  0.00     0.029 A 
ATOM     49  N   UNL A   1      41.969  28.919  32.201  1.00  0.00    -0.354 N 
ATOM     50  C   UNL A   1      38.479  31.358  30.707  1.00  0.00     0.074 A 
ATOM     51  C   UNL A   1      38.048  30.849  29.425  1.00  0.00     0.031 C 
ATOM     52  C   UNL A   1      43.655  27.479  31.818  1.00  0.00     0.029 A 
ATOM     53  C   UNL A   1      43.196  28.543  32.693  1.00  0.00     0.049 A 
ATOM     54  H   UNL A   1      41.364  29.546  32.658  1.00  0.00     0.167 HD
ATOM     55  C   UNL A   1      37.932  32.409  31.365  1.00  0.00     0.037 A 
ATOM     56  C   UNL A   1      43.886  29.051  33.724  1.00  0.00     0.037 A 
ATOM     57  C   UNL A   1      38.463  32.859  32.630  1.00  0.00     0.049 A 
ATOM     58  C   UNL A   1      43.212  30.147  34.486  1.00  0.00     0.074 A 
ATOM     59  C   UNL A   1      38.003  33.852  33.471  1.00  0.00     0.029 A 
ATOM     60  N   UNL A   1      39.600  32.319  33.232  1.00  0.00    -0.354 N 
ATOM     61  N   UNL A   1      42.147  30.840  34.145  1.00  0.00    -0.248 NA
ATOM     62  C   UNL A   1      43.780  30.492  35.785  1.00  0.00     0.031 C 
ATOM     63  C   UNL A   1      38.871  33.922  34.570  1.00  0.00     0.029 A 
ATOM     64  C   UNL A   1      39.852  32.945  34.436  1.00  0.00     0.049 A 
ATOM     65  H   UNL A   1      40.146  31.593  32.850  1.00  0.00     0.167 HD
ATOM     66  C   UNL A   1      41.892  31.690  35.207  1.00  0.00     0.074 A 
ATOM     67  C   UNL A   1      42.917  31.408  36.202  1.00  0.00     0.031 C 
ATOM     68  C   UNL A   1      40.909  32.613  35.362  1.00  0.00     0.037 A 
BRANCH  55  69
ATOM     69  C   UNL A   1      36.728  33.092  30.759  1.00  0.00     0.058 A 
ATOM     70  C   UNL A   1      35.440  32.923  31.300  1.00  0.00     0.135 A 
ATOM     71  C   UNL A   1      36.847  33.947  29.650  1.00  0.00     0.135 A 
ATOM     72  F   UNL A   1      35.252  32.115  32.355  1.00  0.00    -0.206 F 
ATOM     73  C   UNL A   1      34.321  33.544  30.750  1.00  0.00     0.059 A 
ATOM     74  C   UNL A   1      35.744  34.602  29.098  1.00  0.00     0.059 A 
ATOM     75  F   UNL A   1      38.046  34.154  29.082  1.00  0.00    -0.206 F 
ATOM     76  C   UNL A   1      34.481  34.383  29.647  1.00  0.00     0.060 A 
BRANCH  76  77
ATOM     77  S   UNL A   1      33.018  35.190  28.959  1.00  0.00     0.124 S 
ATOM     78  O   UNL A   1      33.595  36.400  28.381  1.00  0.00    -0.237 OA
ATOM     79  O   UNL A   1      32.535  34.200  28.001  1.00  0.00    -0.237 OA
ATOM     80  O   UNL A   1      32.163  35.398  30.123  1.00  0.00    -0.744 OA
ENDBRANCH  76  77
ENDBRANCH  55  69
BRANCH  56  81
ATOM     81  C   UNL A   1      45.176  28.433  34.107  1.00  0.00     0.058 A 
ATOM     82  C   UNL A   1      45.187  27.277  34.900  1.00  0.00     0.135 A 
ATOM     83  C   UNL A   1      46.398  28.875  33.574  1.00  0.00     0.135 A 
ATOM     84  F   UNL A   1      44.038  26.795  35.396  1.00  0.00    -0.206 F 
ATOM     85  C   UNL A   1      46.365  26.592  35.172  1.00  0.00     0.059 A 
ATOM     86  C   UNL A   1      47.588  28.194  33.817  1.00  0.00     0.059 A 
ATOM     87  F   UNL A   1      46.431  29.940  32.758  1.00  0.00    -0.206 F 
ATOM     88  C   UNL A   1      47.563  27.057  34.626  1.00  0.00     0.060 A 
BRANCH  88  89
ATOM     89  S   UNL A   1      49.073  26.123  34.950  1.00  0.00     0.124 S 
ATOM     90  O   UNL A   1      49.715  26.949  35.965  1.00  0.00    -0.237 OA
ATOM     91  O   UNL A   1      48.548  24.840  35.410  1.00  0.00    -0.237 OA
ATOM     92  O   UNL A   1      49.736  26.090  33.650  1.00  0.00    -0.744 OA
ENDBRANCH  88  89
ENDBRANCH  56  81
BRANCH  68  93
ATOM     93  C   UNL A   1      40.923  33.353  36.661  1.00  0.00     0.058 A 
ATOM     94  C   UNL A   1      41.787  34.438  36.868  1.00  0.00     0.135 A 
ATOM     95  C   UNL A   1      40.049  32.983  37.693  1.00  0.00     0.135 A 
ATOM     96  F   UNL A   1      42.648  34.811  35.908  1.00  0.00    -0.206 F 
ATOM     97  C   UNL A   1      41.804  35.118  38.076  1.00  0.00     0.059 A 
ATOM     98  C   UNL A   1      40.030  33.669  38.898  1.00  0.00     0.059 A 
ATOM     99  F   UNL A   1      39.204  31.953  37.529  1.00  0.00    -0.206 F 
ATOM    100  C   UNL A   1      40.921  34.726  39.084  1.00  0.00     0.060 A 
BRANCH 100 101
ATOM    101  S   UNL A   1      40.934  35.637  40.639  1.00  0.00     0.124 S 
ATOM    102  O   UNL A   1      40.590  34.588  41.592  1.00  0.00    -0.237 OA
ATOM    103  O   UNL A   1      42.310  36.125  40.701  1.00  0.00    -0.237 OA
ATOM    104  O   UNL A   1      39.919  36.665  40.437  1.00  0.00    -0.744 OA
ENDBRANCH 100 101
ENDBRANCH  68  93
ENDBRANCH  42  43
ENDBRANCH  34  37
ENDBRANCH  32  33
ENDBRANCH  31  32
ENDBRANCH  30  31
ENDBRANCH   3  30
TORSDOF 19
ENDMDL
MODEL 2
REMARK VINA RESULT:     -12.0      2.983      9.493
REMARK SMILES CN(c1ccc2ccccc2c1)S(=O)(=O)c1ccc(C(=O)CCC(=O)NCCCNC(=O)c2ccc(-c3c4nc(c(-c5c(F)cc(S(=O)(=O)[O-])cc5F)c5ccc([nH]5)c(-c5c(F)cc(S(=O)(=O)[O-])cc5F)c5nc(c(-c6c(F)cc(S(=O)(=O)[O-])cc6F)c6ccc3[nH]6)C=C5)C=C4)cc2)cc1
REMARK SMILES IDX 24 1 25 2 26 3 23 5 22 6 20 7 21 8 19 9 16 10 17 11 100 12
REMARK SMILES IDX 18 13 99 14 13 15 14 16 15 17 2 18 1 19 3 20 4 21 12 22 5 23
REMARK SMILES IDX 11 24 6 25 10 26 7 27 9 28 8 29 27 30 28 31 29 32 30 33
REMARK SMILES IDX 31 34 32 36 33 37 34 38 98 39 35 40 97 41 36 42 37 43 38 44
REMARK SMILES IDX 91 45 39 46 96 47 90 48 92 49 40 50 95 51 89 52 88 53 41 55
REMARK SMILES IDX 75 56 54 57 74 58 55 59 58 60 73 61 93 62 56 63 57 64 72 66
REMARK SMILES IDX 94 67 59 68 42 69 43 70 52 71 44 72 45 73 51 74 53 75 46 76
REMARK SMILES IDX 47 77 48 78 49 79 50 80 76 81 77 82 86 83 78 84 79 85 85 86
REMARK SMILES IDX 87 87 80 88 81 89 82 90 83 91 84 92 60 93 61 94 70 95 62 96
REMARK SMILES IDX 63 97 69 98 71 99 64 100 65 101 66 102 67 103 68 104
REMARK H PARENT 26 4 30 35 92 54 58 65
REMARK Flexibility Score: inf
ROOT
ATOM      1  C   UNL A   1      35.551  32.265  28.182  1.00  0.00     0.220 C 
ATOM      2  O   UNL A   1      36.711  31.894  28.374  1.00  0.00    -0.275 OA
ATOM      3  N   UNL A   1      35.357  33.573  27.819  1.00  0.00    -0.356 N 
ATOM      4  H   UNL A   1      36.181  34.080  27.636  1.00  0.00     0.163 HD
ENDROOT
BRANCH   1   5
ATOM      5  C   UNL A   1      34.373  31.284  28.373  1.00  0.00     0.108 C 
BRANCH   5   6
ATOM      6  C   UNL A   1      33.886  30.589  27.067  1.00  0.00     0.091 C 
BRANCH   6   7
ATOM      7  C   UNL A   1      32.400  30.819  26.665  1.00  0.00     0.163 C 
ATOM      8  O   UNL A   1      31.820  31.878  26.879  1.00  0.00    -0.294 OA
BRANCH   7   9
ATOM      9  C   UNL A   1      31.583  29.630  26.191  1.00  0.00     0.018 A 
ATOM     10  C   UNL A   1      32.058  26.264  24.890  1.00  0.00     0.088 A 
ATOM     11  C   UNL A   1      31.892  26.539  26.677  1.00  0.00     0.023 A 
ATOM     12  C   UNL A   1      31.913  27.683  23.770  1.00  0.00     0.023 A 
ATOM     13  C   UNL A   1      31.646  28.225  27.331  1.00  0.00     0.013 A 
ATOM     14  C   UNL A   1      31.688  29.347  24.413  1.00  0.00     0.013 A 
BRANCH  10  15
ATOM     15  S   UNL A   1      32.084  24.690  24.009  1.00  0.00     0.264 S 
ATOM     16  O   UNL A   1      33.269  24.711  23.178  1.00  0.00    -0.201 OA
ATOM     17  O   UNL A   1      30.769  24.650  23.389  1.00  0.00    -0.201 OA
BRANCH  15  18
ATOM     18  N   UNL A   1      32.168  23.409  25.107  1.00  0.00    -0.269 N 
ATOM     19  C   UNL A   1      30.941  23.136  25.883  1.00  0.00     0.164 C 
BRANCH  18  20
ATOM     20  C   UNL A   1      32.998  22.300  24.773  1.00  0.00     0.052 A 
ATOM     21  C   UNL A   1      34.193  22.054  25.437  1.00  0.00     0.027 A 
ATOM     22  C   UNL A   1      32.510  21.381  23.855  1.00  0.00     0.035 A 
ATOM     23  C   UNL A   1      34.812  20.812  25.293  1.00  0.00     0.011 A 
ATOM     24  C   UNL A   1      33.015  20.080  23.832  1.00  0.00    -0.016 A 
ATOM     25  C   UNL A   1      34.187  19.789  24.560  1.00  0.00    -0.018 A 
ATOM     26  C   UNL A   1      32.319  19.050  23.178  1.00  0.00     0.009 A 
ATOM     27  C   UNL A   1      34.660  18.469  24.574  1.00  0.00     0.009 A 
ATOM     28  C   UNL A   1      32.760  17.733  23.271  1.00  0.00     0.001 A 
ATOM     29  C   UNL A   1      33.939  17.445  23.954  1.00  0.00     0.001 A 
ENDBRANCH  18  20
ENDBRANCH  15  18
ENDBRANCH  10  15
ENDBRANCH   7   9
ENDBRANCH   6   7
ENDBRANCH   5   6
ENDBRANCH   1   5
BRANCH   3  30
ATOM     30  C   UNL A   1      34.117  34.331  27.663  1.00  0.00     0.117 C 
BRANCH  30  31
ATOM     31  C   UNL A   1      33.349  34.590  29.103  1.00  0.00     0.042 C 
BRANCH  31  32
ATOM     32  C   UNL A   1      32.934  36.165  30.560  1.00  0.00     0.118 C 
BRANCH  32  33
ATOM     33  N   UNL A   1      33.757  36.596  31.866  1.00  0.00    -0.352 N 
ATOM     34  C   UNL A   1      34.312  35.859  32.873  1.00  0.00     0.251 C 
ATOM     35  H   UNL A   1      33.885  37.568  31.961  1.00  0.00     0.163 HD
ATOM     36  O   UNL A   1      34.349  36.268  34.029  1.00  0.00    -0.269 OA
BRANCH  34  37
ATOM     37  C   UNL A   1      35.137  34.701  32.583  1.00  0.00     0.039 A 
ATOM     38  C   UNL A   1      35.203  33.720  33.590  1.00  0.00     0.014 A 
ATOM     39  C   UNL A   1      36.204  34.977  31.730  1.00  0.00     0.014 A 
ATOM     40  C   UNL A   1      36.424  33.138  33.870  1.00  0.00     0.010 A 
ATOM     41  C   UNL A   1      37.411  34.390  32.005  1.00  0.00     0.010 A 
ATOM     42  C   UNL A   1      37.525  33.526  33.106  1.00  0.00    -0.014 A 
BRANCH  42  43
ATOM     43  C   UNL A   1      38.865  32.998  33.340  1.00  0.00     0.031 A 
ATOM     44  C   UNL A   1      39.302  31.801  32.559  1.00  0.00     0.074 A 
ATOM     45  C   UNL A   1      39.416  33.441  34.478  1.00  0.00     0.049 A 
ATOM     46  N   UNL A   1      40.210  30.917  32.857  1.00  0.00    -0.248 NA
ATOM     47  C   UNL A   1      38.573  31.520  31.307  1.00  0.00     0.031 C 
ATOM     48  C   UNL A   1      38.887  34.555  35.281  1.00  0.00     0.029 A 
ATOM     49  N   UNL A   1      40.434  32.940  35.226  1.00  0.00    -0.354 N 
ATOM     50  C   UNL A   1      40.164  29.970  31.839  1.00  0.00     0.074 A 
ATOM     51  C   UNL A   1      39.106  30.362  30.936  1.00  0.00     0.031 C 
ATOM     52  C   UNL A   1      39.525  34.591  36.455  1.00  0.00     0.029 A 
ATOM     53  C   UNL A   1      40.491  33.506  36.476  1.00  0.00     0.049 A 
ATOM     54  H   UNL A   1      41.059  32.251  34.906  1.00  0.00     0.167 HD
ATOM     55  C   UNL A   1      40.955  28.877  31.704  1.00  0.00     0.037 A 
ATOM     56  C   UNL A   1      41.226  33.143  37.537  1.00  0.00     0.037 A 
ATOM     57  C   UNL A   1      41.963  28.557  32.686  1.00  0.00     0.049 A 
ATOM     58  C   UNL A   1      42.157  31.992  37.324  1.00  0.00     0.074 A 
ATOM     59  C   UNL A   1      42.899  27.541  32.684  1.00  0.00     0.029 A 
ATOM     60  N   UNL A   1      42.157  29.278  33.865  1.00  0.00    -0.354 N 
ATOM     61  N   UNL A   1      42.184  31.140  36.321  1.00  0.00    -0.248 NA
ATOM     62  C   UNL A   1      43.187  31.782  38.337  1.00  0.00     0.031 C 
ATOM     63  C   UNL A   1      43.643  27.640  33.868  1.00  0.00     0.029 A 
ATOM     64  C   UNL A   1      43.200  28.741  34.592  1.00  0.00     0.049 A 
ATOM     65  H   UNL A   1      41.623  30.059  34.139  1.00  0.00     0.167 HD
ATOM     66  C   UNL A   1      43.259  30.305  36.563  1.00  0.00     0.074 A 
ATOM     67  C   UNL A   1      43.858  30.769  37.807  1.00  0.00     0.031 C 
ATOM     68  C   UNL A   1      43.723  29.257  35.835  1.00  0.00     0.037 A 
BRANCH  55  69
ATOM     69  C   UNL A   1      40.778  28.006  30.483  1.00  0.00     0.058 A 
ATOM     70  C   UNL A   1      39.651  27.179  30.329  1.00  0.00     0.135 A 
ATOM     71  C   UNL A   1      41.715  28.008  29.434  1.00  0.00     0.135 A 
ATOM     72  F   UNL A   1      38.719  27.122  31.295  1.00  0.00    -0.206 F 
ATOM     73  C   UNL A   1      39.476  26.367  29.210  1.00  0.00     0.059 A 
ATOM     74  C   UNL A   1      41.547  27.224  28.291  1.00  0.00     0.059 A 
ATOM     75  F   UNL A   1      42.816  28.773  29.513  1.00  0.00    -0.206 F 
ATOM     76  C   UNL A   1      40.430  26.396  28.194  1.00  0.00     0.060 A 
BRANCH  76  77
ATOM     77  S   UNL A   1      40.176  25.347  26.744  1.00  0.00     0.124 S 
ATOM     78  O   UNL A   1      38.728  25.166  26.762  1.00  0.00    -0.237 OA
ATOM     79  O   UNL A   1      40.695  26.178  25.661  1.00  0.00    -0.237 OA
ATOM     80  O   UNL A   1      40.960  24.154  27.043  1.00  0.00    -0.744 OA
ENDBRANCH  76  77
ENDBRANCH  55  69
BRANCH  56  81
ATOM     81  C   UNL A   1      41.163  33.954  38.774  1.00  0.00     0.058 A 
ATOM     82  C   UNL A   1      41.979  35.086  38.909  1.00  0.00     0.135 A 
ATOM     83  C   UNL A   1      40.197  33.721  39.766  1.00  0.00     0.135 A 
ATOM     84  F   UNL A   1      42.888  35.371  37.964  1.00  0.00    -0.206 F 
ATOM     85  C   UNL A   1      41.858  35.947  39.993  1.00  0.00     0.059 A 
ATOM     86  C   UNL A   1      40.044  34.579  40.852  1.00  0.00     0.059 A 
ATOM     87  F   UNL A   1      39.350  32.686  39.651  1.00  0.00    -0.206 F 
ATOM     88  C   UNL A   1      40.886  35.686  40.961  1.00  0.00     0.060 A 
BRANCH  88  89
ATOM     89  S   UNL A   1      40.711  36.845  42.334  1.00  0.00     0.124 S 
ATOM     90  O   UNL A   1      39.261  36.955  42.440  1.00  0.00    -0.237 OA
ATOM     91  O   UNL A   1      41.379  36.136  43.421  1.00  0.00    -0.237 OA
ATOM     92  O   UNL A   1      41.402  38.040  41.858  1.00  0.00    -0.744 OA
ENDBRANCH  88  89
ENDBRANCH  56  81
BRANCH  68  93
ATOM     93  C   UNL A   1      44.934  28.577  36.390  1.00  0.00     0.058 A 
ATOM     94  C   UNL A   1      44.818  27.448  37.213  1.00  0.00     0.135 A 
ATOM     95  C   UNL A   1      46.216  29.051  36.074  1.00  0.00     0.135 A 
ATOM     96  F   UNL A   1      43.607  26.975  37.548  1.00  0.00    -0.206 F 
ATOM     97  C   UNL A   1      45.942  26.824  37.732  1.00  0.00     0.059 A 
ATOM     98  C   UNL A   1      47.353  28.423  36.559  1.00  0.00     0.059 A 
ATOM     99  F   UNL A   1      46.366  30.126  35.285  1.00  0.00    -0.206 F 
ATOM    100  C   UNL A   1      47.204  27.318  37.399  1.00  0.00     0.060 A 
BRANCH 100 101
ATOM    101  S   UNL A   1      48.657  26.480  38.058  1.00  0.00     0.124 S 
ATOM    102  O   UNL A   1      49.621  27.573  38.119  1.00  0.00    -0.237 OA
ATOM    103  O   UNL A   1      48.174  25.987  39.345  1.00  0.00    -0.237 OA
ATOM    104  O   UNL A   1      48.933  25.450  37.062  1.00  0.00    -0.744 OA
ENDBRANCH 100 101
ENDBRANCH  68  93
ENDBRANCH  42  43
ENDBRANCH  34  37
ENDBRANCH  32  33
ENDBRANCH  31  32
ENDBRANCH  30  31
ENDBRANCH   3  30
TORSDOF 19
ENDMDL
MODEL 3
REMARK VINA RESULT:     -11.5      1.189      2.154
REMARK SMILES CN(c1ccc2ccccc2c1)S(=O)(=O)c1ccc(C(=O)CCC(=O)NCCCNC(=O)c2ccc(-c3c4nc(c(-c5c(F)cc(S(=O)(=O)[O-])cc5F)c5ccc([nH]5)c(-c5c(F)cc(S(=O)(=O)[O-])cc5F)c5nc(c(-c6c(F)cc(S(=O)(=O)[O-])cc6F)c6ccc3[nH]6)C=C5)C=C4)cc2)cc1
REMARK SMILES IDX 24 1 25 2 26 3 23 5 22 6 20 7 21 8 19 9 16 10 17 11 100 12
REMARK SMILES IDX 18 13 99 14 13 15 14 16 15 17 2 18 1 19 3 20 4 21 12 22 5 23
REMARK SMILES IDX 11 24 6 25 10 26 7 27 9 28 8 29 27 30 28 31 29 32 30 33
REMARK SMILES IDX 31 34 32 36 33 37 34 38 98 39 35 40 97 41 36 42 37 43 38 44
REMARK SMILES IDX 91 45 39 46 96 47 90 48 92 49 40 50 95 51 89 52 88 53 41 55
REMARK SMILES IDX 75 56 54 57 74 58 55 59 58 60 73 61 93 62 56 63 57 64 72 66
REMARK SMILES IDX 94 67 59 68 42 69 43 70 52 71 44 72 45 73 51 74 53 75 46 76
REMARK SMILES IDX 47 77 48 78 49 79 50 80 76 81 77 82 86 83 78 84 79 85 85 86
REMARK SMILES IDX 87 87 80 88 81 89 82 90 83 91 84 92 60 93 61 94 70 95 62 96
REMARK SMILES IDX 63 97 69 98 71 99 64 100 65 101 66 102 67 103 68 104
REMARK H PARENT 26 4 30 35 92 54 58 65
REMARK Flexibility Score: inf
ROOT
ATOM      1  C   UNL A   1      41.601  21.528  27.852  1.00  0.00     0.220 C 
ATOM      2  O   UNL A   1      41.567  20.410  27.335  1.00  0.00    -0.275 OA
ATOM      3  N   UNL A   1      42.667  21.817  28.666  1.00  0.00    -0.356 N 
ATOM      4  H   UNL A   1      43.376  21.134  28.680  1.00  0.00     0.163 HD
ENDROOT
BRANCH   1   5
ATOM      5  C   UNL A   1      40.464  22.543  27.599  1.00  0.00     0.108 C 
BRANCH   5   6
ATOM      6  C   UNL A   1      39.987  22.631  26.119  1.00  0.00     0.091 C 
BRANCH   6   7
ATOM      7  C   UNL A   1      38.710  21.823  25.747  1.00  0.00     0.163 C 
ATOM      8  O   UNL A   1      38.750  20.634  25.452  1.00  0.00    -0.294 OA
BRANCH   7   9
ATOM      9  C   UNL A   1      37.410  22.578  25.534  1.00  0.00     0.018 A 
ATOM     10  C   UNL A   1      33.899  21.934  24.815  1.00  0.00     0.088 A 
ATOM     11  C   UNL A   1      34.478  22.037  26.533  1.00  0.00     0.023 A 
ATOM     12  C   UNL A   1      35.086  22.227  23.475  1.00  0.00     0.023 A 
ATOM     13  C   UNL A   1      36.235  22.367  26.896  1.00  0.00     0.013 A 
ATOM     14  C   UNL A   1      36.821  22.535  23.830  1.00  0.00     0.013 A 
BRANCH  10  15
ATOM     15  S   UNL A   1      32.199  21.841  24.221  1.00  0.00     0.264 S 
ATOM     16  O   UNL A   1      31.473  21.054  25.196  1.00  0.00    -0.201 OA
ATOM     17  O   UNL A   1      32.360  21.341  22.866  1.00  0.00    -0.201 OA
BRANCH  15  18
ATOM     18  N   UNL A   1      31.533  23.391  24.117  1.00  0.00    -0.269 N 
ATOM     19  C   UNL A   1      30.571  23.757  25.175  1.00  0.00     0.164 C 
BRANCH  18  20
ATOM     20  C   UNL A   1      32.346  24.428  23.575  1.00  0.00     0.052 A 
ATOM     21  C   UNL A   1      32.435  24.649  22.206  1.00  0.00     0.027 A 
ATOM     22  C   UNL A   1      32.941  25.314  24.463  1.00  0.00     0.035 A 
ATOM     23  C   UNL A   1      32.987  25.843  21.741  1.00  0.00     0.011 A 
ATOM     24  C   UNL A   1      33.335  26.580  24.030  1.00  0.00    -0.016 A 
ATOM     25  C   UNL A   1      33.363  26.851  22.646  1.00  0.00    -0.018 A 
ATOM     26  C   UNL A   1      33.607  27.604  24.952  1.00  0.00     0.009 A 
ATOM     27  C   UNL A   1      33.710  28.140  22.219  1.00  0.00     0.009 A 
ATOM     28  C   UNL A   1      33.870  28.898  24.510  1.00  0.00     0.001 A 
ATOM     29  C   UNL A   1      33.938  29.162  23.145  1.00  0.00     0.001 A 
ENDBRANCH  18  20
ENDBRANCH  15  18
ENDBRANCH  10  15
ENDBRANCH   7   9
ENDBRANCH   6   7
ENDBRANCH   5   6
ENDBRANCH   1   5
BRANCH   3  30
ATOM     30  C   UNL A   1      42.912  22.980  29.515  1.00  0.00     0.117 C 
BRANCH  30  31
ATOM     31  C   UNL A   1      44.156  23.916  28.960  1.00  0.00     0.042 C 
BRANCH  31  32
ATOM     32  C   UNL A   1      44.570  25.582  27.608  1.00  0.00     0.118 C 
BRANCH  32  33
ATOM     33  N   UNL A   1      43.965  25.902  26.159  1.00  0.00    -0.352 N 
ATOM     34  C   UNL A   1      42.677  26.003  25.716  1.00  0.00     0.251 C 
ATOM     35  H   UNL A   1      44.643  26.053  25.462  1.00  0.00     0.163 HD
ATOM     36  O   UNL A   1      42.351  25.646  24.589  1.00  0.00    -0.269 OA
BRANCH  34  37
ATOM     37  C   UNL A   1      41.699  26.796  26.437  1.00  0.00     0.039 A 
ATOM     38  C   UNL A   1      41.954  28.178  26.512  1.00  0.00     0.014 A 
ATOM     39  C   UNL A   1      41.053  26.094  27.454  1.00  0.00     0.014 A 
ATOM     40  C   UNL A   1      41.730  28.830  27.708  1.00  0.00     0.010 A 
ATOM     41  C   UNL A   1      40.822  26.748  28.636  1.00  0.00     0.010 A 
ATOM     42  C   UNL A   1      41.217  28.088  28.773  1.00  0.00    -0.014 A 
BRANCH  42  43
ATOM     43  C   UNL A   1      40.973  28.672  30.088  1.00  0.00     0.031 A 
ATOM     44  C   UNL A   1      39.917  29.722  30.213  1.00  0.00     0.074 A 
ATOM     45  C   UNL A   1      41.965  28.443  30.959  1.00  0.00     0.049 A 
ATOM     46  N   UNL A   1      39.799  30.659  31.108  1.00  0.00    -0.248 NA
ATOM     47  C   UNL A   1      38.895  29.768  29.150  1.00  0.00     0.031 C 
ATOM     48  C   UNL A   1      43.055  27.476  30.746  1.00  0.00     0.029 A 
ATOM     49  N   UNL A   1      42.302  29.084  32.109  1.00  0.00    -0.354 N 
ATOM     50  C   UNL A   1      38.697  31.415  30.721  1.00  0.00     0.074 A 
ATOM     51  C   UNL A   1      38.206  30.853  29.483  1.00  0.00     0.031 C 
ATOM     52  C   UNL A   1      43.989  27.656  31.685  1.00  0.00     0.029 A 
ATOM     53  C   UNL A   1      43.560  28.744  32.546  1.00  0.00     0.049 A 
ATOM     54  H   UNL A   1      41.712  29.717  32.575  1.00  0.00     0.167 HD
ATOM     55  C   UNL A   1      38.168  32.480  31.371  1.00  0.00     0.037 A 
ATOM     56  C   UNL A   1      44.296  29.299  33.520  1.00  0.00     0.037 A 
ATOM     57  C   UNL A   1      38.758  32.984  32.588  1.00  0.00     0.049 A 
ATOM     58  C   UNL A   1      43.645  30.411  34.279  1.00  0.00     0.074 A 
ATOM     59  C   UNL A   1      38.328  33.999  33.418  1.00  0.00     0.029 A 
ATOM     60  N   UNL A   1      39.935  32.482  33.146  1.00  0.00    -0.354 N 
ATOM     61  N   UNL A   1      42.551  31.076  33.971  1.00  0.00    -0.248 NA
ATOM     62  C   UNL A   1      44.277  30.811  35.532  1.00  0.00     0.031 C 
ATOM     63  C   UNL A   1      39.252  34.121  34.465  1.00  0.00     0.029 A 
ATOM     64  C   UNL A   1      40.240  33.155  34.312  1.00  0.00     0.049 A 
ATOM     65  H   UNL A   1      40.472  31.751  32.761  1.00  0.00     0.167 HD
ATOM     66  C   UNL A   1      42.340  31.959  35.015  1.00  0.00     0.074 A 
ATOM     67  C   UNL A   1      43.421  31.729  35.963  1.00  0.00     0.031 C 
ATOM     68  C   UNL A   1      41.351  32.872  35.191  1.00  0.00     0.037 A 
BRANCH  55  69
ATOM     69  C   UNL A   1      36.922  33.122  30.807  1.00  0.00     0.058 A 
ATOM     70  C   UNL A   1      36.979  33.976  29.691  1.00  0.00     0.135 A 
ATOM     71  C   UNL A   1      35.651  32.871  31.354  1.00  0.00     0.135 A 
ATOM     72  F   UNL A   1      38.160  34.266  29.121  1.00  0.00    -0.206 F 
ATOM     73  C   UNL A   1      35.839  34.578  29.162  1.00  0.00     0.059 A 
ATOM     74  C   UNL A   1      34.492  33.441  30.825  1.00  0.00     0.059 A 
ATOM     75  F   UNL A   1      35.522  32.067  32.421  1.00  0.00    -0.206 F 
ATOM     76  C   UNL A   1      34.597  34.306  29.735  1.00  0.00     0.060 A 
BRANCH  76  77
ATOM     77  S   UNL A   1      33.130  35.085  29.025  1.00  0.00     0.124 S 
ATOM     78  O   UNL A   1      32.656  34.045  28.116  1.00  0.00    -0.237 OA
ATOM     79  O   UNL A   1      32.300  35.322  30.201  1.00  0.00    -0.237 OA
ATOM     80  O   UNL A   1      33.657  36.285  28.382  1.00  0.00    -0.744 OA
ENDBRANCH  76  77
ENDBRANCH  55  69
BRANCH  56  81
ATOM     81  C   UNL A   1      45.614  28.715  33.854  1.00  0.00     0.058 A 
ATOM     82  C   UNL A   1      46.786  29.307  33.361  1.00  0.00     0.135 A 
ATOM     83  C   UNL A   1      45.750  27.669  34.782  1.00  0.00     0.135 A 
ATOM     84  F   UNL A   1      46.704  30.336  32.504  1.00  0.00    -0.206 F 
ATOM     85  C   UNL A   1      48.045  28.871  33.755  1.00  0.00     0.059 A 
ATOM     86  C   UNL A   1      47.000  27.227  35.206  1.00  0.00     0.059 A 
ATOM     87  F   UNL A   1      44.659  27.111  35.330  1.00  0.00    -0.206 F 
ATOM     88  C   UNL A   1      48.143  27.830  34.680  1.00  0.00     0.060 A 
BRANCH  88  89
ATOM     89  S   UNL A   1      49.788  27.314  35.218  1.00  0.00     0.124 S 
ATOM     90  O   UNL A   1      49.969  26.082  34.459  1.00  0.00    -0.237 OA
ATOM     91  O   UNL A   1      50.614  28.445  34.804  1.00  0.00    -0.237 OA
ATOM     92  O   UNL A   1      49.636  27.152  36.660  1.00  0.00    -0.744 OA
ENDBRANCH  88  89
ENDBRANCH  56  81
BRANCH  68  93
ATOM     93  C   UNL A   1      41.422  33.659  36.461  1.00  0.00     0.058 A 
ATOM     94  C   UNL A   1      40.648  33.306  37.575  1.00  0.00     0.135 A 
ATOM     95  C   UNL A   1      42.287  34.757  36.563  1.00  0.00     0.135 A 
ATOM     96  F   UNL A   1      39.797  32.269  37.510  1.00  0.00    -0.206 F 
ATOM     97  C   UNL A   1      40.709  34.042  38.749  1.00  0.00     0.059 A 
ATOM     98  C   UNL A   1      42.385  35.488  37.737  1.00  0.00     0.059 A 
ATOM     99  F   UNL A   1      43.047  35.121  35.517  1.00  0.00    -0.206 F 
ATOM    100  C   UNL A   1      41.581  35.129  38.820  1.00  0.00     0.060 A 
BRANCH 100 101
ATOM    101  S   UNL A   1      41.671  36.059  40.361  1.00  0.00     0.124 S 
ATOM    102  O   UNL A   1      40.551  36.980  40.211  1.00  0.00    -0.237 OA
ATOM    103  O   UNL A   1      41.502  35.012  41.366  1.00  0.00    -0.237 OA
ATOM    104  O   UNL A   1      42.998  36.664  40.314  1.00  0.00    -0.744 OA
ENDBRANCH 100 101
ENDBRANCH  68  93
ENDBRANCH  42  43
ENDBRANCH  34  37
ENDBRANCH  32  33
ENDBRANCH  31  32
ENDBRANCH  30  31
ENDBRANCH   3  30
TORSDOF 19
ENDMDL
