MODEL 1
REMARK VINA RESULT:     -12.9      0.000      0.000
REMARK SMILES CC(C)(Cn1ccc2ccc([N+](=O)[O-])cc21)C(=O)NCCCNC(=O)c1ccc(-c2c3nc(c(-c4c(F)cc(S(=O)(=O)[O-])cc4F)c4ccc([nH]4)c(-c4c(F)cc(S(=O)(=O)[O-])cc4F)c4nc(c(-c5c(F)cc(S(=O)(=O)[O-])cc5F)c5ccc2[nH]5)C=C4)C=C3)cc1
REMARK SMILES IDX 21 1 20 2 19 3 17 4 18 5 2 7 1 8 3 9 4 10 5 11 6 12 16 13
REMARK SMILES IDX 7 14 8 15 15 16 9 17 11 18 10 19 12 20 13 21 14 22 22 23
REMARK SMILES IDX 23 24 24 25 25 27 26 28 27 29 91 30 28 31 90 32 29 33 30 34
REMARK SMILES IDX 31 35 84 36 32 37 89 38 83 39 85 40 33 41 88 42 82 43 81 44
REMARK SMILES IDX 34 46 68 47 47 48 67 49 48 50 51 51 66 52 86 53 49 54 50 55
REMARK SMILES IDX 65 57 87 58 52 59 35 60 36 61 45 62 37 63 38 64 44 65 46 66
REMARK SMILES IDX 39 67 40 68 41 69 42 70 43 71 69 72 70 73 79 74 71 75 72 76
REMARK SMILES IDX 78 77 80 78 73 79 74 80 75 81 76 82 77 83 53 84 54 85 63 86
REMARK SMILES IDX 55 87 56 88 62 89 64 90 57 91 58 92 59 93 60 94 61 95
REMARK H PARENT 19 6 23 26 85 45 51 56
REMARK Flexibility Score: inf
ROOT
ATOM      1  C   UNL A   1      41.075  20.894  27.242  1.00  0.00     0.042 C 
ENDROOT
BRANCH   1   2
ATOM      2  C   UNL A   1      39.972  20.963  26.188  1.00  0.00     0.117 C 
BRANCH   2   3
ATOM      3  N   UNL A   1      39.271  22.239  26.157  1.00  0.00    -0.356 N 
ATOM      4  C   UNL A   1      38.045  22.646  25.751  1.00  0.00     0.227 C 
ATOM      5  O   UNL A   1      37.787  23.833  25.982  1.00  0.00    -0.274 OA
ATOM      6  H   UNL A   1      39.816  22.977  26.513  1.00  0.00     0.163 HD
BRANCH   4   7
ATOM      7  C   UNL A   1      37.032  21.735  25.041  1.00  0.00     0.061 C 
ATOM      8  C   UNL A   1      37.750  20.403  24.692  1.00  0.00     0.023 C 
ATOM      9  C   UNL A   1      36.635  22.309  23.663  1.00  0.00     0.023 C 
BRANCH   7  10
ATOM     10  C   UNL A   1      35.788  21.498  25.949  1.00  0.00     0.138 C 
BRANCH  10  11
ATOM     11  N   UNL A   1      34.493  21.465  25.260  1.00  0.00    -0.346 N 
ATOM     12  C   UNL A   1      33.663  22.558  25.152  1.00  0.00     0.087 A 
ATOM     13  C   UNL A   1      33.886  20.384  24.640  1.00  0.00     0.055 A 
ATOM     14  C   UNL A   1      32.697  22.267  24.220  1.00  0.00     0.028 A 
ATOM     15  C   UNL A   1      32.827  20.898  23.879  1.00  0.00     0.000 A 
ATOM     16  C   UNL A   1      34.154  19.007  24.662  1.00  0.00     0.112 A 
ATOM     17  C   UNL A   1      32.103  20.042  23.023  1.00  0.00     0.017 A 
ATOM     18  C   UNL A   1      33.407  18.170  23.812  1.00  0.00     0.271 A 
ATOM     19  C   UNL A   1      32.410  18.679  22.979  1.00  0.00     0.086 A 
BRANCH  18  20
ATOM     20  N   UNL A   1      33.688  16.727  23.793  1.00  0.00     0.062 N 
ATOM     21  O   UNL A   1      33.380  16.066  24.794  1.00  0.00    -0.258 OA
ATOM     22  O   UNL A   1      34.239  16.260  22.786  1.00  0.00    -0.258 OA
ENDBRANCH  18  20
ENDBRANCH  10  11
ENDBRANCH   7  10
ENDBRANCH   4   7
ENDBRANCH   2   3
ENDBRANCH   1   2
BRANCH   1  23
ATOM     23  C   UNL A   1      41.991  19.681  27.129  1.00  0.00     0.118 C 
BRANCH  23  24
ATOM     24  N   UNL A   1      42.729  19.645  25.889  1.00  0.00    -0.352 N 
ATOM     25  C   UNL A   1      43.582  20.531  25.292  1.00  0.00     0.251 C 
ATOM     26  H   UNL A   1      42.590  18.819  25.372  1.00  0.00     0.163 HD
ATOM     27  O   UNL A   1      44.140  20.130  24.266  1.00  0.00    -0.269 OA
BRANCH  25  28
ATOM     28  C   UNL A   1      43.800  21.938  25.736  1.00  0.00     0.039 A 
ATOM     29  C   UNL A   1      44.614  22.356  26.794  1.00  0.00     0.014 A 
ATOM     30  C   UNL A   1      43.022  22.901  25.070  1.00  0.00     0.014 A 
ATOM     31  C   UNL A   1      44.506  23.646  27.295  1.00  0.00     0.010 A 
ATOM     32  C   UNL A   1      42.946  24.204  25.539  1.00  0.00     0.010 A 
ATOM     33  C   UNL A   1      43.615  24.542  26.710  1.00  0.00    -0.014 A 
BRANCH  33  34
ATOM     34  C   UNL A   1      43.397  25.825  27.366  1.00  0.00     0.031 A 
ATOM     35  C   UNL A   1      44.428  26.870  27.102  1.00  0.00     0.074 A 
ATOM     36  C   UNL A   1      42.286  26.061  28.094  1.00  0.00     0.049 A 
ATOM     37  N   UNL A   1      45.209  27.465  27.945  1.00  0.00    -0.248 NA
ATOM     38  C   UNL A   1      44.700  27.213  25.696  1.00  0.00     0.031 C 
ATOM     39  C   UNL A   1      41.086  25.228  28.236  1.00  0.00     0.029 A 
ATOM     40  N   UNL A   1      41.956  27.172  28.801  1.00  0.00    -0.354 N 
ATOM     41  C   UNL A   1      45.949  28.390  27.205  1.00  0.00     0.074 A 
ATOM     42  C   UNL A   1      45.689  28.099  25.819  1.00  0.00     0.031 C 
ATOM     43  C   UNL A   1      40.084  25.970  28.760  1.00  0.00     0.029 A 
ATOM     44  C   UNL A   1      40.610  27.272  29.129  1.00  0.00     0.049 A 
ATOM     45  H   UNL A   1      42.618  27.853  29.061  1.00  0.00     0.167 HD
ATOM     46  C   UNL A   1      46.595  29.443  27.783  1.00  0.00     0.037 A 
ATOM     47  C   UNL A   1      39.979  28.379  29.595  1.00  0.00     0.037 A 
ATOM     48  C   UNL A   1      46.751  29.258  29.200  1.00  0.00     0.049 A 
ATOM     49  C   UNL A   1      41.031  29.274  30.150  1.00  0.00     0.074 A 
ATOM     50  C   UNL A   1      47.435  28.351  29.986  1.00  0.00     0.029 A 
ATOM     51  N   UNL A   1      45.853  29.871  30.039  1.00  0.00    -0.354 N 
ATOM     52  N   UNL A   1      41.736  28.988  31.211  1.00  0.00    -0.248 NA
ATOM     53  C   UNL A   1      41.628  30.251  29.250  1.00  0.00     0.031 C 
ATOM     54  C   UNL A   1      46.577  28.109  31.099  1.00  0.00     0.029 A 
ATOM     55  C   UNL A   1      45.455  28.925  30.953  1.00  0.00     0.049 A 
ATOM     56  H   UNL A   1      45.552  30.807  29.994  1.00  0.00     0.167 HD
ATOM     57  C   UNL A   1      43.021  29.419  30.916  1.00  0.00     0.074 A 
ATOM     58  C   UNL A   1      42.879  30.248  29.719  1.00  0.00     0.031 C 
ATOM     59  C   UNL A   1      44.118  28.844  31.493  1.00  0.00     0.037 A 
BRANCH  46  60
ATOM     60  C   UNL A   1      46.822  30.777  27.117  1.00  0.00     0.058 A 
ATOM     61  C   UNL A   1      48.118  31.333  27.073  1.00  0.00     0.135 A 
ATOM     62  C   UNL A   1      45.770  31.653  26.770  1.00  0.00     0.135 A 
ATOM     63  F   UNL A   1      49.191  30.591  27.388  1.00  0.00    -0.206 F 
ATOM     64  C   UNL A   1      48.343  32.679  26.776  1.00  0.00     0.059 A 
ATOM     65  C   UNL A   1      45.977  32.984  26.422  1.00  0.00     0.059 A 
ATOM     66  F   UNL A   1      44.486  31.284  26.850  1.00  0.00    -0.206 F 
ATOM     67  C   UNL A   1      47.260  33.500  26.470  1.00  0.00     0.060 A 
BRANCH  67  68
ATOM     68  S   UNL A   1      47.536  35.264  26.222  1.00  0.00     0.124 S 
ATOM     69  O   UNL A   1      46.210  35.715  25.821  1.00  0.00    -0.237 OA
ATOM     70  O   UNL A   1      47.988  35.690  27.541  1.00  0.00    -0.237 OA
ATOM     71  O   UNL A   1      48.558  35.300  25.175  1.00  0.00    -0.744 OA
ENDBRANCH  67  68
ENDBRANCH  46  60
BRANCH  47  72
ATOM     72  C   UNL A   1      38.628  28.875  29.215  1.00  0.00     0.058 A 
ATOM     73  C   UNL A   1      37.636  29.100  30.186  1.00  0.00     0.135 A 
ATOM     74  C   UNL A   1      38.379  29.417  27.937  1.00  0.00     0.135 A 
ATOM     75  F   UNL A   1      37.798  28.636  31.434  1.00  0.00    -0.206 F 
ATOM     76  C   UNL A   1      36.492  29.864  29.922  1.00  0.00     0.059 A 
ATOM     77  C   UNL A   1      37.245  30.175  27.648  1.00  0.00     0.059 A 
ATOM     78  F   UNL A   1      39.282  29.308  26.950  1.00  0.00    -0.206 F 
ATOM     79  C   UNL A   1      36.319  30.420  28.655  1.00  0.00     0.060 A 
BRANCH  79  80
ATOM     80  S   UNL A   1      34.946  31.563  28.363  1.00  0.00     0.124 S 
ATOM     81  O   UNL A   1      35.576  32.589  27.539  1.00  0.00    -0.237 OA
ATOM     82  O   UNL A   1      33.975  30.708  27.688  1.00  0.00    -0.237 OA
ATOM     83  O   UNL A   1      34.568  31.989  29.709  1.00  0.00    -0.744 OA
ENDBRANCH  79  80
ENDBRANCH  47  72
BRANCH  59  84
ATOM     84  C   UNL A   1      43.895  27.872  32.626  1.00  0.00     0.058 A 
ATOM     85  C   UNL A   1      43.616  28.257  33.951  1.00  0.00     0.135 A 
ATOM     86  C   UNL A   1      43.820  26.505  32.332  1.00  0.00     0.135 A 
ATOM     87  F   UNL A   1      43.549  29.550  34.293  1.00  0.00    -0.206 F 
ATOM     88  C   UNL A   1      43.336  27.322  34.949  1.00  0.00     0.059 A 
ATOM     89  C   UNL A   1      43.509  25.555  33.304  1.00  0.00     0.059 A 
ATOM     90  F   UNL A   1      44.002  26.076  31.072  1.00  0.00    -0.206 F 
ATOM     91  C   UNL A   1      43.287  25.970  34.615  1.00  0.00     0.060 A 
BRANCH  91  92
ATOM     92  S   UNL A   1      42.873  24.764  35.895  1.00  0.00     0.124 S 
ATOM     93  O   UNL A   1      41.483  25.102  36.197  1.00  0.00    -0.237 OA
ATOM     94  O   UNL A   1      43.076  23.490  35.206  1.00  0.00    -0.237 OA
ATOM     95  O   UNL A   1      43.829  25.046  36.956  1.00  0.00    -0.744 OA
ENDBRANCH  91  92
ENDBRANCH  59  84
ENDBRANCH  33  34
ENDBRANCH  25  28
ENDBRANCH  23  24
ENDBRANCH   1  23
TORSDOF 16
ENDMDL
MODEL 2
REMARK VINA RESULT:     -12.7      3.407      6.619
REMARK SMILES CC(C)(Cn1ccc2ccc([N+](=O)[O-])cc21)C(=O)NCCCNC(=O)c1ccc(-c2c3nc(c(-c4c(F)cc(S(=O)(=O)[O-])cc4F)c4ccc([nH]4)c(-c4c(F)cc(S(=O)(=O)[O-])cc4F)c4nc(c(-c5c(F)cc(S(=O)(=O)[O-])cc5F)c5ccc2[nH]5)C=C4)C=C3)cc1
REMARK SMILES IDX 21 1 20 2 19 3 17 4 18 5 2 7 1 8 3 9 4 10 5 11 6 12 16 13
REMARK SMILES IDX 7 14 8 15 15 16 9 17 11 18 10 19 12 20 13 21 14 22 22 23
REMARK SMILES IDX 23 24 24 25 25 27 26 28 27 29 91 30 28 31 90 32 29 33 30 34
REMARK SMILES IDX 31 35 84 36 32 37 89 38 83 39 85 40 33 41 88 42 82 43 81 44
REMARK SMILES IDX 34 46 68 47 47 48 67 49 48 50 51 51 66 52 86 53 49 54 50 55
REMARK SMILES IDX 65 57 87 58 52 59 35 60 36 61 45 62 37 63 38 64 44 65 46 66
REMARK SMILES IDX 39 67 40 68 41 69 42 70 43 71 69 72 70 73 79 74 71 75 72 76
REMARK SMILES IDX 78 77 80 78 73 79 74 80 75 81 76 82 77 83 53 84 54 85 63 86
REMARK SMILES IDX 55 87 56 88 62 89 64 90 57 91 58 92 59 93 60 94 61 95
REMARK H PARENT 19 6 23 26 85 45 51 56
REMARK Flexibility Score: inf
ROOT
ATOM      1  C   UNL A   1      42.121  19.763  26.735  1.00  0.00     0.042 C 
ENDROOT
BRANCH   1   2
ATOM      2  C   UNL A   1      42.832  20.390  25.539  1.00  0.00     0.117 C 
BRANCH   2   3
ATOM      3  N   UNL A   1      44.280  20.254  25.580  1.00  0.00    -0.356 N 
ATOM      4  C   UNL A   1      45.326  21.090  25.373  1.00  0.00     0.227 C 
ATOM      5  O   UNL A   1      46.438  20.601  25.602  1.00  0.00    -0.274 OA
ATOM      6  H   UNL A   1      44.566  19.342  25.812  1.00  0.00     0.163 HD
BRANCH   4   7
ATOM      7  C   UNL A   1      45.180  22.537  24.879  1.00  0.00     0.061 C 
ATOM      8  C   UNL A   1      44.618  22.492  23.432  1.00  0.00     0.023 C 
ATOM      9  C   UNL A   1      46.559  23.214  24.715  1.00  0.00     0.023 C 
BRANCH   7  10
ATOM     10  C   UNL A   1      44.249  23.344  25.832  1.00  0.00     0.138 C 
BRANCH  10  11
ATOM     11  N   UNL A   1      44.927  24.161  26.845  1.00  0.00    -0.346 N 
ATOM     12  C   UNL A   1      45.001  23.813  28.175  1.00  0.00     0.087 A 
ATOM     13  C   UNL A   1      45.568  25.377  26.669  1.00  0.00     0.055 A 
ATOM     14  C   UNL A   1      45.933  24.625  28.776  1.00  0.00     0.028 A 
ATOM     15  C   UNL A   1      46.307  25.616  27.835  1.00  0.00     0.000 A 
ATOM     16  C   UNL A   1      45.582  26.295  25.607  1.00  0.00     0.112 A 
ATOM     17  C   UNL A   1      47.177  26.725  27.895  1.00  0.00     0.017 A 
ATOM     18  C   UNL A   1      46.445  27.402  25.696  1.00  0.00     0.271 A 
ATOM     19  C   UNL A   1      47.257  27.606  26.812  1.00  0.00     0.086 A 
BRANCH  18  20
ATOM     20  N   UNL A   1      46.502  28.363  24.585  1.00  0.00     0.062 N 
ATOM     21  O   UNL A   1      46.355  29.564  24.853  1.00  0.00    -0.258 OA
ATOM     22  O   UNL A   1      46.668  27.915  23.441  1.00  0.00    -0.258 OA
ENDBRANCH  18  20
ENDBRANCH  10  11
ENDBRANCH   7  10
ENDBRANCH   4   7
ENDBRANCH   2   3
ENDBRANCH   1   2
BRANCH   1  23
ATOM     23  C   UNL A   1      41.332  20.743  27.596  1.00  0.00     0.118 C 
BRANCH  23  24
ATOM     24  N   UNL A   1      40.122  21.205  26.959  1.00  0.00    -0.352 N 
ATOM     25  C   UNL A   1      39.667  22.450  26.625  1.00  0.00     0.251 C 
ATOM     26  H   UNL A   1      39.503  20.479  26.717  1.00  0.00     0.163 HD
ATOM     27  O   UNL A   1      38.619  22.482  25.974  1.00  0.00    -0.269 OA
BRANCH  25  28
ATOM     28  C   UNL A   1      40.289  23.732  27.066  1.00  0.00     0.039 A 
ATOM     29  C   UNL A   1      41.292  23.879  28.028  1.00  0.00     0.014 A 
ATOM     30  C   UNL A   1      39.720  24.893  26.511  1.00  0.00     0.014 A 
ATOM     31  C   UNL A   1      41.577  25.129  28.561  1.00  0.00     0.010 A 
ATOM     32  C   UNL A   1      40.035  26.149  27.008  1.00  0.00     0.010 A 
ATOM     33  C   UNL A   1      40.891  26.249  28.099  1.00  0.00    -0.014 A 
BRANCH  33  34
ATOM     34  C   UNL A   1      41.084  27.513  28.798  1.00  0.00     0.031 A 
ATOM     35  C   UNL A   1      42.231  28.343  28.329  1.00  0.00     0.074 A 
ATOM     36  C   UNL A   1      40.223  27.928  29.750  1.00  0.00     0.049 A 
ATOM     37  N   UNL A   1      43.277  28.724  28.989  1.00  0.00    -0.248 NA
ATOM     38  C   UNL A   1      42.269  28.699  26.900  1.00  0.00     0.031 C 
ATOM     39  C   UNL A   1      38.933  27.346  30.139  1.00  0.00     0.029 A 
ATOM     40  N   UNL A   1      40.285  29.044  30.522  1.00  0.00    -0.354 N 
ATOM     41  C   UNL A   1      44.022  29.520  28.115  1.00  0.00     0.074 A 
ATOM     42  C   UNL A   1      43.423  29.361  26.815  1.00  0.00     0.031 C 
ATOM     43  C   UNL A   1      38.238  28.244  30.873  1.00  0.00     0.029 A 
ATOM     44  C   UNL A   1      39.088  29.393  31.132  1.00  0.00     0.049 A 
ATOM     45  H   UNL A   1      41.113  29.563  30.640  1.00  0.00     0.167 HD
ATOM     46  C   UNL A   1      44.977  30.390  28.551  1.00  0.00     0.037 A 
ATOM     47  C   UNL A   1      38.811  30.578  31.733  1.00  0.00     0.037 A 
ATOM     48  C   UNL A   1      45.383  30.103  29.899  1.00  0.00     0.049 A 
ATOM     49  C   UNL A   1      40.117  31.213  32.056  1.00  0.00     0.074 A 
ATOM     50  C   UNL A   1      46.014  29.037  30.512  1.00  0.00     0.029 A 
ATOM     51  N   UNL A   1      44.826  30.838  30.917  1.00  0.00    -0.354 N 
ATOM     52  N   UNL A   1      40.953  30.737  32.939  1.00  0.00    -0.248 NA
ATOM     53  C   UNL A   1      40.702  32.097  31.058  1.00  0.00     0.031 C 
ATOM     54  C   UNL A   1      45.376  28.913  31.781  1.00  0.00     0.029 A 
ATOM     55  C   UNL A   1      44.441  29.944  31.886  1.00  0.00     0.049 A 
ATOM     56  H   UNL A   1      44.723  31.816  30.947  1.00  0.00     0.167 HD
ATOM     57  C   UNL A   1      42.209  30.916  32.378  1.00  0.00     0.074 A 
ATOM     58  C   UNL A   1      41.995  31.819  31.247  1.00  0.00     0.031 C 
ATOM     59  C   UNL A   1      43.259  30.103  32.701  1.00  0.00     0.037 A 
BRANCH  46  60
ATOM     60  C   UNL A   1      45.332  31.685  27.863  1.00  0.00     0.058 A 
ATOM     61  C   UNL A   1      46.647  31.903  27.403  1.00  0.00     0.135 A 
ATOM     62  C   UNL A   1      44.498  32.825  27.892  1.00  0.00     0.135 A 
ATOM     63  F   UNL A   1      47.525  30.891  27.339  1.00  0.00    -0.206 F 
ATOM     64  C   UNL A   1      47.118  33.174  27.066  1.00  0.00     0.059 A 
ATOM     65  C   UNL A   1      44.933  34.090  27.512  1.00  0.00     0.059 A 
ATOM     66  F   UNL A   1      43.254  32.780  28.385  1.00  0.00    -0.206 F 
ATOM     67  C   UNL A   1      46.255  34.265  27.142  1.00  0.00     0.060 A 
BRANCH  67  68
ATOM     68  S   UNL A   1      46.900  35.920  26.839  1.00  0.00     0.124 S 
ATOM     69  O   UNL A   1      47.572  36.209  28.099  1.00  0.00    -0.237 OA
ATOM     70  O   UNL A   1      47.764  35.704  25.685  1.00  0.00    -0.237 OA
ATOM     71  O   UNL A   1      45.695  36.706  26.573  1.00  0.00    -0.744 OA
ENDBRANCH  67  68
ENDBRANCH  46  60
BRANCH  47  72
ATOM     72  C   UNL A   1      37.543  31.354  31.656  1.00  0.00     0.058 A 
ATOM     73  C   UNL A   1      36.784  31.624  32.810  1.00  0.00     0.135 A 
ATOM     74  C   UNL A   1      37.205  32.095  30.505  1.00  0.00     0.135 A 
ATOM     75  F   UNL A   1      37.049  30.979  33.955  1.00  0.00    -0.206 F 
ATOM     76  C   UNL A   1      35.789  32.609  32.835  1.00  0.00     0.059 A 
ATOM     77  C   UNL A   1      36.213  33.075  30.504  1.00  0.00     0.059 A 
ATOM     78  F   UNL A   1      37.897  31.956  29.364  1.00  0.00    -0.206 F 
ATOM     79  C   UNL A   1      35.529  33.349  31.681  1.00  0.00     0.060 A 
BRANCH  79  80
ATOM     80  S   UNL A   1      34.383  34.747  31.759  1.00  0.00     0.124 S 
ATOM     81  O   UNL A   1      34.147  35.024  30.346  1.00  0.00    -0.237 OA
ATOM     82  O   UNL A   1      33.259  34.180  32.496  1.00  0.00    -0.237 OA
ATOM     83  O   UNL A   1      35.143  35.769  32.476  1.00  0.00    -0.744 OA
ENDBRANCH  79  80
ENDBRANCH  47  72
BRANCH  59  84
ATOM     84  C   UNL A   1      43.080  29.137  33.846  1.00  0.00     0.058 A 
ATOM     85  C   UNL A   1      43.259  29.479  35.200  1.00  0.00     0.135 A 
ATOM     86  C   UNL A   1      42.575  27.860  33.574  1.00  0.00     0.135 A 
ATOM     87  F   UNL A   1      43.624  30.717  35.556  1.00  0.00    -0.206 F 
ATOM     88  C   UNL A   1      43.002  28.572  36.231  1.00  0.00     0.059 A 
ATOM     89  C   UNL A   1      42.280  26.949  34.587  1.00  0.00     0.059 A 
ATOM     90  F   UNL A   1      42.312  27.496  32.308  1.00  0.00    -0.206 F 
ATOM     91  C   UNL A   1      42.515  27.306  35.914  1.00  0.00     0.060 A 
BRANCH  91  92
ATOM     92  S   UNL A   1      42.134  26.151  37.249  1.00  0.00     0.124 S 
ATOM     93  O   UNL A   1      43.191  26.443  38.217  1.00  0.00    -0.237 OA
ATOM     94  O   UNL A   1      40.787  26.559  37.646  1.00  0.00    -0.237 OA
ATOM     95  O   UNL A   1      42.217  24.846  36.610  1.00  0.00    -0.744 OA
ENDBRANCH  91  92
ENDBRANCH  59  84
ENDBRANCH  33  34
ENDBRANCH  25  28
ENDBRANCH  23  24
ENDBRANCH   1  23
TORSDOF 16
ENDMDL
MODEL 3
REMARK VINA RESULT:     -12.3      1.558      2.396
REMARK SMILES CC(C)(Cn1ccc2ccc([N+](=O)[O-])cc21)C(=O)NCCCNC(=O)c1ccc(-c2c3nc(c(-c4c(F)cc(S(=O)(=O)[O-])cc4F)c4ccc([nH]4)c(-c4c(F)cc(S(=O)(=O)[O-])cc4F)c4nc(c(-c5c(F)cc(S(=O)(=O)[O-])cc5F)c5ccc2[nH]5)C=C4)C=C3)cc1
REMARK SMILES IDX 21 1 20 2 19 3 17 4 18 5 2 7 1 8 3 9 4 10 5 11 6 12 16 13
REMARK SMILES IDX 7 14 8 15 15 16 9 17 11 18 10 19 12 20 13 21 14 22 22 23
REMARK SMILES IDX 23 24 24 25 25 27 26 28 27 29 91 30 28 31 90 32 29 33 30 34
REMARK SMILES IDX 31 35 84 36 32 37 89 38 83 39 85 40 33 41 88 42 82 43 81 44
REMARK SMILES IDX 34 46 68 47 47 48 67 49 48 50 51 51 66 52 86 53 49 54 50 55
REMARK SMILES IDX 65 57 87 58 52 59 35 60 36 61 45 62 37 63 38 64 44 65 46 66
REMARK SMILES IDX 39 67 40 68 41 69 42 70 43 71 69 72 70 73 79 74 71 75 72 76
REMARK SMILES IDX 78 77 80 78 73 79 74 80 75 81 76 82 77 83 53 84 54 85 63 86
REMARK SMILES IDX 55 87 56 88 62 89 64 90 57 91 58 92 59 93 60 94 61 95
REMARK H PARENT 19 6 23 26 85 45 51 56
REMARK Flexibility Score: inf
ROOT
ATOM      1  C   UNL A   1      41.080  20.946  27.278  1.00  0.00     0.042 C 
ENDROOT
BRANCH   1   2
ATOM      2  C   UNL A   1      39.967  21.032  26.237  1.00  0.00     0.117 C 
BRANCH   2   3
ATOM      3  N   UNL A   1      39.344  22.345  26.152  1.00  0.00    -0.356 N 
ATOM      4  C   UNL A   1      38.126  22.803  25.779  1.00  0.00     0.227 C 
ATOM      5  O   UNL A   1      37.953  24.016  25.941  1.00  0.00    -0.274 OA
ATOM      6  H   UNL A   1      39.951  23.068  26.430  1.00  0.00     0.163 HD
BRANCH   4   7
ATOM      7  C   UNL A   1      37.023  21.915  25.184  1.00  0.00     0.061 C 
ATOM      8  C   UNL A   1      37.673  20.573  24.750  1.00  0.00     0.023 C 
ATOM      9  C   UNL A   1      36.484  22.504  23.862  1.00  0.00     0.023 C 
BRANCH   7  10
ATOM     10  C   UNL A   1      35.885  21.693  26.225  1.00  0.00     0.138 C 
BRANCH  10  11
ATOM     11  N   UNL A   1      34.538  21.516  25.670  1.00  0.00    -0.346 N 
ATOM     12  C   UNL A   1      34.102  20.344  25.096  1.00  0.00     0.087 A 
ATOM     13  C   UNL A   1      33.515  22.449  25.606  1.00  0.00     0.055 A 
ATOM     14  C   UNL A   1      32.738  20.423  24.951  1.00  0.00     0.028 A 
ATOM     15  C   UNL A   1      32.349  21.746  25.276  1.00  0.00     0.000 A 
ATOM     16  C   UNL A   1      33.486  23.838  25.804  1.00  0.00     0.112 A 
ATOM     17  C   UNL A   1      31.107  22.417  25.270  1.00  0.00     0.017 A 
ATOM     18  C   UNL A   1      32.239  24.488  25.777  1.00  0.00     0.271 A 
ATOM     19  C   UNL A   1      31.056  23.787  25.542  1.00  0.00     0.086 A 
BRANCH  18  20
ATOM     20  N   UNL A   1      32.176  25.938  26.013  1.00  0.00     0.062 N 
ATOM     21  O   UNL A   1      32.805  26.676  25.241  1.00  0.00    -0.258 OA
ATOM     22  O   UNL A   1      31.519  26.338  26.985  1.00  0.00    -0.258 OA
ENDBRANCH  18  20
ENDBRANCH  10  11
ENDBRANCH   7  10
ENDBRANCH   4   7
ENDBRANCH   2   3
ENDBRANCH   1   2
BRANCH   1  23
ATOM     23  C   UNL A   1      41.976  19.719  27.156  1.00  0.00     0.118 C 
BRANCH  23  24
ATOM     24  N   UNL A   1      42.713  19.680  25.915  1.00  0.00    -0.352 N 
ATOM     25  C   UNL A   1      43.566  20.565  25.315  1.00  0.00     0.251 C 
ATOM     26  H   UNL A   1      42.574  18.853  25.400  1.00  0.00     0.163 HD
ATOM     27  O   UNL A   1      44.123  20.162  24.289  1.00  0.00    -0.269 OA
BRANCH  25  28
ATOM     28  C   UNL A   1      43.784  21.973  25.756  1.00  0.00     0.039 A 
ATOM     29  C   UNL A   1      44.595  22.393  26.814  1.00  0.00     0.014 A 
ATOM     30  C   UNL A   1      43.007  22.935  25.086  1.00  0.00     0.014 A 
ATOM     31  C   UNL A   1      44.487  23.685  27.312  1.00  0.00     0.010 A 
ATOM     32  C   UNL A   1      42.931  24.239  25.550  1.00  0.00     0.010 A 
ATOM     33  C   UNL A   1      43.598  24.580  26.722  1.00  0.00    -0.014 A 
BRANCH  33  34
ATOM     34  C   UNL A   1      43.379  25.865  27.374  1.00  0.00     0.031 A 
ATOM     35  C   UNL A   1      44.411  26.909  27.110  1.00  0.00     0.074 A 
ATOM     36  C   UNL A   1      42.266  26.104  28.099  1.00  0.00     0.049 A 
ATOM     37  N   UNL A   1      45.191  27.506  27.952  1.00  0.00    -0.248 NA
ATOM     38  C   UNL A   1      44.686  27.248  25.703  1.00  0.00     0.031 C 
ATOM     39  C   UNL A   1      41.065  25.271  28.240  1.00  0.00     0.029 A 
ATOM     40  N   UNL A   1      41.935  27.217  28.802  1.00  0.00    -0.354 N 
ATOM     41  C   UNL A   1      45.933  28.428  27.212  1.00  0.00     0.074 A 
ATOM     42  C   UNL A   1      45.676  28.133  25.825  1.00  0.00     0.031 C 
ATOM     43  C   UNL A   1      40.062  26.015  28.760  1.00  0.00     0.029 A 
ATOM     44  C   UNL A   1      40.589  27.318  29.126  1.00  0.00     0.049 A 
ATOM     45  H   UNL A   1      42.597  27.898  29.062  1.00  0.00     0.167 HD
ATOM     46  C   UNL A   1      46.577  29.482  27.789  1.00  0.00     0.037 A 
ATOM     47  C   UNL A   1      39.957  28.427  29.588  1.00  0.00     0.037 A 
ATOM     48  C   UNL A   1      46.730  29.301  29.206  1.00  0.00     0.049 A 
ATOM     49  C   UNL A   1      41.009  29.323  30.142  1.00  0.00     0.074 A 
ATOM     50  C   UNL A   1      47.412  28.396  29.997  1.00  0.00     0.029 A 
ATOM     51  N   UNL A   1      45.830  29.917  30.041  1.00  0.00    -0.354 N 
ATOM     52  N   UNL A   1      41.710  29.040  31.206  1.00  0.00    -0.248 NA
ATOM     53  C   UNL A   1      41.608  30.297  29.241  1.00  0.00     0.031 C 
ATOM     54  C   UNL A   1      46.552  28.158  31.108  1.00  0.00     0.029 A 
ATOM     55  C   UNL A   1      45.430  28.974  30.956  1.00  0.00     0.049 A 
ATOM     56  H   UNL A   1      45.530  30.853  29.993  1.00  0.00     0.167 HD
ATOM     57  C   UNL A   1      42.996  29.469  30.913  1.00  0.00     0.074 A 
ATOM     58  C   UNL A   1      42.858  30.294  29.713  1.00  0.00     0.031 C 
ATOM     59  C   UNL A   1      44.091  28.895  31.494  1.00  0.00     0.037 A 
BRANCH  46  60
ATOM     60  C   UNL A   1      46.807  30.814  27.119  1.00  0.00     0.058 A 
ATOM     61  C   UNL A   1      48.105  31.363  27.065  1.00  0.00     0.135 A 
ATOM     62  C   UNL A   1      45.757  31.696  26.778  1.00  0.00     0.135 A 
ATOM     63  F   UNL A   1      49.177  30.616  27.373  1.00  0.00    -0.206 F 
ATOM     64  C   UNL A   1      48.335  32.707  26.765  1.00  0.00     0.059 A 
ATOM     65  C   UNL A   1      45.969  33.025  26.427  1.00  0.00     0.059 A 
ATOM     66  F   UNL A   1      44.471  31.333  26.868  1.00  0.00    -0.206 F 
ATOM     67  C   UNL A   1      47.255  33.534  26.465  1.00  0.00     0.060 A 
BRANCH  67  68
ATOM     68  S   UNL A   1      47.539  35.297  26.213  1.00  0.00     0.124 S 
ATOM     69  O   UNL A   1      48.584  35.284  25.198  1.00  0.00    -0.237 OA
ATOM     70  O   UNL A   1      46.226  35.757  25.779  1.00  0.00    -0.237 OA
ATOM     71  O   UNL A   1      47.952  35.762  27.538  1.00  0.00    -0.744 OA
ENDBRANCH  67  68
ENDBRANCH  46  60
BRANCH  47  72
ATOM     72  C   UNL A   1      38.608  28.923  29.203  1.00  0.00     0.058 A 
ATOM     73  C   UNL A   1      37.617  29.165  30.173  1.00  0.00     0.135 A 
ATOM     74  C   UNL A   1      38.358  29.448  27.918  1.00  0.00     0.135 A 
ATOM     75  F   UNL A   1      37.781  28.718  31.427  1.00  0.00    -0.206 F 
ATOM     76  C   UNL A   1      36.476  29.930  29.899  1.00  0.00     0.059 A 
ATOM     77  C   UNL A   1      37.226  30.206  27.621  1.00  0.00     0.059 A 
ATOM     78  F   UNL A   1      39.258  29.322  26.931  1.00  0.00    -0.206 F 
ATOM     79  C   UNL A   1      36.303  30.469  28.625  1.00  0.00     0.060 A 
BRANCH  79  80
ATOM     80  S   UNL A   1      34.934  31.612  28.320  1.00  0.00     0.124 S 
ATOM     81  O   UNL A   1      33.993  30.770  27.589  1.00  0.00    -0.237 OA
ATOM     82  O   UNL A   1      34.539  31.984  29.675  1.00  0.00    -0.237 OA
ATOM     83  O   UNL A   1      35.552  32.681  27.539  1.00  0.00    -0.744 OA
ENDBRANCH  79  80
ENDBRANCH  47  72
BRANCH  59  84
ATOM     84  C   UNL A   1      43.865  27.927  32.629  1.00  0.00     0.058 A 
ATOM     85  C   UNL A   1      43.589  28.315  33.953  1.00  0.00     0.135 A 
ATOM     86  C   UNL A   1      43.785  26.559  32.339  1.00  0.00     0.135 A 
ATOM     87  F   UNL A   1      43.526  29.609  34.293  1.00  0.00    -0.206 F 
ATOM     88  C   UNL A   1      43.305  27.383  34.953  1.00  0.00     0.059 A 
ATOM     89  C   UNL A   1      43.472  25.612  33.312  1.00  0.00     0.059 A 
ATOM     90  F   UNL A   1      43.965  26.127  31.079  1.00  0.00    -0.206 F 
ATOM     91  C   UNL A   1      43.251  26.031  34.623  1.00  0.00     0.060 A 
BRANCH  91  92
ATOM     92  S   UNL A   1      42.834  24.829  35.905  1.00  0.00     0.124 S 
ATOM     93  O   UNL A   1      43.253  23.569  35.292  1.00  0.00    -0.237 OA
ATOM     94  O   UNL A   1      43.643  25.279  37.036  1.00  0.00    -0.237 OA
ATOM     95  O   UNL A   1      41.397  24.992  36.075  1.00  0.00    -0.744 OA
ENDBRANCH  91  92
ENDBRANCH  59  84
ENDBRANCH  33  34
ENDBRANCH  25  28
ENDBRANCH  23  24
ENDBRANCH   1  23
TORSDOF 16
ENDMDL
