MODEL 1
REMARK VINA RESULT:     -12.7      0.000      0.000
REMARK SMILES Cc1ccc2c(c1)OCCN2c1sc(C(=O)NCCCNC(=O)c2ccc(-c3c4nc(c(-c5c(F)cc(S(=O)(=O)[O-])cc5F)c5ccc([nH]5)c(-c5c(F)cc(S(=O)(=O)[O-])cc5F)c5nc(c(-c6c(F)cc(S(=O)(=O)[O-])cc6F)c6ccc3[nH]6)C=C5)C=C4)cc2)cc1C
REMARK SMILES IDX 20 1 19 2 18 3 17 4 15 5 16 6 14 8 12 9 13 10 91 11 90 12
REMARK SMILES IDX 92 13 11 14 1 15 2 16 3 17 7 18 4 19 6 20 5 21 8 22 9 23
REMARK SMILES IDX 10 24 21 25 22 26 23 28 24 29 25 30 89 31 26 32 88 33 27 34
REMARK SMILES IDX 28 35 29 36 82 37 30 38 87 39 81 40 83 41 31 42 86 43 80 44
REMARK SMILES IDX 79 45 32 47 66 48 45 49 65 50 46 51 49 52 64 53 84 54 47 55
REMARK SMILES IDX 48 56 63 58 85 59 50 60 33 61 34 62 43 63 35 64 36 65 42 66
REMARK SMILES IDX 44 67 37 68 38 69 39 70 40 71 41 72 67 73 68 74 77 75 69 76
REMARK SMILES IDX 70 77 76 78 78 79 71 80 72 81 73 82 74 83 75 84 51 85 52 86
REMARK SMILES IDX 61 87 53 88 54 89 60 90 62 91 55 92 56 93 57 94 58 95 59 96
REMARK H PARENT 17 7 21 27 83 46 49 57
REMARK Flexibility Score: inf
ROOT
ATOM      1  C   UNL A   1      38.102  24.221  26.264  1.00  0.00     0.118 C 
ENDROOT
BRANCH   1   2
ATOM      2  C   UNL A   1      37.250  23.163  25.565  1.00  0.00     0.042 C 
BRANCH   2   3
ATOM      3  C   UNL A   1      35.862  23.012  26.176  1.00  0.00     0.118 C 
BRANCH   3   4
ATOM      4  N   UNL A   1      35.013  22.169  25.354  1.00  0.00    -0.351 N 
ATOM      5  C   UNL A   1      33.974  22.430  24.496  1.00  0.00     0.261 C 
ATOM      6  O   UNL A   1      33.522  21.434  23.920  1.00  0.00    -0.268 OA
ATOM      7  H   UNL A   1      35.228  21.210  25.425  1.00  0.00     0.163 HD
BRANCH   5   8
ATOM      8  C   UNL A   1      33.473  23.763  24.198  1.00  0.00     0.094 A 
ATOM      9  C   UNL A   1      32.552  26.074  24.203  1.00  0.00     0.099 A 
ATOM     10  S   UNL A   1      32.307  24.622  25.090  1.00  0.00    -0.112 S 
ATOM     11  C   UNL A   1      33.294  25.822  23.058  1.00  0.00    -0.015 A 
ATOM     12  C   UNL A   1      33.815  24.488  23.070  1.00  0.00     0.031 A 
ATOM     13  C   UNL A   1      33.603  26.792  21.968  1.00  0.00     0.047 C 
BRANCH   9  14
ATOM     14  N   UNL A   1      32.017  27.269  24.584  1.00  0.00    -0.327 N 
ATOM     15  C   UNL A   1      34.437  31.275  27.956  1.00  0.00     0.044 C 
ATOM     16  C   UNL A   1      33.813  30.223  27.089  1.00  0.00    -0.047 A 
ATOM     17  C   UNL A   1      34.420  28.978  26.918  1.00  0.00     0.006 A 
ATOM     18  C   UNL A   1      32.623  30.488  26.407  1.00  0.00     0.052 A 
ATOM     19  C   UNL A   1      33.841  28.010  26.086  1.00  0.00     0.030 A 
ATOM     20  C   UNL A   1      32.045  29.518  25.580  1.00  0.00     0.143 A 
ATOM     21  C   UNL A   1      32.629  28.242  25.417  1.00  0.00     0.085 A 
ATOM     22  O   UNL A   1      30.885  29.912  24.949  1.00  0.00    -0.490 OA
ATOM     23  C   UNL A   1      30.541  29.059  23.852  1.00  0.00     0.251 C 
ATOM     24  C   UNL A   1      30.632  27.587  24.236  1.00  0.00     0.165 C 
ENDBRANCH   9  14
ENDBRANCH   5   8
ENDBRANCH   3   4
ENDBRANCH   2   3
ENDBRANCH   1   2
BRANCH   1  25
ATOM     25  N   UNL A   1      39.531  23.942  26.169  1.00  0.00    -0.352 N 
ATOM     26  C   UNL A   1      40.598  24.600  26.735  1.00  0.00     0.251 C 
ATOM     27  H   UNL A   1      39.768  23.165  25.614  1.00  0.00     0.163 HD
ATOM     28  O   UNL A   1      41.741  24.320  26.380  1.00  0.00    -0.269 OA
BRANCH  26  29
ATOM     29  C   UNL A   1      40.371  25.653  27.748  1.00  0.00     0.039 A 
ATOM     30  C   UNL A   1      41.160  26.804  27.766  1.00  0.00     0.014 A 
ATOM     31  C   UNL A   1      39.352  25.488  28.691  1.00  0.00     0.014 A 
ATOM     32  C   UNL A   1      41.045  27.702  28.821  1.00  0.00     0.010 A 
ATOM     33  C   UNL A   1      39.181  26.439  29.704  1.00  0.00     0.010 A 
ATOM     34  C   UNL A   1      40.058  27.530  29.805  1.00  0.00    -0.014 A 
BRANCH  34  35
ATOM     35  C   UNL A   1      39.975  28.501  30.927  1.00  0.00     0.031 A 
ATOM     36  C   UNL A   1      40.942  28.431  32.080  1.00  0.00     0.074 A 
ATOM     37  C   UNL A   1      39.068  29.498  30.865  1.00  0.00     0.049 A 
ATOM     38  N   UNL A   1      41.046  29.225  33.116  1.00  0.00    -0.248 NA
ATOM     39  C   UNL A   1      41.917  27.328  32.074  1.00  0.00     0.031 C 
ATOM     40  C   UNL A   1      38.085  29.673  29.794  1.00  0.00     0.029 A 
ATOM     41  N   UNL A   1      38.848  30.567  31.696  1.00  0.00    -0.354 N 
ATOM     42  C   UNL A   1      42.084  28.714  33.887  1.00  0.00     0.074 A 
ATOM     43  C   UNL A   1      42.558  27.523  33.219  1.00  0.00     0.031 C 
ATOM     44  C   UNL A   1      37.412  30.816  29.998  1.00  0.00     0.029 A 
ATOM     45  C   UNL A   1      37.872  31.423  31.243  1.00  0.00     0.049 A 
ATOM     46  H   UNL A   1      39.342  30.708  32.535  1.00  0.00     0.167 HD
ATOM     47  C   UNL A   1      42.604  29.205  35.038  1.00  0.00     0.037 A 
ATOM     48  C   UNL A   1      37.395  32.567  31.771  1.00  0.00     0.037 A 
ATOM     49  C   UNL A   1      42.144  30.405  35.687  1.00  0.00     0.049 A 
ATOM     50  C   UNL A   1      37.967  33.070  33.064  1.00  0.00     0.074 A 
ATOM     51  C   UNL A   1      42.615  30.987  36.851  1.00  0.00     0.029 A 
ATOM     52  N   UNL A   1      41.114  31.212  35.225  1.00  0.00    -0.354 N 
ATOM     53  N   UNL A   1      38.944  32.569  33.781  1.00  0.00    -0.248 NA
ATOM     54  C   UNL A   1      37.365  34.286  33.630  1.00  0.00     0.031 C 
ATOM     55  C   UNL A   1      41.847  32.127  37.113  1.00  0.00     0.029 A 
ATOM     56  C   UNL A   1      40.925  32.278  36.090  1.00  0.00     0.049 A 
ATOM     57  H   UNL A   1      40.594  31.051  34.405  1.00  0.00     0.167 HD
ATOM     58  C   UNL A   1      39.083  33.413  34.876  1.00  0.00     0.074 A 
ATOM     59  C   UNL A   1      38.100  34.467  34.719  1.00  0.00     0.031 C 
ATOM     60  C   UNL A   1      39.942  33.318  35.920  1.00  0.00     0.037 A 
BRANCH  47  61
ATOM     61  C   UNL A   1      43.733  28.445  35.680  1.00  0.00     0.058 A 
ATOM     62  C   UNL A   1      45.074  28.732  35.380  1.00  0.00     0.135 A 
ATOM     63  C   UNL A   1      43.474  27.467  36.654  1.00  0.00     0.135 A 
ATOM     64  F   UNL A   1      45.377  29.647  34.445  1.00  0.00    -0.206 F 
ATOM     65  C   UNL A   1      46.119  28.066  36.014  1.00  0.00     0.059 A 
ATOM     66  C   UNL A   1      44.504  26.805  37.316  1.00  0.00     0.059 A 
ATOM     67  F   UNL A   1      42.210  27.154  36.977  1.00  0.00    -0.206 F 
ATOM     68  C   UNL A   1      45.823  27.105  36.982  1.00  0.00     0.060 A 
BRANCH  68  69
ATOM     69  S   UNL A   1      47.193  26.267  37.809  1.00  0.00     0.124 S 
ATOM     70  O   UNL A   1      47.986  27.399  38.279  1.00  0.00    -0.237 OA
ATOM     71  O   UNL A   1      46.509  25.499  38.844  1.00  0.00    -0.237 OA
ATOM     72  O   UNL A   1      47.801  25.476  36.743  1.00  0.00    -0.744 OA
ENDBRANCH  68  69
ENDBRANCH  47  61
BRANCH  48  73
ATOM     73  C   UNL A   1      36.320  33.311  31.063  1.00  0.00     0.058 A 
ATOM     74  C   UNL A   1      35.011  33.341  31.564  1.00  0.00     0.135 A 
ATOM     75  C   UNL A   1      36.591  34.041  29.896  1.00  0.00     0.135 A 
ATOM     76  F   UNL A   1      34.703  32.652  32.675  1.00  0.00    -0.206 F 
ATOM     77  C   UNL A   1      34.006  34.066  30.934  1.00  0.00     0.059 A 
ATOM     78  C   UNL A   1      35.609  34.794  29.260  1.00  0.00     0.059 A 
ATOM     79  F   UNL A   1      37.831  34.057  29.384  1.00  0.00    -0.206 F 
ATOM     80  C   UNL A   1      34.316  34.795  29.784  1.00  0.00     0.060 A 
BRANCH  80  81
ATOM     81  S   UNL A   1      33.021  35.786  29.011  1.00  0.00     0.124 S 
ATOM     82  O   UNL A   1      33.803  36.816  28.336  1.00  0.00    -0.237 OA
ATOM     83  O   UNL A   1      32.366  34.812  28.144  1.00  0.00    -0.237 OA
ATOM     84  O   UNL A   1      32.223  36.241  30.145  1.00  0.00    -0.744 OA
ENDBRANCH  80  81
ENDBRANCH  48  73
BRANCH  60  85
ATOM     85  C   UNL A   1      39.872  34.387  36.972  1.00  0.00     0.058 A 
ATOM     86  C   UNL A   1      40.634  35.561  36.872  1.00  0.00     0.135 A 
ATOM     87  C   UNL A   1      38.981  34.270  38.051  1.00  0.00     0.135 A 
ATOM     88  F   UNL A   1      41.506  35.718  35.863  1.00  0.00    -0.206 F 
ATOM     89  C   UNL A   1      40.522  36.580  37.812  1.00  0.00     0.059 A 
ATOM     90  C   UNL A   1      38.837  35.286  38.990  1.00  0.00     0.059 A 
ATOM     91  F   UNL A   1      38.225  33.169  38.186  1.00  0.00    -0.206 F 
ATOM     92  C   UNL A   1      39.616  36.435  38.865  1.00  0.00     0.060 A 
BRANCH  92  93
ATOM     93  S   UNL A   1      39.444  37.789  40.047  1.00  0.00     0.124 S 
ATOM     94  O   UNL A   1      38.231  38.444  39.568  1.00  0.00    -0.237 OA
ATOM     95  O   UNL A   1      39.322  37.081  41.317  1.00  0.00    -0.237 OA
ATOM     96  O   UNL A   1      40.678  38.549  39.875  1.00  0.00    -0.744 OA
ENDBRANCH  92  93
ENDBRANCH  60  85
ENDBRANCH  34  35
ENDBRANCH  26  29
ENDBRANCH   1  25
TORSDOF 14
ENDMDL
MODEL 2
REMARK VINA RESULT:     -12.5      6.526     12.224
REMARK SMILES Cc1ccc2c(c1)OCCN2c1sc(C(=O)NCCCNC(=O)c2ccc(-c3c4nc(c(-c5c(F)cc(S(=O)(=O)[O-])cc5F)c5ccc([nH]5)c(-c5c(F)cc(S(=O)(=O)[O-])cc5F)c5nc(c(-c6c(F)cc(S(=O)(=O)[O-])cc6F)c6ccc3[nH]6)C=C5)C=C4)cc2)cc1C
REMARK SMILES IDX 20 1 19 2 18 3 17 4 15 5 16 6 14 8 12 9 13 10 91 11 90 12
REMARK SMILES IDX 92 13 11 14 1 15 2 16 3 17 7 18 4 19 6 20 5 21 8 22 9 23
REMARK SMILES IDX 10 24 21 25 22 26 23 28 24 29 25 30 89 31 26 32 88 33 27 34
REMARK SMILES IDX 28 35 29 36 82 37 30 38 87 39 81 40 83 41 31 42 86 43 80 44
REMARK SMILES IDX 79 45 32 47 66 48 45 49 65 50 46 51 49 52 64 53 84 54 47 55
REMARK SMILES IDX 48 56 63 58 85 59 50 60 33 61 34 62 43 63 35 64 36 65 42 66
REMARK SMILES IDX 44 67 37 68 38 69 39 70 40 71 41 72 67 73 68 74 77 75 69 76
REMARK SMILES IDX 70 77 76 78 78 79 71 80 72 81 73 82 74 83 75 84 51 85 52 86
REMARK SMILES IDX 61 87 53 88 54 89 60 90 62 91 55 92 56 93 57 94 58 95 59 96
REMARK H PARENT 17 7 21 27 83 46 49 57
REMARK Flexibility Score: inf
ROOT
ATOM      1  C   UNL A   1      35.435  30.881  28.051  1.00  0.00     0.118 C 
ENDROOT
BRANCH   1   2
ATOM      2  C   UNL A   1      34.158  30.304  27.442  1.00  0.00     0.042 C 
BRANCH   2   3
ATOM      3  C   UNL A   1      34.427  29.250  26.375  1.00  0.00     0.118 C 
BRANCH   3   4
ATOM      4  N   UNL A   1      33.498  29.372  25.266  1.00  0.00    -0.351 N 
ATOM      5  C   UNL A   1      32.809  28.457  24.510  1.00  0.00     0.261 C 
ATOM      6  O   UNL A   1      32.051  28.955  23.669  1.00  0.00    -0.268 OA
ATOM      7  H   UNL A   1      33.324  30.305  25.004  1.00  0.00     0.163 HD
BRANCH   5   8
ATOM      8  C   UNL A   1      32.873  27.017  24.706  1.00  0.00     0.094 A 
ATOM      9  C   UNL A   1      33.443  24.597  24.799  1.00  0.00     0.099 A 
ATOM     10  S   UNL A   1      33.673  25.901  23.701  1.00  0.00    -0.112 S 
ATOM     11  C   UNL A   1      32.515  24.942  25.772  1.00  0.00    -0.015 A 
ATOM     12  C   UNL A   1      32.198  26.337  25.704  1.00  0.00     0.031 A 
ATOM     13  C   UNL A   1      31.951  24.043  26.820  1.00  0.00     0.047 C 
BRANCH   9  14
ATOM     14  N   UNL A   1      34.062  23.391  24.651  1.00  0.00    -0.327 N 
ATOM     15  C   UNL A   1      39.416  21.983  26.268  1.00  0.00     0.044 C 
ATOM     16  C   UNL A   1      38.030  22.363  25.843  1.00  0.00    -0.047 A 
ATOM     17  C   UNL A   1      37.590  23.685  25.917  1.00  0.00     0.006 A 
ATOM     18  C   UNL A   1      37.139  21.384  25.394  1.00  0.00     0.052 A 
ATOM     19  C   UNL A   1      36.284  24.025  25.539  1.00  0.00     0.030 A 
ATOM     20  C   UNL A   1      35.836  21.727  25.015  1.00  0.00     0.143 A 
ATOM     21  C   UNL A   1      35.383  23.065  25.055  1.00  0.00     0.085 A 
ATOM     22  O   UNL A   1      35.052  20.668  24.612  1.00  0.00    -0.490 OA
ATOM     23  C   UNL A   1      33.659  20.993  24.596  1.00  0.00     0.251 C 
ATOM     24  C   UNL A   1      33.401  22.324  23.900  1.00  0.00     0.165 C 
ENDBRANCH   9  14
ENDBRANCH   5   8
ENDBRANCH   3   4
ENDBRANCH   2   3
ENDBRANCH   1   2
BRANCH   1  25
ATOM     25  N   UNL A   1      35.429  30.836  29.510  1.00  0.00    -0.352 N 
ATOM     26  C   UNL A   1      36.336  30.277  30.378  1.00  0.00     0.251 C 
ATOM     27  H   UNL A   1      34.657  31.272  29.937  1.00  0.00     0.163 HD
ATOM     28  O   UNL A   1      36.055  30.182  31.571  1.00  0.00    -0.269 OA
BRANCH  26  29
ATOM     29  C   UNL A   1      37.633  29.773  29.878  1.00  0.00     0.039 A 
ATOM     30  C   UNL A   1      38.567  29.218  30.755  1.00  0.00     0.014 A 
ATOM     31  C   UNL A   1      37.919  29.854  28.512  1.00  0.00     0.014 A 
ATOM     32  C   UNL A   1      39.841  28.904  30.297  1.00  0.00     0.010 A 
ATOM     33  C   UNL A   1      39.175  29.455  28.038  1.00  0.00     0.010 A 
ATOM     34  C   UNL A   1      40.163  29.022  28.935  1.00  0.00    -0.014 A 
BRANCH  34  35
ATOM     35  C   UNL A   1      41.541  28.693  28.484  1.00  0.00     0.031 A 
ATOM     36  C   UNL A   1      42.641  29.719  28.556  1.00  0.00     0.074 A 
ATOM     37  C   UNL A   1      41.814  27.436  28.078  1.00  0.00     0.049 A 
ATOM     38  N   UNL A   1      43.908  29.590  28.252  1.00  0.00    -0.248 NA
ATOM     39  C   UNL A   1      42.275  31.065  29.024  1.00  0.00     0.031 C 
ATOM     40  C   UNL A   1      40.833  26.354  27.975  1.00  0.00     0.029 A 
ATOM     41  N   UNL A   1      42.997  26.845  27.713  1.00  0.00    -0.354 N 
ATOM     42  C   UNL A   1      44.486  30.833  28.481  1.00  0.00     0.074 A 
ATOM     43  C   UNL A   1      43.427  31.715  28.918  1.00  0.00     0.031 C 
ATOM     44  C   UNL A   1      41.463  25.219  27.638  1.00  0.00     0.029 A 
ATOM     45  C   UNL A   1      42.881  25.503  27.442  1.00  0.00     0.049 A 
ATOM     46  H   UNL A   1      43.849  27.336  27.653  1.00  0.00     0.167 HD
ATOM     47  C   UNL A   1      45.785  31.199  28.354  1.00  0.00     0.037 A 
ATOM     48  C   UNL A   1      43.808  24.599  27.070  1.00  0.00     0.037 A 
ATOM     49  C   UNL A   1      46.839  30.310  27.942  1.00  0.00     0.049 A 
ATOM     50  C   UNL A   1      45.234  25.040  26.906  1.00  0.00     0.074 A 
ATOM     51  C   UNL A   1      48.187  30.586  27.795  1.00  0.00     0.029 A 
ATOM     52  N   UNL A   1      46.669  28.971  27.620  1.00  0.00    -0.354 N 
ATOM     53  N   UNL A   1      45.759  26.222  27.122  1.00  0.00    -0.248 NA
ATOM     54  C   UNL A   1      46.193  24.030  26.436  1.00  0.00     0.031 C 
ATOM     55  C   UNL A   1      48.827  29.425  27.349  1.00  0.00     0.029 A 
ATOM     56  C   UNL A   1      47.884  28.413  27.259  1.00  0.00     0.049 A 
ATOM     57  H   UNL A   1      45.811  28.489  27.644  1.00  0.00     0.167 HD
ATOM     58  C   UNL A   1      47.110  26.097  26.824  1.00  0.00     0.074 A 
ATOM     59  C   UNL A   1      47.326  24.719  26.430  1.00  0.00     0.031 C 
ATOM     60  C   UNL A   1      48.082  27.040  26.869  1.00  0.00     0.037 A 
BRANCH  47  61
ATOM     61  C   UNL A   1      46.146  32.626  28.663  1.00  0.00     0.058 A 
ATOM     62  C   UNL A   1      46.523  33.025  29.955  1.00  0.00     0.135 A 
ATOM     63  C   UNL A   1      46.180  33.592  27.643  1.00  0.00     0.135 A 
ATOM     64  F   UNL A   1      46.492  32.146  30.970  1.00  0.00    -0.206 F 
ATOM     65  C   UNL A   1      46.909  34.334  30.228  1.00  0.00     0.059 A 
ATOM     66  C   UNL A   1      46.585  34.901  27.889  1.00  0.00     0.059 A 
ATOM     67  F   UNL A   1      45.829  33.263  26.390  1.00  0.00    -0.206 F 
ATOM     68  C   UNL A   1      46.939  35.264  29.187  1.00  0.00     0.060 A 
BRANCH  68  69
ATOM     69  S   UNL A   1      47.463  36.953  29.557  1.00  0.00     0.124 S 
ATOM     70  O   UNL A   1      47.459  36.946  31.017  1.00  0.00    -0.237 OA
ATOM     71  O   UNL A   1      48.778  37.015  28.929  1.00  0.00    -0.237 OA
ATOM     72  O   UNL A   1      46.432  37.774  28.932  1.00  0.00    -0.744 OA
ENDBRANCH  68  69
ENDBRANCH  47  61
BRANCH  48  73
ATOM     73  C   UNL A   1      43.408  23.187  26.838  1.00  0.00     0.058 A 
ATOM     74  C   UNL A   1      43.353  22.655  25.542  1.00  0.00     0.135 A 
ATOM     75  C   UNL A   1      43.113  22.330  27.910  1.00  0.00     0.135 A 
ATOM     76  F   UNL A   1      43.620  23.438  24.484  1.00  0.00    -0.206 F 
ATOM     77  C   UNL A   1      43.018  21.325  25.314  1.00  0.00     0.059 A 
ATOM     78  C   UNL A   1      42.800  20.990  27.710  1.00  0.00     0.059 A 
ATOM     79  F   UNL A   1      43.166  22.787  29.171  1.00  0.00    -0.206 F 
ATOM     80  C   UNL A   1      42.748  20.498  26.406  1.00  0.00     0.060 A 
BRANCH  80  81
ATOM     81  S   UNL A   1      42.380  18.756  26.104  1.00  0.00     0.124 S 
ATOM     82  O   UNL A   1      42.607  18.176  27.422  1.00  0.00    -0.237 OA
ATOM     83  O   UNL A   1      40.991  18.809  25.659  1.00  0.00    -0.237 OA
ATOM     84  O   UNL A   1      43.346  18.382  25.075  1.00  0.00    -0.744 OA
ENDBRANCH  80  81
ENDBRANCH  48  73
BRANCH  60  85
ATOM     85  C   UNL A   1      49.474  26.618  26.493  1.00  0.00     0.058 A 
ATOM     86  C   UNL A   1      50.326  26.004  27.424  1.00  0.00     0.135 A 
ATOM     87  C   UNL A   1      49.932  26.761  25.174  1.00  0.00     0.135 A 
ATOM     88  F   UNL A   1      49.938  25.852  28.700  1.00  0.00    -0.206 F 
ATOM     89  C   UNL A   1      51.591  25.554  27.060  1.00  0.00     0.059 A 
ATOM     90  C   UNL A   1      51.184  26.298  24.783  1.00  0.00     0.059 A 
ATOM     91  F   UNL A   1      49.150  27.335  24.246  1.00  0.00    -0.206 F 
ATOM     92  C   UNL A   1      52.009  25.701  25.736  1.00  0.00     0.060 A 
BRANCH  92  93
ATOM     93  S   UNL A   1      53.632  25.064  25.268  1.00  0.00     0.124 S 
ATOM     94  O   UNL A   1      54.469  25.566  26.353  1.00  0.00    -0.237 OA
ATOM     95  O   UNL A   1      53.409  23.622  25.255  1.00  0.00    -0.237 OA
ATOM     96  O   UNL A   1      53.870  25.668  23.961  1.00  0.00    -0.744 OA
ENDBRANCH  92  93
ENDBRANCH  60  85
ENDBRANCH  34  35
ENDBRANCH  26  29
ENDBRANCH   1  25
TORSDOF 14
ENDMDL
MODEL 3
REMARK VINA RESULT:     -12.5      0.396      8.275
REMARK SMILES Cc1ccc2c(c1)OCCN2c1sc(C(=O)NCCCNC(=O)c2ccc(-c3c4nc(c(-c5c(F)cc(S(=O)(=O)[O-])cc5F)c5ccc([nH]5)c(-c5c(F)cc(S(=O)(=O)[O-])cc5F)c5nc(c(-c6c(F)cc(S(=O)(=O)[O-])cc6F)c6ccc3[nH]6)C=C5)C=C4)cc2)cc1C
REMARK SMILES IDX 20 1 19 2 18 3 17 4 15 5 16 6 14 8 12 9 13 10 91 11 90 12
REMARK SMILES IDX 92 13 11 14 1 15 2 16 3 17 7 18 4 19 6 20 5 21 8 22 9 23
REMARK SMILES IDX 10 24 21 25 22 26 23 28 24 29 25 30 89 31 26 32 88 33 27 34
REMARK SMILES IDX 28 35 29 36 82 37 30 38 87 39 81 40 83 41 31 42 86 43 80 44
REMARK SMILES IDX 79 45 32 47 66 48 45 49 65 50 46 51 49 52 64 53 84 54 47 55
REMARK SMILES IDX 48 56 63 58 85 59 50 60 33 61 34 62 43 63 35 64 36 65 42 66
REMARK SMILES IDX 44 67 37 68 38 69 39 70 40 71 41 72 67 73 68 74 77 75 69 76
REMARK SMILES IDX 70 77 76 78 78 79 71 80 72 81 73 82 74 83 75 84 51 85 52 86
REMARK SMILES IDX 61 87 53 88 54 89 60 90 62 91 55 92 56 93 57 94 58 95 59 96
REMARK H PARENT 17 7 21 27 83 46 49 57
REMARK Flexibility Score: inf
ROOT
ATOM      1  C   UNL A   1      38.251  24.188  26.373  1.00  0.00     0.118 C 
ENDROOT
BRANCH   1   2
ATOM      2  C   UNL A   1      37.378  23.194  25.610  1.00  0.00     0.042 C 
BRANCH   2   3
ATOM      3  C   UNL A   1      35.963  23.088  26.169  1.00  0.00     0.118 C 
BRANCH   3   4
ATOM      4  N   UNL A   1      35.127  22.247  25.332  1.00  0.00    -0.351 N 
ATOM      5  C   UNL A   1      34.091  22.507  24.471  1.00  0.00     0.261 C 
ATOM      6  O   UNL A   1      33.652  21.513  23.881  1.00  0.00    -0.268 OA
ATOM      7  H   UNL A   1      35.351  21.289  25.394  1.00  0.00     0.163 HD
BRANCH   5   8
ATOM      8  C   UNL A   1      33.579  23.839  24.185  1.00  0.00     0.094 A 
ATOM      9  C   UNL A   1      32.648  26.146  24.213  1.00  0.00     0.099 A 
ATOM     10  S   UNL A   1      32.426  24.691  25.102  1.00  0.00    -0.112 S 
ATOM     11  C   UNL A   1      33.369  25.898  23.053  1.00  0.00    -0.015 A 
ATOM     12  C   UNL A   1      33.896  24.567  23.052  1.00  0.00     0.031 A 
ATOM     13  C   UNL A   1      33.652  26.872  21.958  1.00  0.00     0.047 C 
BRANCH   9  14
ATOM     14  N   UNL A   1      32.116  27.338  24.606  1.00  0.00    -0.327 N 
ATOM     15  C   UNL A   1      34.530  31.286  28.049  1.00  0.00     0.044 C 
ATOM     16  C   UNL A   1      33.908  30.249  27.163  1.00  0.00    -0.047 A 
ATOM     17  C   UNL A   1      34.510  29.004  26.979  1.00  0.00     0.006 A 
ATOM     18  C   UNL A   1      32.723  30.529  26.477  1.00  0.00     0.052 A 
ATOM     19  C   UNL A   1      33.933  28.050  26.130  1.00  0.00     0.030 A 
ATOM     20  C   UNL A   1      32.147  29.573  25.632  1.00  0.00     0.143 A 
ATOM     21  C   UNL A   1      32.726  28.296  25.456  1.00  0.00     0.085 A 
ATOM     22  O   UNL A   1      30.992  29.980  24.999  1.00  0.00    -0.490 OA
ATOM     23  C   UNL A   1      30.653  29.144  23.889  1.00  0.00     0.251 C 
ATOM     24  C   UNL A   1      30.734  27.666  24.253  1.00  0.00     0.165 C 
ENDBRANCH   9  14
ENDBRANCH   5   8
ENDBRANCH   3   4
ENDBRANCH   2   3
ENDBRANCH   1   2
BRANCH   1  25
ATOM     25  N   UNL A   1      39.676  23.971  26.145  1.00  0.00    -0.352 N 
ATOM     26  C   UNL A   1      40.759  24.697  26.580  1.00  0.00     0.251 C 
ATOM     27  H   UNL A   1      39.896  23.184  25.596  1.00  0.00     0.163 HD
ATOM     28  O   UNL A   1      41.875  24.456  26.124  1.00  0.00    -0.269 OA
BRANCH  26  29
ATOM     29  C   UNL A   1      40.581  25.777  27.575  1.00  0.00     0.039 A 
ATOM     30  C   UNL A   1      41.355  26.937  27.511  1.00  0.00     0.014 A 
ATOM     31  C   UNL A   1      39.625  25.629  28.583  1.00  0.00     0.014 A 
ATOM     32  C   UNL A   1      41.293  27.865  28.544  1.00  0.00     0.010 A 
ATOM     33  C   UNL A   1      39.503  26.607  29.577  1.00  0.00     0.010 A 
ATOM     34  C   UNL A   1      40.370  27.711  29.592  1.00  0.00    -0.014 A 
BRANCH  34  35
ATOM     35  C   UNL A   1      40.343  28.714  30.689  1.00  0.00     0.031 A 
ATOM     36  C   UNL A   1      39.332  29.830  30.688  1.00  0.00     0.074 A 
ATOM     37  C   UNL A   1      41.189  28.569  31.729  1.00  0.00     0.049 A 
ATOM     38  N   UNL A   1      39.134  30.762  31.586  1.00  0.00    -0.248 NA
ATOM     39  C   UNL A   1      38.428  29.917  29.530  1.00  0.00     0.031 C 
ATOM     40  C   UNL A   1      42.207  27.523  31.846  1.00  0.00     0.029 A 
ATOM     41  N   UNL A   1      41.307  29.277  32.899  1.00  0.00    -0.354 N 
ATOM     42  C   UNL A   1      38.096  31.548  31.100  1.00  0.00     0.074 A 
ATOM     43  C   UNL A   1      37.725  31.007  29.811  1.00  0.00     0.031 C 
ATOM     44  C   UNL A   1      42.798  27.616  33.046  1.00  0.00     0.029 A 
ATOM     45  C   UNL A   1      42.247  28.763  33.760  1.00  0.00     0.049 A 
ATOM     46  H   UNL A   1      40.768  30.075  33.103  1.00  0.00     0.167 HD
ATOM     47  C   UNL A   1      37.496  32.614  31.684  1.00  0.00     0.037 A 
ATOM     48  C   UNL A   1      42.630  29.171  34.985  1.00  0.00     0.037 A 
ATOM     49  C   UNL A   1      37.852  33.134  32.978  1.00  0.00     0.049 A 
ATOM     50  C   UNL A   1      41.971  30.374  35.595  1.00  0.00     0.074 A 
ATOM     51  C   UNL A   1      37.295  34.203  33.658  1.00  0.00     0.029 A 
ATOM     52  N   UNL A   1      38.850  32.620  33.793  1.00  0.00    -0.354 N 
ATOM     53  N   UNL A   1      40.995  31.107  35.116  1.00  0.00    -0.248 NA
ATOM     54  C   UNL A   1      42.471  30.815  36.904  1.00  0.00     0.031 C 
ATOM     55  C   UNL A   1      37.979  34.358  34.868  1.00  0.00     0.029 A 
ATOM     56  C   UNL A   1      38.935  33.360  34.961  1.00  0.00     0.049 A 
ATOM     57  H   UNL A   1      39.415  31.844  33.574  1.00  0.00     0.167 HD
ATOM     58  C   UNL A   1      40.757  32.090  36.069  1.00  0.00     0.074 A 
ATOM     59  C   UNL A   1      41.679  31.848  37.160  1.00  0.00     0.031 C 
ATOM     60  C   UNL A   1      39.859  33.105  36.038  1.00  0.00     0.037 A 
BRANCH  47  61
ATOM     61  C   UNL A   1      36.388  33.297  30.930  1.00  0.00     0.058 A 
ATOM     62  C   UNL A   1      35.046  33.174  31.325  1.00  0.00     0.135 A 
ATOM     63  C   UNL A   1      36.676  34.139  29.843  1.00  0.00     0.135 A 
ATOM     64  F   UNL A   1      34.714  32.370  32.348  1.00  0.00    -0.206 F 
ATOM     65  C   UNL A   1      34.028  33.849  30.660  1.00  0.00     0.059 A 
ATOM     66  C   UNL A   1      35.675  34.842  29.177  1.00  0.00     0.059 A 
ATOM     67  F   UNL A   1      37.942  34.292  29.424  1.00  0.00    -0.206 F 
ATOM     68  C   UNL A   1      34.353  34.683  29.588  1.00  0.00     0.060 A 
BRANCH  68  69
ATOM     69  S   UNL A   1      33.019  35.568  28.751  1.00  0.00     0.124 S 
ATOM     70  O   UNL A   1      33.763  36.577  28.003  1.00  0.00    -0.237 OA
ATOM     71  O   UNL A   1      32.401  34.515  27.952  1.00  0.00    -0.237 OA
ATOM     72  O   UNL A   1      32.205  36.077  29.851  1.00  0.00    -0.744 OA
ENDBRANCH  68  69
ENDBRANCH  47  61
BRANCH  48  73
ATOM     73  C   UNL A   1      43.688  28.421  35.713  1.00  0.00     0.058 A 
ATOM     74  C   UNL A   1      45.043  28.733  35.540  1.00  0.00     0.135 A 
ATOM     75  C   UNL A   1      43.360  27.407  36.627  1.00  0.00     0.135 A 
ATOM     76  F   UNL A   1      45.405  29.692  34.672  1.00  0.00    -0.206 F 
ATOM     77  C   UNL A   1      46.039  28.066  36.245  1.00  0.00     0.059 A 
ATOM     78  C   UNL A   1      44.336  26.743  37.362  1.00  0.00     0.059 A 
ATOM     79  F   UNL A   1      42.076  27.081  36.839  1.00  0.00    -0.206 F 
ATOM     80  C   UNL A   1      45.675  27.076  37.158  1.00  0.00     0.060 A 
BRANCH  80  81
ATOM     81  S   UNL A   1      46.971  26.262  38.117  1.00  0.00     0.124 S 
ATOM     82  O   UNL A   1      47.480  25.290  37.158  1.00  0.00    -0.237 OA
ATOM     83  O   UNL A   1      47.862  27.374  38.433  1.00  0.00    -0.237 OA
ATOM     84  O   UNL A   1      46.247  25.706  39.256  1.00  0.00    -0.744 OA
ENDBRANCH  80  81
ENDBRANCH  48  73
BRANCH  60  85
ATOM     85  C   UNL A   1      39.816  34.028  37.222  1.00  0.00     0.058 A 
ATOM     86  C   UNL A   1      40.498  35.254  37.217  1.00  0.00     0.135 A 
ATOM     87  C   UNL A   1      39.026  33.717  38.341  1.00  0.00     0.135 A 
ATOM     88  F   UNL A   1      41.272  35.593  36.174  1.00  0.00    -0.206 F 
ATOM     89  C   UNL A   1      40.406  36.138  38.287  1.00  0.00     0.059 A 
ATOM     90  C   UNL A   1      38.902  34.596  39.412  1.00  0.00     0.059 A 
ATOM     91  F   UNL A   1      38.349  32.559  38.389  1.00  0.00    -0.206 F 
ATOM     92  C   UNL A   1      39.601  35.802  39.378  1.00  0.00     0.060 A 
BRANCH  92  93
ATOM     93  S   UNL A   1      39.450  36.984  40.734  1.00  0.00     0.124 S 
ATOM     94  O   UNL A   1      40.836  37.405  40.913  1.00  0.00    -0.237 OA
ATOM     95  O   UNL A   1      38.550  37.988  40.175  1.00  0.00    -0.237 OA
ATOM     96  O   UNL A   1      38.892  36.185  41.820  1.00  0.00    -0.744 OA
ENDBRANCH  92  93
ENDBRANCH  60  85
ENDBRANCH  34  35
ENDBRANCH  26  29
ENDBRANCH   1  25
TORSDOF 14
ENDMDL
