MODEL 1
REMARK VINA RESULT:     -10.2      0.000      0.000
REMARK SMILES C[C@H](Oc1ccc(/C=C2/SC(=S)N(c3ccc(F)c(Cl)c3)C2=O)cc1)C(=O)NCCCNC(=O)c1ccc(-c2c3nc(c(-c4c(F)cc(S(=O)(=O)[O-])cc4F)c4ccc([nH]4)c(-c4c(F)cc(S(=O)(=O)[O-])cc4F)c4nc(c(-c5c(F)cc(S(=O)(=O)[O-])cc5F)c5ccc2[nH]5)C=C4)C=C3)cc1
REMARK SMILES IDX 29 1 28 2 26 3 27 4 2 6 1 7 3 8 4 9 5 10 25 11 6 12 24 13
REMARK SMILES IDX 7 14 8 15 9 16 10 17 22 18 11 19 13 20 23 21 12 22 14 23
REMARK SMILES IDX 15 24 21 25 16 26 19 27 17 28 20 29 18 30 30 31 31 32 32 33
REMARK SMILES IDX 33 34 34 36 35 37 36 38 100 39 37 40 99 41 38 42 39 43 40 44
REMARK SMILES IDX 93 45 41 46 98 47 92 48 94 49 42 50 97 51 91 52 90 53 43 55
REMARK SMILES IDX 77 56 56 57 76 58 57 59 60 60 75 61 95 62 58 63 59 64 74 66
REMARK SMILES IDX 96 67 61 68 44 69 45 70 54 71 46 72 47 73 53 74 55 75 48 76
REMARK SMILES IDX 49 77 50 78 51 79 52 80 78 81 79 82 88 83 80 84 81 85 87 86
REMARK SMILES IDX 89 87 82 88 83 89 84 90 85 91 86 92 62 93 63 94 72 95 64 96
REMARK SMILES IDX 65 97 71 98 73 99 66 100 67 101 68 102 69 103 70 104
REMARK H PARENT 28 5 32 35 94 54 60 65
REMARK Flexibility Score: inf
ROOT
ATOM      1  C   UNL A   1      42.332  22.781  25.878  1.00  0.00     0.118 C 
ENDROOT
BRANCH   1   2
ATOM      2  N   UNL A   1      43.001  22.613  24.597  1.00  0.00    -0.353 N 
ATOM      3  C   UNL A   1      44.271  22.970  24.225  1.00  0.00     0.260 C 
ATOM      4  O   UNL A   1      44.642  22.691  23.082  1.00  0.00    -0.271 OA
ATOM      5  H   UNL A   1      42.463  22.180  23.895  1.00  0.00     0.163 HD
BRANCH   3   6
ATOM      6  C   UNL A   1      45.226  23.633  25.235  1.00  0.00     0.258 C 
ATOM      7  C   UNL A   1      45.471  22.642  26.371  1.00  0.00     0.064 C 
BRANCH   6   8
ATOM      8  O   UNL A   1      44.655  24.915  25.474  1.00  0.00    -0.481 OA
BRANCH   8   9
ATOM      9  C   UNL A   1      45.307  26.081  25.683  1.00  0.00     0.120 A 
ATOM     10  C   UNL A   1      45.728  27.014  24.745  1.00  0.00     0.047 A 
ATOM     11  C   UNL A   1      45.610  26.301  27.031  1.00  0.00     0.047 A 
ATOM     12  C   UNL A   1      46.553  28.081  25.132  1.00  0.00     0.012 A 
ATOM     13  C   UNL A   1      46.397  27.381  27.426  1.00  0.00     0.012 A 
ATOM     14  C   UNL A   1      46.931  28.243  26.468  1.00  0.00    -0.024 A 
BRANCH  14  15
ATOM     15  C   UNL A   1      47.878  29.297  26.847  1.00  0.00     0.029 C 
ATOM     16  C   UNL A   1      47.554  30.573  27.116  1.00  0.00     0.081 C 
ATOM     17  S   UNL A   1      48.737  31.772  27.463  1.00  0.00    -0.054 SA
ATOM     18  C   UNL A   1      46.192  31.189  27.135  1.00  0.00     0.270 C 
ATOM     19  C   UNL A   1      47.548  33.077  27.518  1.00  0.00     0.152 C 
ATOM     20  N   UNL A   1      46.284  32.577  27.232  1.00  0.00    -0.261 N 
ATOM     21  O   UNL A   1      45.165  30.522  27.081  1.00  0.00    -0.268 OA
ATOM     22  S   UNL A   1      48.011  34.606  28.014  1.00  0.00    -0.051 S 
BRANCH  20  23
ATOM     23  C   UNL A   1      45.109  33.381  27.055  1.00  0.00     0.052 A 
ATOM     24  C   UNL A   1      44.754  33.868  25.783  1.00  0.00     0.030 A 
ATOM     25  C   UNL A   1      44.330  33.780  28.155  1.00  0.00     0.050 A 
ATOM     26  C   UNL A   1      43.659  34.717  25.610  1.00  0.00     0.043 A 
ATOM     27  C   UNL A   1      43.234  34.633  27.980  1.00  0.00     0.078 A 
ATOM     28  C   UNL A   1      42.905  35.096  26.711  1.00  0.00     0.141 A 
ATOM     29  Cl  UNL A   1      42.316  35.128  29.343  1.00  0.00    -0.081 Cl
ATOM     30  F   UNL A   1      41.865  35.921  26.522  1.00  0.00    -0.205 F 
ENDBRANCH  20  23
ENDBRANCH  14  15
ENDBRANCH   8   9
ENDBRANCH   6   8
ENDBRANCH   3   6
ENDBRANCH   1   2
BRANCH   1  31
ATOM     31  C   UNL A   1      41.573  21.537  26.322  1.00  0.00     0.042 C 
BRANCH  31  32
ATOM     32  C   UNL A   1      40.258  21.825  27.035  1.00  0.00     0.118 C 
BRANCH  32  33
ATOM     33  N   UNL A   1      39.240  22.379  26.150  1.00  0.00    -0.352 N 
ATOM     34  C   UNL A   1      38.704  23.643  26.099  1.00  0.00     0.251 C 
ATOM     35  H   UNL A   1      38.881  21.749  25.485  1.00  0.00     0.163 HD
ATOM     36  O   UNL A   1      37.732  23.857  25.380  1.00  0.00    -0.269 OA
BRANCH  34  37
ATOM     37  C   UNL A   1      39.271  24.737  26.922  1.00  0.00     0.039 A 
ATOM     38  C   UNL A   1      40.140  25.652  26.322  1.00  0.00     0.014 A 
ATOM     39  C   UNL A   1      38.962  24.855  28.279  1.00  0.00     0.014 A 
ATOM     40  C   UNL A   1      40.636  26.728  27.062  1.00  0.00     0.010 A 
ATOM     41  C   UNL A   1      39.397  25.967  28.996  1.00  0.00     0.010 A 
ATOM     42  C   UNL A   1      40.236  26.917  28.395  1.00  0.00    -0.014 A 
BRANCH  42  43
ATOM     43  C   UNL A   1      40.671  28.105  29.173  1.00  0.00     0.031 A 
ATOM     44  C   UNL A   1      42.029  28.132  29.822  1.00  0.00     0.074 A 
ATOM     45  C   UNL A   1      39.813  29.128  29.361  1.00  0.00     0.049 A 
ATOM     46  N   UNL A   1      42.548  29.035  30.614  1.00  0.00    -0.248 NA
ATOM     47  C   UNL A   1      42.907  26.978  29.573  1.00  0.00     0.031 C 
ATOM     48  C   UNL A   1      38.449  29.197  28.829  1.00  0.00     0.029 A 
ATOM     49  N   UNL A   1      39.954  30.300  30.060  1.00  0.00    -0.354 N 
ATOM     50  C   UNL A   1      43.798  28.549  30.977  1.00  0.00     0.074 A 
ATOM     51  C   UNL A   1      43.945  27.253  30.350  1.00  0.00     0.031 C 
ATOM     52  C   UNL A   1      37.889  30.359  29.204  1.00  0.00     0.029 A 
ATOM     53  C   UNL A   1      38.836  31.102  30.026  1.00  0.00     0.049 A 
ATOM     54  H   UNL A   1      40.778  30.545  30.540  1.00  0.00     0.167 HD
ATOM     55  C   UNL A   1      44.745  29.136  31.747  1.00  0.00     0.037 A 
ATOM     56  C   UNL A   1      38.599  32.298  30.598  1.00  0.00     0.037 A 
ATOM     57  C   UNL A   1      44.611  30.443  32.337  1.00  0.00     0.049 A 
ATOM     58  C   UNL A   1      39.680  32.946  31.417  1.00  0.00     0.074 A 
ATOM     59  C   UNL A   1      45.539  31.152  33.080  1.00  0.00     0.029 A 
ATOM     60  N   UNL A   1      43.480  31.240  32.243  1.00  0.00    -0.354 N 
ATOM     61  N   UNL A   1      40.877  32.494  31.707  1.00  0.00    -0.248 NA
ATOM     62  C   UNL A   1      39.383  34.270  31.981  1.00  0.00     0.031 C 
ATOM     63  C   UNL A   1      44.957  32.367  33.461  1.00  0.00     0.029 A 
ATOM     64  C   UNL A   1      43.680  32.429  32.925  1.00  0.00     0.049 A 
ATOM     65  H   UNL A   1      42.655  30.997  31.763  1.00  0.00     0.167 HD
ATOM     66  C   UNL A   1      41.482  33.484  32.472  1.00  0.00     0.074 A 
ATOM     67  C   UNL A   1      40.524  34.566  32.590  1.00  0.00     0.031 C 
ATOM     68  C   UNL A   1      42.718  33.496  33.028  1.00  0.00     0.037 A 
BRANCH  55  69
ATOM     69  C   UNL A   1      46.016  28.371  31.990  1.00  0.00     0.058 A 
ATOM     70  C   UNL A   1      47.126  28.500  31.141  1.00  0.00     0.135 A 
ATOM     71  C   UNL A   1      46.137  27.520  33.101  1.00  0.00     0.135 A 
ATOM     72  F   UNL A   1      47.060  29.289  30.056  1.00  0.00    -0.206 F 
ATOM     73  C   UNL A   1      48.301  27.789  31.365  1.00  0.00     0.059 A 
ATOM     74  C   UNL A   1      47.312  26.819  33.359  1.00  0.00     0.059 A 
ATOM     75  F   UNL A   1      45.107  27.361  33.946  1.00  0.00    -0.206 F 
ATOM     76  C   UNL A   1      48.383  26.948  32.475  1.00  0.00     0.060 A 
BRANCH  76  77
ATOM     77  S   UNL A   1      49.913  26.030  32.753  1.00  0.00     0.124 S 
ATOM     78  O   UNL A   1      49.510  24.677  32.382  1.00  0.00    -0.237 OA
ATOM     79  O   UNL A   1      50.844  26.686  31.842  1.00  0.00    -0.237 OA
ATOM     80  O   UNL A   1      50.179  26.239  34.174  1.00  0.00    -0.744 OA
ENDBRANCH  76  77
ENDBRANCH  55  69
BRANCH  56  81
ATOM     81  C   UNL A   1      37.288  32.968  30.398  1.00  0.00     0.058 A 
ATOM     82  C   UNL A   1      36.280  32.884  31.370  1.00  0.00     0.135 A 
ATOM     83  C   UNL A   1      37.021  33.715  29.241  1.00  0.00     0.135 A 
ATOM     84  F   UNL A   1      36.489  32.174  32.490  1.00  0.00    -0.206 F 
ATOM     85  C   UNL A   1      35.046  33.504  31.197  1.00  0.00     0.059 A 
ATOM     86  C   UNL A   1      35.802  34.359  29.055  1.00  0.00     0.059 A 
ATOM     87  F   UNL A   1      37.958  33.841  28.290  1.00  0.00    -0.206 F 
ATOM     88  C   UNL A   1      34.816  34.240  30.034  1.00  0.00     0.060 A 
BRANCH  88  89
ATOM     89  S   UNL A   1      33.240  35.101  29.830  1.00  0.00     0.124 S 
ATOM     90  O   UNL A   1      32.583  34.271  28.826  1.00  0.00    -0.237 OA
ATOM     91  O   UNL A   1      32.667  35.049  31.171  1.00  0.00    -0.237 OA
ATOM     92  O   UNL A   1      33.647  36.432  29.384  1.00  0.00    -0.744 OA
ENDBRANCH  88  89
ENDBRANCH  56  81
BRANCH  68  93
ATOM     93  C   UNL A   1      43.118  34.726  33.793  1.00  0.00     0.058 A 
ATOM     94  C   UNL A   1      42.867  34.849  35.167  1.00  0.00     0.135 A 
ATOM     95  C   UNL A   1      43.809  35.768  33.153  1.00  0.00     0.135 A 
ATOM     96  F   UNL A   1      42.204  33.882  35.822  1.00  0.00    -0.206 F 
ATOM     97  C   UNL A   1      43.272  35.971  35.881  1.00  0.00     0.059 A 
ATOM     98  C   UNL A   1      44.243  36.890  33.851  1.00  0.00     0.059 A 
ATOM     99  F   UNL A   1      44.081  35.693  31.841  1.00  0.00    -0.206 F 
ATOM    100  C   UNL A   1      43.961  36.987  35.214  1.00  0.00     0.060 A 
BRANCH 100 101
ATOM    101  S   UNL A   1      44.519  38.421  36.157  1.00  0.00     0.124 S 
ATOM    102  O   UNL A   1      45.956  38.182  36.235  1.00  0.00    -0.237 OA
ATOM    103  O   UNL A   1      44.107  39.536  35.308  1.00  0.00    -0.237 OA
ATOM    104  O   UNL A   1      43.793  38.302  37.418  1.00  0.00    -0.744 OA
ENDBRANCH 100 101
ENDBRANCH  68  93
ENDBRANCH  42  43
ENDBRANCH  34  37
ENDBRANCH  32  33
ENDBRANCH  31  32
ENDBRANCH   1  31
TORSDOF 17
ENDMDL
MODEL 2
REMARK VINA RESULT:      -9.9      1.761      2.290
REMARK SMILES C[C@H](Oc1ccc(/C=C2/SC(=S)N(c3ccc(F)c(Cl)c3)C2=O)cc1)C(=O)NCCCNC(=O)c1ccc(-c2c3nc(c(-c4c(F)cc(S(=O)(=O)[O-])cc4F)c4ccc([nH]4)c(-c4c(F)cc(S(=O)(=O)[O-])cc4F)c4nc(c(-c5c(F)cc(S(=O)(=O)[O-])cc5F)c5ccc2[nH]5)C=C4)C=C3)cc1
REMARK SMILES IDX 29 1 28 2 26 3 27 4 2 6 1 7 3 8 4 9 5 10 25 11 6 12 24 13
REMARK SMILES IDX 7 14 8 15 9 16 10 17 22 18 11 19 13 20 23 21 12 22 14 23
REMARK SMILES IDX 15 24 21 25 16 26 19 27 17 28 20 29 18 30 30 31 31 32 32 33
REMARK SMILES IDX 33 34 34 36 35 37 36 38 100 39 37 40 99 41 38 42 39 43 40 44
REMARK SMILES IDX 93 45 41 46 98 47 92 48 94 49 42 50 97 51 91 52 90 53 43 55
REMARK SMILES IDX 77 56 56 57 76 58 57 59 60 60 75 61 95 62 58 63 59 64 74 66
REMARK SMILES IDX 96 67 61 68 44 69 45 70 54 71 46 72 47 73 53 74 55 75 48 76
REMARK SMILES IDX 49 77 50 78 51 79 52 80 78 81 79 82 88 83 80 84 81 85 87 86
REMARK SMILES IDX 89 87 82 88 83 89 84 90 85 91 86 92 62 93 63 94 72 95 64 96
REMARK SMILES IDX 65 97 71 98 73 99 66 100 67 101 68 102 69 103 70 104
REMARK H PARENT 28 5 32 35 94 54 60 65
REMARK Flexibility Score: inf
ROOT
ATOM      1  C   UNL A   1      42.635  22.823  25.601  1.00  0.00     0.118 C 
ENDROOT
BRANCH   1   2
ATOM      2  N   UNL A   1      43.729  22.651  24.657  1.00  0.00    -0.353 N 
ATOM      3  C   UNL A   1      44.936  23.297  24.598  1.00  0.00     0.260 C 
ATOM      4  O   UNL A   1      45.735  22.956  23.721  1.00  0.00    -0.271 OA
ATOM      5  H   UNL A   1      43.580  21.972  23.960  1.00  0.00     0.163 HD
BRANCH   3   6
ATOM      6  C   UNL A   1      45.306  24.366  25.642  1.00  0.00     0.258 C 
ATOM      7  C   UNL A   1      44.920  23.830  27.019  1.00  0.00     0.064 C 
BRANCH   6   8
ATOM      8  O   UNL A   1      44.750  25.572  25.129  1.00  0.00    -0.481 OA
BRANCH   8   9
ATOM      9  C   UNL A   1      44.684  26.775  25.742  1.00  0.00     0.120 A 
ATOM     10  C   UNL A   1      45.598  27.350  26.615  1.00  0.00     0.047 A 
ATOM     11  C   UNL A   1      43.500  27.465  25.461  1.00  0.00     0.047 A 
ATOM     12  C   UNL A   1      45.275  28.532  27.298  1.00  0.00     0.012 A 
ATOM     13  C   UNL A   1      43.191  28.660  26.108  1.00  0.00     0.012 A 
ATOM     14  C   UNL A   1      44.049  29.168  27.083  1.00  0.00    -0.024 A 
BRANCH  14  15
ATOM     15  C   UNL A   1      43.676  30.343  27.878  1.00  0.00     0.029 C 
ATOM     16  C   UNL A   1      44.263  31.550  27.806  1.00  0.00     0.081 C 
ATOM     17  S   UNL A   1      43.826  32.852  28.840  1.00  0.00    -0.054 SA
ATOM     18  C   UNL A   1      45.369  31.977  26.897  1.00  0.00     0.270 C 
ATOM     19  C   UNL A   1      45.104  33.905  28.225  1.00  0.00     0.152 C 
ATOM     20  N   UNL A   1      45.858  33.228  27.275  1.00  0.00    -0.261 N 
ATOM     21  O   UNL A   1      45.752  31.293  25.955  1.00  0.00    -0.268 OA
ATOM     22  S   UNL A   1      45.164  35.508  28.701  1.00  0.00    -0.051 S 
BRANCH  20  23
ATOM     23  C   UNL A   1      47.058  33.734  26.673  1.00  0.00     0.052 A 
ATOM     24  C   UNL A   1      47.002  34.746  25.696  1.00  0.00     0.030 A 
ATOM     25  C   UNL A   1      48.312  33.173  26.972  1.00  0.00     0.050 A 
ATOM     26  C   UNL A   1      48.155  35.190  25.045  1.00  0.00     0.043 A 
ATOM     27  C   UNL A   1      49.466  33.618  26.316  1.00  0.00     0.078 A 
ATOM     28  C   UNL A   1      49.382  34.622  25.358  1.00  0.00     0.141 A 
ATOM     29  Cl  UNL A   1      50.981  32.898  26.679  1.00  0.00    -0.081 Cl
ATOM     30  F   UNL A   1      50.473  35.056  24.712  1.00  0.00    -0.205 F 
ENDBRANCH  20  23
ENDBRANCH  14  15
ENDBRANCH   8   9
ENDBRANCH   6   8
ENDBRANCH   3   6
ENDBRANCH   1   2
BRANCH   1  31
ATOM     31  C   UNL A   1      42.156  21.510  26.205  1.00  0.00     0.042 C 
BRANCH  31  32
ATOM     32  C   UNL A   1      40.842  21.612  26.969  1.00  0.00     0.118 C 
BRANCH  32  33
ATOM     33  N   UNL A   1      39.695  21.852  26.100  1.00  0.00    -0.352 N 
ATOM     34  C   UNL A   1      38.882  22.953  25.991  1.00  0.00     0.251 C 
ATOM     35  H   UNL A   1      39.470  21.107  25.497  1.00  0.00     0.163 HD
ATOM     36  O   UNL A   1      37.863  22.885  25.308  1.00  0.00    -0.269 OA
BRANCH  34  37
ATOM     37  C   UNL A   1      39.208  24.206  26.711  1.00  0.00     0.039 A 
ATOM     38  C   UNL A   1      38.691  24.400  27.995  1.00  0.00     0.014 A 
ATOM     39  C   UNL A   1      40.005  25.192  26.123  1.00  0.00     0.014 A 
ATOM     40  C   UNL A   1      39.038  25.545  28.717  1.00  0.00     0.010 A 
ATOM     41  C   UNL A   1      40.408  26.296  26.870  1.00  0.00     0.010 A 
ATOM     42  C   UNL A   1      39.932  26.483  28.176  1.00  0.00    -0.014 A 
BRANCH  42  43
ATOM     43  C   UNL A   1      40.392  27.657  28.961  1.00  0.00     0.031 A 
ATOM     44  C   UNL A   1      41.725  27.630  29.657  1.00  0.00     0.074 A 
ATOM     45  C   UNL A   1      39.573  28.718  29.112  1.00  0.00     0.049 A 
ATOM     46  N   UNL A   1      42.256  28.516  30.460  1.00  0.00    -0.248 NA
ATOM     47  C   UNL A   1      42.560  26.437  29.446  1.00  0.00     0.031 C 
ATOM     48  C   UNL A   1      38.233  28.842  28.533  1.00  0.00     0.029 A 
ATOM     49  N   UNL A   1      39.742  29.889  29.807  1.00  0.00    -0.354 N 
ATOM     50  C   UNL A   1      43.471  27.978  30.870  1.00  0.00     0.074 A 
ATOM     51  C   UNL A   1      43.582  26.672  30.257  1.00  0.00     0.031 C 
ATOM     52  C   UNL A   1      37.711  30.031  28.879  1.00  0.00     0.029 A 
ATOM     53  C   UNL A   1      38.662  30.739  29.730  1.00  0.00     0.049 A 
ATOM     54  H   UNL A   1      40.559  30.101  30.314  1.00  0.00     0.167 HD
ATOM     55  C   UNL A   1      44.416  28.530  31.668  1.00  0.00     0.037 A 
ATOM     56  C   UNL A   1      38.458  31.948  30.284  1.00  0.00     0.037 A 
ATOM     57  C   UNL A   1      44.318  29.846  32.244  1.00  0.00     0.049 A 
ATOM     58  C   UNL A   1      39.538  32.556  31.136  1.00  0.00     0.074 A 
ATOM     59  C   UNL A   1      45.251  30.520  33.015  1.00  0.00     0.029 A 
ATOM     60  N   UNL A   1      43.228  30.692  32.106  1.00  0.00    -0.354 N 
ATOM     61  N   UNL A   1      40.703  32.054  31.471  1.00  0.00    -0.248 NA
ATOM     62  C   UNL A   1      39.280  33.895  31.681  1.00  0.00     0.031 C 
ATOM     63  C   UNL A   1      44.710  31.762  33.368  1.00  0.00     0.029 A 
ATOM     64  C   UNL A   1      43.457  31.876  32.787  1.00  0.00     0.049 A 
ATOM     65  H   UNL A   1      42.410  30.481  31.599  1.00  0.00     0.167 HD
ATOM     66  C   UNL A   1      41.324  33.023  32.250  1.00  0.00     0.074 A 
ATOM     67  C   UNL A   1      40.411  34.146  32.327  1.00  0.00     0.031 C 
ATOM     68  C   UNL A   1      42.539  32.985  32.848  1.00  0.00     0.037 A 
BRANCH  55  69
ATOM     69  C   UNL A   1      45.643  27.712  31.961  1.00  0.00     0.058 A 
ATOM     70  C   UNL A   1      46.764  27.740  31.117  1.00  0.00     0.135 A 
ATOM     71  C   UNL A   1      45.711  26.913  33.114  1.00  0.00     0.135 A 
ATOM     72  F   UNL A   1      46.746  28.476  29.994  1.00  0.00    -0.206 F 
ATOM     73  C   UNL A   1      47.897  26.980  31.387  1.00  0.00     0.059 A 
ATOM     74  C   UNL A   1      46.845  26.164  33.417  1.00  0.00     0.059 A 
ATOM     75  F   UNL A   1      44.667  26.849  33.956  1.00  0.00    -0.206 F 
ATOM     76  C   UNL A   1      47.927  26.192  32.538  1.00  0.00     0.060 A 
BRANCH  76  77
ATOM     77  S   UNL A   1      49.404  25.210  32.875  1.00  0.00     0.124 S 
ATOM     78  O   UNL A   1      50.218  26.160  33.628  1.00  0.00    -0.237 OA
ATOM     79  O   UNL A   1      48.868  24.089  33.641  1.00  0.00    -0.237 OA
ATOM     80  O   UNL A   1      49.900  24.875  31.543  1.00  0.00    -0.744 OA
ENDBRANCH  76  77
ENDBRANCH  55  69
BRANCH  56  81
ATOM     81  C   UNL A   1      37.185  32.673  30.034  1.00  0.00     0.058 A 
ATOM     82  C   UNL A   1      36.038  32.398  30.792  1.00  0.00     0.135 A 
ATOM     83  C   UNL A   1      37.094  33.663  29.045  1.00  0.00     0.135 A 
ATOM     84  F   UNL A   1      36.077  31.454  31.746  1.00  0.00    -0.206 F 
ATOM     85  C   UNL A   1      34.838  33.067  30.570  1.00  0.00     0.059 A 
ATOM     86  C   UNL A   1      35.910  34.358  28.816  1.00  0.00     0.059 A 
ATOM     87  F   UNL A   1      38.168  33.977  28.305  1.00  0.00    -0.206 F 
ATOM     88  C   UNL A   1      34.784  34.046  29.577  1.00  0.00     0.060 A 
BRANCH  88  89
ATOM     89  S   UNL A   1      33.248  34.964  29.324  1.00  0.00     0.124 S 
ATOM     90  O   UNL A   1      33.747  36.225  28.786  1.00  0.00    -0.237 OA
ATOM     91  O   UNL A   1      32.516  34.118  28.387  1.00  0.00    -0.237 OA
ATOM     92  O   UNL A   1      32.678  35.031  30.668  1.00  0.00    -0.744 OA
ENDBRANCH  88  89
ENDBRANCH  56  81
BRANCH  68  93
ATOM     93  C   UNL A   1      42.967  34.202  33.619  1.00  0.00     0.058 A 
ATOM     94  C   UNL A   1      42.751  34.309  35.000  1.00  0.00     0.135 A 
ATOM     95  C   UNL A   1      43.647  35.249  32.975  1.00  0.00     0.135 A 
ATOM     96  F   UNL A   1      42.099  33.338  35.660  1.00  0.00    -0.206 F 
ATOM     97  C   UNL A   1      43.181  35.420  35.718  1.00  0.00     0.059 A 
ATOM     98  C   UNL A   1      44.106  36.358  33.677  1.00  0.00     0.059 A 
ATOM     99  F   UNL A   1      43.885  35.189  31.656  1.00  0.00    -0.206 F 
ATOM    100  C   UNL A   1      43.860  36.439  35.047  1.00  0.00     0.060 A 
BRANCH 100 101
ATOM    101  S   UNL A   1      44.451  37.858  35.994  1.00  0.00     0.124 S 
ATOM    102  O   UNL A   1      45.861  37.530  36.168  1.00  0.00    -0.237 OA
ATOM    103  O   UNL A   1      44.166  38.976  35.098  1.00  0.00    -0.237 OA
ATOM    104  O   UNL A   1      43.641  37.817  37.209  1.00  0.00    -0.744 OA
ENDBRANCH 100 101
ENDBRANCH  68  93
ENDBRANCH  42  43
ENDBRANCH  34  37
ENDBRANCH  32  33
ENDBRANCH  31  32
ENDBRANCH   1  31
TORSDOF 17
ENDMDL
MODEL 3
REMARK VINA RESULT:      -9.9      4.398     10.718
REMARK SMILES C[C@H](Oc1ccc(/C=C2/SC(=S)N(c3ccc(F)c(Cl)c3)C2=O)cc1)C(=O)NCCCNC(=O)c1ccc(-c2c3nc(c(-c4c(F)cc(S(=O)(=O)[O-])cc4F)c4ccc([nH]4)c(-c4c(F)cc(S(=O)(=O)[O-])cc4F)c4nc(c(-c5c(F)cc(S(=O)(=O)[O-])cc5F)c5ccc2[nH]5)C=C4)C=C3)cc1
REMARK SMILES IDX 29 1 28 2 26 3 27 4 2 6 1 7 3 8 4 9 5 10 25 11 6 12 24 13
REMARK SMILES IDX 7 14 8 15 9 16 10 17 22 18 11 19 13 20 23 21 12 22 14 23
REMARK SMILES IDX 15 24 21 25 16 26 19 27 17 28 20 29 18 30 30 31 31 32 32 33
REMARK SMILES IDX 33 34 34 36 35 37 36 38 100 39 37 40 99 41 38 42 39 43 40 44
REMARK SMILES IDX 93 45 41 46 98 47 92 48 94 49 42 50 97 51 91 52 90 53 43 55
REMARK SMILES IDX 77 56 56 57 76 58 57 59 60 60 75 61 95 62 58 63 59 64 74 66
REMARK SMILES IDX 96 67 61 68 44 69 45 70 54 71 46 72 47 73 53 74 55 75 48 76
REMARK SMILES IDX 49 77 50 78 51 79 52 80 78 81 79 82 88 83 80 84 81 85 87 86
REMARK SMILES IDX 89 87 82 88 83 89 84 90 85 91 86 92 62 93 63 94 72 95 64 96
REMARK SMILES IDX 65 97 71 98 73 99 66 100 67 101 68 102 69 103 70 104
REMARK H PARENT 28 5 32 35 94 54 60 65
REMARK Flexibility Score: inf
ROOT
ATOM      1  C   UNL A   1      43.700  22.662  25.512  1.00  0.00     0.118 C 
ENDROOT
BRANCH   1   2
ATOM      2  N   UNL A   1      43.515  21.311  26.019  1.00  0.00    -0.353 N 
ATOM      3  C   UNL A   1      42.383  20.713  26.510  1.00  0.00     0.260 C 
ATOM      4  O   UNL A   1      42.453  19.530  26.853  1.00  0.00    -0.271 OA
ATOM      5  H   UNL A   1      44.319  20.744  26.009  1.00  0.00     0.163 HD
BRANCH   3   6
ATOM      6  C   UNL A   1      41.049  21.481  26.560  1.00  0.00     0.258 C 
ATOM      7  C   UNL A   1      40.820  21.931  28.002  1.00  0.00     0.064 C 
BRANCH   6   8
ATOM      8  O   UNL A   1      40.125  20.632  25.889  1.00  0.00    -0.481 OA
BRANCH   8   9
ATOM      9  C   UNL A   1      38.824  20.882  25.617  1.00  0.00     0.120 A 
ATOM     10  C   UNL A   1      38.057  21.974  25.999  1.00  0.00     0.047 A 
ATOM     11  C   UNL A   1      38.212  19.851  24.895  1.00  0.00     0.047 A 
ATOM     12  C   UNL A   1      36.671  21.975  25.778  1.00  0.00     0.012 A 
ATOM     13  C   UNL A   1      36.841  19.866  24.640  1.00  0.00     0.012 A 
ATOM     14  C   UNL A   1      36.049  20.899  25.140  1.00  0.00    -0.024 A 
BRANCH  14  15
ATOM     15  C   UNL A   1      34.589  20.861  25.008  1.00  0.00     0.029 C 
ATOM     16  C   UNL A   1      33.820  21.873  24.574  1.00  0.00     0.081 C 
ATOM     17  S   UNL A   1      32.103  21.778  24.536  1.00  0.00    -0.054 SA
ATOM     18  C   UNL A   1      34.261  23.219  24.095  1.00  0.00     0.270 C 
ATOM     19  C   UNL A   1      31.918  23.462  24.035  1.00  0.00     0.152 C 
ATOM     20  N   UNL A   1      33.165  24.068  23.945  1.00  0.00    -0.261 N 
ATOM     21  O   UNL A   1      35.435  23.487  23.870  1.00  0.00    -0.268 OA
ATOM     22  S   UNL A   1      30.408  24.045  23.613  1.00  0.00    -0.051 S 
BRANCH  20  23
ATOM     23  C   UNL A   1      33.378  25.466  23.700  1.00  0.00     0.052 A 
ATOM     24  C   UNL A   1      33.494  25.957  22.386  1.00  0.00     0.030 A 
ATOM     25  C   UNL A   1      33.566  26.368  24.761  1.00  0.00     0.050 A 
ATOM     26  C   UNL A   1      33.781  27.301  22.136  1.00  0.00     0.043 A 
ATOM     27  C   UNL A   1      33.857  27.715  24.508  1.00  0.00     0.078 A 
ATOM     28  C   UNL A   1      33.962  28.173  23.200  1.00  0.00     0.141 A 
ATOM     29  Cl  UNL A   1      34.111  28.790  25.821  1.00  0.00    -0.081 Cl
ATOM     30  F   UNL A   1      34.248  29.455  22.936  1.00  0.00    -0.205 F 
ENDBRANCH  20  23
ENDBRANCH  14  15
ENDBRANCH   8   9
ENDBRANCH   6   8
ENDBRANCH   3   6
ENDBRANCH   1   2
BRANCH   1  31
ATOM     31  C   UNL A   1      44.081  23.659  26.598  1.00  0.00     0.042 C 
BRANCH  31  32
ATOM     32  C   UNL A   1      43.218  24.914  26.630  1.00  0.00     0.118 C 
BRANCH  32  33
ATOM     33  N   UNL A   1      41.940  24.743  25.948  1.00  0.00    -0.352 N 
ATOM     34  C   UNL A   1      40.691  25.212  26.277  1.00  0.00     0.251 C 
ATOM     35  H   UNL A   1      41.979  24.209  25.123  1.00  0.00     0.163 HD
ATOM     36  O   UNL A   1      39.713  24.811  25.651  1.00  0.00    -0.269 OA
BRANCH  34  37
ATOM     37  C   UNL A   1      40.515  26.169  27.393  1.00  0.00     0.039 A 
ATOM     38  C   UNL A   1      39.700  25.807  28.470  1.00  0.00     0.014 A 
ATOM     39  C   UNL A   1      41.133  27.422  27.376  1.00  0.00     0.014 A 
ATOM     40  C   UNL A   1      39.571  26.667  29.563  1.00  0.00     0.010 A 
ATOM     41  C   UNL A   1      41.062  28.247  28.497  1.00  0.00     0.010 A 
ATOM     42  C   UNL A   1      40.283  27.877  29.603  1.00  0.00    -0.014 A 
BRANCH  42  43
ATOM     43  C   UNL A   1      40.238  28.763  30.795  1.00  0.00     0.031 A 
ATOM     44  C   UNL A   1      39.243  29.889  30.866  1.00  0.00     0.074 A 
ATOM     45  C   UNL A   1      41.147  28.601  31.778  1.00  0.00     0.049 A 
ATOM     46  N   UNL A   1      39.114  30.821  31.776  1.00  0.00    -0.248 NA
ATOM     47  C   UNL A   1      38.286  30.002  29.754  1.00  0.00     0.031 C 
ATOM     48  C   UNL A   1      42.198  27.580  31.800  1.00  0.00     0.029 A 
ATOM     49  N   UNL A   1      41.341  29.300  32.943  1.00  0.00    -0.354 N 
ATOM     50  C   UNL A   1      38.083  31.643  31.336  1.00  0.00     0.074 A 
ATOM     51  C   UNL A   1      37.646  31.122  30.058  1.00  0.00     0.031 C 
ATOM     52  C   UNL A   1      42.911  27.707  32.931  1.00  0.00     0.029 A 
ATOM     53  C   UNL A   1      42.392  28.833  33.699  1.00  0.00     0.049 A 
ATOM     54  H   UNL A   1      40.780  30.063  33.213  1.00  0.00     0.167 HD
ATOM     55  C   UNL A   1      37.537  32.720  31.949  1.00  0.00     0.037 A 
ATOM     56  C   UNL A   1      42.887  29.267  34.873  1.00  0.00     0.037 A 
ATOM     57  C   UNL A   1      37.949  33.210  33.239  1.00  0.00     0.049 A 
ATOM     58  C   UNL A   1      42.239  30.442  35.552  1.00  0.00     0.074 A 
ATOM     59  C   UNL A   1      37.416  34.256  33.972  1.00  0.00     0.029 A 
ATOM     60  N   UNL A   1      38.989  32.684  33.990  1.00  0.00    -0.354 N 
ATOM     61  N   UNL A   1      41.231  31.176  35.144  1.00  0.00    -0.248 NA
ATOM     62  C   UNL A   1      42.791  30.846  36.852  1.00  0.00     0.031 C 
ATOM     63  C   UNL A   1      38.154  34.381  35.155  1.00  0.00     0.029 A 
ATOM     64  C   UNL A   1      39.123  33.390  35.174  1.00  0.00     0.049 A 
ATOM     65  H   UNL A   1      39.550  31.920  33.721  1.00  0.00     0.167 HD
ATOM     66  C   UNL A   1      41.016  32.116  36.145  1.00  0.00     0.074 A 
ATOM     67  C   UNL A   1      41.991  31.850  37.184  1.00  0.00     0.031 C 
ATOM     68  C   UNL A   1      40.096  33.109  36.199  1.00  0.00     0.037 A 
BRANCH  55  69
ATOM     69  C   UNL A   1      36.428  33.439  31.233  1.00  0.00     0.058 A 
ATOM     70  C   UNL A   1      36.667  34.192  30.073  1.00  0.00     0.135 A 
ATOM     71  C   UNL A   1      35.104  33.351  31.695  1.00  0.00     0.135 A 
ATOM     72  F   UNL A   1      37.916  34.321  29.596  1.00  0.00    -0.206 F 
ATOM     73  C   UNL A   1      35.641  34.859  29.413  1.00  0.00     0.059 A 
ATOM     74  C   UNL A   1      34.057  33.990  31.036  1.00  0.00     0.059 A 
ATOM     75  F   UNL A   1      34.819  32.644  32.800  1.00  0.00    -0.206 F 
ATOM     76  C   UNL A   1      34.338  34.755  29.904  1.00  0.00     0.060 A 
BRANCH  76  77
ATOM     77  S   UNL A   1      33.015  35.628  29.039  1.00  0.00     0.124 S 
ATOM     78  O   UNL A   1      32.437  34.554  28.237  1.00  0.00    -0.237 OA
ATOM     79  O   UNL A   1      32.188  36.114  30.139  1.00  0.00    -0.237 OA
ATOM     80  O   UNL A   1      33.725  36.661  28.290  1.00  0.00    -0.744 OA
ENDBRANCH  76  77
ENDBRANCH  55  69
BRANCH  56  81
ATOM     81  C   UNL A   1      44.045  28.572  35.492  1.00  0.00     0.058 A 
ATOM     82  C   UNL A   1      45.360  28.946  35.181  1.00  0.00     0.135 A 
ATOM     83  C   UNL A   1      43.862  27.531  36.415  1.00  0.00     0.135 A 
ATOM     84  F   UNL A   1      45.583  29.933  34.299  1.00  0.00    -0.206 F 
ATOM     85  C   UNL A   1      46.456  28.305  35.751  1.00  0.00     0.059 A 
ATOM     86  C   UNL A   1      44.941  26.887  37.011  1.00  0.00     0.059 A 
ATOM     87  F   UNL A   1      42.623  27.148  36.759  1.00  0.00    -0.206 F 
ATOM     88  C   UNL A   1      46.236  27.274  36.665  1.00  0.00     0.060 A 
BRANCH  88  89
ATOM     89  S   UNL A   1      47.652  26.478  37.457  1.00  0.00     0.124 S 
ATOM     90  O   UNL A   1      47.567  25.126  36.914  1.00  0.00    -0.237 OA
ATOM     91  O   UNL A   1      48.777  27.281  36.991  1.00  0.00    -0.237 OA
ATOM     92  O   UNL A   1      47.349  26.607  38.881  1.00  0.00    -0.744 OA
ENDBRANCH  88  89
ENDBRANCH  56  81
BRANCH  68  93
ATOM     93  C   UNL A   1      40.080  33.969  37.431  1.00  0.00     0.058 A 
ATOM     94  C   UNL A   1      40.867  35.125  37.527  1.00  0.00     0.135 A 
ATOM     95  C   UNL A   1      39.227  33.661  38.503  1.00  0.00     0.135 A 
ATOM     96  F   UNL A   1      41.704  35.460  36.531  1.00  0.00    -0.206 F 
ATOM     97  C   UNL A   1      40.823  35.941  38.653  1.00  0.00     0.059 A 
ATOM     98  C   UNL A   1      39.150  34.473  39.628  1.00  0.00     0.059 A 
ATOM     99  F   UNL A   1      38.448  32.569  38.454  1.00  0.00    -0.206 F 
ATOM    100  C   UNL A   1      39.959  35.607  39.699  1.00  0.00     0.060 A 
BRANCH 100 101
ATOM    101  S   UNL A   1      39.878  36.694  41.138  1.00  0.00     0.124 S 
ATOM    102  O   UNL A   1      38.689  36.192  41.819  1.00  0.00    -0.237 OA
ATOM    103  O   UNL A   1      41.150  36.429  41.805  1.00  0.00    -0.237 OA
ATOM    104  O   UNL A   1      39.752  38.025  40.552  1.00  0.00    -0.744 OA
ENDBRANCH 100 101
ENDBRANCH  68  93
ENDBRANCH  42  43
ENDBRANCH  34  37
ENDBRANCH  32  33
ENDBRANCH  31  32
ENDBRANCH   1  31
TORSDOF 17
ENDMDL
