MODEL 1
REMARK VINA RESULT:     -11.8      0.000      0.000
REMARK SMILES CC(C)(C)[NH2+]Cc1ccn(CC(C)(C)C(=O)NCCCNC(=O)c2ccc(-c3c4nc(c(-c5c(F)cc(S(=O)(=O)[O-])cc5F)c5ccc([nH]5)c(-c5c(F)cc(S(=O)(=O)[O-])cc5F)c5nc(c(-c6c(F)cc(S(=O)(=O)[O-])cc6F)c6ccc3[nH]6)C=C5)C=C4)cc2)c1
REMARK SMILES IDX 18 1 17 2 15 3 16 4 12 6 13 7 14 8 11 9 10 10 7 11 8 12
REMARK SMILES IDX 90 13 9 14 6 15 5 16 2 19 1 20 3 21 4 22 19 23 20 24 21 25
REMARK SMILES IDX 22 26 23 28 24 29 25 30 89 31 26 32 88 33 27 34 28 35 29 36
REMARK SMILES IDX 82 37 30 38 87 39 81 40 83 41 31 42 86 43 80 44 79 45 32 47
REMARK SMILES IDX 66 48 45 49 65 50 46 51 49 52 64 53 84 54 47 55 48 56 63 58
REMARK SMILES IDX 85 59 50 60 33 61 34 62 43 63 35 64 36 65 42 66 44 67 37 68
REMARK SMILES IDX 38 69 39 70 40 71 41 72 67 73 68 74 77 75 69 76 70 77 76 78
REMARK SMILES IDX 78 79 71 80 72 81 73 82 74 83 75 84 51 85 52 86 61 87 53 88
REMARK SMILES IDX 54 89 60 90 62 91 55 92 56 93 57 94 58 95 59 96
REMARK H PARENT 17 5 5 17 5 18 21 27 83 46 49 57
REMARK Flexibility Score: inf
ROOT
ATOM      1  C   UNL A   1      32.741  27.640  25.657  1.00  0.00     0.117 C 
ENDROOT
BRANCH   1   2
ATOM      2  N   UNL A   1      33.607  26.701  24.980  1.00  0.00    -0.356 N 
ATOM      3  C   UNL A   1      33.419  25.420  24.581  1.00  0.00     0.227 C 
ATOM      4  O   UNL A   1      34.439  24.808  24.251  1.00  0.00    -0.274 OA
ATOM      5  H   UNL A   1      34.501  27.059  24.771  1.00  0.00     0.163 HD
BRANCH   3   6
ATOM      6  C   UNL A   1      32.048  24.722  24.635  1.00  0.00     0.061 C 
ATOM      7  C   UNL A   1      31.134  25.154  25.799  1.00  0.00     0.023 C 
ATOM      8  C   UNL A   1      32.298  23.209  24.748  1.00  0.00     0.023 C 
BRANCH   6   9
ATOM      9  C   UNL A   1      31.331  25.005  23.278  1.00  0.00     0.137 C 
BRANCH   9  10
ATOM     10  N   UNL A   1      30.598  26.264  23.172  1.00  0.00    -0.353 N 
ATOM     11  C   UNL A   1      30.126  28.386  22.643  1.00  0.00     0.024 A 
ATOM     12  C   UNL A   1      29.106  27.876  23.484  1.00  0.00     0.029 A 
ATOM     13  C   UNL A   1      31.074  27.383  22.532  1.00  0.00     0.095 A 
ATOM     14  C   UNL A   1      29.347  26.536  23.648  1.00  0.00     0.086 A 
BRANCH  11  15
ATOM     15  C   UNL A   1      30.127  29.723  21.992  1.00  0.00     0.299 C 
BRANCH  15  16
ATOM     16  N   UNL A   1      29.842  30.759  22.991  1.00  0.00    -0.338 N 
ATOM     17  H   UNL A   1      29.693  30.281  23.879  1.00  0.00     0.347 HD
ATOM     18  H   UNL A   1      30.651  31.379  22.929  1.00  0.00     0.347 HD
BRANCH  16  19
ATOM     19  C   UNL A   1      28.695  31.666  22.792  1.00  0.00     0.088 C 
ATOM     20  C   UNL A   1      29.034  33.150  23.012  1.00  0.00     0.078 C 
ATOM     21  C   UNL A   1      27.450  31.279  23.619  1.00  0.00     0.078 C 
ATOM     22  C   UNL A   1      28.307  31.483  21.310  1.00  0.00     0.078 C 
ENDBRANCH  16  19
ENDBRANCH  15  16
ENDBRANCH  11  15
ENDBRANCH   9  10
ENDBRANCH   6   9
ENDBRANCH   3   6
ENDBRANCH   1   2
BRANCH   1  23
ATOM     23  C   UNL A   1      33.412  28.245  26.886  1.00  0.00     0.042 C 
BRANCH  23  24
ATOM     24  C   UNL A   1      34.866  28.596  26.616  1.00  0.00     0.118 C 
BRANCH  24  25
ATOM     25  N   UNL A   1      35.124  29.994  26.925  1.00  0.00    -0.352 N 
ATOM     26  C   UNL A   1      36.113  30.548  27.698  1.00  0.00     0.251 C 
ATOM     27  H   UNL A   1      34.498  30.637  26.519  1.00  0.00     0.163 HD
ATOM     28  O   UNL A   1      36.011  31.709  28.063  1.00  0.00    -0.269 OA
BRANCH  26  29
ATOM     29  C   UNL A   1      37.270  29.733  28.108  1.00  0.00     0.039 A 
ATOM     30  C   UNL A   1      38.395  29.731  27.276  1.00  0.00     0.014 A 
ATOM     31  C   UNL A   1      37.230  28.946  29.263  1.00  0.00     0.014 A 
ATOM     32  C   UNL A   1      39.504  28.978  27.636  1.00  0.00     0.010 A 
ATOM     33  C   UNL A   1      38.353  28.239  29.655  1.00  0.00     0.010 A 
ATOM     34  C   UNL A   1      39.483  28.252  28.834  1.00  0.00    -0.014 A 
BRANCH  34  35
ATOM     35  C   UNL A   1      40.707  27.564  29.276  1.00  0.00     0.031 A 
ATOM     36  C   UNL A   1      40.968  26.298  28.430  1.00  0.00     0.074 A 
ATOM     37  C   UNL A   1      41.357  28.144  30.334  1.00  0.00     0.049 A 
ATOM     38  N   UNL A   1      41.498  25.163  28.767  1.00  0.00    -0.248 NA
ATOM     39  C   UNL A   1      40.470  26.245  27.023  1.00  0.00     0.031 C 
ATOM     40  C   UNL A   1      40.948  29.415  30.986  1.00  0.00     0.029 A 
ATOM     41  N   UNL A   1      42.475  27.823  31.074  1.00  0.00    -0.354 N 
ATOM     42  C   UNL A   1      41.606  24.368  27.597  1.00  0.00     0.074 A 
ATOM     43  C   UNL A   1      40.824  25.027  26.598  1.00  0.00     0.031 C 
ATOM     44  C   UNL A   1      41.744  29.704  32.040  1.00  0.00     0.029 A 
ATOM     45  C   UNL A   1      42.747  28.672  32.185  1.00  0.00     0.049 A 
ATOM     46  H   UNL A   1      43.049  27.056  30.848  1.00  0.00     0.167 HD
ATOM     47  C   UNL A   1      42.467  23.307  27.494  1.00  0.00     0.037 A 
ATOM     48  C   UNL A   1      43.684  28.522  33.176  1.00  0.00     0.037 A 
ATOM     49  C   UNL A   1      43.216  23.202  28.703  1.00  0.00     0.049 A 
ATOM     50  C   UNL A   1      44.478  27.363  32.751  1.00  0.00     0.074 A 
ATOM     51  C   UNL A   1      42.863  22.821  29.971  1.00  0.00     0.029 A 
ATOM     52  N   UNL A   1      44.395  23.912  28.746  1.00  0.00    -0.354 N 
ATOM     53  N   UNL A   1      45.326  27.370  31.769  1.00  0.00    -0.248 NA
ATOM     54  C   UNL A   1      44.244  26.075  33.412  1.00  0.00     0.031 C 
ATOM     55  C   UNL A   1      43.555  23.747  30.775  1.00  0.00     0.029 A 
ATOM     56  C   UNL A   1      44.490  24.449  30.003  1.00  0.00     0.049 A 
ATOM     57  H   UNL A   1      45.045  24.012  28.014  1.00  0.00     0.167 HD
ATOM     58  C   UNL A   1      45.444  26.035  31.480  1.00  0.00     0.074 A 
ATOM     59  C   UNL A   1      45.038  25.311  32.670  1.00  0.00     0.031 C 
ATOM     60  C   UNL A   1      45.303  25.628  30.193  1.00  0.00     0.037 A 
BRANCH  47  61
ATOM     61  C   UNL A   1      42.960  22.460  26.346  1.00  0.00     0.058 A 
ATOM     62  C   UNL A   1      42.608  21.082  26.346  1.00  0.00     0.135 A 
ATOM     63  C   UNL A   1      43.999  22.824  25.480  1.00  0.00     0.135 A 
ATOM     64  F   UNL A   1      41.577  20.636  27.084  1.00  0.00    -0.206 F 
ATOM     65  C   UNL A   1      43.336  20.115  25.661  1.00  0.00     0.059 A 
ATOM     66  C   UNL A   1      44.717  21.871  24.744  1.00  0.00     0.059 A 
ATOM     67  F   UNL A   1      44.398  24.098  25.380  1.00  0.00    -0.206 F 
ATOM     68  C   UNL A   1      44.416  20.517  24.888  1.00  0.00     0.060 A 
BRANCH  68  69
ATOM     69  S   UNL A   1      45.430  19.238  24.113  1.00  0.00     0.124 S 
ATOM     70  O   UNL A   1      46.752  19.856  24.130  1.00  0.00    -0.237 OA
ATOM     71  O   UNL A   1      45.249  18.109  25.022  1.00  0.00    -0.237 OA
ATOM     72  O   UNL A   1      44.821  19.077  22.797  1.00  0.00    -0.744 OA
ENDBRANCH  68  69
ENDBRANCH  47  61
BRANCH  48  73
ATOM     73  C   UNL A   1      44.037  29.076  34.544  1.00  0.00     0.058 A 
ATOM     74  C   UNL A   1      45.232  29.705  34.909  1.00  0.00     0.135 A 
ATOM     75  C   UNL A   1      43.014  29.153  35.538  1.00  0.00     0.135 A 
ATOM     76  F   UNL A   1      46.327  29.602  34.146  1.00  0.00    -0.206 F 
ATOM     77  C   UNL A   1      45.340  30.496  36.072  1.00  0.00     0.059 A 
ATOM     78  C   UNL A   1      43.072  29.976  36.657  1.00  0.00     0.059 A 
ATOM     79  F   UNL A   1      41.868  28.465  35.428  1.00  0.00    -0.206 F 
ATOM     80  C   UNL A   1      44.232  30.681  36.900  1.00  0.00     0.060 A 
BRANCH  80  81
ATOM     81  S   UNL A   1      44.235  31.941  38.196  1.00  0.00     0.124 S 
ATOM     82  O   UNL A   1      45.660  32.162  38.405  1.00  0.00    -0.237 OA
ATOM     83  O   UNL A   1      43.502  33.038  37.570  1.00  0.00    -0.237 OA
ATOM     84  O   UNL A   1      43.530  31.287  39.298  1.00  0.00    -0.744 OA
ENDBRANCH  80  81
ENDBRANCH  48  73
BRANCH  60  85
ATOM     85  C   UNL A   1      45.674  26.673  29.148  1.00  0.00     0.058 A 
ATOM     86  C   UNL A   1      46.997  27.143  29.068  1.00  0.00     0.135 A 
ATOM     87  C   UNL A   1      44.758  27.303  28.287  1.00  0.00     0.135 A 
ATOM     88  F   UNL A   1      47.948  26.597  29.843  1.00  0.00    -0.206 F 
ATOM     89  C   UNL A   1      47.383  28.171  28.200  1.00  0.00     0.059 A 
ATOM     90  C   UNL A   1      45.115  28.329  27.401  1.00  0.00     0.059 A 
ATOM     91  F   UNL A   1      43.476  26.942  28.281  1.00  0.00    -0.206 F 
ATOM     92  C   UNL A   1      46.435  28.758  27.364  1.00  0.00     0.060 A 
BRANCH  92  93
ATOM     93  S   UNL A   1      46.963  30.048  26.213  1.00  0.00     0.124 S 
ATOM     94  O   UNL A   1      48.417  29.984  26.313  1.00  0.00    -0.237 OA
ATOM     95  O   UNL A   1      46.395  29.582  24.952  1.00  0.00    -0.237 OA
ATOM     96  O   UNL A   1      46.357  31.263  26.754  1.00  0.00    -0.744 OA
ENDBRANCH  92  93
ENDBRANCH  60  85
ENDBRANCH  34  35
ENDBRANCH  26  29
ENDBRANCH  24  25
ENDBRANCH  23  24
ENDBRANCH   1  23
TORSDOF 18
ENDMDL
MODEL 2
REMARK VINA RESULT:     -11.4      4.150      5.691
REMARK SMILES CC(C)(C)[NH2+]Cc1ccn(CC(C)(C)C(=O)NCCCNC(=O)c2ccc(-c3c4nc(c(-c5c(F)cc(S(=O)(=O)[O-])cc5F)c5ccc([nH]5)c(-c5c(F)cc(S(=O)(=O)[O-])cc5F)c5nc(c(-c6c(F)cc(S(=O)(=O)[O-])cc6F)c6ccc3[nH]6)C=C5)C=C4)cc2)c1
REMARK SMILES IDX 18 1 17 2 15 3 16 4 12 6 13 7 14 8 11 9 10 10 7 11 8 12
REMARK SMILES IDX 90 13 9 14 6 15 5 16 2 19 1 20 3 21 4 22 19 23 20 24 21 25
REMARK SMILES IDX 22 26 23 28 24 29 25 30 89 31 26 32 88 33 27 34 28 35 29 36
REMARK SMILES IDX 82 37 30 38 87 39 81 40 83 41 31 42 86 43 80 44 79 45 32 47
REMARK SMILES IDX 66 48 45 49 65 50 46 51 49 52 64 53 84 54 47 55 48 56 63 58
REMARK SMILES IDX 85 59 50 60 33 61 34 62 43 63 35 64 36 65 42 66 44 67 37 68
REMARK SMILES IDX 38 69 39 70 40 71 41 72 67 73 68 74 77 75 69 76 70 77 76 78
REMARK SMILES IDX 78 79 71 80 72 81 73 82 74 83 75 84 51 85 52 86 61 87 53 88
REMARK SMILES IDX 54 89 60 90 62 91 55 92 56 93 57 94 58 95 59 96
REMARK H PARENT 17 5 5 17 5 18 21 27 83 46 49 57
REMARK Flexibility Score: inf
ROOT
ATOM      1  C   UNL A   1      31.534  30.268  26.305  1.00  0.00     0.117 C 
ENDROOT
BRANCH   1   2
ATOM      2  N   UNL A   1      32.759  29.956  25.603  1.00  0.00    -0.356 N 
ATOM      3  C   UNL A   1      33.359  28.779  25.307  1.00  0.00     0.227 C 
ATOM      4  O   UNL A   1      34.526  28.858  24.913  1.00  0.00    -0.274 OA
ATOM      5  H   UNL A   1      33.249  30.749  25.282  1.00  0.00     0.163 HD
BRANCH   3   6
ATOM      6  C   UNL A   1      32.684  27.416  25.542  1.00  0.00     0.061 C 
ATOM      7  C   UNL A   1      31.494  27.430  26.524  1.00  0.00     0.023 C 
ATOM      8  C   UNL A   1      33.752  26.453  26.088  1.00  0.00     0.023 C 
BRANCH   6   9
ATOM      9  C   UNL A   1      32.205  26.889  24.153  1.00  0.00     0.137 C 
BRANCH   9  10
ATOM     10  N   UNL A   1      31.044  27.550  23.564  1.00  0.00    -0.353 N 
ATOM     11  C   UNL A   1      29.822  29.054  22.446  1.00  0.00     0.024 A 
ATOM     12  C   UNL A   1      28.957  28.127  23.079  1.00  0.00     0.029 A 
ATOM     13  C   UNL A   1      31.107  28.712  22.831  1.00  0.00     0.095 A 
ATOM     14  C   UNL A   1      29.744  27.137  23.611  1.00  0.00     0.086 A 
BRANCH  11  15
ATOM     15  C   UNL A   1      29.402  30.144  21.525  1.00  0.00     0.299 C 
BRANCH  15  16
ATOM     16  N   UNL A   1      29.690  31.446  22.136  1.00  0.00    -0.338 N 
ATOM     17  H   UNL A   1      30.231  31.264  22.981  1.00  0.00     0.347 HD
ATOM     18  H   UNL A   1      30.159  31.961  21.389  1.00  0.00     0.347 HD
BRANCH  16  19
ATOM     19  C   UNL A   1      28.575  32.331  22.522  1.00  0.00     0.088 C 
ATOM     20  C   UNL A   1      29.029  33.668  23.132  1.00  0.00     0.078 C 
ATOM     21  C   UNL A   1      27.537  31.654  23.443  1.00  0.00     0.078 C 
ATOM     22  C   UNL A   1      27.845  32.639  21.197  1.00  0.00     0.078 C 
ENDBRANCH  16  19
ENDBRANCH  15  16
ENDBRANCH  11  15
ENDBRANCH   9  10
ENDBRANCH   6   9
ENDBRANCH   3   6
ENDBRANCH   1   2
BRANCH   1  23
ATOM     23  C   UNL A   1      31.430  31.754  26.631  1.00  0.00     0.042 C 
BRANCH  23  24
ATOM     24  C   UNL A   1      32.752  32.313  27.131  1.00  0.00     0.118 C 
BRANCH  24  25
ATOM     25  N   UNL A   1      32.591  33.681  27.598  1.00  0.00    -0.352 N 
ATOM     26  C   UNL A   1      33.239  34.339  28.612  1.00  0.00     0.251 C 
ATOM     27  H   UNL A   1      31.917  34.213  27.116  1.00  0.00     0.163 HD
ATOM     28  O   UNL A   1      32.784  35.390  29.035  1.00  0.00    -0.269 OA
BRANCH  26  29
ATOM     29  C   UNL A   1      34.459  33.760  29.203  1.00  0.00     0.039 A 
ATOM     30  C   UNL A   1      35.693  34.152  28.672  1.00  0.00     0.014 A 
ATOM     31  C   UNL A   1      34.389  32.810  30.227  1.00  0.00     0.014 A 
ATOM     32  C   UNL A   1      36.860  33.630  29.210  1.00  0.00     0.010 A 
ATOM     33  C   UNL A   1      35.550  32.329  30.803  1.00  0.00     0.010 A 
ATOM     34  C   UNL A   1      36.782  32.737  30.286  1.00  0.00    -0.014 A 
BRANCH  34  35
ATOM     35  C   UNL A   1      38.025  32.289  30.937  1.00  0.00     0.031 A 
ATOM     36  C   UNL A   1      38.606  31.045  30.230  1.00  0.00     0.074 A 
ATOM     37  C   UNL A   1      38.414  33.025  32.026  1.00  0.00     0.049 A 
ATOM     38  N   UNL A   1      39.257  30.035  30.717  1.00  0.00    -0.248 NA
ATOM     39  C   UNL A   1      38.330  30.837  28.777  1.00  0.00     0.031 C 
ATOM     40  C   UNL A   1      37.716  34.239  32.523  1.00  0.00     0.029 A 
ATOM     41  N   UNL A   1      39.450  32.936  32.930  1.00  0.00    -0.354 N 
ATOM     42  C   UNL A   1      39.659  29.212  29.634  1.00  0.00     0.074 A 
ATOM     43  C   UNL A   1      38.933  29.677  28.493  1.00  0.00     0.031 C 
ATOM     44  C   UNL A   1      38.294  34.712  33.648  1.00  0.00     0.029 A 
ATOM     45  C   UNL A   1      39.419  33.874  34.003  1.00  0.00     0.049 A 
ATOM     46  H   UNL A   1      40.167  32.267  32.841  1.00  0.00     0.167 HD
ATOM     47  C   UNL A   1      40.686  28.308  29.726  1.00  0.00     0.037 A 
ATOM     48  C   UNL A   1      40.216  33.935  35.118  1.00  0.00     0.037 A 
ATOM     49  C   UNL A   1      41.260  28.394  31.028  1.00  0.00     0.049 A 
ATOM     50  C   UNL A   1      41.238  32.908  34.890  1.00  0.00     0.074 A 
ATOM     51  C   UNL A   1      40.794  28.023  32.262  1.00  0.00     0.029 A 
ATOM     52  N   UNL A   1      42.290  29.294  31.176  1.00  0.00    -0.354 N 
ATOM     53  N   UNL A   1      42.207  33.009  34.032  1.00  0.00    -0.248 NA
ATOM     54  C   UNL A   1      41.122  31.634  35.607  1.00  0.00     0.031 C 
ATOM     55  C   UNL A   1      41.205  29.092  33.081  1.00  0.00     0.029 A 
ATOM     56  C   UNL A   1      42.116  29.903  32.391  1.00  0.00     0.049 A 
ATOM     57  H   UNL A   1      43.014  29.467  30.532  1.00  0.00     0.167 HD
ATOM     58  C   UNL A   1      42.579  31.701  33.861  1.00  0.00     0.074 A 
ATOM     59  C   UNL A   1      42.128  30.980  35.036  1.00  0.00     0.031 C 
ATOM     60  C   UNL A   1      42.691  31.211  32.600  1.00  0.00     0.037 A 
BRANCH  47  61
ATOM     61  C   UNL A   1      41.469  27.500  28.719  1.00  0.00     0.058 A 
ATOM     62  C   UNL A   1      41.166  26.115  28.609  1.00  0.00     0.135 A 
ATOM     63  C   UNL A   1      42.678  27.908  28.142  1.00  0.00     0.135 A 
ATOM     64  F   UNL A   1      39.999  25.628  29.063  1.00  0.00    -0.206 F 
ATOM     65  C   UNL A   1      42.067  25.182  28.108  1.00  0.00     0.059 A 
ATOM     66  C   UNL A   1      43.581  26.990  27.589  1.00  0.00     0.059 A 
ATOM     67  F   UNL A   1      43.053  29.194  28.165  1.00  0.00    -0.206 F 
ATOM     68  C   UNL A   1      43.292  25.626  27.631  1.00  0.00     0.060 A 
BRANCH  68  69
ATOM     69  S   UNL A   1      44.501  24.390  27.108  1.00  0.00     0.124 S 
ATOM     70  O   UNL A   1      43.818  23.763  25.982  1.00  0.00    -0.237 OA
ATOM     71  O   UNL A   1      45.656  25.216  26.765  1.00  0.00    -0.237 OA
ATOM     72  O   UNL A   1      44.666  23.558  28.295  1.00  0.00    -0.744 OA
ENDBRANCH  68  69
ENDBRANCH  47  61
BRANCH  48  73
ATOM     73  C   UNL A   1      40.273  34.610  36.476  1.00  0.00     0.058 A 
ATOM     74  C   UNL A   1      41.009  35.751  36.812  1.00  0.00     0.135 A 
ATOM     75  C   UNL A   1      39.363  34.186  37.492  1.00  0.00     0.135 A 
ATOM     76  F   UNL A   1      41.998  36.191  36.026  1.00  0.00    -0.206 F 
ATOM     77  C   UNL A   1      40.733  36.509  37.970  1.00  0.00     0.059 A 
ATOM     78  C   UNL A   1      39.028  34.947  38.607  1.00  0.00     0.059 A 
ATOM     79  F   UNL A   1      38.704  33.021  37.410  1.00  0.00    -0.206 F 
ATOM     80  C   UNL A   1      39.693  36.135  38.822  1.00  0.00     0.060 A 
BRANCH  80  81
ATOM     81  S   UNL A   1      39.098  37.250  40.114  1.00  0.00     0.124 S 
ATOM     82  O   UNL A   1      38.279  36.364  40.931  1.00  0.00    -0.237 OA
ATOM     83  O   UNL A   1      40.340  37.716  40.723  1.00  0.00    -0.237 OA
ATOM     84  O   UNL A   1      38.366  38.269  39.363  1.00  0.00    -0.744 OA
ENDBRANCH  80  81
ENDBRANCH  48  73
BRANCH  60  85
ATOM     85  C   UNL A   1      43.036  32.250  31.540  1.00  0.00     0.058 A 
ATOM     86  C   UNL A   1      44.274  32.916  31.590  1.00  0.00     0.135 A 
ATOM     87  C   UNL A   1      42.157  32.687  30.533  1.00  0.00     0.135 A 
ATOM     88  F   UNL A   1      45.186  32.563  32.509  1.00  0.00    -0.206 F 
ATOM     89  C   UNL A   1      44.612  33.949  30.708  1.00  0.00     0.059 A 
ATOM     90  C   UNL A   1      42.470  33.712  29.630  1.00  0.00     0.059 A 
ATOM     91  F   UNL A   1      40.955  32.130  30.396  1.00  0.00    -0.206 F 
ATOM     92  C   UNL A   1      43.704  34.340  29.725  1.00  0.00     0.060 A 
BRANCH  92  93
ATOM     93  S   UNL A   1      44.180  35.639  28.562  1.00  0.00     0.124 S 
ATOM     94  O   UNL A   1      45.637  35.571  28.592  1.00  0.00    -0.237 OA
ATOM     95  O   UNL A   1      43.552  35.186  27.325  1.00  0.00    -0.237 OA
ATOM     96  O   UNL A   1      43.603  36.850  29.142  1.00  0.00    -0.744 OA
ENDBRANCH  92  93
ENDBRANCH  60  85
ENDBRANCH  34  35
ENDBRANCH  26  29
ENDBRANCH  24  25
ENDBRANCH  23  24
ENDBRANCH   1  23
TORSDOF 18
ENDMDL
MODEL 3
REMARK VINA RESULT:     -11.3      1.434      3.606
REMARK SMILES CC(C)(C)[NH2+]Cc1ccn(CC(C)(C)C(=O)NCCCNC(=O)c2ccc(-c3c4nc(c(-c5c(F)cc(S(=O)(=O)[O-])cc5F)c5ccc([nH]5)c(-c5c(F)cc(S(=O)(=O)[O-])cc5F)c5nc(c(-c6c(F)cc(S(=O)(=O)[O-])cc6F)c6ccc3[nH]6)C=C5)C=C4)cc2)c1
REMARK SMILES IDX 18 1 17 2 15 3 16 4 12 6 13 7 14 8 11 9 10 10 7 11 8 12
REMARK SMILES IDX 90 13 9 14 6 15 5 16 2 19 1 20 3 21 4 22 19 23 20 24 21 25
REMARK SMILES IDX 22 26 23 28 24 29 25 30 89 31 26 32 88 33 27 34 28 35 29 36
REMARK SMILES IDX 82 37 30 38 87 39 81 40 83 41 31 42 86 43 80 44 79 45 32 47
REMARK SMILES IDX 66 48 45 49 65 50 46 51 49 52 64 53 84 54 47 55 48 56 63 58
REMARK SMILES IDX 85 59 50 60 33 61 34 62 43 63 35 64 36 65 42 66 44 67 37 68
REMARK SMILES IDX 38 69 39 70 40 71 41 72 67 73 68 74 77 75 69 76 70 77 76 78
REMARK SMILES IDX 78 79 71 80 72 81 73 82 74 83 75 84 51 85 52 86 61 87 53 88
REMARK SMILES IDX 54 89 60 90 62 91 55 92 56 93 57 94 58 95 59 96
REMARK H PARENT 17 5 5 17 5 18 21 27 83 46 49 57
REMARK Flexibility Score: inf
ROOT
ATOM      1  C   UNL A   1      32.799  29.647  25.978  1.00  0.00     0.117 C 
ENDROOT
BRANCH   1   2
ATOM      2  N   UNL A   1      33.184  29.482  24.594  1.00  0.00    -0.356 N 
ATOM      3  C   UNL A   1      32.571  28.876  23.550  1.00  0.00     0.227 C 
ATOM      4  O   UNL A   1      33.273  28.691  22.552  1.00  0.00    -0.274 OA
ATOM      5  H   UNL A   1      34.054  29.885  24.370  1.00  0.00     0.163 HD
BRANCH   3   6
ATOM      6  C   UNL A   1      31.127  28.348  23.622  1.00  0.00     0.061 C 
ATOM      7  C   UNL A   1      30.027  29.428  23.582  1.00  0.00     0.023 C 
ATOM      8  C   UNL A   1      30.984  27.556  24.933  1.00  0.00     0.023 C 
BRANCH   6   9
ATOM      9  C   UNL A   1      30.933  27.363  22.426  1.00  0.00     0.137 C 
BRANCH   9  10
ATOM     10  N   UNL A   1      31.181  25.949  22.693  1.00  0.00    -0.353 N 
ATOM     11  C   UNL A   1      32.181  23.947  22.673  1.00  0.00     0.024 A 
ATOM     12  C   UNL A   1      30.908  23.828  23.284  1.00  0.00     0.029 A 
ATOM     13  C   UNL A   1      32.285  25.261  22.249  1.00  0.00     0.095 A 
ATOM     14  C   UNL A   1      30.403  25.096  23.423  1.00  0.00     0.086 A 
BRANCH  11  15
ATOM     15  C   UNL A   1      33.195  22.865  22.561  1.00  0.00     0.299 C 
BRANCH  15  16
ATOM     16  N   UNL A   1      33.649  22.474  23.899  1.00  0.00    -0.338 N 
ATOM     17  H   UNL A   1      34.669  22.515  23.890  1.00  0.00     0.347 HD
ATOM     18  H   UNL A   1      33.166  23.126  24.517  1.00  0.00     0.347 HD
BRANCH  16  19
ATOM     19  C   UNL A   1      33.279  21.149  24.435  1.00  0.00     0.088 C 
ATOM     20  C   UNL A   1      34.479  20.322  24.925  1.00  0.00     0.078 C 
ATOM     21  C   UNL A   1      32.416  20.310  23.467  1.00  0.00     0.078 C 
ATOM     22  C   UNL A   1      32.387  21.458  25.655  1.00  0.00     0.078 C 
ENDBRANCH  16  19
ENDBRANCH  15  16
ENDBRANCH  11  15
ENDBRANCH   9  10
ENDBRANCH   6   9
ENDBRANCH   3   6
ENDBRANCH   1   2
BRANCH   1  23
ATOM     23  C   UNL A   1      33.492  28.634  26.883  1.00  0.00     0.042 C 
BRANCH  23  24
ATOM     24  C   UNL A   1      34.995  28.858  26.929  1.00  0.00     0.118 C 
BRANCH  24  25
ATOM     25  N   UNL A   1      35.300  30.243  27.250  1.00  0.00    -0.352 N 
ATOM     26  C   UNL A   1      36.321  30.758  28.008  1.00  0.00     0.251 C 
ATOM     27  H   UNL A   1      34.684  30.909  26.867  1.00  0.00     0.163 HD
ATOM     28  O   UNL A   1      36.260  31.916  28.390  1.00  0.00    -0.269 OA
BRANCH  26  29
ATOM     29  C   UNL A   1      37.463  29.905  28.381  1.00  0.00     0.039 A 
ATOM     30  C   UNL A   1      38.596  29.934  27.561  1.00  0.00     0.014 A 
ATOM     31  C   UNL A   1      37.402  29.054  29.489  1.00  0.00     0.014 A 
ATOM     32  C   UNL A   1      39.691  29.147  27.887  1.00  0.00     0.010 A 
ATOM     33  C   UNL A   1      38.511  28.311  29.850  1.00  0.00     0.010 A 
ATOM     34  C   UNL A   1      39.649  28.355  29.041  1.00  0.00    -0.014 A 
BRANCH  34  35
ATOM     35  C   UNL A   1      40.859  27.625  29.454  1.00  0.00     0.031 A 
ATOM     36  C   UNL A   1      41.080  26.374  28.576  1.00  0.00     0.074 A 
ATOM     37  C   UNL A   1      41.534  28.163  30.519  1.00  0.00     0.049 A 
ATOM     38  N   UNL A   1      41.584  25.218  28.879  1.00  0.00    -0.248 NA
ATOM     39  C   UNL A   1      40.568  26.368  27.173  1.00  0.00     0.031 C 
ATOM     40  C   UNL A   1      41.163  29.428  31.206  1.00  0.00     0.029 A 
ATOM     41  N   UNL A   1      42.650  27.796  31.239  1.00  0.00    -0.354 N 
ATOM     42  C   UNL A   1      41.661  24.450  27.689  1.00  0.00     0.074 A 
ATOM     43  C   UNL A   1      40.886  25.152  26.714  1.00  0.00     0.031 C 
ATOM     44  C   UNL A   1      41.975  29.671  32.258  1.00  0.00     0.029 A 
ATOM     45  C   UNL A   1      42.954  28.611  32.369  1.00  0.00     0.049 A 
ATOM     46  H   UNL A   1      43.202  27.020  30.990  1.00  0.00     0.167 HD
ATOM     47  C   UNL A   1      42.494  23.370  27.552  1.00  0.00     0.037 A 
ATOM     48  C   UNL A   1      43.897  28.413  33.345  1.00  0.00     0.037 A 
ATOM     49  C   UNL A   1      43.251  23.217  28.751  1.00  0.00     0.049 A 
ATOM     50  C   UNL A   1      44.656  27.245  32.885  1.00  0.00     0.074 A 
ATOM     51  C   UNL A   1      42.901  22.815  30.012  1.00  0.00     0.029 A 
ATOM     52  N   UNL A   1      44.448  23.896  28.799  1.00  0.00    -0.354 N 
ATOM     53  N   UNL A   1      45.495  27.255  31.895  1.00  0.00    -0.248 NA
ATOM     54  C   UNL A   1      44.396  25.947  33.517  1.00  0.00     0.031 C 
ATOM     55  C   UNL A   1      43.624  23.702  30.832  1.00  0.00     0.029 A 
ATOM     56  C   UNL A   1      44.569  24.399  30.067  1.00  0.00     0.049 A 
ATOM     57  H   UNL A   1      45.094  23.997  28.063  1.00  0.00     0.167 HD
ATOM     58  C   UNL A   1      45.577  25.924  31.573  1.00  0.00     0.074 A 
ATOM     59  C   UNL A   1      45.164  25.182  32.748  1.00  0.00     0.031 C 
ATOM     60  C   UNL A   1      45.413  25.553  30.278  1.00  0.00     0.037 A 
BRANCH  47  61
ATOM     61  C   UNL A   1      42.954  22.539  26.379  1.00  0.00     0.058 A 
ATOM     62  C   UNL A   1      42.533  21.182  26.328  1.00  0.00     0.135 A 
ATOM     63  C   UNL A   1      44.019  22.879  25.535  1.00  0.00     0.135 A 
ATOM     64  F   UNL A   1      41.473  20.764  27.041  1.00  0.00    -0.206 F 
ATOM     65  C   UNL A   1      43.217  20.204  25.615  1.00  0.00     0.059 A 
ATOM     66  C   UNL A   1      44.695  21.917  24.772  1.00  0.00     0.059 A 
ATOM     67  F   UNL A   1      44.484  24.134  25.483  1.00  0.00    -0.206 F 
ATOM     68  C   UNL A   1      44.324  20.576  24.866  1.00  0.00     0.060 A 
BRANCH  68  69
ATOM     69  S   UNL A   1      45.279  19.275  24.055  1.00  0.00     0.124 S 
ATOM     70  O   UNL A   1      44.995  18.123  24.903  1.00  0.00    -0.237 OA
ATOM     71  O   UNL A   1      44.682  19.240  22.722  1.00  0.00    -0.237 OA
ATOM     72  O   UNL A   1      46.647  19.781  24.106  1.00  0.00    -0.744 OA
ENDBRANCH  68  69
ENDBRANCH  47  61
BRANCH  48  73
ATOM     73  C   UNL A   1      44.275  28.924  34.723  1.00  0.00     0.058 A 
ATOM     74  C   UNL A   1      43.537  28.777  35.902  1.00  0.00     0.135 A 
ATOM     75  C   UNL A   1      45.588  29.451  34.924  1.00  0.00     0.135 A 
ATOM     76  F   UNL A   1      42.245  28.427  35.869  1.00  0.00    -0.206 F 
ATOM     77  C   UNL A   1      44.113  28.958  37.177  1.00  0.00     0.059 A 
ATOM     78  C   UNL A   1      46.198  29.575  36.167  1.00  0.00     0.059 A 
ATOM     79  F   UNL A   1      46.369  29.814  33.895  1.00  0.00    -0.206 F 
ATOM     80  C   UNL A   1      45.463  29.289  37.297  1.00  0.00     0.060 A 
BRANCH  80  81
ATOM     81  S   UNL A   1      46.308  29.200  38.892  1.00  0.00     0.124 S 
ATOM     82  O   UNL A   1      47.018  27.931  38.793  1.00  0.00    -0.237 OA
ATOM     83  O   UNL A   1      47.139  30.400  38.874  1.00  0.00    -0.237 OA
ATOM     84  O   UNL A   1      45.208  29.233  39.854  1.00  0.00    -0.744 OA
ENDBRANCH  80  81
ENDBRANCH  48  73
BRANCH  60  85
ATOM     85  C   UNL A   1      45.801  26.614  29.255  1.00  0.00     0.058 A 
ATOM     86  C   UNL A   1      44.813  27.195  28.441  1.00  0.00     0.135 A 
ATOM     87  C   UNL A   1      47.121  27.010  28.976  1.00  0.00     0.135 A 
ATOM     88  F   UNL A   1      43.520  26.889  28.637  1.00  0.00    -0.206 F 
ATOM     89  C   UNL A   1      45.113  28.100  27.417  1.00  0.00     0.059 A 
ATOM     90  C   UNL A   1      47.453  27.920  27.964  1.00  0.00     0.059 A 
ATOM     91  F   UNL A   1      48.138  26.519  29.681  1.00  0.00    -0.206 F 
ATOM     92  C   UNL A   1      46.439  28.462  27.186  1.00  0.00     0.060 A 
BRANCH  92  93
ATOM     93  S   UNL A   1      46.803  29.673  25.893  1.00  0.00     0.124 S 
ATOM     94  O   UNL A   1      45.743  30.659  26.077  1.00  0.00    -0.237 OA
ATOM     95  O   UNL A   1      48.146  30.114  26.257  1.00  0.00    -0.237 OA
ATOM     96  O   UNL A   1      46.719  28.896  24.658  1.00  0.00    -0.744 OA
ENDBRANCH  92  93
ENDBRANCH  60  85
ENDBRANCH  34  35
ENDBRANCH  26  29
ENDBRANCH  24  25
ENDBRANCH  23  24
ENDBRANCH   1  23
TORSDOF 18
ENDMDL
