MODEL 1
REMARK VINA RESULT:     -12.4      0.000      0.000
REMARK SMILES CC[C@@H](C)c1ccccc1NC(=O)[C@@H]1[C@@H](C(=O)NCCCNC(=O)c2ccc(-c3c4nc(c(-c5c(F)cc(S(=O)(=O)[O-])cc5F)c5ccc([nH]5)c(-c5c(F)cc(S(=O)(=O)[O-])cc5F)c5nc(c(-c6c(F)cc(S(=O)(=O)[O-])cc6F)c6ccc3[nH]6)C=C5)C=C4)cc2)[C@@H]2C=C[C@H]1C2
REMARK SMILES IDX 19 1 18 2 16 3 17 4 15 6 14 7 94 8 91 9 93 10 95 11 92 12
REMARK SMILES IDX 12 13 11 14 13 16 10 17 5 18 6 19 7 20 9 21 8 22 3 23 4 24
REMARK SMILES IDX 2 25 1 26 20 27 21 28 22 29 23 30 24 32 25 33 26 34 90 35
REMARK SMILES IDX 27 36 89 37 28 38 29 39 30 40 83 41 31 42 88 43 82 44 84 45
REMARK SMILES IDX 32 46 87 47 81 48 80 49 33 51 67 52 46 53 66 54 47 55 50 56
REMARK SMILES IDX 65 57 85 58 48 59 49 60 64 62 86 63 51 64 34 65 35 66 44 67
REMARK SMILES IDX 36 68 37 69 43 70 45 71 38 72 39 73 40 74 41 75 42 76 68 77
REMARK SMILES IDX 69 78 78 79 70 80 71 81 77 82 79 83 72 84 73 85 74 86 75 87
REMARK SMILES IDX 76 88 52 89 53 90 62 91 54 92 55 93 61 94 63 95 56 96 57 97
REMARK SMILES IDX 58 98 59 99 60 100
REMARK H PARENT 18 5 11 15 22 31 84 50 50 61
REMARK Flexibility Score: inf
ROOT
ATOM      1  C   UNL A   1      36.595  23.563  24.846  1.00  0.00     0.117 C 
ENDROOT
BRANCH   1   2
ATOM      2  N   UNL A   1      35.741  24.607  25.382  1.00  0.00    -0.356 N 
ATOM      3  C   UNL A   1      34.463  25.005  25.174  1.00  0.00     0.224 C 
ATOM      4  O   UNL A   1      34.095  25.954  25.880  1.00  0.00    -0.275 OA
ATOM      5  H   UNL A   1      36.199  25.155  26.060  1.00  0.00     0.163 HD
BRANCH   3   6
ATOM      6  C   UNL A   1      33.435  24.339  24.258  1.00  0.00     0.098 C 
ATOM      7  C   UNL A   1      32.508  25.419  23.624  1.00  0.00     0.099 C 
ATOM      8  C   UNL A   1      31.097  24.773  23.723  1.00  0.00     0.025 C 
ATOM      9  C   UNL A   1      32.398  23.373  24.880  1.00  0.00     0.025 C 
ATOM     10  C   UNL A   1      31.049  23.436  23.023  1.00  0.00    -0.027 C 
ATOM     11  C   UNL A   1      31.171  24.274  25.152  1.00  0.00     0.017 C 
ATOM     12  C   UNL A   1      31.806  22.586  23.732  1.00  0.00    -0.027 C 
BRANCH   7  13
ATOM     13  C   UNL A   1      32.736  25.925  22.199  1.00  0.00     0.228 C 
ATOM     14  N   UNL A   1      32.524  27.286  21.975  1.00  0.00    -0.326 N 
ATOM     15  H   UNL A   1      32.492  27.590  21.039  1.00  0.00     0.169 HD
ATOM     16  O   UNL A   1      32.963  25.179  21.249  1.00  0.00    -0.274 OA
BRANCH  14  17
ATOM     17  C   UNL A   1      32.353  28.267  22.979  1.00  0.00     0.044 A 
ATOM     18  C   UNL A   1      31.081  28.739  23.347  1.00  0.00    -0.022 A 
ATOM     19  C   UNL A   1      30.976  29.404  24.589  1.00  0.00     0.006 A 
ATOM     20  C   UNL A   1      32.093  29.651  25.390  1.00  0.00     0.000 A 
ATOM     21  C   UNL A   1      33.483  28.681  23.702  1.00  0.00     0.026 A 
ATOM     22  C   UNL A   1      33.357  29.335  24.921  1.00  0.00     0.002 A 
BRANCH  18  23
ATOM     23  C   UNL A   1      29.849  28.620  22.453  1.00  0.00     0.018 C 
ATOM     24  C   UNL A   1      29.738  29.930  21.658  1.00  0.00     0.013 C 
BRANCH  23  25
ATOM     25  C   UNL A   1      28.545  28.294  23.221  1.00  0.00     0.005 C 
ATOM     26  C   UNL A   1      28.475  26.864  23.744  1.00  0.00     0.004 C 
ENDBRANCH  23  25
ENDBRANCH  18  23
ENDBRANCH  14  17
ENDBRANCH   7  13
ENDBRANCH   3   6
ENDBRANCH   1   2
BRANCH   1  27
ATOM     27  C   UNL A   1      37.591  23.031  25.863  1.00  0.00     0.042 C 
BRANCH  27  28
ATOM     28  C   UNL A   1      38.399  24.133  26.526  1.00  0.00     0.118 C 
BRANCH  28  29
ATOM     29  N   UNL A   1      39.804  24.104  26.125  1.00  0.00    -0.352 N 
ATOM     30  C   UNL A   1      40.838  24.944  26.449  1.00  0.00     0.251 C 
ATOM     31  H   UNL A   1      40.047  23.363  25.524  1.00  0.00     0.163 HD
ATOM     32  O   UNL A   1      41.897  24.863  25.822  1.00  0.00    -0.269 OA
BRANCH  30  33
ATOM     33  C   UNL A   1      40.692  25.940  27.531  1.00  0.00     0.039 A 
ATOM     34  C   UNL A   1      39.729  25.736  28.523  1.00  0.00     0.014 A 
ATOM     35  C   UNL A   1      41.482  27.091  27.554  1.00  0.00     0.014 A 
ATOM     36  C   UNL A   1      39.598  26.661  29.561  1.00  0.00     0.010 A 
ATOM     37  C   UNL A   1      41.428  27.950  28.644  1.00  0.00     0.010 A 
ATOM     38  C   UNL A   1      40.468  27.761  29.646  1.00  0.00    -0.014 A 
BRANCH  38  39
ATOM     39  C   UNL A   1      40.362  28.757  30.741  1.00  0.00     0.031 A 
ATOM     40  C   UNL A   1      41.249  28.630  31.953  1.00  0.00     0.074 A 
ATOM     41  C   UNL A   1      39.433  29.732  30.675  1.00  0.00     0.049 A 
ATOM     42  N   UNL A   1      41.254  29.338  33.052  1.00  0.00    -0.248 NA
ATOM     43  C   UNL A   1      42.239  27.539  31.942  1.00  0.00     0.031 C 
ATOM     44  C   UNL A   1      38.486  29.929  29.574  1.00  0.00     0.029 A 
ATOM     45  N   UNL A   1      39.128  30.738  31.556  1.00  0.00    -0.354 N 
ATOM     46  C   UNL A   1      42.231  28.770  33.863  1.00  0.00     0.074 A 
ATOM     47  C   UNL A   1      42.747  27.617  33.162  1.00  0.00     0.031 C 
ATOM     48  C   UNL A   1      37.729  31.007  29.832  1.00  0.00     0.029 A 
ATOM     49  C   UNL A   1      38.104  31.553  31.133  1.00  0.00     0.049 A 
ATOM     50  H   UNL A   1      39.598  30.864  32.412  1.00  0.00     0.167 HD
ATOM     51  C   UNL A   1      42.683  29.191  35.068  1.00  0.00     0.037 A 
ATOM     52  C   UNL A   1      37.533  32.617  31.728  1.00  0.00     0.037 A 
ATOM     53  C   UNL A   1      42.184  30.358  35.745  1.00  0.00     0.049 A 
ATOM     54  C   UNL A   1      38.049  33.063  33.071  1.00  0.00     0.074 A 
ATOM     55  C   UNL A   1      42.598  30.898  36.949  1.00  0.00     0.029 A 
ATOM     56  N   UNL A   1      41.166  31.172  35.271  1.00  0.00    -0.354 N 
ATOM     57  N   UNL A   1      39.007  32.543  33.802  1.00  0.00    -0.248 NA
ATOM     58  C   UNL A   1      37.414  34.246  33.666  1.00  0.00     0.031 C 
ATOM     59  C   UNL A   1      41.802  32.014  37.224  1.00  0.00     0.029 A 
ATOM     60  C   UNL A   1      40.929  32.203  36.164  1.00  0.00     0.049 A 
ATOM     61  H   UNL A   1      40.681  31.036  34.424  1.00  0.00     0.167 HD
ATOM     62  C   UNL A   1      39.117  33.360  34.922  1.00  0.00     0.074 A 
ATOM     63  C   UNL A   1      38.132  34.411  34.768  1.00  0.00     0.031 C 
ATOM     64  C   UNL A   1      39.958  33.253  35.980  1.00  0.00     0.037 A 
BRANCH  51  65
ATOM     65  C   UNL A   1      43.780  28.393  35.721  1.00  0.00     0.058 A 
ATOM     66  C   UNL A   1      45.136  28.648  35.451  1.00  0.00     0.135 A 
ATOM     67  C   UNL A   1      43.479  27.383  36.648  1.00  0.00     0.135 A 
ATOM     68  F   UNL A   1      45.483  29.589  34.559  1.00  0.00    -0.206 F 
ATOM     69  C   UNL A   1      46.150  27.909  36.052  1.00  0.00     0.059 A 
ATOM     70  C   UNL A   1      44.478  26.653  37.286  1.00  0.00     0.059 A 
ATOM     71  F   UNL A   1      42.202  27.094  36.942  1.00  0.00    -0.206 F 
ATOM     72  C   UNL A   1      45.810  26.914  36.970  1.00  0.00     0.060 A 
BRANCH  72  73
ATOM     73  S   UNL A   1      47.141  25.974  37.747  1.00  0.00     0.124 S 
ATOM     74  O   UNL A   1      47.141  24.753  36.947  1.00  0.00    -0.237 OA
ATOM     75  O   UNL A   1      48.292  26.852  37.562  1.00  0.00    -0.237 OA
ATOM     76  O   UNL A   1      46.688  25.820  39.126  1.00  0.00    -0.744 OA
ENDBRANCH  72  73
ENDBRANCH  51  65
BRANCH  52  77
ATOM     77  C   UNL A   1      36.434  33.355  31.049  1.00  0.00     0.058 A 
ATOM     78  C   UNL A   1      35.114  33.272  31.519  1.00  0.00     0.135 A 
ATOM     79  C   UNL A   1      36.675  34.152  29.920  1.00  0.00     0.135 A 
ATOM     80  F   UNL A   1      34.830  32.522  32.594  1.00  0.00    -0.206 F 
ATOM     81  C   UNL A   1      34.068  33.930  30.879  1.00  0.00     0.059 A 
ATOM     82  C   UNL A   1      35.650  34.843  29.279  1.00  0.00     0.059 A 
ATOM     83  F   UNL A   1      37.921  34.282  29.442  1.00  0.00    -0.206 F 
ATOM     84  C   UNL A   1      34.347  34.713  29.757  1.00  0.00     0.060 A 
BRANCH  84  85
ATOM     85  S   UNL A   1      32.987  35.583  28.951  1.00  0.00     0.124 S 
ATOM     86  O   UNL A   1      32.415  34.529  28.119  1.00  0.00    -0.237 OA
ATOM     87  O   UNL A   1      32.177  36.008  30.089  1.00  0.00    -0.237 OA
ATOM     88  O   UNL A   1      33.657  36.661  28.231  1.00  0.00    -0.744 OA
ENDBRANCH  84  85
ENDBRANCH  52  77
BRANCH  64  89
ATOM     89  C   UNL A   1      39.896  34.333  37.027  1.00  0.00     0.058 A 
ATOM     90  C   UNL A   1      40.672  35.498  36.940  1.00  0.00     0.135 A 
ATOM     91  C   UNL A   1      39.008  34.214  38.108  1.00  0.00     0.135 A 
ATOM     92  F   UNL A   1      41.540  35.660  35.929  1.00  0.00    -0.206 F 
ATOM     93  C   UNL A   1      40.590  36.497  37.905  1.00  0.00     0.059 A 
ATOM     94  C   UNL A   1      38.887  35.215  39.067  1.00  0.00     0.059 A 
ATOM     95  F   UNL A   1      38.233  33.125  38.232  1.00  0.00    -0.206 F 
ATOM     96  C   UNL A   1      39.693  36.346  38.964  1.00  0.00     0.060 A 
BRANCH  96  97
ATOM     97  S   UNL A   1      39.577  37.662  40.194  1.00  0.00     0.124 S 
ATOM     98  O   UNL A   1      39.107  36.929  41.365  1.00  0.00    -0.237 OA
ATOM     99  O   UNL A   1      40.951  38.149  40.260  1.00  0.00    -0.237 OA
ATOM    100  O   UNL A   1      38.617  38.593  39.608  1.00  0.00    -0.744 OA
ENDBRANCH  96  97
ENDBRANCH  64  89
ENDBRANCH  38  39
ENDBRANCH  30  33
ENDBRANCH  28  29
ENDBRANCH  27  28
ENDBRANCH   1  27
TORSDOF 17
ENDMDL
MODEL 2
REMARK VINA RESULT:     -12.4      6.501     11.931
REMARK SMILES CC[C@@H](C)c1ccccc1NC(=O)[C@@H]1[C@@H](C(=O)NCCCNC(=O)c2ccc(-c3c4nc(c(-c5c(F)cc(S(=O)(=O)[O-])cc5F)c5ccc([nH]5)c(-c5c(F)cc(S(=O)(=O)[O-])cc5F)c5nc(c(-c6c(F)cc(S(=O)(=O)[O-])cc6F)c6ccc3[nH]6)C=C5)C=C4)cc2)[C@@H]2C=C[C@H]1C2
REMARK SMILES IDX 19 1 18 2 16 3 17 4 15 6 14 7 94 8 91 9 93 10 95 11 92 12
REMARK SMILES IDX 12 13 11 14 13 16 10 17 5 18 6 19 7 20 9 21 8 22 3 23 4 24
REMARK SMILES IDX 2 25 1 26 20 27 21 28 22 29 23 30 24 32 25 33 26 34 90 35
REMARK SMILES IDX 27 36 89 37 28 38 29 39 30 40 83 41 31 42 88 43 82 44 84 45
REMARK SMILES IDX 32 46 87 47 81 48 80 49 33 51 67 52 46 53 66 54 47 55 50 56
REMARK SMILES IDX 65 57 85 58 48 59 49 60 64 62 86 63 51 64 34 65 35 66 44 67
REMARK SMILES IDX 36 68 37 69 43 70 45 71 38 72 39 73 40 74 41 75 42 76 68 77
REMARK SMILES IDX 69 78 78 79 70 80 71 81 77 82 79 83 72 84 73 85 74 86 75 87
REMARK SMILES IDX 76 88 52 89 53 90 62 91 54 92 55 93 61 94 63 95 56 96 57 97
REMARK SMILES IDX 58 98 59 99 60 100
REMARK H PARENT 18 5 11 15 22 31 84 50 50 61
REMARK Flexibility Score: inf
ROOT
ATOM      1  C   UNL A   1      33.473  29.753  26.487  1.00  0.00     0.117 C 
ENDROOT
BRANCH   1   2
ATOM      2  N   UNL A   1      33.647  29.548  25.060  1.00  0.00    -0.356 N 
ATOM      3  C   UNL A   1      33.006  28.832  24.106  1.00  0.00     0.224 C 
ATOM      4  O   UNL A   1      33.471  28.956  22.964  1.00  0.00    -0.275 OA
ATOM      5  H   UNL A   1      34.413  30.051  24.700  1.00  0.00     0.163 HD
BRANCH   3   6
ATOM      6  C   UNL A   1      31.733  28.003  24.286  1.00  0.00     0.098 C 
ATOM      7  C   UNL A   1      32.100  26.550  24.712  1.00  0.00     0.099 C 
ATOM      8  C   UNL A   1      31.140  25.678  23.854  1.00  0.00     0.025 C 
ATOM      9  C   UNL A   1      30.832  27.742  23.054  1.00  0.00     0.025 C 
ATOM     10  C   UNL A   1      29.695  26.042  24.097  1.00  0.00    -0.027 C 
ATOM     11  C   UNL A   1      31.323  26.377  22.521  1.00  0.00     0.017 C 
ATOM     12  C   UNL A   1      29.501  27.269  23.592  1.00  0.00    -0.027 C 
BRANCH   7  13
ATOM     13  C   UNL A   1      32.020  26.105  26.173  1.00  0.00     0.228 C 
ATOM     14  N   UNL A   1      32.625  24.888  26.492  1.00  0.00    -0.326 N 
ATOM     15  H   UNL A   1      32.429  24.506  27.378  1.00  0.00     0.169 HD
ATOM     16  O   UNL A   1      31.354  26.695  27.020  1.00  0.00    -0.274 OA
BRANCH  14  17
ATOM     17  C   UNL A   1      33.495  24.158  25.651  1.00  0.00     0.044 A 
ATOM     18  C   UNL A   1      33.142  22.900  25.130  1.00  0.00    -0.022 A 
ATOM     19  C   UNL A   1      33.880  22.434  24.019  1.00  0.00     0.006 A 
ATOM     20  C   UNL A   1      34.961  23.150  23.498  1.00  0.00     0.000 A 
ATOM     21  C   UNL A   1      34.687  24.771  25.236  1.00  0.00     0.026 A 
ATOM     22  C   UNL A   1      35.399  24.295  24.142  1.00  0.00     0.002 A 
BRANCH  18  23
ATOM     23  C   UNL A   1      32.061  22.010  25.740  1.00  0.00     0.018 C 
ATOM     24  C   UNL A   1      32.177  20.633  25.069  1.00  0.00     0.013 C 
BRANCH  23  25
ATOM     25  C   UNL A   1      30.631  22.594  25.626  1.00  0.00     0.005 C 
ATOM     26  C   UNL A   1      29.951  22.831  26.970  1.00  0.00     0.004 C 
ENDBRANCH  23  25
ENDBRANCH  18  23
ENDBRANCH  14  17
ENDBRANCH   7  13
ENDBRANCH   3   6
ENDBRANCH   1   2
BRANCH   1  27
ATOM     27  C   UNL A   1      34.688  29.335  27.297  1.00  0.00     0.042 C 
BRANCH  27  28
ATOM     28  C   UNL A   1      35.484  30.520  27.816  1.00  0.00     0.118 C 
BRANCH  28  29
ATOM     29  N   UNL A   1      35.435  30.622  29.273  1.00  0.00    -0.352 N 
ATOM     30  C   UNL A   1      36.354  30.254  30.222  1.00  0.00     0.251 C 
ATOM     31  H   UNL A   1      34.607  31.018  29.632  1.00  0.00     0.163 HD
ATOM     32  O   UNL A   1      36.015  30.226  31.407  1.00  0.00    -0.269 OA
BRANCH  30  33
ATOM     33  C   UNL A   1      37.732  29.888  29.835  1.00  0.00     0.039 A 
ATOM     34  C   UNL A   1      38.619  29.429  30.814  1.00  0.00     0.014 A 
ATOM     35  C   UNL A   1      38.164  30.024  28.514  1.00  0.00     0.014 A 
ATOM     36  C   UNL A   1      39.917  29.061  30.454  1.00  0.00     0.010 A 
ATOM     37  C   UNL A   1      39.415  29.552  28.139  1.00  0.00     0.010 A 
ATOM     38  C   UNL A   1      40.316  29.090  29.107  1.00  0.00    -0.014 A 
BRANCH  38  39
ATOM     39  C   UNL A   1      41.684  28.697  28.690  1.00  0.00     0.031 A 
ATOM     40  C   UNL A   1      42.775  29.736  28.637  1.00  0.00     0.074 A 
ATOM     41  C   UNL A   1      41.931  27.430  28.302  1.00  0.00     0.049 A 
ATOM     42  N   UNL A   1      44.008  29.620  28.218  1.00  0.00    -0.248 NA
ATOM     43  C   UNL A   1      42.422  31.096  29.082  1.00  0.00     0.031 C 
ATOM     44  C   UNL A   1      40.945  26.347  28.266  1.00  0.00     0.029 A 
ATOM     45  N   UNL A   1      43.087  26.839  27.858  1.00  0.00    -0.354 N 
ATOM     46  C   UNL A   1      44.567  30.889  28.335  1.00  0.00     0.074 A 
ATOM     47  C   UNL A   1      43.522  31.773  28.794  1.00  0.00     0.031 C 
ATOM     48  C   UNL A   1      41.545  25.219  27.853  1.00  0.00     0.029 A 
ATOM     49  C   UNL A   1      42.945  25.505  27.555  1.00  0.00     0.049 A 
ATOM     50  H   UNL A   1      43.937  27.325  27.763  1.00  0.00     0.167 HD
ATOM     51  C   UNL A   1      45.847  31.275  28.113  1.00  0.00     0.037 A 
ATOM     52  C   UNL A   1      43.842  24.616  27.087  1.00  0.00     0.037 A 
ATOM     53  C   UNL A   1      46.889  30.381  27.685  1.00  0.00     0.049 A 
ATOM     54  C   UNL A   1      45.256  25.071  26.843  1.00  0.00     0.074 A 
ATOM     55  C   UNL A   1      48.226  30.658  27.469  1.00  0.00     0.029 A 
ATOM     56  N   UNL A   1      46.711  29.032  27.415  1.00  0.00    -0.354 N 
ATOM     57  N   UNL A   1      45.781  26.264  27.006  1.00  0.00    -0.248 NA
ATOM     58  C   UNL A   1      46.206  24.058  26.362  1.00  0.00     0.031 C 
ATOM     59  C   UNL A   1      48.849  29.486  27.029  1.00  0.00     0.029 A 
ATOM     60  C   UNL A   1      47.912  28.465  27.024  1.00  0.00     0.049 A 
ATOM     61  H   UNL A   1      45.856  28.548  27.490  1.00  0.00     0.167 HD
ATOM     62  C   UNL A   1      47.128  26.133  26.687  1.00  0.00     0.074 A 
ATOM     63  C   UNL A   1      47.338  24.745  26.329  1.00  0.00     0.031 C 
ATOM     64  C   UNL A   1      48.104  27.075  26.692  1.00  0.00     0.037 A 
BRANCH  51  65
ATOM     65  C   UNL A   1      46.189  32.723  28.346  1.00  0.00     0.058 A 
ATOM     66  C   UNL A   1      46.093  33.677  27.319  1.00  0.00     0.135 A 
ATOM     67  C   UNL A   1      46.590  33.170  29.615  1.00  0.00     0.135 A 
ATOM     68  F   UNL A   1      45.734  33.303  26.080  1.00  0.00    -0.206 F 
ATOM     69  C   UNL A   1      46.412  35.013  27.533  1.00  0.00     0.059 A 
ATOM     70  C   UNL A   1      46.882  34.509  29.861  1.00  0.00     0.059 A 
ATOM     71  F   UNL A   1      46.702  32.303  30.634  1.00  0.00    -0.206 F 
ATOM     72  C   UNL A   1      46.804  35.420  28.809  1.00  0.00     0.060 A 
BRANCH  72  73
ATOM     73  S   UNL A   1      47.203  37.161  29.070  1.00  0.00     0.124 S 
ATOM     74  O   UNL A   1      46.642  37.393  30.398  1.00  0.00    -0.237 OA
ATOM     75  O   UNL A   1      48.661  37.162  28.990  1.00  0.00    -0.237 OA
ATOM     76  O   UNL A   1      46.518  37.836  27.973  1.00  0.00    -0.744 OA
ENDBRANCH  72  73
ENDBRANCH  51  65
BRANCH  52  77
ATOM     77  C   UNL A   1      43.443  23.202  26.851  1.00  0.00     0.058 A 
ATOM     78  C   UNL A   1      43.263  22.316  27.924  1.00  0.00     0.135 A 
ATOM     79  C   UNL A   1      43.238  22.706  25.554  1.00  0.00     0.135 A 
ATOM     80  F   UNL A   1      43.449  22.741  29.183  1.00  0.00    -0.206 F 
ATOM     81  C   UNL A   1      42.922  20.982  27.721  1.00  0.00     0.059 A 
ATOM     82  C   UNL A   1      42.868  21.383  25.327  1.00  0.00     0.059 A 
ATOM     83  F   UNL A   1      43.377  23.516  24.494  1.00  0.00    -0.206 F 
ATOM     84  C   UNL A   1      42.727  20.525  26.416  1.00  0.00     0.060 A 
BRANCH  84  85
ATOM     85  S   UNL A   1      42.258  18.800  26.166  1.00  0.00     0.124 S 
ATOM     86  O   UNL A   1      43.250  18.365  25.188  1.00  0.00    -0.237 OA
ATOM     87  O   UNL A   1      42.400  18.246  27.509  1.00  0.00    -0.237 OA
ATOM     88  O   UNL A   1      40.887  18.893  25.676  1.00  0.00    -0.744 OA
ENDBRANCH  84  85
ENDBRANCH  52  77
BRANCH  64  89
ATOM     89  C   UNL A   1      49.502  26.627  26.361  1.00  0.00     0.058 A 
ATOM     90  C   UNL A   1      50.324  25.996  27.306  1.00  0.00     0.135 A 
ATOM     91  C   UNL A   1      50.003  26.791  25.059  1.00  0.00     0.135 A 
ATOM     92  F   UNL A   1      49.895  25.819  28.565  1.00  0.00    -0.206 F 
ATOM     93  C   UNL A   1      51.608  25.570  26.980  1.00  0.00     0.059 A 
ATOM     94  C   UNL A   1      51.271  26.344  24.703  1.00  0.00     0.059 A 
ATOM     95  F   UNL A   1      49.252  27.377  24.113  1.00  0.00    -0.206 F 
ATOM     96  C   UNL A   1      52.071  25.747  25.675  1.00  0.00     0.060 A 
BRANCH  96  97
ATOM     97  S   UNL A   1      53.728  25.164  25.258  1.00  0.00     0.124 S 
ATOM     98  O   UNL A   1      53.873  25.647  23.889  1.00  0.00    -0.237 OA
ATOM     99  O   UNL A   1      54.555  25.834  26.258  1.00  0.00    -0.237 OA
ATOM    100  O   UNL A   1      53.628  23.715  25.407  1.00  0.00    -0.744 OA
ENDBRANCH  96  97
ENDBRANCH  64  89
ENDBRANCH  38  39
ENDBRANCH  30  33
ENDBRANCH  28  29
ENDBRANCH  27  28
ENDBRANCH   1  27
TORSDOF 17
ENDMDL
MODEL 3
REMARK VINA RESULT:     -12.1      6.498     11.880
REMARK SMILES CC[C@@H](C)c1ccccc1NC(=O)[C@@H]1[C@@H](C(=O)NCCCNC(=O)c2ccc(-c3c4nc(c(-c5c(F)cc(S(=O)(=O)[O-])cc5F)c5ccc([nH]5)c(-c5c(F)cc(S(=O)(=O)[O-])cc5F)c5nc(c(-c6c(F)cc(S(=O)(=O)[O-])cc6F)c6ccc3[nH]6)C=C5)C=C4)cc2)[C@@H]2C=C[C@H]1C2
REMARK SMILES IDX 19 1 18 2 16 3 17 4 15 6 14 7 94 8 91 9 93 10 95 11 92 12
REMARK SMILES IDX 12 13 11 14 13 16 10 17 5 18 6 19 7 20 9 21 8 22 3 23 4 24
REMARK SMILES IDX 2 25 1 26 20 27 21 28 22 29 23 30 24 32 25 33 26 34 90 35
REMARK SMILES IDX 27 36 89 37 28 38 29 39 30 40 83 41 31 42 88 43 82 44 84 45
REMARK SMILES IDX 32 46 87 47 81 48 80 49 33 51 67 52 46 53 66 54 47 55 50 56
REMARK SMILES IDX 65 57 85 58 48 59 49 60 64 62 86 63 51 64 34 65 35 66 44 67
REMARK SMILES IDX 36 68 37 69 43 70 45 71 38 72 39 73 40 74 41 75 42 76 68 77
REMARK SMILES IDX 69 78 78 79 70 80 71 81 77 82 79 83 72 84 73 85 74 86 75 87
REMARK SMILES IDX 76 88 52 89 53 90 62 91 54 92 55 93 61 94 63 95 56 96 57 97
REMARK SMILES IDX 58 98 59 99 60 100
REMARK H PARENT 18 5 11 15 22 31 84 50 50 61
REMARK Flexibility Score: inf
ROOT
ATOM      1  C   UNL A   1      34.274  29.054  27.286  1.00  0.00     0.117 C 
ENDROOT
BRANCH   1   2
ATOM      2  N   UNL A   1      33.016  28.440  27.669  1.00  0.00    -0.356 N 
ATOM      3  C   UNL A   1      31.906  28.031  27.011  1.00  0.00     0.224 C 
ATOM      4  O   UNL A   1      31.038  27.514  27.729  1.00  0.00    -0.275 OA
ATOM      5  H   UNL A   1      32.956  28.282  28.640  1.00  0.00     0.163 HD
BRANCH   3   6
ATOM      6  C   UNL A   1      31.682  28.045  25.497  1.00  0.00     0.098 C 
ATOM      7  C   UNL A   1      31.652  26.586  24.951  1.00  0.00     0.099 C 
ATOM      8  C   UNL A   1      32.490  26.683  23.644  1.00  0.00     0.025 C 
ATOM      9  C   UNL A   1      32.759  28.689  24.591  1.00  0.00     0.025 C 
ATOM     10  C   UNL A   1      31.918  27.707  22.693  1.00  0.00    -0.027 C 
ATOM     11  C   UNL A   1      33.652  27.497  24.176  1.00  0.00     0.017 C 
ATOM     12  C   UNL A   1      32.105  28.914  23.246  1.00  0.00    -0.027 C 
BRANCH   7  13
ATOM     13  C   UNL A   1      30.330  25.875  24.654  1.00  0.00     0.228 C 
ATOM     14  N   UNL A   1      30.332  24.482  24.747  1.00  0.00    -0.326 N 
ATOM     15  H   UNL A   1      29.549  24.006  24.389  1.00  0.00     0.169 HD
ATOM     16  O   UNL A   1      29.336  26.456  24.224  1.00  0.00    -0.274 OA
BRANCH  14  17
ATOM     17  C   UNL A   1      31.363  23.699  25.313  1.00  0.00     0.044 A 
ATOM     18  C   UNL A   1      32.374  23.120  24.524  1.00  0.00    -0.022 A 
ATOM     19  C   UNL A   1      33.547  22.698  25.190  1.00  0.00     0.006 A 
ATOM     20  C   UNL A   1      33.677  22.780  26.578  1.00  0.00     0.000 A 
ATOM     21  C   UNL A   1      31.436  23.606  26.712  1.00  0.00     0.026 A 
ATOM     22  C   UNL A   1      32.598  23.186  27.346  1.00  0.00     0.002 A 
BRANCH  18  23
ATOM     23  C   UNL A   1      32.235  22.879  23.023  1.00  0.00     0.018 C 
ATOM     24  C   UNL A   1      32.082  21.364  22.821  1.00  0.00     0.013 C 
BRANCH  23  25
ATOM     25  C   UNL A   1      33.397  23.464  22.183  1.00  0.00     0.005 C 
ATOM     26  C   UNL A   1      32.951  24.463  21.121  1.00  0.00     0.004 C 
ENDBRANCH  23  25
ENDBRANCH  18  23
ENDBRANCH  14  17
ENDBRANCH   7  13
ENDBRANCH   3   6
ENDBRANCH   1   2
BRANCH   1  27
ATOM     27  C   UNL A   1      34.281  30.561  27.479  1.00  0.00     0.042 C 
BRANCH  27  28
ATOM     28  C   UNL A   1      35.553  31.063  28.142  1.00  0.00     0.118 C 
BRANCH  28  29
ATOM     29  N   UNL A   1      35.486  30.979  29.599  1.00  0.00    -0.352 N 
ATOM     30  C   UNL A   1      36.374  30.452  30.501  1.00  0.00     0.251 C 
ATOM     31  H   UNL A   1      34.671  31.363  29.998  1.00  0.00     0.163 HD
ATOM     32  O   UNL A   1      36.017  30.288  31.670  1.00  0.00    -0.269 OA
BRANCH  30  33
ATOM     33  C   UNL A   1      37.741  30.078  30.084  1.00  0.00     0.039 A 
ATOM     34  C   UNL A   1      38.680  29.719  31.055  1.00  0.00     0.014 A 
ATOM     35  C   UNL A   1      38.111  30.108  28.737  1.00  0.00     0.014 A 
ATOM     36  C   UNL A   1      39.968  29.343  30.668  1.00  0.00     0.010 A 
ATOM     37  C   UNL A   1      39.353  29.628  28.346  1.00  0.00     0.010 A 
ATOM     38  C   UNL A   1      40.306  29.265  29.307  1.00  0.00    -0.014 A 
BRANCH  38  39
ATOM     39  C   UNL A   1      41.662  28.860  28.862  1.00  0.00     0.031 A 
ATOM     40  C   UNL A   1      42.764  29.888  28.799  1.00  0.00     0.074 A 
ATOM     41  C   UNL A   1      41.888  27.594  28.458  1.00  0.00     0.049 A 
ATOM     42  N   UNL A   1      43.987  29.763  28.357  1.00  0.00    -0.248 NA
ATOM     43  C   UNL A   1      42.433  31.247  29.263  1.00  0.00     0.031 C 
ATOM     44  C   UNL A   1      40.889  26.522  28.430  1.00  0.00     0.029 A 
ATOM     45  N   UNL A   1      43.029  26.995  27.988  1.00  0.00    -0.354 N 
ATOM     46  C   UNL A   1      44.562  31.024  28.475  1.00  0.00     0.074 A 
ATOM     47  C   UNL A   1      43.535  31.915  28.961  1.00  0.00     0.031 C 
ATOM     48  C   UNL A   1      41.469  25.392  27.997  1.00  0.00     0.029 A 
ATOM     49  C   UNL A   1      42.867  25.665  27.676  1.00  0.00     0.049 A 
ATOM     50  H   UNL A   1      43.883  27.472  27.883  1.00  0.00     0.167 HD
ATOM     51  C   UNL A   1      45.842  31.398  28.234  1.00  0.00     0.037 A 
ATOM     52  C   UNL A   1      43.745  24.771  27.185  1.00  0.00     0.037 A 
ATOM     53  C   UNL A   1      46.866  30.496  27.779  1.00  0.00     0.049 A 
ATOM     54  C   UNL A   1      45.160  25.212  26.920  1.00  0.00     0.074 A 
ATOM     55  C   UNL A   1      48.203  30.760  27.542  1.00  0.00     0.029 A 
ATOM     56  N   UNL A   1      46.668  29.151  27.500  1.00  0.00    -0.354 N 
ATOM     57  N   UNL A   1      45.701  26.398  27.083  1.00  0.00    -0.248 NA
ATOM     58  C   UNL A   1      46.089  24.194  26.412  1.00  0.00     0.031 C 
ATOM     59  C   UNL A   1      48.805  29.586  27.080  1.00  0.00     0.029 A 
ATOM     60  C   UNL A   1      47.856  28.575  27.083  1.00  0.00     0.049 A 
ATOM     61  H   UNL A   1      45.810  28.677  27.586  1.00  0.00     0.167 HD
ATOM     62  C   UNL A   1      47.041  26.255  26.739  1.00  0.00     0.074 A 
ATOM     63  C   UNL A   1      47.229  24.869  26.365  1.00  0.00     0.031 C 
ATOM     64  C   UNL A   1      48.027  27.186  26.736  1.00  0.00     0.037 A 
BRANCH  51  65
ATOM     65  C   UNL A   1      46.205  32.839  28.474  1.00  0.00     0.058 A 
ATOM     66  C   UNL A   1      46.665  33.285  29.724  1.00  0.00     0.135 A 
ATOM     67  C   UNL A   1      46.121  33.782  27.437  1.00  0.00     0.135 A 
ATOM     68  F   UNL A   1      46.746  32.432  30.758  1.00  0.00    -0.206 F 
ATOM     69  C   UNL A   1      46.998  34.617  29.946  1.00  0.00     0.059 A 
ATOM     70  C   UNL A   1      46.480  35.114  27.627  1.00  0.00     0.059 A 
ATOM     71  F   UNL A   1      45.686  33.414  26.221  1.00  0.00    -0.206 F 
ATOM     72  C   UNL A   1      46.903  35.524  28.890  1.00  0.00     0.060 A 
BRANCH  72  73
ATOM     73  S   UNL A   1      47.350  37.246  29.195  1.00  0.00     0.124 S 
ATOM     74  O   UNL A   1      47.423  37.773  27.836  1.00  0.00    -0.237 OA
ATOM     75  O   UNL A   1      46.228  37.721  29.999  1.00  0.00    -0.237 OA
ATOM     76  O   UNL A   1      48.625  37.147  29.899  1.00  0.00    -0.744 OA
ENDBRANCH  72  73
ENDBRANCH  51  65
BRANCH  52  77
ATOM     77  C   UNL A   1      43.327  23.364  26.943  1.00  0.00     0.058 A 
ATOM     78  C   UNL A   1      43.181  22.463  28.009  1.00  0.00     0.135 A 
ATOM     79  C   UNL A   1      43.068  22.889  25.648  1.00  0.00     0.135 A 
ATOM     80  F   UNL A   1      43.419  22.867  29.266  1.00  0.00    -0.206 F 
ATOM     81  C   UNL A   1      42.822  21.135  27.799  1.00  0.00     0.059 A 
ATOM     82  C   UNL A   1      42.680  21.572  25.415  1.00  0.00     0.059 A 
ATOM     83  F   UNL A   1      43.172  23.713  24.595  1.00  0.00    -0.206 F 
ATOM     84  C   UNL A   1      42.574  20.699  26.496  1.00  0.00     0.060 A 
BRANCH  84  85
ATOM     85  S   UNL A   1      42.082  18.981  26.239  1.00  0.00     0.124 S 
ATOM     86  O   UNL A   1      40.686  19.132  25.843  1.00  0.00    -0.237 OA
ATOM     87  O   UNL A   1      43.001  18.553  25.188  1.00  0.00    -0.237 OA
ATOM     88  O   UNL A   1      42.305  18.368  27.544  1.00  0.00    -0.744 OA
ENDBRANCH  84  85
ENDBRANCH  52  77
BRANCH  64  89
ATOM     89  C   UNL A   1      49.413  26.726  26.375  1.00  0.00     0.058 A 
ATOM     90  C   UNL A   1      50.275  26.150  27.321  1.00  0.00     0.135 A 
ATOM     91  C   UNL A   1      49.864  26.822  25.049  1.00  0.00     0.135 A 
ATOM     92  F   UNL A   1      49.895  26.039  28.603  1.00  0.00    -0.206 F 
ATOM     93  C   UNL A   1      51.548  25.712  26.968  1.00  0.00     0.059 A 
ATOM     94  C   UNL A   1      51.120  26.361  24.668  1.00  0.00     0.059 A 
ATOM     95  F   UNL A   1      49.074  27.354  24.101  1.00  0.00    -0.206 F 
ATOM     96  C   UNL A   1      51.960  25.820  25.640  1.00  0.00     0.060 A 
BRANCH  96  97
ATOM     97  S   UNL A   1      53.602  25.221  25.191  1.00  0.00     0.124 S 
ATOM     98  O   UNL A   1      53.738  25.728  23.830  1.00  0.00    -0.237 OA
ATOM     99  O   UNL A   1      54.451  25.860  26.193  1.00  0.00    -0.237 OA
ATOM    100  O   UNL A   1      53.483  23.771  25.314  1.00  0.00    -0.744 OA
ENDBRANCH  96  97
ENDBRANCH  64  89
ENDBRANCH  38  39
ENDBRANCH  30  33
ENDBRANCH  28  29
ENDBRANCH  27  28
ENDBRANCH   1  27
TORSDOF 17
ENDMDL
