MODEL 1
REMARK VINA RESULT:     -14.1      0.000      0.000
REMARK SMILES Cc1ccc(NC(=O)C[C@H]2SC[C@H](C(=O)NCCCNC(=O)c3ccc(-c4c5nc(c(-c6c(F)cc(S(=O)(=O)[O-])cc6F)c6ccc([nH]6)c(-c6c(F)cc(S(=O)(=O)[O-])cc6F)c6nc(c(-c7c(F)cc(S(=O)(=O)[O-])cc7F)c7ccc4[nH]7)C=C6)C=C5)cc3)NC2=O)cc1
REMARK SMILES IDX 18 1 17 2 16 3 14 4 15 5 13 7 10 8 11 9 90 10 12 11 89 12
REMARK SMILES IDX 91 13 9 15 7 16 6 17 8 19 5 20 1 21 2 22 3 23 93 24 4 25
REMARK SMILES IDX 92 26 19 27 20 28 21 29 22 31 23 32 24 33 88 34 25 35 87 36
REMARK SMILES IDX 26 37 27 38 28 39 81 40 29 41 86 42 80 43 82 44 30 45 85 46
REMARK SMILES IDX 79 47 78 48 31 50 65 51 44 52 64 53 45 54 48 55 63 56 83 57
REMARK SMILES IDX 46 58 47 59 62 61 84 62 49 63 32 64 33 65 42 66 34 67 35 68
REMARK SMILES IDX 41 69 43 70 36 71 37 72 38 73 39 74 40 75 66 76 67 77 76 78
REMARK SMILES IDX 68 79 69 80 75 81 77 82 70 83 71 84 72 85 73 86 74 87 50 88
REMARK SMILES IDX 51 89 60 90 52 91 53 92 59 93 61 94 54 95 55 96 56 97 57 98
REMARK SMILES IDX 58 99
REMARK H PARENT 16 6 89 14 6 18 20 30 82 49 48 60
REMARK Flexibility Score: inf
ROOT
ATOM      1  C   UNL A   1      33.243  30.160  26.358  1.00  0.00     0.042 C 
ENDROOT
BRANCH   1   2
ATOM      2  C   UNL A   1      32.873  29.009  25.423  1.00  0.00     0.117 C 
BRANCH   2   3
ATOM      3  N   UNL A   1      33.548  29.102  24.134  1.00  0.00    -0.354 N 
ATOM      4  C   UNL A   1      33.563  28.261  23.062  1.00  0.00     0.243 C 
ATOM      5  O   UNL A   1      34.280  28.566  22.103  1.00  0.00    -0.273 OA
ATOM      6  H   UNL A   1      34.089  29.916  24.018  1.00  0.00     0.163 HD
BRANCH   4   7
ATOM      7  C   UNL A   1      32.776  26.937  23.035  1.00  0.00     0.181 C 
ATOM      8  C   UNL A   1      31.463  24.787  24.708  1.00  0.00     0.145 C 
ATOM      9  S   UNL A   1      32.736  24.196  23.513  1.00  0.00    -0.145 SA
ATOM     10  C   UNL A   1      30.716  25.977  24.087  1.00  0.00     0.234 C 
ATOM     11  C   UNL A   1      33.664  25.759  23.426  1.00  0.00     0.105 C 
ATOM     12  N   UNL A   1      31.492  27.056  23.730  1.00  0.00    -0.343 N 
ATOM     13  O   UNL A   1      29.498  26.066  23.973  1.00  0.00    -0.274 OA
ATOM     14  H   UNL A   1      31.166  27.958  23.953  1.00  0.00     0.164 HD
BRANCH   8  15
ATOM     15  C   UNL A   1      30.663  23.600  25.249  1.00  0.00     0.124 C 
BRANCH  15  16
ATOM     16  C   UNL A   1      30.821  23.219  26.704  1.00  0.00     0.226 C 
ATOM     17  N   UNL A   1      31.968  22.713  27.229  1.00  0.00    -0.326 N 
ATOM     18  H   UNL A   1      31.938  22.623  28.210  1.00  0.00     0.169 HD
ATOM     19  O   UNL A   1      29.861  23.363  27.472  1.00  0.00    -0.275 OA
BRANCH  17  20
ATOM     20  C   UNL A   1      33.181  22.294  26.671  1.00  0.00     0.041 A 
ATOM     21  C   UNL A   1      37.026  21.332  24.960  1.00  0.00     0.044 C 
ATOM     22  C   UNL A   1      35.699  21.658  25.586  1.00  0.00    -0.051 A 
ATOM     23  C   UNL A   1      34.614  20.787  25.434  1.00  0.00     0.005 A 
ATOM     24  C   UNL A   1      35.521  22.840  26.305  1.00  0.00     0.005 A 
ATOM     25  C   UNL A   1      33.362  21.099  25.980  1.00  0.00     0.026 A 
ATOM     26  C   UNL A   1      34.277  23.145  26.858  1.00  0.00     0.026 A 
ENDBRANCH  17  20
ENDBRANCH  15  16
ENDBRANCH   8  15
ENDBRANCH   4   7
ENDBRANCH   2   3
ENDBRANCH   1   2
BRANCH   1  27
ATOM     27  C   UNL A   1      34.462  29.875  27.228  1.00  0.00     0.118 C 
BRANCH  27  28
ATOM     28  N   UNL A   1      35.160  31.097  27.613  1.00  0.00    -0.352 N 
ATOM     29  C   UNL A   1      36.425  31.220  28.161  1.00  0.00     0.251 C 
ATOM     30  H   UNL A   1      34.672  31.938  27.463  1.00  0.00     0.163 HD
ATOM     31  O   UNL A   1      36.862  32.275  28.581  1.00  0.00    -0.269 OA
BRANCH  29  32
ATOM     32  C   UNL A   1      37.273  30.014  28.114  1.00  0.00     0.039 A 
ATOM     33  C   UNL A   1      37.379  29.264  29.290  1.00  0.00     0.014 A 
ATOM     34  C   UNL A   1      38.160  29.845  27.057  1.00  0.00     0.014 A 
ATOM     35  C   UNL A   1      38.497  28.459  29.481  1.00  0.00     0.010 A 
ATOM     36  C   UNL A   1      39.311  29.115  27.286  1.00  0.00     0.010 A 
ATOM     37  C   UNL A   1      39.500  28.460  28.513  1.00  0.00    -0.014 A 
BRANCH  37  38
ATOM     38  C   UNL A   1      40.824  27.888  28.734  1.00  0.00     0.031 A 
ATOM     39  C   UNL A   1      41.116  26.501  28.303  1.00  0.00     0.074 A 
ATOM     40  C   UNL A   1      41.809  28.655  29.252  1.00  0.00     0.049 A 
ATOM     41  N   UNL A   1      42.083  25.783  28.767  1.00  0.00    -0.248 NA
ATOM     42  C   UNL A   1      40.299  25.793  27.322  1.00  0.00     0.031 C 
ATOM     43  C   UNL A   1      43.242  28.373  29.241  1.00  0.00     0.029 A 
ATOM     44  N   UNL A   1      41.684  29.781  30.070  1.00  0.00    -0.354 N 
ATOM     45  C   UNL A   1      42.181  24.655  27.987  1.00  0.00     0.074 A 
ATOM     46  C   UNL A   1      41.021  24.687  27.126  1.00  0.00     0.031 C 
ATOM     47  C   UNL A   1      43.841  29.116  30.182  1.00  0.00     0.029 A 
ATOM     48  C   UNL A   1      42.798  29.791  30.934  1.00  0.00     0.049 A 
ATOM     49  H   UNL A   1      40.956  30.443  30.049  1.00  0.00     0.167 HD
ATOM     50  C   UNL A   1      43.296  23.872  28.057  1.00  0.00     0.037 A 
ATOM     51  C   UNL A   1      42.643  29.704  32.288  1.00  0.00     0.037 A 
ATOM     52  C   UNL A   1      44.226  24.361  29.069  1.00  0.00     0.049 A 
ATOM     53  C   UNL A   1      43.262  28.467  32.897  1.00  0.00     0.074 A 
ATOM     54  C   UNL A   1      45.327  25.200  28.995  1.00  0.00     0.029 A 
ATOM     55  N   UNL A   1      43.891  24.271  30.416  1.00  0.00    -0.354 N 
ATOM     56  N   UNL A   1      43.618  27.417  32.208  1.00  0.00    -0.248 NA
ATOM     57  C   UNL A   1      43.523  28.308  34.325  1.00  0.00     0.031 C 
ATOM     58  C   UNL A   1      45.602  25.681  30.297  1.00  0.00     0.029 A 
ATOM     59  C   UNL A   1      44.688  25.115  31.168  1.00  0.00     0.049 A 
ATOM     60  H   UNL A   1      43.185  23.690  30.781  1.00  0.00     0.167 HD
ATOM     61  C   UNL A   1      44.106  26.455  33.054  1.00  0.00     0.074 A 
ATOM     62  C   UNL A   1      44.050  27.071  34.366  1.00  0.00     0.031 C 
ATOM     63  C   UNL A   1      44.513  25.229  32.608  1.00  0.00     0.037 A 
BRANCH  50  64
ATOM     64  C   UNL A   1      43.642  22.864  26.986  1.00  0.00     0.058 A 
ATOM     65  C   UNL A   1      42.948  21.641  26.889  1.00  0.00     0.135 A 
ATOM     66  C   UNL A   1      44.700  23.024  26.070  1.00  0.00     0.135 A 
ATOM     67  F   UNL A   1      41.875  21.380  27.647  1.00  0.00    -0.206 F 
ATOM     68  C   UNL A   1      43.338  20.614  26.028  1.00  0.00     0.059 A 
ATOM     69  C   UNL A   1      45.146  21.992  25.237  1.00  0.00     0.059 A 
ATOM     70  F   UNL A   1      45.330  24.202  25.946  1.00  0.00    -0.206 F 
ATOM     71  C   UNL A   1      44.463  20.783  25.230  1.00  0.00     0.060 A 
BRANCH  71  72
ATOM     72  S   UNL A   1      45.020  19.399  24.216  1.00  0.00     0.124 S 
ATOM     73  O   UNL A   1      46.471  19.478  24.351  1.00  0.00    -0.237 OA
ATOM     74  O   UNL A   1      44.381  18.265  24.876  1.00  0.00    -0.237 OA
ATOM     75  O   UNL A   1      44.505  19.724  22.889  1.00  0.00    -0.744 OA
ENDBRANCH  71  72
ENDBRANCH  50  64
BRANCH  51  76
ATOM     76  C   UNL A   1      41.436  30.418  32.786  1.00  0.00     0.058 A 
ATOM     77  C   UNL A   1      40.307  29.636  33.099  1.00  0.00     0.135 A 
ATOM     78  C   UNL A   1      41.524  31.689  33.371  1.00  0.00     0.135 A 
ATOM     79  F   UNL A   1      40.162  28.419  32.551  1.00  0.00    -0.206 F 
ATOM     80  C   UNL A   1      39.401  30.017  34.082  1.00  0.00     0.059 A 
ATOM     81  C   UNL A   1      40.621  32.095  34.359  1.00  0.00     0.059 A 
ATOM     82  F   UNL A   1      42.571  32.484  33.104  1.00  0.00    -0.206 F 
ATOM     83  C   UNL A   1      39.610  31.217  34.758  1.00  0.00     0.060 A 
BRANCH  83  84
ATOM     84  S   UNL A   1      38.666  31.499  36.275  1.00  0.00     0.124 S 
ATOM     85  O   UNL A   1      38.177  30.159  36.586  1.00  0.00    -0.237 OA
ATOM     86  O   UNL A   1      39.694  32.014  37.181  1.00  0.00    -0.237 OA
ATOM     87  O   UNL A   1      37.652  32.462  35.867  1.00  0.00    -0.744 OA
ENDBRANCH  83  84
ENDBRANCH  51  76
BRANCH  63  88
ATOM     88  C   UNL A   1      44.883  24.059  33.484  1.00  0.00     0.058 A 
ATOM     89  C   UNL A   1      44.044  22.954  33.706  1.00  0.00     0.135 A 
ATOM     90  C   UNL A   1      46.185  23.959  34.030  1.00  0.00     0.135 A 
ATOM     91  F   UNL A   1      42.827  22.882  33.146  1.00  0.00    -0.206 F 
ATOM     92  C   UNL A   1      44.439  21.859  34.476  1.00  0.00     0.059 A 
ATOM     93  C   UNL A   1      46.618  22.854  34.757  1.00  0.00     0.059 A 
ATOM     94  F   UNL A   1      47.089  24.937  33.864  1.00  0.00    -0.206 F 
ATOM     95  C   UNL A   1      45.727  21.819  35.002  1.00  0.00     0.060 A 
BRANCH  95  96
ATOM     96  S   UNL A   1      46.266  20.389  35.957  1.00  0.00     0.124 S 
ATOM     97  O   UNL A   1      47.667  20.285  35.559  1.00  0.00    -0.237 OA
ATOM     98  O   UNL A   1      46.035  20.810  37.336  1.00  0.00    -0.237 OA
ATOM     99  O   UNL A   1      45.391  19.323  35.481  1.00  0.00    -0.744 OA
ENDBRANCH  95  96
ENDBRANCH  63  88
ENDBRANCH  37  38
ENDBRANCH  29  32
ENDBRANCH  27  28
ENDBRANCH   1  27
TORSDOF 16
ENDMDL
MODEL 2
REMARK VINA RESULT:     -13.9      4.794     11.446
REMARK SMILES Cc1ccc(NC(=O)C[C@H]2SC[C@H](C(=O)NCCCNC(=O)c3ccc(-c4c5nc(c(-c6c(F)cc(S(=O)(=O)[O-])cc6F)c6ccc([nH]6)c(-c6c(F)cc(S(=O)(=O)[O-])cc6F)c6nc(c(-c7c(F)cc(S(=O)(=O)[O-])cc7F)c7ccc4[nH]7)C=C6)C=C5)cc3)NC2=O)cc1
REMARK SMILES IDX 18 1 17 2 16 3 14 4 15 5 13 7 10 8 11 9 90 10 12 11 89 12
REMARK SMILES IDX 91 13 9 15 7 16 6 17 8 19 5 20 1 21 2 22 3 23 93 24 4 25
REMARK SMILES IDX 92 26 19 27 20 28 21 29 22 31 23 32 24 33 88 34 25 35 87 36
REMARK SMILES IDX 26 37 27 38 28 39 81 40 29 41 86 42 80 43 82 44 30 45 85 46
REMARK SMILES IDX 79 47 78 48 31 50 65 51 44 52 64 53 45 54 48 55 63 56 83 57
REMARK SMILES IDX 46 58 47 59 62 61 84 62 49 63 32 64 33 65 42 66 34 67 35 68
REMARK SMILES IDX 41 69 43 70 36 71 37 72 38 73 39 74 40 75 66 76 67 77 76 78
REMARK SMILES IDX 68 79 69 80 75 81 77 82 70 83 71 84 72 85 73 86 74 87 50 88
REMARK SMILES IDX 51 89 60 90 52 91 53 92 59 93 61 94 54 95 55 96 56 97 57 98
REMARK SMILES IDX 58 99
REMARK H PARENT 16 6 89 14 6 18 20 30 82 49 48 60
REMARK Flexibility Score: inf
ROOT
ATOM      1  C   UNL A   1      37.665  22.320  25.352  1.00  0.00     0.042 C 
ENDROOT
BRANCH   1   2
ATOM      2  C   UNL A   1      36.144  22.370  25.211  1.00  0.00     0.117 C 
BRANCH   2   3
ATOM      3  N   UNL A   1      35.459  21.830  26.379  1.00  0.00    -0.354 N 
ATOM      4  C   UNL A   1      34.148  21.859  26.749  1.00  0.00     0.243 C 
ATOM      5  O   UNL A   1      33.848  21.361  27.839  1.00  0.00    -0.273 OA
ATOM      6  H   UNL A   1      36.049  21.360  27.012  1.00  0.00     0.163 HD
BRANCH   4   7
ATOM      7  C   UNL A   1      33.061  22.535  25.893  1.00  0.00     0.181 C 
ATOM      8  C   UNL A   1      32.505  24.183  23.419  1.00  0.00     0.145 C 
ATOM      9  S   UNL A   1      31.873  24.889  25.001  1.00  0.00    -0.145 SA
ATOM     10  C   UNL A   1      32.396  22.653  23.482  1.00  0.00     0.234 C 
ATOM     11  C   UNL A   1      33.072  24.051  26.083  1.00  0.00     0.105 C 
ATOM     12  N   UNL A   1      33.070  22.042  24.515  1.00  0.00    -0.343 N 
ATOM     13  O   UNL A   1      31.840  21.949  22.646  1.00  0.00    -0.274 OA
ATOM     14  H   UNL A   1      33.586  21.228  24.316  1.00  0.00     0.164 HD
BRANCH   8  15
ATOM     15  C   UNL A   1      31.893  24.931  22.233  1.00  0.00     0.124 C 
BRANCH  15  16
ATOM     16  C   UNL A   1      32.780  25.836  21.407  1.00  0.00     0.226 C 
ATOM     17  N   UNL A   1      33.229  27.045  21.835  1.00  0.00    -0.326 N 
ATOM     18  H   UNL A   1      33.883  27.455  21.223  1.00  0.00     0.169 HD
ATOM     19  O   UNL A   1      33.121  25.474  20.274  1.00  0.00    -0.275 OA
BRANCH  17  20
ATOM     20  C   UNL A   1      32.957  27.830  22.962  1.00  0.00     0.041 A 
ATOM     21  C   UNL A   1      31.863  30.400  26.253  1.00  0.00     0.044 C 
ATOM     22  C   UNL A   1      32.226  29.481  25.122  1.00  0.00    -0.051 A 
ATOM     23  C   UNL A   1      33.497  28.896  25.065  1.00  0.00     0.005 A 
ATOM     24  C   UNL A   1      31.314  29.214  24.099  1.00  0.00     0.005 A 
ATOM     25  C   UNL A   1      33.859  28.070  23.995  1.00  0.00     0.026 A 
ATOM     26  C   UNL A   1      31.673  28.381  23.039  1.00  0.00     0.026 A 
ENDBRANCH  17  20
ENDBRANCH  15  16
ENDBRANCH   8  15
ENDBRANCH   4   7
ENDBRANCH   2   3
ENDBRANCH   1   2
BRANCH   1  27
ATOM     27  C   UNL A   1      38.257  23.539  26.052  1.00  0.00     0.118 C 
BRANCH  27  28
ATOM     28  N   UNL A   1      39.596  23.279  26.570  1.00  0.00    -0.352 N 
ATOM     29  C   UNL A   1      40.503  24.190  27.082  1.00  0.00     0.251 C 
ATOM     30  H   UNL A   1      39.889  22.340  26.554  1.00  0.00     0.163 HD
ATOM     31  O   UNL A   1      41.651  23.894  27.356  1.00  0.00    -0.269 OA
BRANCH  29  32
ATOM     32  C   UNL A   1      39.975  25.533  27.384  1.00  0.00     0.039 A 
ATOM     33  C   UNL A   1      40.475  26.600  26.631  1.00  0.00     0.014 A 
ATOM     34  C   UNL A   1      39.277  25.740  28.570  1.00  0.00     0.014 A 
ATOM     35  C   UNL A   1      40.431  27.885  27.162  1.00  0.00     0.010 A 
ATOM     36  C   UNL A   1      39.314  27.001  29.133  1.00  0.00     0.010 A 
ATOM     37  C   UNL A   1      39.930  28.062  28.451  1.00  0.00    -0.014 A 
BRANCH  37  38
ATOM     38  C   UNL A   1      40.095  29.298  29.208  1.00  0.00     0.031 A 
ATOM     39  C   UNL A   1      39.014  30.310  29.226  1.00  0.00     0.074 A 
ATOM     40  C   UNL A   1      41.200  29.479  29.966  1.00  0.00     0.049 A 
ATOM     41  N   UNL A   1      39.186  31.553  29.527  1.00  0.00    -0.248 NA
ATOM     42  C   UNL A   1      37.636  29.996  28.860  1.00  0.00     0.031 C 
ATOM     43  C   UNL A   1      41.391  30.469  31.021  1.00  0.00     0.029 A 
ATOM     44  N   UNL A   1      42.463  28.903  29.799  1.00  0.00    -0.354 N 
ATOM     45  C   UNL A   1      37.943  32.131  29.652  1.00  0.00     0.074 A 
ATOM     46  C   UNL A   1      37.011  31.131  29.186  1.00  0.00     0.031 C 
ATOM     47  C   UNL A   1      42.705  30.622  31.245  1.00  0.00     0.029 A 
ATOM     48  C   UNL A   1      43.411  29.848  30.240  1.00  0.00     0.049 A 
ATOM     49  H   UNL A   1      42.655  28.007  29.440  1.00  0.00     0.167 HD
ATOM     50  C   UNL A   1      37.815  33.347  30.256  1.00  0.00     0.037 A 
ATOM     51  C   UNL A   1      44.347  30.361  29.389  1.00  0.00     0.037 A 
ATOM     52  C   UNL A   1      39.115  33.897  30.626  1.00  0.00     0.049 A 
ATOM     53  C   UNL A   1      44.229  31.853  29.175  1.00  0.00     0.074 A 
ATOM     54  C   UNL A   1      39.843  33.855  31.804  1.00  0.00     0.029 A 
ATOM     55  N   UNL A   1      39.998  34.311  29.634  1.00  0.00    -0.354 N 
ATOM     56  N   UNL A   1      43.169  32.550  29.483  1.00  0.00    -0.248 NA
ATOM     57  C   UNL A   1      45.285  32.676  28.593  1.00  0.00     0.031 C 
ATOM     58  C   UNL A   1      41.190  34.165  31.501  1.00  0.00     0.029 A 
ATOM     59  C   UNL A   1      41.278  34.424  30.144  1.00  0.00     0.049 A 
ATOM     60  H   UNL A   1      39.746  34.495  28.700  1.00  0.00     0.167 HD
ATOM     61  C   UNL A   1      43.362  33.860  29.129  1.00  0.00     0.074 A 
ATOM     62  C   UNL A   1      44.712  33.893  28.600  1.00  0.00     0.031 C 
ATOM     63  C   UNL A   1      42.394  34.811  29.296  1.00  0.00     0.037 A 
BRANCH  50  64
ATOM     64  C   UNL A   1      36.489  33.858  30.767  1.00  0.00     0.058 A 
ATOM     65  C   UNL A   1      35.458  34.221  29.875  1.00  0.00     0.135 A 
ATOM     66  C   UNL A   1      36.203  34.076  32.129  1.00  0.00     0.135 A 
ATOM     67  F   UNL A   1      35.560  34.004  28.558  1.00  0.00    -0.206 F 
ATOM     68  C   UNL A   1      34.283  34.850  30.290  1.00  0.00     0.059 A 
ATOM     69  C   UNL A   1      35.059  34.753  32.566  1.00  0.00     0.059 A 
ATOM     70  F   UNL A   1      37.027  33.621  33.085  1.00  0.00    -0.206 F 
ATOM     71  C   UNL A   1      34.107  35.147  31.635  1.00  0.00     0.060 A 
BRANCH  71  72
ATOM     72  S   UNL A   1      32.637  36.068  32.133  1.00  0.00     0.124 S 
ATOM     73  O   UNL A   1      33.135  36.871  33.246  1.00  0.00    -0.237 OA
ATOM     74  O   UNL A   1      32.315  36.803  30.914  1.00  0.00    -0.237 OA
ATOM     75  O   UNL A   1      31.691  35.020  32.503  1.00  0.00    -0.744 OA
ENDBRANCH  71  72
ENDBRANCH  50  64
BRANCH  51  76
ATOM     76  C   UNL A   1      44.843  29.368  28.397  1.00  0.00     0.058 A 
ATOM     77  C   UNL A   1      45.882  28.511  28.806  1.00  0.00     0.135 A 
ATOM     78  C   UNL A   1      44.053  28.956  27.315  1.00  0.00     0.135 A 
ATOM     79  F   UNL A   1      46.682  28.866  29.825  1.00  0.00    -0.206 F 
ATOM     80  C   UNL A   1      46.021  27.228  28.289  1.00  0.00     0.059 A 
ATOM     81  C   UNL A   1      44.179  27.671  26.776  1.00  0.00     0.059 A 
ATOM     82  F   UNL A   1      43.054  29.733  26.873  1.00  0.00    -0.206 F 
ATOM     83  C   UNL A   1      45.115  26.792  27.324  1.00  0.00     0.060 A 
BRANCH  83  84
ATOM     84  S   UNL A   1      45.069  25.020  26.960  1.00  0.00     0.124 S 
ATOM     85  O   UNL A   1      44.538  24.465  28.201  1.00  0.00    -0.237 OA
ATOM     86  O   UNL A   1      44.159  24.971  25.815  1.00  0.00    -0.237 OA
ATOM     87  O   UNL A   1      46.460  24.700  26.668  1.00  0.00    -0.744 OA
ENDBRANCH  83  84
ENDBRANCH  51  76
BRANCH  63  88
ATOM     88  C   UNL A   1      42.455  36.222  28.767  1.00  0.00     0.058 A 
ATOM     89  C   UNL A   1      43.166  37.260  29.393  1.00  0.00     0.135 A 
ATOM     90  C   UNL A   1      41.894  36.537  27.506  1.00  0.00     0.135 A 
ATOM     91  F   UNL A   1      43.835  37.052  30.537  1.00  0.00    -0.206 F 
ATOM     92  C   UNL A   1      43.251  38.542  28.848  1.00  0.00     0.059 A 
ATOM     93  C   UNL A   1      42.012  37.794  26.919  1.00  0.00     0.059 A 
ATOM     94  F   UNL A   1      41.215  35.624  26.796  1.00  0.00    -0.206 F 
ATOM     95  C   UNL A   1      42.668  38.801  27.611  1.00  0.00     0.060 A 
BRANCH  95  96
ATOM     96  S   UNL A   1      42.812  40.438  26.873  1.00  0.00     0.124 S 
ATOM     97  O   UNL A   1      43.725  40.177  25.764  1.00  0.00    -0.237 OA
ATOM     98  O   UNL A   1      41.437  40.750  26.494  1.00  0.00    -0.237 OA
ATOM     99  O   UNL A   1      43.352  41.247  27.961  1.00  0.00    -0.744 OA
ENDBRANCH  95  96
ENDBRANCH  63  88
ENDBRANCH  37  38
ENDBRANCH  29  32
ENDBRANCH  27  28
ENDBRANCH   1  27
TORSDOF 16
ENDMDL
MODEL 3
REMARK VINA RESULT:     -13.8      4.907     11.428
REMARK SMILES Cc1ccc(NC(=O)C[C@H]2SC[C@H](C(=O)NCCCNC(=O)c3ccc(-c4c5nc(c(-c6c(F)cc(S(=O)(=O)[O-])cc6F)c6ccc([nH]6)c(-c6c(F)cc(S(=O)(=O)[O-])cc6F)c6nc(c(-c7c(F)cc(S(=O)(=O)[O-])cc7F)c7ccc4[nH]7)C=C6)C=C5)cc3)NC2=O)cc1
REMARK SMILES IDX 18 1 17 2 16 3 14 4 15 5 13 7 10 8 11 9 90 10 12 11 89 12
REMARK SMILES IDX 91 13 9 15 7 16 6 17 8 19 5 20 1 21 2 22 3 23 93 24 4 25
REMARK SMILES IDX 92 26 19 27 20 28 21 29 22 31 23 32 24 33 88 34 25 35 87 36
REMARK SMILES IDX 26 37 27 38 28 39 81 40 29 41 86 42 80 43 82 44 30 45 85 46
REMARK SMILES IDX 79 47 78 48 31 50 65 51 44 52 64 53 45 54 48 55 63 56 83 57
REMARK SMILES IDX 46 58 47 59 62 61 84 62 49 63 32 64 33 65 42 66 34 67 35 68
REMARK SMILES IDX 41 69 43 70 36 71 37 72 38 73 39 74 40 75 66 76 67 77 76 78
REMARK SMILES IDX 68 79 69 80 75 81 77 82 70 83 71 84 72 85 73 86 74 87 50 88
REMARK SMILES IDX 51 89 60 90 52 91 53 92 59 93 61 94 54 95 55 96 56 97 57 98
REMARK SMILES IDX 58 99
REMARK H PARENT 16 6 89 14 6 18 20 30 82 49 48 60
REMARK Flexibility Score: inf
ROOT
ATOM      1  C   UNL A   1      37.438  22.013  25.065  1.00  0.00     0.042 C 
ENDROOT
BRANCH   1   2
ATOM      2  C   UNL A   1      36.319  21.553  25.999  1.00  0.00     0.117 C 
BRANCH   2   3
ATOM      3  N   UNL A   1      35.521  20.477  25.422  1.00  0.00    -0.354 N 
ATOM      4  C   UNL A   1      34.339  20.495  24.745  1.00  0.00     0.243 C 
ATOM      5  O   UNL A   1      33.851  19.410  24.414  1.00  0.00    -0.273 OA
ATOM      6  H   UNL A   1      35.905  19.579  25.543  1.00  0.00     0.163 HD
BRANCH   4   7
ATOM      7  C   UNL A   1      33.577  21.799  24.442  1.00  0.00     0.181 C 
ATOM      8  C   UNL A   1      33.728  24.819  24.402  1.00  0.00     0.145 C 
ATOM      9  S   UNL A   1      32.355  24.107  25.405  1.00  0.00    -0.145 SA
ATOM     10  C   UNL A   1      33.961  23.925  23.176  1.00  0.00     0.234 C 
ATOM     11  C   UNL A   1      33.158  22.506  25.729  1.00  0.00     0.105 C 
ATOM     12  N   UNL A   1      34.269  22.610  23.438  1.00  0.00    -0.343 N 
ATOM     13  O   UNL A   1      33.979  24.312  22.012  1.00  0.00    -0.274 OA
ATOM     14  H   UNL A   1      34.994  22.191  22.920  1.00  0.00     0.164 HD
BRANCH   8  15
ATOM     15  C   UNL A   1      33.506  26.321  24.205  1.00  0.00     0.124 C 
BRANCH  15  16
ATOM     16  C   UNL A   1      33.220  27.180  25.417  1.00  0.00     0.226 C 
ATOM     17  N   UNL A   1      32.108  27.948  25.548  1.00  0.00    -0.326 N 
ATOM     18  H   UNL A   1      32.023  28.357  26.440  1.00  0.00     0.169 HD
ATOM     19  O   UNL A   1      34.037  27.200  26.347  1.00  0.00    -0.275 OA
BRANCH  17  20
ATOM     20  C   UNL A   1      31.060  28.283  24.684  1.00  0.00     0.041 A 
ATOM     21  C   UNL A   1      27.838  29.637  22.149  1.00  0.00     0.044 C 
ATOM     22  C   UNL A   1      28.980  29.170  23.006  1.00  0.00    -0.051 A 
ATOM     23  C   UNL A   1      29.159  27.806  23.265  1.00  0.00     0.005 A 
ATOM     24  C   UNL A   1      29.866  30.087  23.575  1.00  0.00     0.005 A 
ATOM     25  C   UNL A   1      30.197  27.363  24.094  1.00  0.00     0.026 A 
ATOM     26  C   UNL A   1      30.906  29.644  24.392  1.00  0.00     0.026 A 
ENDBRANCH  17  20
ENDBRANCH  15  16
ENDBRANCH   8  15
ENDBRANCH   4   7
ENDBRANCH   2   3
ENDBRANCH   1   2
BRANCH   1  27
ATOM     27  C   UNL A   1      38.188  23.242  25.567  1.00  0.00     0.118 C 
BRANCH  27  28
ATOM     28  N   UNL A   1      39.446  22.890  26.216  1.00  0.00    -0.352 N 
ATOM     29  C   UNL A   1      40.335  23.729  26.866  1.00  0.00     0.251 C 
ATOM     30  H   UNL A   1      39.693  21.938  26.190  1.00  0.00     0.163 HD
ATOM     31  O   UNL A   1      41.428  23.361  27.251  1.00  0.00    -0.269 OA
BRANCH  29  32
ATOM     32  C   UNL A   1      39.842  25.086  27.170  1.00  0.00     0.039 A 
ATOM     33  C   UNL A   1      40.370  26.139  26.416  1.00  0.00     0.014 A 
ATOM     34  C   UNL A   1      39.151  25.310  28.357  1.00  0.00     0.014 A 
ATOM     35  C   UNL A   1      40.360  27.424  26.949  1.00  0.00     0.010 A 
ATOM     36  C   UNL A   1      39.222  26.569  28.921  1.00  0.00     0.010 A 
ATOM     37  C   UNL A   1      39.865  27.614  28.238  1.00  0.00    -0.014 A 
BRANCH  37  38
ATOM     38  C   UNL A   1      40.064  28.845  28.996  1.00  0.00     0.031 A 
ATOM     39  C   UNL A   1      39.027  29.903  28.983  1.00  0.00     0.074 A 
ATOM     40  C   UNL A   1      41.156  28.981  29.782  1.00  0.00     0.049 A 
ATOM     41  N   UNL A   1      39.245  31.138  29.285  1.00  0.00    -0.248 NA
ATOM     42  C   UNL A   1      37.647  29.646  28.582  1.00  0.00     0.031 C 
ATOM     43  C   UNL A   1      41.362  29.966  30.839  1.00  0.00     0.029 A 
ATOM     44  N   UNL A   1      42.397  28.351  29.649  1.00  0.00    -0.354 N 
ATOM     45  C   UNL A   1      38.025  31.769  29.377  1.00  0.00     0.074 A 
ATOM     46  C   UNL A   1      37.063  30.808  28.889  1.00  0.00     0.031 C 
ATOM     47  C   UNL A   1      42.674  30.063  31.097  1.00  0.00     0.029 A 
ATOM     48  C   UNL A   1      43.372  29.256  30.112  1.00  0.00     0.049 A 
ATOM     49  H   UNL A   1      42.559  27.445  29.298  1.00  0.00     0.167 HD
ATOM     50  C   UNL A   1      37.934  32.993  29.973  1.00  0.00     0.037 A 
ATOM     51  C   UNL A   1      44.352  29.725  29.284  1.00  0.00     0.037 A 
ATOM     52  C   UNL A   1      39.246  33.487  30.375  1.00  0.00     0.049 A 
ATOM     53  C   UNL A   1      44.303  31.219  29.063  1.00  0.00     0.074 A 
ATOM     54  C   UNL A   1      39.941  33.418  31.572  1.00  0.00     0.029 A 
ATOM     55  N   UNL A   1      40.171  33.859  29.405  1.00  0.00    -0.354 N 
ATOM     56  N   UNL A   1      43.267  31.963  29.341  1.00  0.00    -0.248 NA
ATOM     57  C   UNL A   1      45.408  31.995  28.506  1.00  0.00     0.031 C 
ATOM     58  C   UNL A   1      41.307  33.670  31.303  1.00  0.00     0.029 A 
ATOM     59  C   UNL A   1      41.442  33.919  29.949  1.00  0.00     0.049 A 
ATOM     60  H   UNL A   1      39.952  34.050  28.464  1.00  0.00     0.167 HD
ATOM     61  C   UNL A   1      43.525  33.262  28.990  1.00  0.00     0.074 A 
ATOM     62  C   UNL A   1      44.889  33.235  28.495  1.00  0.00     0.031 C 
ATOM     63  C   UNL A   1      42.595  34.254  29.128  1.00  0.00     0.037 A 
BRANCH  50  64
ATOM     64  C   UNL A   1      36.618  33.562  30.448  1.00  0.00     0.058 A 
ATOM     65  C   UNL A   1      35.658  34.035  29.530  1.00  0.00     0.135 A 
ATOM     66  C   UNL A   1      36.279  33.728  31.805  1.00  0.00     0.135 A 
ATOM     67  F   UNL A   1      35.813  33.879  28.209  1.00  0.00    -0.206 F 
ATOM     68  C   UNL A   1      34.505  34.717  29.923  1.00  0.00     0.059 A 
ATOM     69  C   UNL A   1      35.159  34.455  32.224  1.00  0.00     0.059 A 
ATOM     70  F   UNL A   1      37.023  33.173  32.773  1.00  0.00    -0.206 F 
ATOM     71  C   UNL A   1      34.280  34.957  31.272  1.00  0.00     0.060 A 
BRANCH  71  72
ATOM     72  S   UNL A   1      32.848  35.945  31.748  1.00  0.00     0.124 S 
ATOM     73  O   UNL A   1      33.440  36.947  32.629  1.00  0.00    -0.237 OA
ATOM     74  O   UNL A   1      32.376  36.434  30.458  1.00  0.00    -0.237 OA
ATOM     75  O   UNL A   1      31.977  34.979  32.411  1.00  0.00    -0.744 OA
ENDBRANCH  71  72
ENDBRANCH  50  64
BRANCH  51  76
ATOM     76  C   UNL A   1      44.829  28.708  28.308  1.00  0.00     0.058 A 
ATOM     77  C   UNL A   1      44.270  28.742  27.016  1.00  0.00     0.135 A 
ATOM     78  C   UNL A   1      46.068  28.070  28.460  1.00  0.00     0.135 A 
ATOM     79  F   UNL A   1      43.075  29.322  26.817  1.00  0.00    -0.206 F 
ATOM     80  C   UNL A   1      44.983  28.325  25.897  1.00  0.00     0.059 A 
ATOM     81  C   UNL A   1      46.801  27.640  27.349  1.00  0.00     0.059 A 
ATOM     82  F   UNL A   1      46.647  27.998  29.667  1.00  0.00    -0.206 F 
ATOM     83  C   UNL A   1      46.279  27.843  26.069  1.00  0.00     0.060 A 
BRANCH  83  84
ATOM     84  S   UNL A   1      47.315  27.683  24.594  1.00  0.00     0.124 S 
ATOM     85  O   UNL A   1      46.720  28.665  23.693  1.00  0.00    -0.237 OA
ATOM     86  O   UNL A   1      48.637  28.033  25.114  1.00  0.00    -0.237 OA
ATOM     87  O   UNL A   1      47.142  26.288  24.212  1.00  0.00    -0.744 OA
ENDBRANCH  83  84
ENDBRANCH  51  76
BRANCH  63  88
ATOM     88  C   UNL A   1      42.731  35.659  28.597  1.00  0.00     0.058 A 
ATOM     89  C   UNL A   1      42.368  36.039  27.294  1.00  0.00     0.135 A 
ATOM     90  C   UNL A   1      43.114  36.714  29.459  1.00  0.00     0.135 A 
ATOM     91  F   UNL A   1      41.881  35.146  26.420  1.00  0.00    -0.206 F 
ATOM     92  C   UNL A   1      42.451  37.360  26.850  1.00  0.00     0.059 A 
ATOM     93  C   UNL A   1      43.154  38.046  29.053  1.00  0.00     0.059 A 
ATOM     94  F   UNL A   1      43.458  36.485  30.735  1.00  0.00    -0.206 F 
ATOM     95  C   UNL A   1      42.849  38.357  27.736  1.00  0.00     0.060 A 
BRANCH  95  96
ATOM     96  S   UNL A   1      42.914  40.073  27.191  1.00  0.00     0.124 S 
ATOM     97  O   UNL A   1      42.815  40.786  28.461  1.00  0.00    -0.237 OA
ATOM     98  O   UNL A   1      44.209  40.156  26.522  1.00  0.00    -0.237 OA
ATOM     99  O   UNL A   1      41.755  40.185  26.310  1.00  0.00    -0.744 OA
ENDBRANCH  95  96
ENDBRANCH  63  88
ENDBRANCH  37  38
ENDBRANCH  29  32
ENDBRANCH  27  28
ENDBRANCH   1  27
TORSDOF 16
ENDMDL
