MODEL 1
REMARK VINA RESULT:     -10.4      0.000      0.000
REMARK SMILES C=CC[NH2+]CC(=O)N1CC[C@@H](CC(=O)NCCCNC(=O)c2ccc(-c3c4nc(c(-c5c(F)cc(S(=O)(=O)[O-])cc5F)c5ccc([nH]5)c(-c5c(F)cc(S(=O)(=O)[O-])cc5F)c5nc(c(-c6c(F)cc(S(=O)(=O)[O-])cc6F)c6ccc3[nH]6)C=C5)C=C4)cc2)C1
REMARK SMILES IDX 13 1 14 2 15 3 12 5 11 6 8 7 9 8 88 9 10 10 6 11 7 12 5 13
REMARK SMILES IDX 4 14 3 17 2 18 1 19 16 20 17 21 18 22 19 23 20 24 21 26
REMARK SMILES IDX 22 27 23 28 87 29 24 30 86 31 25 32 26 33 27 34 80 35 28 36
REMARK SMILES IDX 85 37 79 38 81 39 29 40 84 41 78 42 77 43 30 45 64 46 43 47
REMARK SMILES IDX 63 48 44 49 47 50 62 51 82 52 45 53 46 54 61 56 83 57 48 58
REMARK SMILES IDX 31 59 32 60 41 61 33 62 34 63 40 64 42 65 35 66 36 67 37 68
REMARK SMILES IDX 38 69 39 70 65 71 66 72 75 73 67 74 68 75 74 76 76 77 69 78
REMARK SMILES IDX 70 79 71 80 72 81 73 82 49 83 50 84 59 85 51 86 52 87 58 88
REMARK SMILES IDX 60 89 53 90 54 91 55 92 56 93 57 94
REMARK H PARENT 15 4 4 15 4 16 19 25 81 44 47 55
REMARK Flexibility Score: inf
ROOT
ATOM      1  C   UNL A   1      32.591  27.860  27.043  1.00  0.00     0.220 C 
ATOM      2  O   UNL A   1      31.475  27.437  27.343  1.00  0.00    -0.275 OA
ATOM      3  N   UNL A   1      33.028  29.024  27.606  1.00  0.00    -0.356 N 
ATOM      4  H   UNL A   1      32.462  29.376  28.331  1.00  0.00     0.163 HD
ENDROOT
BRANCH   1   5
ATOM      5  C   UNL A   1      33.483  27.090  26.091  1.00  0.00     0.105 C 
BRANCH   5   6
ATOM      6  C   UNL A   1      33.120  25.613  25.852  1.00  0.00     0.019 C 
ATOM      7  N   UNL A   1      33.352  24.865  23.596  1.00  0.00    -0.338 N 
ATOM      8  C   UNL A   1      34.648  24.712  24.219  1.00  0.00     0.120 C 
ATOM      9  C   UNL A   1      32.352  25.277  24.570  1.00  0.00     0.123 C 
ATOM     10  C   UNL A   1      34.380  24.739  25.717  1.00  0.00     0.027 C 
BRANCH   7  11
ATOM     11  C   UNL A   1      33.022  24.726  22.260  1.00  0.00     0.277 C 
ATOM     12  O   UNL A   1      33.237  23.659  21.674  1.00  0.00    -0.268 OA
BRANCH  11  13
ATOM     13  C   UNL A   1      32.398  25.909  21.496  1.00  0.00     0.362 C 
BRANCH  13  14
ATOM     14  N   UNL A   1      33.080  27.193  21.730  1.00  0.00    -0.335 N 
ATOM     15  H   UNL A   1      33.930  27.016  22.264  1.00  0.00     0.347 HD
ATOM     16  H   UNL A   1      33.277  27.599  20.815  1.00  0.00     0.347 HD
BRANCH  14  17
ATOM     17  C   UNL A   1      32.271  28.149  22.457  1.00  0.00     0.289 C 
BRANCH  17  18
ATOM     18  C   UNL A   1      30.822  27.781  22.439  1.00  0.00     0.025 C 
ATOM     19  C   UNL A   1      29.990  27.918  23.481  1.00  0.00     0.010 C 
ENDBRANCH  17  18
ENDBRANCH  14  17
ENDBRANCH  13  14
ENDBRANCH  11  13
ENDBRANCH   7  11
ENDBRANCH   5   6
ENDBRANCH   1   5
BRANCH   3  20
ATOM     20  C   UNL A   1      34.204  29.824  27.297  1.00  0.00     0.117 C 
BRANCH  20  21
ATOM     21  C   UNL A   1      34.119  31.189  27.961  1.00  0.00     0.042 C 
BRANCH  21  22
ATOM     22  C   UNL A   1      35.400  31.677  28.625  1.00  0.00     0.118 C 
BRANCH  22  23
ATOM     23  N   UNL A   1      35.496  31.272  30.019  1.00  0.00    -0.352 N 
ATOM     24  C   UNL A   1      36.442  30.585  30.743  1.00  0.00     0.251 C 
ATOM     25  H   UNL A   1      34.718  31.546  30.558  1.00  0.00     0.163 HD
ATOM     26  O   UNL A   1      36.130  30.258  31.890  1.00  0.00    -0.269 OA
BRANCH  24  27
ATOM     27  C   UNL A   1      37.787  30.200  30.225  1.00  0.00     0.039 A 
ATOM     28  C   UNL A   1      38.746  29.770  31.158  1.00  0.00     0.014 A 
ATOM     29  C   UNL A   1      38.177  30.310  28.890  1.00  0.00     0.014 A 
ATOM     30  C   UNL A   1      40.037  29.400  30.754  1.00  0.00     0.010 A 
ATOM     31  C   UNL A   1      39.439  29.863  28.472  1.00  0.00     0.010 A 
ATOM     32  C   UNL A   1      40.391  29.413  29.398  1.00  0.00    -0.014 A 
BRANCH  32  33
ATOM     33  C   UNL A   1      41.752  28.998  28.945  1.00  0.00     0.031 A 
ATOM     34  C   UNL A   1      42.872  30.007  28.862  1.00  0.00     0.074 A 
ATOM     35  C   UNL A   1      41.982  27.724  28.565  1.00  0.00     0.049 A 
ATOM     36  N   UNL A   1      44.098  29.853  28.428  1.00  0.00    -0.248 NA
ATOM     37  C   UNL A   1      42.566  31.377  29.305  1.00  0.00     0.031 C 
ATOM     38  C   UNL A   1      40.986  26.652  28.558  1.00  0.00     0.029 A 
ATOM     39  N   UNL A   1      43.124  27.116  28.098  1.00  0.00    -0.354 N 
ATOM     40  C   UNL A   1      44.699  31.104  28.521  1.00  0.00     0.074 A 
ATOM     41  C   UNL A   1      43.690  32.016  29.014  1.00  0.00     0.031 C 
ATOM     42  C   UNL A   1      41.562  25.517  28.129  1.00  0.00     0.029 A 
ATOM     43  C   UNL A   1      42.955  25.787  27.780  1.00  0.00     0.049 A 
ATOM     44  H   UNL A   1      43.983  27.587  28.000  1.00  0.00     0.167 HD
ATOM     45  C   UNL A   1      45.977  31.461  28.241  1.00  0.00     0.037 A 
ATOM     46  C   UNL A   1      43.812  24.892  27.248  1.00  0.00     0.037 A 
ATOM     47  C   UNL A   1      46.990  30.547  27.774  1.00  0.00     0.049 A 
ATOM     48  C   UNL A   1      45.223  25.312  26.932  1.00  0.00     0.074 A 
ATOM     49  C   UNL A   1      48.328  30.802  27.526  1.00  0.00     0.029 A 
ATOM     50  N   UNL A   1      46.778  29.209  27.476  1.00  0.00    -0.354 N 
ATOM     51  N   UNL A   1      45.790  26.485  27.090  1.00  0.00    -0.248 NA
ATOM     52  C   UNL A   1      46.114  24.288  26.366  1.00  0.00     0.031 C 
ATOM     53  C   UNL A   1      48.911  29.634  27.023  1.00  0.00     0.029 A 
ATOM     54  C   UNL A   1      47.954  28.634  27.018  1.00  0.00     0.049 A 
ATOM     55  H   UNL A   1      45.920  28.736  27.576  1.00  0.00     0.167 HD
ATOM     56  C   UNL A   1      47.107  26.332  26.665  1.00  0.00     0.074 A 
ATOM     57  C   UNL A   1      47.258  24.951  26.260  1.00  0.00     0.031 C 
ATOM     58  C   UNL A   1      48.100  27.255  26.618  1.00  0.00     0.037 A 
BRANCH  45  59
ATOM     59  C   UNL A   1      46.359  32.908  28.420  1.00  0.00     0.058 A 
ATOM     60  C   UNL A   1      46.905  33.389  29.620  1.00  0.00     0.135 A 
ATOM     61  C   UNL A   1      46.217  33.818  27.358  1.00  0.00     0.135 A 
ATOM     62  F   UNL A   1      47.057  32.568  30.671  1.00  0.00    -0.206 F 
ATOM     63  C   UNL A   1      47.264  34.724  29.775  1.00  0.00     0.059 A 
ATOM     64  C   UNL A   1      46.599  35.152  27.479  1.00  0.00     0.059 A 
ATOM     65  F   UNL A   1      45.705  33.415  26.185  1.00  0.00    -0.206 F 
ATOM     66  C   UNL A   1      47.108  35.599  28.698  1.00  0.00     0.060 A 
BRANCH  66  67
ATOM     67  S   UNL A   1      47.580  37.327  28.914  1.00  0.00     0.124 S 
ATOM     68  O   UNL A   1      49.013  37.207  29.171  1.00  0.00    -0.237 OA
ATOM     69  O   UNL A   1      47.217  37.913  27.626  1.00  0.00    -0.237 OA
ATOM     70  O   UNL A   1      46.776  37.764  30.047  1.00  0.00    -0.744 OA
ENDBRANCH  66  67
ENDBRANCH  45  59
BRANCH  46  71
ATOM     71  C   UNL A   1      43.355  23.500  26.978  1.00  0.00     0.058 A 
ATOM     72  C   UNL A   1      43.087  23.064  25.671  1.00  0.00     0.135 A 
ATOM     73  C   UNL A   1      43.188  22.574  28.020  1.00  0.00     0.135 A 
ATOM     74  F   UNL A   1      43.218  23.913  24.641  1.00  0.00    -0.206 F 
ATOM     75  C   UNL A   1      42.663  21.765  25.407  1.00  0.00     0.059 A 
ATOM     76  C   UNL A   1      42.792  21.262  27.778  1.00  0.00     0.059 A 
ATOM     77  F   UNL A   1      43.439  22.935  29.288  1.00  0.00    -0.206 F 
ATOM     78  C   UNL A   1      42.524  20.869  26.468  1.00  0.00     0.060 A 
BRANCH  78  79
ATOM     79  S   UNL A   1      42.032  19.168  26.109  1.00  0.00     0.124 S 
ATOM     80  O   UNL A   1      42.833  18.874  24.926  1.00  0.00    -0.237 OA
ATOM     81  O   UNL A   1      42.420  18.473  27.332  1.00  0.00    -0.237 OA
ATOM     82  O   UNL A   1      40.593  19.274  25.888  1.00  0.00    -0.744 OA
ENDBRANCH  78  79
ENDBRANCH  46  71
BRANCH  58  83
ATOM     83  C   UNL A   1      49.454  26.802  26.140  1.00  0.00     0.058 A 
ATOM     84  C   UNL A   1      49.845  26.920  24.798  1.00  0.00     0.135 A 
ATOM     85  C   UNL A   1      50.397  26.298  27.053  1.00  0.00     0.135 A 
ATOM     86  F   UNL A   1      48.983  27.388  23.882  1.00  0.00    -0.206 F 
ATOM     87  C   UNL A   1      51.113  26.534  24.372  1.00  0.00     0.059 A 
ATOM     88  C   UNL A   1      51.680  25.934  26.655  1.00  0.00     0.059 A 
ATOM     89  F   UNL A   1      50.081  26.172  28.352  1.00  0.00    -0.206 F 
ATOM     90  C   UNL A   1      52.026  26.046  25.309  1.00  0.00     0.060 A 
BRANCH  90  91
ATOM     91  S   UNL A   1      53.680  25.585  24.749  1.00  0.00     0.124 S 
ATOM     92  O   UNL A   1      53.589  24.129  24.731  1.00  0.00    -0.237 OA
ATOM     93  O   UNL A   1      53.758  26.232  23.443  1.00  0.00    -0.237 OA
ATOM     94  O   UNL A   1      54.556  26.146  25.773  1.00  0.00    -0.744 OA
ENDBRANCH  90  91
ENDBRANCH  58  83
ENDBRANCH  32  33
ENDBRANCH  24  27
ENDBRANCH  22  23
ENDBRANCH  21  22
ENDBRANCH  20  21
ENDBRANCH   3  20
TORSDOF 19
ENDMDL
MODEL 2
REMARK VINA RESULT:     -10.3      6.923     12.371
REMARK SMILES C=CC[NH2+]CC(=O)N1CC[C@@H](CC(=O)NCCCNC(=O)c2ccc(-c3c4nc(c(-c5c(F)cc(S(=O)(=O)[O-])cc5F)c5ccc([nH]5)c(-c5c(F)cc(S(=O)(=O)[O-])cc5F)c5nc(c(-c6c(F)cc(S(=O)(=O)[O-])cc6F)c6ccc3[nH]6)C=C5)C=C4)cc2)C1
REMARK SMILES IDX 13 1 14 2 15 3 12 5 11 6 8 7 9 8 88 9 10 10 6 11 7 12 5 13
REMARK SMILES IDX 4 14 3 17 2 18 1 19 16 20 17 21 18 22 19 23 20 24 21 26
REMARK SMILES IDX 22 27 23 28 87 29 24 30 86 31 25 32 26 33 27 34 80 35 28 36
REMARK SMILES IDX 85 37 79 38 81 39 29 40 84 41 78 42 77 43 30 45 64 46 43 47
REMARK SMILES IDX 63 48 44 49 47 50 62 51 82 52 45 53 46 54 61 56 83 57 48 58
REMARK SMILES IDX 31 59 32 60 41 61 33 62 34 63 40 64 42 65 35 66 36 67 37 68
REMARK SMILES IDX 38 69 39 70 65 71 66 72 75 73 67 74 68 75 74 76 76 77 69 78
REMARK SMILES IDX 70 79 71 80 72 81 73 82 49 83 50 84 59 85 51 86 52 87 58 88
REMARK SMILES IDX 60 89 53 90 54 91 55 92 56 93 57 94
REMARK H PARENT 15 4 4 15 4 16 19 25 81 44 47 55
REMARK Flexibility Score: inf
ROOT
ATOM      1  C   UNL A   1      34.194  24.511  23.112  1.00  0.00     0.220 C 
ATOM      2  O   UNL A   1      33.619  24.032  22.135  1.00  0.00    -0.275 OA
ATOM      3  N   UNL A   1      35.020  23.712  23.848  1.00  0.00    -0.356 N 
ATOM      4  H   UNL A   1      35.206  22.829  23.455  1.00  0.00     0.163 HD
ENDROOT
BRANCH   1   5
ATOM      5  C   UNL A   1      34.017  25.971  23.478  1.00  0.00     0.105 C 
BRANCH   5   6
ATOM      6  C   UNL A   1      32.688  26.354  24.156  1.00  0.00     0.019 C 
ATOM      7  N   UNL A   1      31.894  24.795  25.781  1.00  0.00    -0.338 N 
ATOM      8  C   UNL A   1      32.798  25.689  26.470  1.00  0.00     0.120 C 
ATOM      9  C   UNL A   1      31.680  25.228  24.409  1.00  0.00     0.123 C 
ATOM     10  C   UNL A   1      32.919  26.911  25.571  1.00  0.00     0.027 C 
BRANCH   7  11
ATOM     11  C   UNL A   1      31.315  23.631  26.253  1.00  0.00     0.277 C 
ATOM     12  O   UNL A   1      30.916  23.564  27.421  1.00  0.00    -0.268 OA
BRANCH  11  13
ATOM     13  C   UNL A   1      31.179  22.409  25.324  1.00  0.00     0.362 C 
BRANCH  13  14
ATOM     14  N   UNL A   1      32.123  21.322  25.631  1.00  0.00    -0.335 N 
ATOM     15  H   UNL A   1      32.715  21.616  26.406  1.00  0.00     0.347 HD
ATOM     16  H   UNL A   1      31.566  20.498  25.862  1.00  0.00     0.347 HD
BRANCH  14  17
ATOM     17  C   UNL A   1      32.972  20.965  24.513  1.00  0.00     0.289 C 
BRANCH  17  18
ATOM     18  C   UNL A   1      33.982  19.929  24.889  1.00  0.00     0.025 C 
ATOM     19  C   UNL A   1      33.843  18.615  24.663  1.00  0.00     0.010 C 
ENDBRANCH  17  18
ENDBRANCH  14  17
ENDBRANCH  13  14
ENDBRANCH  11  13
ENDBRANCH   7  11
ENDBRANCH   5   6
ENDBRANCH   1   5
BRANCH   3  20
ATOM     20  C   UNL A   1      35.667  23.969  25.127  1.00  0.00     0.117 C 
BRANCH  20  21
ATOM     21  C   UNL A   1      37.156  23.665  25.049  1.00  0.00     0.042 C 
BRANCH  21  22
ATOM     22  C   UNL A   1      37.959  23.997  26.299  1.00  0.00     0.118 C 
BRANCH  22  23
ATOM     23  N   UNL A   1      39.395  23.950  26.070  1.00  0.00    -0.352 N 
ATOM     24  C   UNL A   1      40.457  24.673  26.559  1.00  0.00     0.251 C 
ATOM     25  H   UNL A   1      39.664  23.253  25.427  1.00  0.00     0.163 HD
ATOM     26  O   UNL A   1      41.550  24.484  26.020  1.00  0.00    -0.269 OA
BRANCH  24  27
ATOM     27  C   UNL A   1      40.362  25.671  27.665  1.00  0.00     0.039 A 
ATOM     28  C   UNL A   1      41.351  26.666  27.731  1.00  0.00     0.014 A 
ATOM     29  C   UNL A   1      39.402  25.634  28.677  1.00  0.00     0.014 A 
ATOM     30  C   UNL A   1      41.340  27.634  28.746  1.00  0.00     0.010 A 
ATOM     31  C   UNL A   1      39.340  26.648  29.643  1.00  0.00     0.010 A 
ATOM     32  C   UNL A   1      40.314  27.656  29.700  1.00  0.00    -0.014 A 
BRANCH  32  33
ATOM     33  C   UNL A   1      40.269  28.693  30.772  1.00  0.00     0.031 A 
ATOM     34  C   UNL A   1      41.169  28.586  31.979  1.00  0.00     0.074 A 
ATOM     35  C   UNL A   1      39.392  29.716  30.692  1.00  0.00     0.049 A 
ATOM     36  N   UNL A   1      41.226  29.349  33.043  1.00  0.00    -0.248 NA
ATOM     37  C   UNL A   1      42.116  27.460  32.005  1.00  0.00     0.031 C 
ATOM     38  C   UNL A   1      38.437  29.926  29.603  1.00  0.00     0.029 A 
ATOM     39  N   UNL A   1      39.151  30.765  31.549  1.00  0.00    -0.354 N 
ATOM     40  C   UNL A   1      42.191  28.782  33.871  1.00  0.00     0.074 A 
ATOM     41  C   UNL A   1      42.663  27.588  33.204  1.00  0.00     0.031 C 
ATOM     42  C   UNL A   1      37.730  31.041  29.845  1.00  0.00     0.029 A 
ATOM     43  C   UNL A   1      38.140  31.600  31.131  1.00  0.00     0.049 A 
ATOM     44  H   UNL A   1      39.654  30.905  32.382  1.00  0.00     0.167 HD
ATOM     45  C   UNL A   1      42.655  29.222  35.066  1.00  0.00     0.037 A 
ATOM     46  C   UNL A   1      37.588  32.681  31.721  1.00  0.00     0.037 A 
ATOM     47  C   UNL A   1      42.202  30.426  35.718  1.00  0.00     0.049 A 
ATOM     48  C   UNL A   1      38.110  33.145  33.056  1.00  0.00     0.074 A 
ATOM     49  C   UNL A   1      42.660  30.987  36.898  1.00  0.00     0.029 A 
ATOM     50  N   UNL A   1      41.185  31.248  35.256  1.00  0.00    -0.354 N 
ATOM     51  N   UNL A   1      39.069  32.633  33.790  1.00  0.00    -0.248 NA
ATOM     52  C   UNL A   1      37.477  34.336  33.643  1.00  0.00     0.031 C 
ATOM     53  C   UNL A   1      41.882  32.114  37.179  1.00  0.00     0.029 A 
ATOM     54  C   UNL A   1      40.981  32.294  36.143  1.00  0.00     0.049 A 
ATOM     55  H   UNL A   1      40.683  31.109  34.421  1.00  0.00     0.167 HD
ATOM     56  C   UNL A   1      39.168  33.451  34.912  1.00  0.00     0.074 A 
ATOM     57  C   UNL A   1      38.185  34.501  34.752  1.00  0.00     0.031 C 
ATOM     58  C   UNL A   1      40.001  33.340  35.977  1.00  0.00     0.037 A 
BRANCH  45  59
ATOM     59  C   UNL A   1      43.705  28.394  35.761  1.00  0.00     0.058 A 
ATOM     60  C   UNL A   1      45.077  28.623  35.572  1.00  0.00     0.135 A 
ATOM     61  C   UNL A   1      43.332  27.383  36.664  1.00  0.00     0.135 A 
ATOM     62  F   UNL A   1      45.493  29.569  34.716  1.00  0.00    -0.206 F 
ATOM     63  C   UNL A   1      46.041  27.861  36.225  1.00  0.00     0.059 A 
ATOM     64  C   UNL A   1      44.279  26.628  37.353  1.00  0.00     0.059 A 
ATOM     65  F   UNL A   1      42.035  27.122  36.889  1.00  0.00    -0.206 F 
ATOM     66  C   UNL A   1      45.632  26.865  37.114  1.00  0.00     0.060 A 
BRANCH  66  67
ATOM     67  S   UNL A   1      46.894  25.886  37.954  1.00  0.00     0.124 S 
ATOM     68  O   UNL A   1      46.775  26.372  39.326  1.00  0.00    -0.237 OA
ATOM     69  O   UNL A   1      46.431  24.519  37.725  1.00  0.00    -0.237 OA
ATOM     70  O   UNL A   1      48.126  26.250  37.265  1.00  0.00    -0.744 OA
ENDBRANCH  66  67
ENDBRANCH  45  59
BRANCH  46  71
ATOM     71  C   UNL A   1      36.470  33.401  31.051  1.00  0.00     0.058 A 
ATOM     72  C   UNL A   1      35.145  33.256  31.491  1.00  0.00     0.135 A 
ATOM     73  C   UNL A   1      36.705  34.258  29.964  1.00  0.00     0.135 A 
ATOM     74  F   UNL A   1      34.865  32.439  32.517  1.00  0.00    -0.206 F 
ATOM     75  C   UNL A   1      34.093  33.926  30.873  1.00  0.00     0.059 A 
ATOM     76  C   UNL A   1      35.673  34.961  29.348  1.00  0.00     0.059 A 
ATOM     77  F   UNL A   1      37.954  34.440  29.508  1.00  0.00    -0.206 F 
ATOM     78  C   UNL A   1      34.369  34.781  29.805  1.00  0.00     0.060 A 
BRANCH  78  79
ATOM     79  S   UNL A   1      33.005  35.695  29.051  1.00  0.00     0.124 S 
ATOM     80  O   UNL A   1      32.239  36.102  30.223  1.00  0.00    -0.237 OA
ATOM     81  O   UNL A   1      33.705  36.762  28.343  1.00  0.00    -0.237 OA
ATOM     82  O   UNL A   1      32.368  34.699  28.193  1.00  0.00    -0.744 OA
ENDBRANCH  78  79
ENDBRANCH  46  71
BRANCH  58  83
ATOM     83  C   UNL A   1      39.915  34.397  37.046  1.00  0.00     0.058 A 
ATOM     84  C   UNL A   1      40.564  35.635  36.920  1.00  0.00     0.135 A 
ATOM     85  C   UNL A   1      39.120  34.190  38.187  1.00  0.00     0.135 A 
ATOM     86  F   UNL A   1      41.342  35.884  35.855  1.00  0.00    -0.206 F 
ATOM     87  C   UNL A   1      40.448  36.621  37.895  1.00  0.00     0.059 A 
ATOM     88  C   UNL A   1      38.965  35.173  39.160  1.00  0.00     0.059 A 
ATOM     89  F   UNL A   1      38.468  33.029  38.355  1.00  0.00    -0.206 F 
ATOM     90  C   UNL A   1      39.642  36.383  39.011  1.00  0.00     0.060 A 
BRANCH  90  91
ATOM     91  S   UNL A   1      39.469  37.685  40.249  1.00  0.00     0.124 S 
ATOM     92  O   UNL A   1      38.506  38.574  39.609  1.00  0.00    -0.237 OA
ATOM     93  O   UNL A   1      38.979  36.949  41.410  1.00  0.00    -0.237 OA
ATOM     94  O   UNL A   1      40.823  38.215  40.377  1.00  0.00    -0.744 OA
ENDBRANCH  90  91
ENDBRANCH  58  83
ENDBRANCH  32  33
ENDBRANCH  24  27
ENDBRANCH  22  23
ENDBRANCH  21  22
ENDBRANCH  20  21
ENDBRANCH   3  20
TORSDOF 19
ENDMDL
MODEL 3
REMARK VINA RESULT:     -10.3      6.651     12.251
REMARK SMILES C=CC[NH2+]CC(=O)N1CC[C@@H](CC(=O)NCCCNC(=O)c2ccc(-c3c4nc(c(-c5c(F)cc(S(=O)(=O)[O-])cc5F)c5ccc([nH]5)c(-c5c(F)cc(S(=O)(=O)[O-])cc5F)c5nc(c(-c6c(F)cc(S(=O)(=O)[O-])cc6F)c6ccc3[nH]6)C=C5)C=C4)cc2)C1
REMARK SMILES IDX 13 1 14 2 15 3 12 5 11 6 8 7 9 8 88 9 10 10 6 11 7 12 5 13
REMARK SMILES IDX 4 14 3 17 2 18 1 19 16 20 17 21 18 22 19 23 20 24 21 26
REMARK SMILES IDX 22 27 23 28 87 29 24 30 86 31 25 32 26 33 27 34 80 35 28 36
REMARK SMILES IDX 85 37 79 38 81 39 29 40 84 41 78 42 77 43 30 45 64 46 43 47
REMARK SMILES IDX 63 48 44 49 47 50 62 51 82 52 45 53 46 54 61 56 83 57 48 58
REMARK SMILES IDX 31 59 32 60 41 61 33 62 34 63 40 64 42 65 35 66 36 67 37 68
REMARK SMILES IDX 38 69 39 70 65 71 66 72 75 73 67 74 68 75 74 76 76 77 69 78
REMARK SMILES IDX 70 79 71 80 72 81 73 82 49 83 50 84 59 85 51 86 52 87 58 88
REMARK SMILES IDX 60 89 53 90 54 91 55 92 56 93 57 94
REMARK H PARENT 15 4 4 15 4 16 19 25 81 44 47 55
REMARK Flexibility Score: inf
ROOT
ATOM      1  C   UNL A   1      34.855  23.575  26.138  1.00  0.00     0.220 C 
ATOM      2  O   UNL A   1      33.957  23.291  26.931  1.00  0.00    -0.275 OA
ATOM      3  N   UNL A   1      35.953  22.769  26.069  1.00  0.00    -0.356 N 
ATOM      4  H   UNL A   1      35.884  21.925  26.571  1.00  0.00     0.163 HD
ENDROOT
BRANCH   1   5
ATOM      5  C   UNL A   1      34.734  24.781  25.229  1.00  0.00     0.105 C 
BRANCH   5   6
ATOM      6  C   UNL A   1      33.400  24.943  24.475  1.00  0.00     0.019 C 
ATOM      7  N   UNL A   1      32.628  27.192  24.255  1.00  0.00    -0.338 N 
ATOM      8  C   UNL A   1      33.521  26.948  23.143  1.00  0.00     0.120 C 
ATOM      9  C   UNL A   1      32.408  25.974  25.020  1.00  0.00     0.123 C 
ATOM     10  C   UNL A   1      33.624  25.434  23.035  1.00  0.00     0.027 C 
BRANCH   7  11
ATOM     11  C   UNL A   1      32.065  28.390  24.654  1.00  0.00     0.277 C 
ATOM     12  O   UNL A   1      30.845  28.566  24.562  1.00  0.00    -0.268 OA
BRANCH  11  13
ATOM     13  C   UNL A   1      32.964  29.515  25.203  1.00  0.00     0.362 C 
BRANCH  13  14
ATOM     14  N   UNL A   1      34.289  29.054  25.647  1.00  0.00    -0.335 N 
ATOM     15  H   UNL A   1      34.549  28.236  25.096  1.00  0.00     0.347 HD
ATOM     16  H   UNL A   1      34.937  29.831  25.514  1.00  0.00     0.347 HD
BRANCH  14  17
ATOM     17  C   UNL A   1      34.333  28.695  27.049  1.00  0.00     0.289 C 
BRANCH  17  18
ATOM     18  C   UNL A   1      34.907  29.792  27.887  1.00  0.00     0.025 C 
ATOM     19  C   UNL A   1      34.985  31.076  27.509  1.00  0.00     0.010 C 
ENDBRANCH  17  18
ENDBRANCH  14  17
ENDBRANCH  13  14
ENDBRANCH  11  13
ENDBRANCH   7  11
ENDBRANCH   5   6
ENDBRANCH   1   5
BRANCH   3  20
ATOM     20  C   UNL A   1      37.212  22.968  25.365  1.00  0.00     0.117 C 
BRANCH  20  21
ATOM     21  C   UNL A   1      38.139  23.873  26.162  1.00  0.00     0.042 C 
BRANCH  21  22
ATOM     22  C   UNL A   1      39.370  23.196  26.751  1.00  0.00     0.118 C 
BRANCH  22  23
ATOM     23  N   UNL A   1      40.610  23.690  26.173  1.00  0.00    -0.352 N 
ATOM     24  C   UNL A   1      41.386  24.802  26.403  1.00  0.00     0.251 C 
ATOM     25  H   UNL A   1      40.969  23.105  25.466  1.00  0.00     0.163 HD
ATOM     26  O   UNL A   1      42.303  25.010  25.606  1.00  0.00    -0.269 OA
BRANCH  24  27
ATOM     27  C   UNL A   1      41.173  25.764  27.524  1.00  0.00     0.039 A 
ATOM     28  C   UNL A   1      42.123  26.785  27.695  1.00  0.00     0.014 A 
ATOM     29  C   UNL A   1      40.138  25.671  28.454  1.00  0.00     0.014 A 
ATOM     30  C   UNL A   1      42.002  27.723  28.730  1.00  0.00     0.010 A 
ATOM     31  C   UNL A   1      39.968  26.655  29.438  1.00  0.00     0.010 A 
ATOM     32  C   UNL A   1      40.903  27.688  29.599  1.00  0.00    -0.014 A 
BRANCH  32  33
ATOM     33  C   UNL A   1      40.741  28.693  30.691  1.00  0.00     0.031 A 
ATOM     34  C   UNL A   1      41.578  28.602  31.945  1.00  0.00     0.074 A 
ATOM     35  C   UNL A   1      39.816  29.669  30.585  1.00  0.00     0.049 A 
ATOM     36  N   UNL A   1      41.533  29.338  33.028  1.00  0.00    -0.248 NA
ATOM     37  C   UNL A   1      42.581  27.528  31.998  1.00  0.00     0.031 C 
ATOM     38  C   UNL A   1      38.913  29.856  29.448  1.00  0.00     0.029 A 
ATOM     39  N   UNL A   1      39.469  30.680  31.451  1.00  0.00    -0.354 N 
ATOM     40  C   UNL A   1      42.480  28.802  33.896  1.00  0.00     0.074 A 
ATOM     41  C   UNL A   1      43.054  27.654  33.229  1.00  0.00     0.031 C 
ATOM     42  C   UNL A   1      38.133  30.925  29.676  1.00  0.00     0.029 A 
ATOM     43  C   UNL A   1      38.439  31.471  30.995  1.00  0.00     0.049 A 
ATOM     44  H   UNL A   1      39.917  30.825  32.315  1.00  0.00     0.167 HD
ATOM     45  C   UNL A   1      42.852  29.235  35.125  1.00  0.00     0.037 A 
ATOM     46  C   UNL A   1      37.797  32.504  31.578  1.00  0.00     0.037 A 
ATOM     47  C   UNL A   1      42.298  30.395  35.779  1.00  0.00     0.049 A 
ATOM     48  C   UNL A   1      38.217  32.960  32.951  1.00  0.00     0.074 A 
ATOM     49  C   UNL A   1      42.658  30.948  36.996  1.00  0.00     0.029 A 
ATOM     50  N   UNL A   1      41.265  31.173  35.278  1.00  0.00    -0.354 N 
ATOM     51  N   UNL A   1      39.160  32.481  33.727  1.00  0.00    -0.248 NA
ATOM     52  C   UNL A   1      37.488  34.099  33.529  1.00  0.00     0.031 C 
ATOM     53  C   UNL A   1      41.804  32.024  37.258  1.00  0.00     0.029 A 
ATOM     54  C   UNL A   1      40.954  32.182  36.176  1.00  0.00     0.049 A 
ATOM     55  H   UNL A   1      40.818  31.030  34.413  1.00  0.00     0.167 HD
ATOM     56  C   UNL A   1      39.152  33.273  34.872  1.00  0.00     0.074 A 
ATOM     57  C   UNL A   1      38.122  34.273  34.680  1.00  0.00     0.031 C 
ATOM     58  C   UNL A   1      39.929  33.179  35.979  1.00  0.00     0.037 A 
BRANCH  45  59
ATOM     59  C   UNL A   1      43.905  28.446  35.860  1.00  0.00     0.058 A 
ATOM     60  C   UNL A   1      45.274  28.726  35.722  1.00  0.00     0.135 A 
ATOM     61  C   UNL A   1      43.537  27.421  36.749  1.00  0.00     0.135 A 
ATOM     62  F   UNL A   1      45.686  29.687  34.880  1.00  0.00    -0.206 F 
ATOM     63  C   UNL A   1      46.240  27.999  36.410  1.00  0.00     0.059 A 
ATOM     64  C   UNL A   1      44.485  26.702  37.473  1.00  0.00     0.059 A 
ATOM     65  F   UNL A   1      42.243  27.112  36.926  1.00  0.00    -0.206 F 
ATOM     66  C   UNL A   1      45.836  26.989  37.284  1.00  0.00     0.060 A 
BRANCH  66  67
ATOM     67  S   UNL A   1      47.102  26.057  38.171  1.00  0.00     0.124 S 
ATOM     68  O   UNL A   1      46.597  24.692  38.051  1.00  0.00    -0.237 OA
ATOM     69  O   UNL A   1      48.306  26.355  37.399  1.00  0.00    -0.237 OA
ATOM     70  O   UNL A   1      47.067  26.621  39.514  1.00  0.00    -0.744 OA
ENDBRANCH  66  67
ENDBRANCH  45  59
BRANCH  46  71
ATOM     71  C   UNL A   1      36.680  33.181  30.862  1.00  0.00     0.058 A 
ATOM     72  C   UNL A   1      35.341  32.868  31.143  1.00  0.00     0.135 A 
ATOM     73  C   UNL A   1      36.928  34.163  29.890  1.00  0.00     0.135 A 
ATOM     74  F   UNL A   1      35.050  31.927  32.054  1.00  0.00    -0.206 F 
ATOM     75  C   UNL A   1      34.289  33.496  30.482  1.00  0.00     0.059 A 
ATOM     76  C   UNL A   1      35.893  34.826  29.236  1.00  0.00     0.059 A 
ATOM     77  F   UNL A   1      38.190  34.508  29.589  1.00  0.00    -0.206 F 
ATOM     78  C   UNL A   1      34.577  34.478  29.533  1.00  0.00     0.060 A 
BRANCH  78  79
ATOM     79  S   UNL A   1      33.204  35.332  28.726  1.00  0.00     0.124 S 
ATOM     80  O   UNL A   1      33.909  36.236  27.824  1.00  0.00    -0.237 OA
ATOM     81  O   UNL A   1      32.487  34.229  28.094  1.00  0.00    -0.237 OA
ATOM     82  O   UNL A   1      32.504  35.968  29.838  1.00  0.00    -0.744 OA
ENDBRANCH  78  79
ENDBRANCH  46  71
BRANCH  58  83
ATOM     83  C   UNL A   1      39.725  34.201  37.066  1.00  0.00     0.058 A 
ATOM     84  C   UNL A   1      38.868  33.969  38.152  1.00  0.00     0.135 A 
ATOM     85  C   UNL A   1      40.447  35.408  37.050  1.00  0.00     0.135 A 
ATOM     86  F   UNL A   1      38.149  32.838  38.215  1.00  0.00    -0.206 F 
ATOM     87  C   UNL A   1      38.715  34.904  39.172  1.00  0.00     0.059 A 
ATOM     88  C   UNL A   1      40.333  36.344  38.074  1.00  0.00     0.059 A 
ATOM     89  F   UNL A   1      41.290  35.679  36.040  1.00  0.00    -0.206 F 
ATOM     90  C   UNL A   1      39.456  36.088  39.127  1.00  0.00     0.060 A 
BRANCH  90  91
ATOM     91  S   UNL A   1      39.276  37.274  40.476  1.00  0.00     0.124 S 
ATOM     92  O   UNL A   1      38.230  38.151  39.960  1.00  0.00    -0.237 OA
ATOM     93  O   UNL A   1      38.891  36.419  41.594  1.00  0.00    -0.237 OA
ATOM     94  O   UNL A   1      40.602  37.875  40.581  1.00  0.00    -0.744 OA
ENDBRANCH  90  91
ENDBRANCH  58  83
ENDBRANCH  32  33
ENDBRANCH  24  27
ENDBRANCH  22  23
ENDBRANCH  21  22
ENDBRANCH  20  21
ENDBRANCH   3  20
TORSDOF 19
ENDMDL
