MODEL 1
REMARK VINA RESULT:     -11.0      0.000      0.000
REMARK SMILES C[NH2+]C[C@H](C)C(=O)N1CCc2cc(C(=O)NCCCNC(=O)c3ccc(-c4c5nc(c(-c6c(F)cc(S(=O)(=O)[O-])cc6F)c6ccc([nH]6)c(-c6c(F)cc(S(=O)(=O)[O-])cc6F)c6nc(c(-c7c(F)cc(S(=O)(=O)[O-])cc7F)c7ccc4[nH]7)C=C6)C=C5)cc3)ccc21
REMARK SMILES IDX 17 1 16 2 14 3 15 4 13 6 8 7 9 8 91 9 10 10 11 11 90 12
REMARK SMILES IDX 12 13 89 14 6 15 7 16 4 17 5 18 3 19 2 20 1 21 18 24 19 25
REMARK SMILES IDX 20 26 21 27 22 29 23 30 24 31 88 32 25 33 87 34 26 35 27 36
REMARK SMILES IDX 28 37 81 38 29 39 86 40 80 41 82 42 30 43 85 44 79 45 78 46
REMARK SMILES IDX 31 48 65 49 44 50 64 51 45 52 48 53 63 54 83 55 46 56 47 57
REMARK SMILES IDX 62 59 84 60 49 61 32 62 33 63 42 64 34 65 35 66 41 67 43 68
REMARK SMILES IDX 36 69 37 70 38 71 39 72 40 73 66 74 67 75 76 76 68 77 69 78
REMARK SMILES IDX 75 79 77 80 70 81 71 82 72 83 73 84 74 85 50 86 51 87 60 88
REMARK SMILES IDX 52 89 53 90 59 91 61 92 54 93 55 94 56 95 57 96 58 97
REMARK H PARENT 16 5 2 22 2 23 20 28 82 47 48 58
REMARK Flexibility Score: inf
ROOT
ATOM      1  C   UNL A   1      34.129  34.979  28.571  1.00  0.00     0.118 C 
ENDROOT
BRANCH   1   2
ATOM      2  N   UNL A   1      33.137  35.623  29.417  1.00  0.00    -0.352 N 
ATOM      3  C   UNL A   1      33.044  35.754  30.781  1.00  0.00     0.251 C 
ATOM      4  O   UNL A   1      32.148  36.466  31.235  1.00  0.00    -0.269 OA
ATOM      5  H   UNL A   1      32.396  36.041  28.921  1.00  0.00     0.163 HD
BRANCH   3   6
ATOM      6  C   UNL A   1      34.016  35.123  31.716  1.00  0.00     0.040 A 
ATOM      7  N   UNL A   1      36.433  32.952  34.320  1.00  0.00    -0.311 N 
ATOM      8  C   UNL A   1      36.768  31.773  33.509  1.00  0.00     0.130 C 
ATOM      9  C   UNL A   1      35.670  33.816  33.536  1.00  0.00     0.047 A 
ATOM     10  C   UNL A   1      35.915  31.838  32.232  1.00  0.00     0.059 C 
ATOM     11  C   UNL A   1      35.251  33.171  32.374  1.00  0.00    -0.022 A 
ATOM     12  C   UNL A   1      35.438  35.159  33.700  1.00  0.00     0.027 A 
ATOM     13  C   UNL A   1      34.391  33.793  31.478  1.00  0.00     0.019 A 
ATOM     14  C   UNL A   1      34.627  35.813  32.773  1.00  0.00     0.016 A 
BRANCH   7  15
ATOM     15  C   UNL A   1      36.975  33.141  35.567  1.00  0.00     0.235 C 
ATOM     16  O   UNL A   1      36.251  33.481  36.511  1.00  0.00    -0.274 OA
BRANCH  15  17
ATOM     17  C   UNL A   1      38.507  33.202  35.749  1.00  0.00     0.131 C 
ATOM     18  C   UNL A   1      39.130  34.582  35.920  1.00  0.00     0.024 C 
BRANCH  17  19
ATOM     19  C   UNL A   1      39.074  32.229  36.808  1.00  0.00     0.273 C 
BRANCH  19  20
ATOM     20  N   UNL A   1      39.633  30.948  36.367  1.00  0.00    -0.348 N 
ATOM     21  C   UNL A   1      39.964  30.901  34.950  1.00  0.00     0.330 C 
ATOM     22  H   UNL A   1      40.484  30.769  36.901  1.00  0.00     0.346 HD
ATOM     23  H   UNL A   1      38.914  30.242  36.525  1.00  0.00     0.346 HD
ENDBRANCH  19  20
ENDBRANCH  17  19
ENDBRANCH  15  17
ENDBRANCH   7  15
ENDBRANCH   3   6
ENDBRANCH   1   2
BRANCH   1  24
ATOM     24  C   UNL A   1      33.610  33.661  27.998  1.00  0.00     0.042 C 
BRANCH  24  25
ATOM     25  C   UNL A   1      34.559  32.492  28.221  1.00  0.00     0.118 C 
BRANCH  25  26
ATOM     26  N   UNL A   1      33.892  31.209  28.051  1.00  0.00    -0.352 N 
ATOM     27  C   UNL A   1      34.432  29.950  27.946  1.00  0.00     0.251 C 
ATOM     28  H   UNL A   1      32.910  31.250  28.004  1.00  0.00     0.163 HD
ATOM     29  O   UNL A   1      33.727  29.017  27.578  1.00  0.00    -0.269 OA
BRANCH  27  30
ATOM     30  C   UNL A   1      35.860  29.730  28.260  1.00  0.00     0.039 A 
ATOM     31  C   UNL A   1      36.220  29.339  29.554  1.00  0.00     0.014 A 
ATOM     32  C   UNL A   1      36.842  29.921  27.286  1.00  0.00     0.014 A 
ATOM     33  C   UNL A   1      37.559  29.073  29.849  1.00  0.00     0.010 A 
ATOM     34  C   UNL A   1      38.162  29.580  27.559  1.00  0.00     0.010 A 
ATOM     35  C   UNL A   1      38.536  29.155  28.843  1.00  0.00    -0.014 A 
BRANCH  35  36
ATOM     36  C   UNL A   1      39.958  28.809  29.095  1.00  0.00     0.031 A 
ATOM     37  C   UNL A   1      40.898  29.861  29.619  1.00  0.00     0.074 A 
ATOM     38  C   UNL A   1      40.420  27.589  28.754  1.00  0.00     0.049 A 
ATOM     39  N   UNL A   1      42.197  29.813  29.755  1.00  0.00    -0.248 NA
ATOM     40  C   UNL A   1      40.300  31.147  30.014  1.00  0.00     0.031 C 
ATOM     41  C   UNL A   1      39.608  26.496  28.214  1.00  0.00     0.029 A 
ATOM     42  N   UNL A   1      41.690  27.069  28.791  1.00  0.00    -0.354 N 
ATOM     43  C   UNL A   1      42.575  31.069  30.220  1.00  0.00     0.074 A 
ATOM     44  C   UNL A   1      41.373  31.868  30.306  1.00  0.00     0.031 C 
ATOM     45  C   UNL A   1      40.398  25.434  27.981  1.00  0.00     0.029 A 
ATOM     46  C   UNL A   1      41.777  25.786  28.304  1.00  0.00     0.049 A 
ATOM     47  H   UNL A   1      42.467  27.569  29.134  1.00  0.00     0.167 HD
ATOM     48  C   UNL A   1      43.812  31.507  30.554  1.00  0.00     0.037 A 
ATOM     49  C   UNL A   1      42.849  24.991  28.116  1.00  0.00     0.037 A 
ATOM     50  C   UNL A   1      44.994  30.688  30.496  1.00  0.00     0.049 A 
ATOM     51  C   UNL A   1      44.217  25.511  28.475  1.00  0.00     0.074 A 
ATOM     52  C   UNL A   1      46.282  31.014  30.882  1.00  0.00     0.029 A 
ATOM     53  N   UNL A   1      45.036  29.388  30.016  1.00  0.00    -0.354 N 
ATOM     54  N   UNL A   1      44.549  26.679  28.973  1.00  0.00    -0.248 NA
ATOM     55  C   UNL A   1      45.356  24.611  28.247  1.00  0.00     0.031 C 
ATOM     56  C   UNL A   1      47.113  29.933  30.580  1.00  0.00     0.029 A 
ATOM     57  C   UNL A   1      46.333  28.908  30.068  1.00  0.00     0.049 A 
ATOM     58  H   UNL A   1      44.259  28.880  29.687  1.00  0.00     0.167 HD
ATOM     59  C   UNL A   1      45.927  26.636  29.157  1.00  0.00     0.074 A 
ATOM     60  C   UNL A   1      46.367  25.330  28.716  1.00  0.00     0.031 C 
ATOM     61  C   UNL A   1      46.751  27.591  29.652  1.00  0.00     0.037 A 
BRANCH  48  62
ATOM     62  C   UNL A   1      43.959  32.934  31.006  1.00  0.00     0.058 A 
ATOM     63  C   UNL A   1      44.125  33.989  30.095  1.00  0.00     0.135 A 
ATOM     64  C   UNL A   1      43.869  33.257  32.370  1.00  0.00     0.135 A 
ATOM     65  F   UNL A   1      44.232  33.737  28.780  1.00  0.00    -0.206 F 
ATOM     66  C   UNL A   1      44.220  35.309  30.520  1.00  0.00     0.059 A 
ATOM     67  C   UNL A   1      43.930  34.574  32.816  1.00  0.00     0.059 A 
ATOM     68  F   UNL A   1      43.712  32.288  33.286  1.00  0.00    -0.206 F 
ATOM     69  C   UNL A   1      44.118  35.593  31.883  1.00  0.00     0.060 A 
BRANCH  69  70
ATOM     70  S   UNL A   1      44.221  37.314  32.415  1.00  0.00     0.124 S 
ATOM     71  O   UNL A   1      43.945  38.021  31.167  1.00  0.00    -0.237 OA
ATOM     72  O   UNL A   1      43.175  37.389  33.430  1.00  0.00    -0.237 OA
ATOM     73  O   UNL A   1      45.587  37.437  32.915  1.00  0.00    -0.744 OA
ENDBRANCH  69  70
ENDBRANCH  48  62
BRANCH  49  74
ATOM     74  C   UNL A   1      42.678  23.617  27.571  1.00  0.00     0.058 A 
ATOM     75  C   UNL A   1      42.428  22.532  28.425  1.00  0.00     0.135 A 
ATOM     76  C   UNL A   1      42.767  23.355  26.195  1.00  0.00     0.135 A 
ATOM     77  F   UNL A   1      42.340  22.729  29.749  1.00  0.00    -0.206 F 
ATOM     78  C   UNL A   1      42.295  21.235  27.939  1.00  0.00     0.059 A 
ATOM     79  C   UNL A   1      42.608  22.071  25.682  1.00  0.00     0.059 A 
ATOM     80  F   UNL A   1      42.988  24.358  25.331  1.00  0.00    -0.206 F 
ATOM     81  C   UNL A   1      42.386  21.015  26.564  1.00  0.00     0.060 A 
BRANCH  81  82
ATOM     82  S   UNL A   1      42.183  19.331  25.945  1.00  0.00     0.124 S 
ATOM     83  O   UNL A   1      40.746  19.278  25.704  1.00  0.00    -0.237 OA
ATOM     84  O   UNL A   1      43.031  19.338  24.757  1.00  0.00    -0.237 OA
ATOM     85  O   UNL A   1      42.669  18.508  27.048  1.00  0.00    -0.744 OA
ENDBRANCH  81  82
ENDBRANCH  49  74
BRANCH  61  86
ATOM     86  C   UNL A   1      48.207  27.253  29.809  1.00  0.00     0.058 A 
ATOM     87  C   UNL A   1      49.148  27.539  28.809  1.00  0.00     0.135 A 
ATOM     88  C   UNL A   1      48.679  26.730  31.025  1.00  0.00     0.135 A 
ATOM     89  F   UNL A   1      48.749  28.030  27.625  1.00  0.00    -0.206 F 
ATOM     90  C   UNL A   1      50.507  27.316  29.008  1.00  0.00     0.059 A 
ATOM     91  C   UNL A   1      50.036  26.528  31.256  1.00  0.00     0.059 A 
ATOM     92  F   UNL A   1      47.820  26.446  32.018  1.00  0.00    -0.206 F 
ATOM     93  C   UNL A   1      50.942  26.822  30.240  1.00  0.00     0.060 A 
BRANCH  93  94
ATOM     94  S   UNL A   1      52.715  26.617  30.512  1.00  0.00     0.124 S 
ATOM     95  O   UNL A   1      53.187  26.315  29.164  1.00  0.00    -0.237 OA
ATOM     96  O   UNL A   1      53.101  27.921  31.041  1.00  0.00    -0.237 OA
ATOM     97  O   UNL A   1      52.789  25.515  31.465  1.00  0.00    -0.744 OA
ENDBRANCH  93  94
ENDBRANCH  61  86
ENDBRANCH  35  36
ENDBRANCH  27  30
ENDBRANCH  25  26
ENDBRANCH  24  25
ENDBRANCH   1  24
TORSDOF 17
ENDMDL
MODEL 2
REMARK VINA RESULT:     -10.9      3.589      6.600
REMARK SMILES C[NH2+]C[C@H](C)C(=O)N1CCc2cc(C(=O)NCCCNC(=O)c3ccc(-c4c5nc(c(-c6c(F)cc(S(=O)(=O)[O-])cc6F)c6ccc([nH]6)c(-c6c(F)cc(S(=O)(=O)[O-])cc6F)c6nc(c(-c7c(F)cc(S(=O)(=O)[O-])cc7F)c7ccc4[nH]7)C=C6)C=C5)cc3)ccc21
REMARK SMILES IDX 17 1 16 2 14 3 15 4 13 6 8 7 9 8 91 9 10 10 11 11 90 12
REMARK SMILES IDX 12 13 89 14 6 15 7 16 4 17 5 18 3 19 2 20 1 21 18 24 19 25
REMARK SMILES IDX 20 26 21 27 22 29 23 30 24 31 88 32 25 33 87 34 26 35 27 36
REMARK SMILES IDX 28 37 81 38 29 39 86 40 80 41 82 42 30 43 85 44 79 45 78 46
REMARK SMILES IDX 31 48 65 49 44 50 64 51 45 52 48 53 63 54 83 55 46 56 47 57
REMARK SMILES IDX 62 59 84 60 49 61 32 62 33 63 42 64 34 65 35 66 41 67 43 68
REMARK SMILES IDX 36 69 37 70 38 71 39 72 40 73 66 74 67 75 76 76 68 77 69 78
REMARK SMILES IDX 75 79 77 80 70 81 71 82 72 83 73 84 74 85 50 86 51 87 60 88
REMARK SMILES IDX 52 89 53 90 59 91 61 92 54 93 55 94 56 95 57 96 58 97
REMARK H PARENT 16 5 2 22 2 23 20 28 82 47 48 58
REMARK Flexibility Score: inf
ROOT
ATOM      1  C   UNL A   1      32.778  29.904  27.071  1.00  0.00     0.118 C 
ENDROOT
BRANCH   1   2
ATOM      2  N   UNL A   1      32.043  29.883  25.816  1.00  0.00    -0.352 N 
ATOM      3  C   UNL A   1      31.653  28.847  25.002  1.00  0.00     0.251 C 
ATOM      4  O   UNL A   1      30.923  29.106  24.046  1.00  0.00    -0.269 OA
ATOM      5  H   UNL A   1      31.777  30.773  25.491  1.00  0.00     0.163 HD
BRANCH   3   6
ATOM      6  C   UNL A   1      32.029  27.431  25.269  1.00  0.00     0.040 A 
ATOM      7  N   UNL A   1      32.816  23.516  26.447  1.00  0.00    -0.311 N 
ATOM      8  C   UNL A   1      31.462  22.961  26.578  1.00  0.00     0.130 C 
ATOM      9  C   UNL A   1      32.706  24.825  25.983  1.00  0.00     0.047 A 
ATOM     10  C   UNL A   1      30.473  24.127  26.421  1.00  0.00     0.059 C 
ATOM     11  C   UNL A   1      31.385  25.258  26.063  1.00  0.00    -0.022 A 
ATOM     12  C   UNL A   1      33.651  25.609  25.368  1.00  0.00     0.027 A 
ATOM     13  C   UNL A   1      31.036  26.566  25.754  1.00  0.00     0.019 A 
ATOM     14  C   UNL A   1      33.299  26.906  24.992  1.00  0.00     0.016 A 
BRANCH   7  15
ATOM     15  C   UNL A   1      33.930  22.732  26.618  1.00  0.00     0.235 C 
ATOM     16  O   UNL A   1      34.526  22.733  27.702  1.00  0.00    -0.274 OA
BRANCH  15  17
ATOM     17  C   UNL A   1      34.605  22.063  25.403  1.00  0.00     0.131 C 
ATOM     18  C   UNL A   1      33.805  22.010  24.106  1.00  0.00     0.024 C 
BRANCH  17  19
ATOM     19  C   UNL A   1      36.047  22.541  25.117  1.00  0.00     0.273 C 
BRANCH  19  20
ATOM     20  N   UNL A   1      37.020  22.557  26.213  1.00  0.00    -0.348 N 
ATOM     21  C   UNL A   1      38.343  22.079  25.840  1.00  0.00     0.330 C 
ATOM     22  H   UNL A   1      37.109  23.516  26.548  1.00  0.00     0.346 HD
ATOM     23  H   UNL A   1      36.668  21.921  26.929  1.00  0.00     0.346 HD
ENDBRANCH  19  20
ENDBRANCH  17  19
ENDBRANCH  15  17
ENDBRANCH   7  15
ENDBRANCH   3   6
ENDBRANCH   1   2
BRANCH   1  24
ATOM     24  C   UNL A   1      34.289  29.917  26.837  1.00  0.00     0.042 C 
BRANCH  24  25
ATOM     25  C   UNL A   1      35.088  29.434  28.039  1.00  0.00     0.118 C 
BRANCH  25  26
ATOM     26  N   UNL A   1      35.191  30.455  29.071  1.00  0.00    -0.352 N 
ATOM     27  C   UNL A   1      36.258  30.785  29.872  1.00  0.00     0.251 C 
ATOM     28  H   UNL A   1      34.377  30.988  29.217  1.00  0.00     0.163 HD
ATOM     29  O   UNL A   1      36.086  31.518  30.839  1.00  0.00    -0.269 OA
BRANCH  27  30
ATOM     30  C   UNL A   1      37.602  30.242  29.573  1.00  0.00     0.039 A 
ATOM     31  C   UNL A   1      38.023  30.162  28.242  1.00  0.00     0.014 A 
ATOM     32  C   UNL A   1      38.437  29.802  30.602  1.00  0.00     0.014 A 
ATOM     33  C   UNL A   1      39.311  29.705  27.950  1.00  0.00     0.010 A 
ATOM     34  C   UNL A   1      39.744  29.423  30.316  1.00  0.00     0.010 A 
ATOM     35  C   UNL A   1      40.194  29.367  28.988  1.00  0.00    -0.014 A 
BRANCH  35  36
ATOM     36  C   UNL A   1      41.594  28.948  28.726  1.00  0.00     0.031 A 
ATOM     37  C   UNL A   1      42.691  29.979  28.722  1.00  0.00     0.074 A 
ATOM     38  C   UNL A   1      41.859  27.670  28.390  1.00  0.00     0.049 A 
ATOM     39  N   UNL A   1      43.941  29.854  28.363  1.00  0.00    -0.248 NA
ATOM     40  C   UNL A   1      42.323  31.339  29.151  1.00  0.00     0.031 C 
ATOM     41  C   UNL A   1      40.874  26.586  28.335  1.00  0.00     0.029 A 
ATOM     42  N   UNL A   1      43.032  27.067  28.008  1.00  0.00    -0.354 N 
ATOM     43  C   UNL A   1      44.501  31.120  28.492  1.00  0.00     0.074 A 
ATOM     44  C   UNL A   1      43.445  32.008  28.926  1.00  0.00     0.031 C 
ATOM     45  C   UNL A   1      41.486  25.453  27.954  1.00  0.00     0.029 A 
ATOM     46  C   UNL A   1      42.893  25.737  27.687  1.00  0.00     0.049 A 
ATOM     47  H   UNL A   1      43.894  27.543  27.968  1.00  0.00     0.167 HD
ATOM     48  C   UNL A   1      45.782  31.502  28.278  1.00  0.00     0.037 A 
ATOM     49  C   UNL A   1      43.790  24.852  27.208  1.00  0.00     0.037 A 
ATOM     50  C   UNL A   1      46.830  30.599  27.880  1.00  0.00     0.049 A 
ATOM     51  C   UNL A   1      45.204  25.309  26.958  1.00  0.00     0.074 A 
ATOM     52  C   UNL A   1      48.176  30.871  27.708  1.00  0.00     0.029 A 
ATOM     53  N   UNL A   1      46.651  29.256  27.584  1.00  0.00    -0.354 N 
ATOM     54  N   UNL A   1      45.731  26.495  27.145  1.00  0.00    -0.248 NA
ATOM     55  C   UNL A   1      46.145  24.310  26.430  1.00  0.00     0.031 C 
ATOM     56  C   UNL A   1      48.800  29.707  27.251  1.00  0.00     0.029 A 
ATOM     57  C   UNL A   1      47.857  28.693  27.202  1.00  0.00     0.049 A 
ATOM     58  H   UNL A   1      45.794  28.774  27.639  1.00  0.00     0.167 HD
ATOM     59  C   UNL A   1      47.073  26.373  26.800  1.00  0.00     0.074 A 
ATOM     60  C   UNL A   1      47.277  25.000  26.390  1.00  0.00     0.031 C 
ATOM     61  C   UNL A   1      48.049  27.314  26.826  1.00  0.00     0.037 A 
BRANCH  48  62
ATOM     62  C   UNL A   1      46.128  32.954  28.461  1.00  0.00     0.058 A 
ATOM     63  C   UNL A   1      46.582  33.461  29.689  1.00  0.00     0.135 A 
ATOM     64  C   UNL A   1      46.064  33.839  27.372  1.00  0.00     0.135 A 
ATOM     65  F   UNL A   1      46.650  32.664  30.767  1.00  0.00    -0.206 F 
ATOM     66  C   UNL A   1      46.938  34.797  29.837  1.00  0.00     0.059 A 
ATOM     67  C   UNL A   1      46.444  35.173  27.489  1.00  0.00     0.059 A 
ATOM     68  F   UNL A   1      45.635  33.409  26.175  1.00  0.00    -0.206 F 
ATOM     69  C   UNL A   1      46.869  35.645  28.730  1.00  0.00     0.060 A 
BRANCH  69  70
ATOM     70  S   UNL A   1      47.355  37.371  28.936  1.00  0.00     0.124 S 
ATOM     71  O   UNL A   1      48.280  37.280  30.062  1.00  0.00    -0.237 OA
ATOM     72  O   UNL A   1      47.959  37.680  27.644  1.00  0.00    -0.237 OA
ATOM     73  O   UNL A   1      46.094  38.051  29.215  1.00  0.00    -0.744 OA
ENDBRANCH  69  70
ENDBRANCH  48  62
BRANCH  49  74
ATOM     74  C   UNL A   1      43.387  23.445  26.942  1.00  0.00     0.058 A 
ATOM     75  C   UNL A   1      43.166  22.997  25.631  1.00  0.00     0.135 A 
ATOM     76  C   UNL A   1      43.209  22.521  27.984  1.00  0.00     0.135 A 
ATOM     77  F   UNL A   1      43.317  23.842  24.600  1.00  0.00    -0.206 F 
ATOM     78  C   UNL A   1      42.760  21.693  25.363  1.00  0.00     0.059 A 
ATOM     79  C   UNL A   1      42.832  21.204  27.739  1.00  0.00     0.059 A 
ATOM     80  F   UNL A   1      43.424  22.891  29.257  1.00  0.00    -0.206 F 
ATOM     81  C   UNL A   1      42.596  20.803  26.426  1.00  0.00     0.060 A 
BRANCH  81  82
ATOM     82  S   UNL A   1      42.097  19.107  26.061  1.00  0.00     0.124 S 
ATOM     83  O   UNL A   1      40.653  19.248  25.923  1.00  0.00    -0.237 OA
ATOM     84  O   UNL A   1      42.834  18.829  24.831  1.00  0.00    -0.237 OA
ATOM     85  O   UNL A   1      42.550  18.365  27.234  1.00  0.00    -0.744 OA
ENDBRANCH  81  82
ENDBRANCH  49  74
BRANCH  61  86
ATOM     86  C   UNL A   1      49.445  26.891  26.462  1.00  0.00     0.058 A 
ATOM     87  C   UNL A   1      50.284  26.238  27.377  1.00  0.00     0.135 A 
ATOM     88  C   UNL A   1      49.907  27.052  25.145  1.00  0.00     0.135 A 
ATOM     89  F   UNL A   1      49.896  26.068  28.650  1.00  0.00    -0.206 F 
ATOM     90  C   UNL A   1      51.535  25.759  26.998  1.00  0.00     0.059 A 
ATOM     91  C   UNL A   1      51.139  26.554  24.737  1.00  0.00     0.059 A 
ATOM     92  F   UNL A   1      49.137  27.664  24.230  1.00  0.00    -0.206 F 
ATOM     93  C   UNL A   1      51.948  25.912  25.672  1.00  0.00     0.060 A 
BRANCH  93  94
ATOM     94  S   UNL A   1      53.536  25.212  25.176  1.00  0.00     0.124 S 
ATOM     95  O   UNL A   1      53.621  25.632  23.781  1.00  0.00    -0.237 OA
ATOM     96  O   UNL A   1      54.464  25.867  26.092  1.00  0.00    -0.237 OA
ATOM     97  O   UNL A   1      53.360  23.779  25.390  1.00  0.00    -0.744 OA
ENDBRANCH  93  94
ENDBRANCH  61  86
ENDBRANCH  35  36
ENDBRANCH  27  30
ENDBRANCH  25  26
ENDBRANCH  24  25
ENDBRANCH   1  24
TORSDOF 17
ENDMDL
MODEL 3
REMARK VINA RESULT:     -10.9      4.961      8.530
REMARK SMILES C[NH2+]C[C@H](C)C(=O)N1CCc2cc(C(=O)NCCCNC(=O)c3ccc(-c4c5nc(c(-c6c(F)cc(S(=O)(=O)[O-])cc6F)c6ccc([nH]6)c(-c6c(F)cc(S(=O)(=O)[O-])cc6F)c6nc(c(-c7c(F)cc(S(=O)(=O)[O-])cc7F)c7ccc4[nH]7)C=C6)C=C5)cc3)ccc21
REMARK SMILES IDX 17 1 16 2 14 3 15 4 13 6 8 7 9 8 91 9 10 10 11 11 90 12
REMARK SMILES IDX 12 13 89 14 6 15 7 16 4 17 5 18 3 19 2 20 1 21 18 24 19 25
REMARK SMILES IDX 20 26 21 27 22 29 23 30 24 31 88 32 25 33 87 34 26 35 27 36
REMARK SMILES IDX 28 37 81 38 29 39 86 40 80 41 82 42 30 43 85 44 79 45 78 46
REMARK SMILES IDX 31 48 65 49 44 50 64 51 45 52 48 53 63 54 83 55 46 56 47 57
REMARK SMILES IDX 62 59 84 60 49 61 32 62 33 63 42 64 34 65 35 66 41 67 43 68
REMARK SMILES IDX 36 69 37 70 38 71 39 72 40 73 66 74 67 75 76 76 68 77 69 78
REMARK SMILES IDX 75 79 77 80 70 81 71 82 72 83 73 84 74 85 50 86 51 87 60 88
REMARK SMILES IDX 52 89 53 90 59 91 61 92 54 93 55 94 56 95 57 96 58 97
REMARK H PARENT 16 5 2 22 2 23 20 28 82 47 48 58
REMARK Flexibility Score: inf
ROOT
ATOM      1  C   UNL A   1      33.070  26.993  24.173  1.00  0.00     0.118 C 
ENDROOT
BRANCH   1   2
ATOM      2  N   UNL A   1      33.197  26.685  22.758  1.00  0.00    -0.352 N 
ATOM      3  C   UNL A   1      33.237  25.489  22.082  1.00  0.00     0.251 C 
ATOM      4  O   UNL A   1      33.225  25.519  20.852  1.00  0.00    -0.269 OA
ATOM      5  H   UNL A   1      33.266  27.478  22.178  1.00  0.00     0.163 HD
BRANCH   3   6
ATOM      6  C   UNL A   1      33.230  24.173  22.778  1.00  0.00     0.040 A 
ATOM      7  N   UNL A   1      33.620  20.378  24.444  1.00  0.00    -0.311 N 
ATOM      8  C   UNL A   1      34.977  20.431  25.005  1.00  0.00     0.130 C 
ATOM      9  C   UNL A   1      33.323  21.628  23.905  1.00  0.00     0.047 A 
ATOM     10  C   UNL A   1      35.619  21.742  24.525  1.00  0.00     0.059 C 
ATOM     11  C   UNL A   1      34.475  22.405  23.824  1.00  0.00    -0.022 A 
ATOM     12  C   UNL A   1      32.099  22.178  23.614  1.00  0.00     0.027 A 
ATOM     13  C   UNL A   1      34.457  23.659  23.226  1.00  0.00     0.019 A 
ATOM     14  C   UNL A   1      32.058  23.462  23.070  1.00  0.00     0.016 A 
BRANCH   7  15
ATOM     15  C   UNL A   1      32.812  19.283  24.628  1.00  0.00     0.235 C 
ATOM     16  O   UNL A   1      32.234  19.116  25.710  1.00  0.00    -0.274 OA
BRANCH  15  17
ATOM     17  C   UNL A   1      32.830  18.121  23.612  1.00  0.00     0.131 C 
ATOM     18  C   UNL A   1      32.382  18.437  22.190  1.00  0.00     0.024 C 
BRANCH  17  19
ATOM     19  C   UNL A   1      34.140  17.302  23.585  1.00  0.00     0.273 C 
BRANCH  19  20
ATOM     20  N   UNL A   1      34.315  16.212  24.549  1.00  0.00    -0.348 N 
ATOM     21  C   UNL A   1      33.067  15.661  25.055  1.00  0.00     0.330 C 
ATOM     22  H   UNL A   1      34.835  15.462  24.092  1.00  0.00     0.346 HD
ATOM     23  H   UNL A   1      34.812  16.603  25.350  1.00  0.00     0.346 HD
ENDBRANCH  19  20
ENDBRANCH  17  19
ENDBRANCH  15  17
ENDBRANCH   7  15
ENDBRANCH   3   6
ENDBRANCH   1   2
BRANCH   1  24
ATOM     24  C   UNL A   1      33.906  28.213  24.561  1.00  0.00     0.042 C 
BRANCH  24  25
ATOM     25  C   UNL A   1      33.944  28.466  26.061  1.00  0.00     0.118 C 
BRANCH  25  26
ATOM     26  N   UNL A   1      33.762  29.874  26.381  1.00  0.00    -0.352 N 
ATOM     27  C   UNL A   1      34.420  30.653  27.302  1.00  0.00     0.251 C 
ATOM     28  H   UNL A   1      33.066  30.336  25.861  1.00  0.00     0.163 HD
ATOM     29  O   UNL A   1      33.974  31.758  27.589  1.00  0.00    -0.269 OA
BRANCH  27  30
ATOM     30  C   UNL A   1      35.649  30.150  27.953  1.00  0.00     0.039 A 
ATOM     31  C   UNL A   1      36.867  30.244  27.272  1.00  0.00     0.014 A 
ATOM     32  C   UNL A   1      35.598  29.575  29.224  1.00  0.00     0.014 A 
ATOM     33  C   UNL A   1      38.044  29.825  27.897  1.00  0.00     0.010 A 
ATOM     34  C   UNL A   1      36.778  29.232  29.875  1.00  0.00     0.010 A 
ATOM     35  C   UNL A   1      38.013  29.350  29.219  1.00  0.00    -0.014 A 
BRANCH  35  36
ATOM     36  C   UNL A   1      39.248  28.965  29.947  1.00  0.00     0.031 A 
ATOM     37  C   UNL A   1      39.667  29.743  31.165  1.00  0.00     0.074 A 
ATOM     38  C   UNL A   1      40.040  27.991  29.453  1.00  0.00     0.049 A 
ATOM     39  N   UNL A   1      40.781  29.674  31.845  1.00  0.00    -0.248 NA
ATOM     40  C   UNL A   1      38.720  30.753  31.665  1.00  0.00     0.031 C 
ATOM     41  C   UNL A   1      39.750  27.184  28.265  1.00  0.00     0.029 A 
ATOM     42  N   UNL A   1      41.262  27.528  29.875  1.00  0.00    -0.354 N 
ATOM     43  C   UNL A   1      40.682  30.650  32.831  1.00  0.00     0.074 A 
ATOM     44  C   UNL A   1      39.416  31.322  32.637  1.00  0.00     0.031 C 
ATOM     45  C   UNL A   1      40.759  26.320  28.062  1.00  0.00     0.029 A 
ATOM     46  C   UNL A   1      41.790  26.547  29.071  1.00  0.00     0.049 A 
ATOM     47  H   UNL A   1      41.717  27.868  30.680  1.00  0.00     0.167 HD
ATOM     48  C   UNL A   1      41.564  30.948  33.815  1.00  0.00     0.037 A 
ATOM     49  C   UNL A   1      42.980  25.916  29.124  1.00  0.00     0.037 A 
ATOM     50  C   UNL A   1      42.805  30.246  34.016  1.00  0.00     0.049 A 
ATOM     51  C   UNL A   1      43.952  26.281  30.216  1.00  0.00     0.074 A 
ATOM     52  C   UNL A   1      43.733  30.421  35.027  1.00  0.00     0.029 A 
ATOM     53  N   UNL A   1      43.294  29.245  33.191  1.00  0.00    -0.354 N 
ATOM     54  N   UNL A   1      43.816  27.163  31.178  1.00  0.00    -0.248 NA
ATOM     55  C   UNL A   1      45.239  25.571  30.230  1.00  0.00     0.031 C 
ATOM     56  C   UNL A   1      44.811  29.568  34.779  1.00  0.00     0.029 A 
ATOM     57  C   UNL A   1      44.525  28.813  33.653  1.00  0.00     0.049 A 
ATOM     58  H   UNL A   1      42.833  28.892  32.396  1.00  0.00     0.167 HD
ATOM     59  C   UNL A   1      44.980  27.081  31.935  1.00  0.00     0.074 A 
ATOM     60  C   UNL A   1      45.810  26.068  31.319  1.00  0.00     0.031 C 
ATOM     61  C   UNL A   1      45.326  27.780  33.044  1.00  0.00     0.037 A 
BRANCH  48  62
ATOM     62  C   UNL A   1      41.230  32.081  34.746  1.00  0.00     0.058 A 
ATOM     63  C   UNL A   1      40.533  31.876  35.946  1.00  0.00     0.135 A 
ATOM     64  C   UNL A   1      41.671  33.384  34.461  1.00  0.00     0.135 A 
ATOM     65  F   UNL A   1      40.075  30.654  36.263  1.00  0.00    -0.206 F 
ATOM     66  C   UNL A   1      40.264  32.924  36.820  1.00  0.00     0.059 A 
ATOM     67  C   UNL A   1      41.441  34.442  35.335  1.00  0.00     0.059 A 
ATOM     68  F   UNL A   1      42.342  33.638  33.326  1.00  0.00    -0.206 F 
ATOM     69  C   UNL A   1      40.725  34.204  36.507  1.00  0.00     0.060 A 
BRANCH  69  70
ATOM     70  S   UNL A   1      40.387  35.548  37.663  1.00  0.00     0.124 S 
ATOM     71  O   UNL A   1      41.499  35.414  38.599  1.00  0.00    -0.237 OA
ATOM     72  O   UNL A   1      40.426  36.721  36.796  1.00  0.00    -0.237 OA
ATOM     73  O   UNL A   1      39.072  35.212  38.201  1.00  0.00    -0.744 OA
ENDBRANCH  69  70
ENDBRANCH  48  62
BRANCH  49  74
ATOM     74  C   UNL A   1      43.320  24.868  28.124  1.00  0.00     0.058 A 
ATOM     75  C   UNL A   1      43.956  25.203  26.920  1.00  0.00     0.135 A 
ATOM     76  C   UNL A   1      43.013  23.515  28.342  1.00  0.00     0.135 A 
ATOM     77  F   UNL A   1      44.265  26.483  26.660  1.00  0.00    -0.206 F 
ATOM     78  C   UNL A   1      44.255  24.243  25.958  1.00  0.00     0.059 A 
ATOM     79  C   UNL A   1      43.329  22.532  27.409  1.00  0.00     0.059 A 
ATOM     80  F   UNL A   1      42.420  23.135  29.485  1.00  0.00    -0.206 F 
ATOM     81  C   UNL A   1      43.937  22.909  26.213  1.00  0.00     0.060 A 
BRANCH  81  82
ATOM     82  S   UNL A   1      44.357  21.669  24.969  1.00  0.00     0.124 S 
ATOM     83  O   UNL A   1      43.361  20.638  25.233  1.00  0.00    -0.237 OA
ATOM     84  O   UNL A   1      44.192  22.416  23.726  1.00  0.00    -0.237 OA
ATOM     85  O   UNL A   1      45.735  21.316  25.301  1.00  0.00    -0.744 OA
ENDBRANCH  81  82
ENDBRANCH  49  74
BRANCH  61  86
ATOM     86  C   UNL A   1      46.629  27.440  33.712  1.00  0.00     0.058 A 
ATOM     87  C   UNL A   1      46.726  26.430  34.681  1.00  0.00     0.135 A 
ATOM     88  C   UNL A   1      47.816  28.068  33.297  1.00  0.00     0.135 A 
ATOM     89  F   UNL A   1      45.622  25.806  35.120  1.00  0.00    -0.206 F 
ATOM     90  C   UNL A   1      47.955  26.055  35.216  1.00  0.00     0.059 A 
ATOM     91  C   UNL A   1      49.057  27.688  33.796  1.00  0.00     0.059 A 
ATOM     92  F   UNL A   1      47.778  29.037  32.367  1.00  0.00    -0.206 F 
ATOM     93  C   UNL A   1      49.116  26.682  34.758  1.00  0.00     0.060 A 
BRANCH  93  94
ATOM     94  S   UNL A   1      50.708  26.127  35.400  1.00  0.00     0.124 S 
ATOM     95  O   UNL A   1      50.588  24.678  35.277  1.00  0.00    -0.237 OA
ATOM     96  O   UNL A   1      51.651  26.764  34.487  1.00  0.00    -0.237 OA
ATOM     97  O   UNL A   1      50.724  26.641  36.766  1.00  0.00    -0.744 OA
ENDBRANCH  93  94
ENDBRANCH  61  86
ENDBRANCH  35  36
ENDBRANCH  27  30
ENDBRANCH  25  26
ENDBRANCH  24  25
ENDBRANCH   1  24
TORSDOF 17
ENDMDL
