MODEL 1
REMARK VINA RESULT:     -11.2      0.000      0.000
REMARK SMILES C#CCN(CC(=O)NCCCNC(=O)c1ccc(-c2c3nc(c(-c4c(F)cc(S(=O)(=O)[O-])cc4F)c4ccc([nH]4)c(-c4c(F)cc(S(=O)(=O)[O-])cc4F)c4nc(c(-c5c(F)cc(S(=O)(=O)[O-])cc5F)c5ccc2[nH]5)C=C4)C=C3)cc1)C(=O)NCc1ccnc(C)n1
REMARK SMILES IDX 9 1 8 2 6 3 7 4 5 6 4 7 3 8 2 9 1 10 81 11 82 12 83 13 84 15
REMARK SMILES IDX 85 16 86 17 91 18 87 19 89 20 88 21 90 22 10 23 11 24 12 25
REMARK SMILES IDX 13 26 14 28 15 29 16 30 80 31 17 32 79 33 18 34 19 35 20 36
REMARK SMILES IDX 73 37 21 38 78 39 72 40 74 41 22 42 77 43 71 44 70 45 23 47
REMARK SMILES IDX 57 48 36 49 56 50 37 51 40 52 55 53 75 54 38 55 39 56 54 58
REMARK SMILES IDX 76 59 41 60 24 61 25 62 34 63 26 64 27 65 33 66 35 67 28 68
REMARK SMILES IDX 29 69 30 70 31 71 32 72 58 73 59 74 68 75 60 76 61 77 67 78
REMARK SMILES IDX 69 79 62 80 63 81 64 82 65 83 66 84 42 85 43 86 52 87 44 88
REMARK SMILES IDX 45 89 51 90 53 91 46 92 47 93 48 94 49 95 50 96
REMARK H PARENT 8 5 83 14 12 27 74 46 40 57
REMARK Flexibility Score: inf
ROOT
ATOM      1  C   UNL A   1      38.611  22.448  26.130  1.00  0.00     0.117 C 
ENDROOT
BRANCH   1   2
ATOM      2  N   UNL A   1      37.710  21.400  25.697  1.00  0.00    -0.354 N 
ATOM      3  C   UNL A   1      36.390  21.481  25.361  1.00  0.00     0.239 C 
ATOM      4  O   UNL A   1      35.926  20.597  24.633  1.00  0.00    -0.273 OA
ATOM      5  H   UNL A   1      38.107  20.502  25.634  1.00  0.00     0.163 HD
BRANCH   3   6
ATOM      6  C   UNL A   1      35.533  22.706  25.720  1.00  0.00     0.222 C 
BRANCH   6   7
ATOM      7  N   UNL A   1      34.119  22.436  25.948  1.00  0.00    -0.304 N 
BRANCH   7   8
ATOM      8  C   UNL A   1      33.175  23.368  25.341  1.00  0.00     0.211 C 
BRANCH   8   9
ATOM      9  C   UNL A   1      33.668  24.806  25.373  1.00  0.00    -0.085 C 
ATOM     10  C   UNL A   1      34.091  26.039  25.400  1.00  0.00     0.006 C 
ENDBRANCH   8   9
ENDBRANCH   7   8
BRANCH   7  11
ATOM     11  C   UNL A   1      33.578  21.419  26.679  1.00  0.00     0.318 C 
ATOM     12  O   UNL A   1      33.675  21.398  27.911  1.00  0.00    -0.249 OA
ATOM     13  N   UNL A   1      32.925  20.375  26.158  1.00  0.00    -0.332 N 
ATOM     14  H   UNL A   1      32.647  19.757  26.872  1.00  0.00     0.165 HD
BRANCH  13  15
ATOM     15  C   UNL A   1      32.502  19.874  24.863  1.00  0.00     0.174 C 
BRANCH  15  16
ATOM     16  C   UNL A   1      32.865  18.419  24.639  1.00  0.00     0.063 A 
ATOM     17  C   UNL A   1      33.743  18.091  23.621  1.00  0.00     0.046 A 
ATOM     18  N   UNL A   1      32.310  17.475  25.436  1.00  0.00    -0.236 NA
ATOM     19  C   UNL A   1      34.027  16.755  23.469  1.00  0.00     0.115 A 
ATOM     20  C   UNL A   1      32.650  16.194  25.202  1.00  0.00     0.125 A 
ATOM     21  N   UNL A   1      33.502  15.790  24.243  1.00  0.00    -0.242 NA
ATOM     22  C   UNL A   1      32.088  15.149  26.114  1.00  0.00     0.089 C 
ENDBRANCH  15  16
ENDBRANCH  13  15
ENDBRANCH   7  11
ENDBRANCH   6   7
ENDBRANCH   3   6
ENDBRANCH   1   2
BRANCH   1  23
ATOM     23  C   UNL A   1      39.979  21.952  26.588  1.00  0.00     0.042 C 
BRANCH  23  24
ATOM     24  C   UNL A   1      40.901  23.026  27.152  1.00  0.00     0.118 C 
BRANCH  24  25
ATOM     25  N   UNL A   1      41.513  23.846  26.118  1.00  0.00    -0.352 N 
ATOM     26  C   UNL A   1      41.693  25.202  26.031  1.00  0.00     0.251 C 
ATOM     27  H   UNL A   1      41.858  23.340  25.348  1.00  0.00     0.163 HD
ATOM     28  O   UNL A   1      42.075  25.673  24.958  1.00  0.00    -0.269 OA
BRANCH  26  29
ATOM     29  C   UNL A   1      41.440  26.101  27.179  1.00  0.00     0.039 A 
ATOM     30  C   UNL A   1      42.311  27.178  27.383  1.00  0.00     0.014 A 
ATOM     31  C   UNL A   1      40.416  25.860  28.098  1.00  0.00     0.014 A 
ATOM     32  C   UNL A   1      42.133  28.027  28.478  1.00  0.00     0.010 A 
ATOM     33  C   UNL A   1      40.192  26.750  29.150  1.00  0.00     0.010 A 
ATOM     34  C   UNL A   1      41.058  27.834  29.360  1.00  0.00    -0.014 A 
BRANCH  34  35
ATOM     35  C   UNL A   1      40.844  28.745  30.514  1.00  0.00     0.031 A 
ATOM     36  C   UNL A   1      41.689  28.615  31.754  1.00  0.00     0.074 A 
ATOM     37  C   UNL A   1      39.863  29.667  30.460  1.00  0.00     0.049 A 
ATOM     38  N   UNL A   1      41.634  29.300  32.867  1.00  0.00    -0.248 NA
ATOM     39  C   UNL A   1      42.716  27.561  31.751  1.00  0.00     0.031 C 
ATOM     40  C   UNL A   1      38.948  29.860  29.332  1.00  0.00     0.029 A 
ATOM     41  N   UNL A   1      39.470  30.614  31.371  1.00  0.00    -0.354 N 
ATOM     42  C   UNL A   1      42.605  28.755  33.699  1.00  0.00     0.074 A 
ATOM     43  C   UNL A   1      43.199  27.647  32.981  1.00  0.00     0.031 C 
ATOM     44  C   UNL A   1      38.119  30.880  29.610  1.00  0.00     0.029 A 
ATOM     45  C   UNL A   1      38.421  31.393  30.942  1.00  0.00     0.049 A 
ATOM     46  H   UNL A   1      39.898  30.725  32.251  1.00  0.00     0.167 HD
ATOM     47  C   UNL A   1      42.984  29.154  34.937  1.00  0.00     0.037 A 
ATOM     48  C   UNL A   1      37.775  32.406  31.553  1.00  0.00     0.037 A 
ATOM     49  C   UNL A   1      42.406  30.273  35.635  1.00  0.00     0.049 A 
ATOM     50  C   UNL A   1      38.222  32.839  32.922  1.00  0.00     0.074 A 
ATOM     51  C   UNL A   1      42.753  30.790  36.872  1.00  0.00     0.029 A 
ATOM     52  N   UNL A   1      41.360  31.050  35.158  1.00  0.00    -0.354 N 
ATOM     53  N   UNL A   1      39.181  32.348  33.670  1.00  0.00    -0.248 NA
ATOM     54  C   UNL A   1      37.506  33.971  33.527  1.00  0.00     0.031 C 
ATOM     55  C   UNL A   1      41.894  31.857  37.157  1.00  0.00     0.029 A 
ATOM     56  C   UNL A   1      41.041  32.033  36.079  1.00  0.00     0.049 A 
ATOM     57  H   UNL A   1      40.912  30.921  34.290  1.00  0.00     0.167 HD
ATOM     58  C   UNL A   1      39.204  33.130  34.820  1.00  0.00     0.074 A 
ATOM     59  C   UNL A   1      38.168  34.130  34.665  1.00  0.00     0.031 C 
ATOM     60  C   UNL A   1      40.012  33.029  35.904  1.00  0.00     0.037 A 
BRANCH  47  61
ATOM     61  C   UNL A   1      44.082  28.377  35.612  1.00  0.00     0.058 A 
ATOM     62  C   UNL A   1      45.436  28.696  35.420  1.00  0.00     0.135 A 
ATOM     63  C   UNL A   1      43.780  27.315  36.480  1.00  0.00     0.135 A 
ATOM     64  F   UNL A   1      45.784  29.693  34.590  1.00  0.00    -0.206 F 
ATOM     65  C   UNL A   1      46.452  27.969  36.032  1.00  0.00     0.059 A 
ATOM     66  C   UNL A   1      44.778  26.591  37.127  1.00  0.00     0.059 A 
ATOM     67  F   UNL A   1      42.503  26.968  36.705  1.00  0.00    -0.206 F 
ATOM     68  C   UNL A   1      46.112  26.914  36.882  1.00  0.00     0.060 A 
BRANCH  68  69
ATOM     69  S   UNL A   1      47.440  25.974  37.663  1.00  0.00     0.124 S 
ATOM     70  O   UNL A   1      47.330  26.413  39.051  1.00  0.00    -0.237 OA
ATOM     71  O   UNL A   1      47.042  24.593  37.404  1.00  0.00    -0.237 OA
ATOM     72  O   UNL A   1      48.635  26.420  36.956  1.00  0.00    -0.744 OA
ENDBRANCH  68  69
ENDBRANCH  47  61
BRANCH  48  73
ATOM     73  C   UNL A   1      36.666  33.104  30.852  1.00  0.00     0.058 A 
ATOM     74  C   UNL A   1      35.328  32.842  31.185  1.00  0.00     0.135 A 
ATOM     75  C   UNL A   1      36.917  34.063  29.858  1.00  0.00     0.135 A 
ATOM     76  F   UNL A   1      35.038  31.930  32.126  1.00  0.00    -0.206 F 
ATOM     77  C   UNL A   1      34.277  33.495  30.549  1.00  0.00     0.059 A 
ATOM     78  C   UNL A   1      35.883  34.746  29.225  1.00  0.00     0.059 A 
ATOM     79  F   UNL A   1      38.179  34.361  29.516  1.00  0.00    -0.206 F 
ATOM     80  C   UNL A   1      34.565  34.449  29.572  1.00  0.00     0.060 A 
BRANCH  80  81
ATOM     81  S   UNL A   1      33.196  35.331  28.792  1.00  0.00     0.124 S 
ATOM     82  O   UNL A   1      32.507  34.249  28.098  1.00  0.00    -0.237 OA
ATOM     83  O   UNL A   1      32.499  35.897  29.945  1.00  0.00    -0.237 OA
ATOM     84  O   UNL A   1      33.867  36.305  27.938  1.00  0.00    -0.744 OA
ENDBRANCH  80  81
ENDBRANCH  48  73
BRANCH  60  85
ATOM     85  C   UNL A   1      39.838  34.050  36.993  1.00  0.00     0.058 A 
ATOM     86  C   UNL A   1      40.348  35.352  36.876  1.00  0.00     0.135 A 
ATOM     87  C   UNL A   1      39.106  33.734  38.151  1.00  0.00     0.135 A 
ATOM     88  F   UNL A   1      41.060  35.702  35.793  1.00  0.00    -0.206 F 
ATOM     89  C   UNL A   1      40.157  36.300  37.876  1.00  0.00     0.059 A 
ATOM     90  C   UNL A   1      38.882  34.672  39.151  1.00  0.00     0.059 A 
ATOM     91  F   UNL A   1      38.588  32.504  38.308  1.00  0.00    -0.206 F 
ATOM     92  C   UNL A   1      39.421  35.950  39.011  1.00  0.00     0.060 A 
BRANCH  92  93
ATOM     93  S   UNL A   1      39.152  37.198  40.287  1.00  0.00     0.124 S 
ATOM     94  O   UNL A   1      38.247  36.500  41.194  1.00  0.00    -0.237 OA
ATOM     95  O   UNL A   1      40.501  37.431  40.790  1.00  0.00    -0.237 OA
ATOM     96  O   UNL A   1      38.564  38.314  39.551  1.00  0.00    -0.744 OA
ENDBRANCH  92  93
ENDBRANCH  60  85
ENDBRANCH  34  35
ENDBRANCH  26  29
ENDBRANCH  24  25
ENDBRANCH  23  24
ENDBRANCH   1  23
TORSDOF 19
ENDMDL
MODEL 2
REMARK VINA RESULT:     -11.0      6.754     12.178
REMARK SMILES C#CCN(CC(=O)NCCCNC(=O)c1ccc(-c2c3nc(c(-c4c(F)cc(S(=O)(=O)[O-])cc4F)c4ccc([nH]4)c(-c4c(F)cc(S(=O)(=O)[O-])cc4F)c4nc(c(-c5c(F)cc(S(=O)(=O)[O-])cc5F)c5ccc2[nH]5)C=C4)C=C3)cc1)C(=O)NCc1ccnc(C)n1
REMARK SMILES IDX 9 1 8 2 6 3 7 4 5 6 4 7 3 8 2 9 1 10 81 11 82 12 83 13 84 15
REMARK SMILES IDX 85 16 86 17 91 18 87 19 89 20 88 21 90 22 10 23 11 24 12 25
REMARK SMILES IDX 13 26 14 28 15 29 16 30 80 31 17 32 79 33 18 34 19 35 20 36
REMARK SMILES IDX 73 37 21 38 78 39 72 40 74 41 22 42 77 43 71 44 70 45 23 47
REMARK SMILES IDX 57 48 36 49 56 50 37 51 40 52 55 53 75 54 38 55 39 56 54 58
REMARK SMILES IDX 76 59 41 60 24 61 25 62 34 63 26 64 27 65 33 66 35 67 28 68
REMARK SMILES IDX 29 69 30 70 31 71 32 72 58 73 59 74 68 75 60 76 61 77 67 78
REMARK SMILES IDX 69 79 62 80 63 81 64 82 65 83 66 84 42 85 43 86 52 87 44 88
REMARK SMILES IDX 45 89 51 90 53 91 46 92 47 93 48 94 49 95 50 96
REMARK H PARENT 8 5 83 14 12 27 74 46 40 57
REMARK Flexibility Score: inf
ROOT
ATOM      1  C   UNL A   1      33.451  29.811  26.743  1.00  0.00     0.117 C 
ENDROOT
BRANCH   1   2
ATOM      2  N   UNL A   1      33.655  29.787  25.309  1.00  0.00    -0.354 N 
ATOM      3  C   UNL A   1      33.261  28.851  24.397  1.00  0.00     0.239 C 
ATOM      4  O   UNL A   1      33.155  29.206  23.217  1.00  0.00    -0.273 OA
ATOM      5  H   UNL A   1      34.147  30.555  24.939  1.00  0.00     0.163 HD
BRANCH   3   6
ATOM      6  C   UNL A   1      32.795  27.448  24.819  1.00  0.00     0.222 C 
BRANCH   6   7
ATOM      7  N   UNL A   1      32.699  26.470  23.743  1.00  0.00    -0.304 N 
BRANCH   7   8
ATOM      8  C   UNL A   1      31.356  26.170  23.258  1.00  0.00     0.211 C 
BRANCH   8   9
ATOM      9  C   UNL A   1      31.015  24.692  23.353  1.00  0.00    -0.085 C 
ATOM     10  C   UNL A   1      30.722  23.424  23.434  1.00  0.00     0.006 C 
ENDBRANCH   8   9
ENDBRANCH   7   8
BRANCH   7  11
ATOM     11  C   UNL A   1      33.722  25.790  23.150  1.00  0.00     0.318 C 
ATOM     12  O   UNL A   1      33.957  25.918  21.943  1.00  0.00    -0.249 OA
ATOM     13  N   UNL A   1      34.533  24.936  23.782  1.00  0.00    -0.332 N 
ATOM     14  H   UNL A   1      35.178  24.546  23.150  1.00  0.00     0.165 HD
BRANCH  13  15
ATOM     15  C   UNL A   1      34.754  24.410  25.118  1.00  0.00     0.174 C 
BRANCH  15  16
ATOM     16  C   UNL A   1      35.825  23.337  25.165  1.00  0.00     0.063 A 
ATOM     17  C   UNL A   1      35.580  22.111  24.573  1.00  0.00     0.046 A 
ATOM     18  N   UNL A   1      36.992  23.604  25.799  1.00  0.00    -0.236 NA
ATOM     19  C   UNL A   1      36.590  21.183  24.656  1.00  0.00     0.115 A 
ATOM     20  C   UNL A   1      37.915  22.625  25.828  1.00  0.00     0.125 A 
ATOM     21  N   UNL A   1      37.762  21.411  25.270  1.00  0.00    -0.242 NA
ATOM     22  C   UNL A   1      39.230  22.930  26.475  1.00  0.00     0.089 C 
ENDBRANCH  15  16
ENDBRANCH  13  15
ENDBRANCH   7  11
ENDBRANCH   6   7
ENDBRANCH   3   6
ENDBRANCH   1   2
BRANCH   1  23
ATOM     23  C   UNL A   1      34.714  29.565  27.561  1.00  0.00     0.042 C 
BRANCH  23  24
ATOM     24  C   UNL A   1      35.364  30.818  28.138  1.00  0.00     0.118 C 
BRANCH  24  25
ATOM     25  N   UNL A   1      35.428  30.804  29.592  1.00  0.00    -0.352 N 
ATOM     26  C   UNL A   1      36.397  30.350  30.447  1.00  0.00     0.251 C 
ATOM     27  H   UNL A   1      34.639  31.188  30.037  1.00  0.00     0.163 HD
ATOM     28  O   UNL A   1      36.130  30.281  31.649  1.00  0.00    -0.269 OA
BRANCH  26  29
ATOM     29  C   UNL A   1      37.737  29.945  29.969  1.00  0.00     0.039 A 
ATOM     30  C   UNL A   1      38.685  29.538  30.915  1.00  0.00     0.014 A 
ATOM     31  C   UNL A   1      38.103  30.032  28.623  1.00  0.00     0.014 A 
ATOM     32  C   UNL A   1      39.975  29.185  30.510  1.00  0.00     0.010 A 
ATOM     33  C   UNL A   1      39.366  29.610  28.209  1.00  0.00     0.010 A 
ATOM     34  C   UNL A   1      40.321  29.198  29.149  1.00  0.00    -0.014 A 
BRANCH  34  35
ATOM     35  C   UNL A   1      41.683  28.801  28.705  1.00  0.00     0.031 A 
ATOM     36  C   UNL A   1      42.790  29.821  28.642  1.00  0.00     0.074 A 
ATOM     37  C   UNL A   1      41.913  27.530  28.322  1.00  0.00     0.049 A 
ATOM     38  N   UNL A   1      44.031  29.670  28.259  1.00  0.00    -0.248 NA
ATOM     39  C   UNL A   1      42.452  31.196  29.042  1.00  0.00     0.031 C 
ATOM     40  C   UNL A   1      40.911  26.462  28.294  1.00  0.00     0.029 A 
ATOM     41  N   UNL A   1      43.061  26.919  27.883  1.00  0.00    -0.354 N 
ATOM     42  C   UNL A   1      44.617  30.926  28.358  1.00  0.00     0.074 A 
ATOM     43  C   UNL A   1      43.580  31.840  28.787  1.00  0.00     0.031 C 
ATOM     44  C   UNL A   1      41.495  25.323  27.887  1.00  0.00     0.029 A 
ATOM     45  C   UNL A   1      42.900  25.584  27.595  1.00  0.00     0.049 A 
ATOM     46  H   UNL A   1      43.918  27.393  27.782  1.00  0.00     0.167 HD
ATOM     47  C   UNL A   1      45.905  31.283  28.133  1.00  0.00     0.037 A 
ATOM     48  C   UNL A   1      43.786  24.673  27.148  1.00  0.00     0.037 A 
ATOM     49  C   UNL A   1      46.937  30.364  27.729  1.00  0.00     0.049 A 
ATOM     50  C   UNL A   1      45.213  25.089  26.918  1.00  0.00     0.074 A 
ATOM     51  C   UNL A   1      48.283  30.616  27.525  1.00  0.00     0.029 A 
ATOM     52  N   UNL A   1      46.739  29.016  27.469  1.00  0.00    -0.354 N 
ATOM     53  N   UNL A   1      45.762  26.271  27.072  1.00  0.00    -0.248 NA
ATOM     54  C   UNL A   1      46.144  24.047  26.463  1.00  0.00     0.031 C 
ATOM     55  C   UNL A   1      48.892  29.427  27.106  1.00  0.00     0.029 A 
ATOM     56  C   UNL A   1      47.934  28.425  27.094  1.00  0.00     0.049 A 
ATOM     57  H   UNL A   1      45.876  28.548  27.542  1.00  0.00     0.167 HD
ATOM     58  C   UNL A   1      47.107  26.108  26.763  1.00  0.00     0.074 A 
ATOM     59  C   UNL A   1      47.291  24.713  26.420  1.00  0.00     0.031 C 
ATOM     60  C   UNL A   1      48.102  27.030  26.766  1.00  0.00     0.037 A 
BRANCH  47  61
ATOM     61  C   UNL A   1      46.269  32.731  28.328  1.00  0.00     0.058 A 
ATOM     62  C   UNL A   1      46.201  33.656  27.273  1.00  0.00     0.135 A 
ATOM     63  C   UNL A   1      46.667  33.207  29.587  1.00  0.00     0.135 A 
ATOM     64  F   UNL A   1      45.839  33.254  26.044  1.00  0.00    -0.206 F 
ATOM     65  C   UNL A   1      46.550  34.991  27.449  1.00  0.00     0.059 A 
ATOM     66  C   UNL A   1      46.994  34.545  29.794  1.00  0.00     0.059 A 
ATOM     67  F   UNL A   1      46.746  32.369  30.633  1.00  0.00    -0.206 F 
ATOM     68  C   UNL A   1      46.950  35.425  28.714  1.00  0.00     0.060 A 
BRANCH  68  69
ATOM     69  S   UNL A   1      47.409  37.158  28.926  1.00  0.00     0.124 S 
ATOM     70  O   UNL A   1      46.967  37.410  30.295  1.00  0.00    -0.237 OA
ATOM     71  O   UNL A   1      48.855  37.127  28.725  1.00  0.00    -0.237 OA
ATOM     72  O   UNL A   1      46.650  37.841  27.886  1.00  0.00    -0.744 OA
ENDBRANCH  68  69
ENDBRANCH  47  61
BRANCH  48  73
ATOM     73  C   UNL A   1      43.354  23.268  26.929  1.00  0.00     0.058 A 
ATOM     74  C   UNL A   1      43.084  22.792  25.636  1.00  0.00     0.135 A 
ATOM     75  C   UNL A   1      43.227  22.366  27.997  1.00  0.00     0.135 A 
ATOM     76  F   UNL A   1      43.186  23.617  24.584  1.00  0.00    -0.206 F 
ATOM     77  C   UNL A   1      42.691  21.477  25.412  1.00  0.00     0.059 A 
ATOM     78  C   UNL A   1      42.859  21.040  27.795  1.00  0.00     0.059 A 
ATOM     79  F   UNL A   1      43.491  22.768  29.250  1.00  0.00    -0.206 F 
ATOM     80  C   UNL A   1      42.584  20.606  26.498  1.00  0.00     0.060 A 
BRANCH  80  81
ATOM     81  S   UNL A   1      42.127  18.887  26.189  1.00  0.00     0.124 S 
ATOM     82  O   UNL A   1      40.736  19.023  25.773  1.00  0.00    -0.237 OA
ATOM     83  O   UNL A   1      43.072  18.502  25.143  1.00  0.00    -0.237 OA
ATOM     84  O   UNL A   1      42.341  18.245  27.481  1.00  0.00    -0.744 OA
ENDBRANCH  80  81
ENDBRANCH  48  73
BRANCH  60  85
ATOM     85  C   UNL A   1      49.487  26.555  26.426  1.00  0.00     0.058 A 
ATOM     86  C   UNL A   1      50.022  26.698  25.137  1.00  0.00     0.135 A 
ATOM     87  C   UNL A   1      50.307  25.994  27.419  1.00  0.00     0.135 A 
ATOM     88  F   UNL A   1      49.277  27.222  24.151  1.00  0.00    -0.206 F 
ATOM     89  C   UNL A   1      51.316  26.282  24.838  1.00  0.00     0.059 A 
ATOM     90  C   UNL A   1      51.611  25.595  27.150  1.00  0.00     0.059 A 
ATOM     91  F   UNL A   1      49.846  25.844  28.672  1.00  0.00    -0.206 F 
ATOM     92  C   UNL A   1      52.103  25.732  25.852  1.00  0.00     0.060 A 
BRANCH  92  93
ATOM     93  S   UNL A   1      53.791  25.227  25.461  1.00  0.00     0.124 S 
ATOM     94  O   UNL A   1      53.569  23.943  24.804  1.00  0.00    -0.237 OA
ATOM     95  O   UNL A   1      54.252  26.310  24.598  1.00  0.00    -0.237 OA
ATOM     96  O   UNL A   1      54.437  25.159  26.768  1.00  0.00    -0.744 OA
ENDBRANCH  92  93
ENDBRANCH  60  85
ENDBRANCH  34  35
ENDBRANCH  26  29
ENDBRANCH  24  25
ENDBRANCH  23  24
ENDBRANCH   1  23
TORSDOF 19
ENDMDL
MODEL 3
REMARK VINA RESULT:     -10.8      0.573      8.243
REMARK SMILES C#CCN(CC(=O)NCCCNC(=O)c1ccc(-c2c3nc(c(-c4c(F)cc(S(=O)(=O)[O-])cc4F)c4ccc([nH]4)c(-c4c(F)cc(S(=O)(=O)[O-])cc4F)c4nc(c(-c5c(F)cc(S(=O)(=O)[O-])cc5F)c5ccc2[nH]5)C=C4)C=C3)cc1)C(=O)NCc1ccnc(C)n1
REMARK SMILES IDX 9 1 8 2 6 3 7 4 5 6 4 7 3 8 2 9 1 10 81 11 82 12 83 13 84 15
REMARK SMILES IDX 85 16 86 17 91 18 87 19 89 20 88 21 90 22 10 23 11 24 12 25
REMARK SMILES IDX 13 26 14 28 15 29 16 30 80 31 17 32 79 33 18 34 19 35 20 36
REMARK SMILES IDX 73 37 21 38 78 39 72 40 74 41 22 42 77 43 71 44 70 45 23 47
REMARK SMILES IDX 57 48 36 49 56 50 37 51 40 52 55 53 75 54 38 55 39 56 54 58
REMARK SMILES IDX 76 59 41 60 24 61 25 62 34 63 26 64 27 65 33 66 35 67 28 68
REMARK SMILES IDX 29 69 30 70 31 71 32 72 58 73 59 74 68 75 60 76 61 77 67 78
REMARK SMILES IDX 69 79 62 80 63 81 64 82 65 83 66 84 42 85 43 86 52 87 44 88
REMARK SMILES IDX 45 89 51 90 53 91 46 92 47 93 48 94 49 95 50 96
REMARK H PARENT 8 5 83 14 12 27 74 46 40 57
REMARK Flexibility Score: inf
ROOT
ATOM      1  C   UNL A   1      38.943  22.509  26.198  1.00  0.00     0.117 C 
ENDROOT
BRANCH   1   2
ATOM      2  N   UNL A   1      38.056  21.476  25.704  1.00  0.00    -0.354 N 
ATOM      3  C   UNL A   1      36.713  21.532  25.467  1.00  0.00     0.239 C 
ATOM      4  O   UNL A   1      36.234  20.716  24.671  1.00  0.00    -0.273 OA
ATOM      5  H   UNL A   1      38.483  20.611  25.509  1.00  0.00     0.163 HD
BRANCH   3   6
ATOM      6  C   UNL A   1      35.835  22.665  26.023  1.00  0.00     0.222 C 
BRANCH   6   7
ATOM      7  N   UNL A   1      34.401  22.407  26.015  1.00  0.00    -0.304 N 
BRANCH   7   8
ATOM      8  C   UNL A   1      33.601  23.225  25.109  1.00  0.00     0.211 C 
BRANCH   8   9
ATOM      9  C   UNL A   1      33.679  24.708  25.433  1.00  0.00    -0.085 C 
ATOM     10  C   UNL A   1      33.745  25.980  25.712  1.00  0.00     0.006 C 
ENDBRANCH   8   9
ENDBRANCH   7   8
BRANCH   7  11
ATOM     11  C   UNL A   1      33.718  21.500  26.770  1.00  0.00     0.318 C 
ATOM     12  O   UNL A   1      33.660  21.609  28.000  1.00  0.00    -0.249 OA
ATOM     13  N   UNL A   1      33.079  20.433  26.281  1.00  0.00    -0.332 N 
ATOM     14  H   UNL A   1      32.681  19.908  27.012  1.00  0.00     0.165 HD
BRANCH  13  15
ATOM     15  C   UNL A   1      32.792  19.812  25.000  1.00  0.00     0.174 C 
BRANCH  15  16
ATOM     16  C   UNL A   1      33.250  18.368  24.922  1.00  0.00     0.063 A 
ATOM     17  C   UNL A   1      34.419  18.065  24.248  1.00  0.00     0.046 A 
ATOM     18  N   UNL A   1      32.493  17.409  25.507  1.00  0.00    -0.236 NA
ATOM     19  C   UNL A   1      34.775  16.738  24.212  1.00  0.00     0.115 A 
ATOM     20  C   UNL A   1      32.926  16.138  25.410  1.00  0.00     0.125 A 
ATOM     21  N   UNL A   1      34.054  15.759  24.784  1.00  0.00    -0.242 NA
ATOM     22  C   UNL A   1      32.128  15.078  26.102  1.00  0.00     0.089 C 
ENDBRANCH  15  16
ENDBRANCH  13  15
ENDBRANCH   7  11
ENDBRANCH   6   7
ENDBRANCH   3   6
ENDBRANCH   1   2
BRANCH   1  23
ATOM     23  C   UNL A   1      40.191  21.983  26.900  1.00  0.00     0.042 C 
BRANCH  23  24
ATOM     24  C   UNL A   1      41.206  23.048  27.298  1.00  0.00     0.118 C 
BRANCH  24  25
ATOM     25  N   UNL A   1      41.561  23.930  26.197  1.00  0.00    -0.352 N 
ATOM     26  C   UNL A   1      41.552  25.297  26.098  1.00  0.00     0.251 C 
ATOM     27  H   UNL A   1      41.860  23.465  25.383  1.00  0.00     0.163 HD
ATOM     28  O   UNL A   1      41.720  25.803  24.986  1.00  0.00    -0.269 OA
BRANCH  26  29
ATOM     29  C   UNL A   1      41.343  26.166  27.277  1.00  0.00     0.039 A 
ATOM     30  C   UNL A   1      42.258  27.201  27.508  1.00  0.00     0.014 A 
ATOM     31  C   UNL A   1      40.318  25.936  28.197  1.00  0.00     0.014 A 
ATOM     32  C   UNL A   1      42.121  28.019  28.633  1.00  0.00     0.010 A 
ATOM     33  C   UNL A   1      40.137  26.798  29.279  1.00  0.00     0.010 A 
ATOM     34  C   UNL A   1      41.046  27.839  29.517  1.00  0.00    -0.014 A 
BRANCH  34  35
ATOM     35  C   UNL A   1      40.878  28.720  30.702  1.00  0.00     0.031 A 
ATOM     36  C   UNL A   1      39.813  29.785  30.714  1.00  0.00     0.074 A 
ATOM     37  C   UNL A   1      41.709  28.584  31.754  1.00  0.00     0.049 A 
ATOM     38  N   UNL A   1      39.532  30.661  31.643  1.00  0.00    -0.248 NA
ATOM     39  C   UNL A   1      38.969  29.895  29.514  1.00  0.00     0.031 C 
ATOM     40  C   UNL A   1      42.808  27.621  31.842  1.00  0.00     0.029 A 
ATOM     41  N   UNL A   1      41.761  29.257  32.949  1.00  0.00    -0.354 N 
ATOM     42  C   UNL A   1      38.491  31.432  31.139  1.00  0.00     0.074 A 
ATOM     43  C   UNL A   1      38.226  30.954  29.799  1.00  0.00     0.031 C 
ATOM     44  C   UNL A   1      43.408  27.746  33.038  1.00  0.00     0.029 A 
ATOM     45  C   UNL A   1      42.758  28.817  33.787  1.00  0.00     0.049 A 
ATOM     46  H   UNL A   1      41.143  29.986  33.184  1.00  0.00     0.167 HD
ATOM     47  C   UNL A   1      37.803  32.431  31.743  1.00  0.00     0.037 A 
ATOM     48  C   UNL A   1      43.109  29.229  35.022  1.00  0.00     0.037 A 
ATOM     49  C   UNL A   1      38.056  32.886  33.086  1.00  0.00     0.049 A 
ATOM     50  C   UNL A   1      42.324  30.331  35.677  1.00  0.00     0.074 A 
ATOM     51  C   UNL A   1      37.383  33.857  33.808  1.00  0.00     0.029 A 
ATOM     52  N   UNL A   1      39.060  32.400  33.910  1.00  0.00    -0.354 N 
ATOM     53  N   UNL A   1      41.304  31.010  35.205  1.00  0.00    -0.248 NA
ATOM     54  C   UNL A   1      42.728  30.717  37.036  1.00  0.00     0.031 C 
ATOM     55  C   UNL A   1      38.003  33.983  35.056  1.00  0.00     0.029 A 
ATOM     56  C   UNL A   1      39.034  33.059  35.128  1.00  0.00     0.049 A 
ATOM     57  H   UNL A   1      39.698  31.691  33.665  1.00  0.00     0.167 HD
ATOM     58  C   UNL A   1      40.927  31.881  36.221  1.00  0.00     0.074 A 
ATOM     59  C   UNL A   1      41.822  31.639  37.333  1.00  0.00     0.031 C 
ATOM     60  C   UNL A   1      39.927  32.798  36.231  1.00  0.00     0.037 A 
BRANCH  47  61
ATOM     61  C   UNL A   1      36.706  33.095  30.955  1.00  0.00     0.058 A 
ATOM     62  C   UNL A   1      36.987  33.966  29.889  1.00  0.00     0.135 A 
ATOM     63  C   UNL A   1      35.357  32.841  31.250  1.00  0.00     0.135 A 
ATOM     64  F   UNL A   1      38.259  34.255  29.571  1.00  0.00    -0.206 F 
ATOM     65  C   UNL A   1      35.973  34.590  29.170  1.00  0.00     0.059 A 
ATOM     66  C   UNL A   1      34.325  33.433  30.526  1.00  0.00     0.059 A 
ATOM     67  F   UNL A   1      35.028  32.015  32.256  1.00  0.00    -0.206 F 
ATOM     68  C   UNL A   1      34.644  34.320  29.499  1.00  0.00     0.060 A 
BRANCH  68  69
ATOM     69  S   UNL A   1      33.339  35.144  28.563  1.00  0.00     0.124 S 
ATOM     70  O   UNL A   1      32.851  34.054  27.722  1.00  0.00    -0.237 OA
ATOM     71  O   UNL A   1      32.428  35.586  29.615  1.00  0.00    -0.237 OA
ATOM     72  O   UNL A   1      34.044  36.210  27.861  1.00  0.00    -0.744 OA
ENDBRANCH  68  69
ENDBRANCH  47  61
BRANCH  48  73
ATOM     73  C   UNL A   1      44.234  28.564  35.730  1.00  0.00     0.058 A 
ATOM     74  C   UNL A   1      44.000  27.484  36.595  1.00  0.00     0.135 A 
ATOM     75  C   UNL A   1      45.563  28.973  35.538  1.00  0.00     0.135 A 
ATOM     76  F   UNL A   1      42.747  27.060  36.815  1.00  0.00    -0.206 F 
ATOM     77  C   UNL A   1      45.042  26.842  37.256  1.00  0.00     0.059 A 
ATOM     78  C   UNL A   1      46.623  28.331  36.170  1.00  0.00     0.059 A 
ATOM     79  F   UNL A   1      45.840  29.990  34.708  1.00  0.00    -0.206 F 
ATOM     80  C   UNL A   1      46.352  27.271  37.035  1.00  0.00     0.060 A 
BRANCH  80  81
ATOM     81  S   UNL A   1      47.701  26.394  37.854  1.00  0.00     0.124 S 
ATOM     82  O   UNL A   1      48.406  25.812  36.718  1.00  0.00    -0.237 OA
ATOM     83  O   UNL A   1      48.394  27.476  38.549  1.00  0.00    -0.237 OA
ATOM     84  O   UNL A   1      47.009  25.447  38.721  1.00  0.00    -0.744 OA
ENDBRANCH  80  81
ENDBRANCH  48  73
BRANCH  60  85
ATOM     85  C   UNL A   1      39.719  33.580  37.497  1.00  0.00     0.058 A 
ATOM     86  C   UNL A   1      40.457  34.740  37.780  1.00  0.00     0.135 A 
ATOM     87  C   UNL A   1      38.730  33.191  38.416  1.00  0.00     0.135 A 
ATOM     88  F   UNL A   1      41.418  35.150  36.937  1.00  0.00    -0.206 F 
ATOM     89  C   UNL A   1      40.239  35.475  38.940  1.00  0.00     0.059 A 
ATOM     90  C   UNL A   1      38.477  33.924  39.570  1.00  0.00     0.059 A 
ATOM     91  F   UNL A   1      37.988  32.095  38.188  1.00  0.00    -0.206 F 
ATOM     92  C   UNL A   1      39.245  35.059  39.830  1.00  0.00     0.060 A 
BRANCH  92  93
ATOM     93  S   UNL A   1      38.947  36.040  41.316  1.00  0.00     0.124 S 
ATOM     94  O   UNL A   1      38.552  37.324  40.746  1.00  0.00    -0.237 OA
ATOM     95  O   UNL A   1      37.888  35.289  41.982  1.00  0.00    -0.237 OA
ATOM     96  O   UNL A   1      40.239  36.026  41.995  1.00  0.00    -0.744 OA
ENDBRANCH  92  93
ENDBRANCH  60  85
ENDBRANCH  34  35
ENDBRANCH  26  29
ENDBRANCH  24  25
ENDBRANCH  23  24
ENDBRANCH   1  23
TORSDOF 19
ENDMDL
