MODEL 1
REMARK VINA RESULT:     -11.0      0.000      0.000
REMARK SMILES CC(C)(C(=O)NCCCNC(=O)c1ccc(-c2c3nc(c(-c4c(F)cc(S(=O)(=O)[O-])cc4F)c4ccc([nH]4)c(-c4c(F)cc(S(=O)(=O)[O-])cc4F)c4nc(c(-c5c(F)cc(S(=O)(=O)[O-])cc5F)c5ccc2[nH]5)C=C4)C=C3)cc1)n1cccc1
REMARK SMILES IDX 9 1 8 2 7 3 6 4 4 5 5 6 2 8 1 9 3 10 79 11 80 12 83 13 81 14
REMARK SMILES IDX 82 15 10 16 11 17 12 19 13 20 14 21 78 22 15 23 77 24 16 25
REMARK SMILES IDX 17 26 18 27 71 28 19 29 76 30 70 31 72 32 20 33 75 34 69 35
REMARK SMILES IDX 68 36 21 38 55 39 34 40 54 41 35 42 38 43 53 44 73 45 36 46
REMARK SMILES IDX 37 47 52 49 74 50 39 51 22 52 23 53 32 54 24 55 25 56 31 57
REMARK SMILES IDX 33 58 26 59 27 60 28 61 29 62 30 63 56 64 57 65 66 66 58 67
REMARK SMILES IDX 59 68 65 69 67 70 60 71 61 72 62 73 63 74 64 75 40 76 41 77
REMARK SMILES IDX 50 78 42 79 43 80 49 81 51 82 44 83 45 84 46 85 47 86 48 87
REMARK H PARENT 6 7 10 18 72 37 38 48
REMARK Flexibility Score: inf
ROOT
ATOM      1  C   UNL A   1      40.703  22.962  27.458  1.00  0.00     0.118 C 
ENDROOT
BRANCH   1   2
ATOM      2  C   UNL A   1      41.917  22.742  28.352  1.00  0.00     0.042 C 
BRANCH   2   3
ATOM      3  C   UNL A   1      43.035  21.951  27.691  1.00  0.00     0.117 C 
BRANCH   3   4
ATOM      4  N   UNL A   1      44.294  22.677  27.677  1.00  0.00    -0.354 N 
ATOM      5  C   UNL A   1      45.213  22.942  26.702  1.00  0.00     0.245 C 
ATOM      6  O   UNL A   1      46.128  23.692  27.060  1.00  0.00    -0.272 OA
ATOM      7  H   UNL A   1      44.536  23.058  28.553  1.00  0.00     0.163 HD
BRANCH   5   8
ATOM      8  C   UNL A   1      45.093  22.385  25.254  1.00  0.00     0.117 C 
ATOM      9  C   UNL A   1      43.773  22.828  24.592  1.00  0.00     0.045 C 
ATOM     10  C   UNL A   1      46.315  22.891  24.455  1.00  0.00     0.045 C 
BRANCH   8  11
ATOM     11  N   UNL A   1      45.072  20.886  25.256  1.00  0.00    -0.340 N 
ATOM     12  C   UNL A   1      46.164  20.049  25.337  1.00  0.00     0.086 A 
ATOM     13  C   UNL A   1      43.955  20.103  25.043  1.00  0.00     0.086 A 
ATOM     14  C   UNL A   1      45.729  18.745  25.248  1.00  0.00     0.019 A 
ATOM     15  C   UNL A   1      44.332  18.780  25.064  1.00  0.00     0.019 A 
ENDBRANCH   8  11
ENDBRANCH   5   8
ENDBRANCH   3   4
ENDBRANCH   2   3
ENDBRANCH   1   2
BRANCH   1  16
ATOM     16  N   UNL A   1      41.005  23.787  26.295  1.00  0.00    -0.352 N 
ATOM     17  C   UNL A   1      41.055  25.154  26.168  1.00  0.00     0.251 C 
ATOM     18  H   UNL A   1      41.204  23.287  25.471  1.00  0.00     0.163 HD
ATOM     19  O   UNL A   1      41.125  25.653  25.046  1.00  0.00    -0.269 OA
BRANCH  17  20
ATOM     20  C   UNL A   1      41.004  26.020  27.365  1.00  0.00     0.039 A 
ATOM     21  C   UNL A   1      42.057  26.906  27.608  1.00  0.00     0.014 A 
ATOM     22  C   UNL A   1      39.927  25.955  28.251  1.00  0.00     0.014 A 
ATOM     23  C   UNL A   1      41.988  27.778  28.696  1.00  0.00     0.010 A 
ATOM     24  C   UNL A   1      39.815  26.888  29.276  1.00  0.00     0.010 A 
ATOM     25  C   UNL A   1      40.846  27.808  29.514  1.00  0.00    -0.014 A 
BRANCH  25  26
ATOM     26  C   UNL A   1      40.710  28.789  30.621  1.00  0.00     0.031 A 
ATOM     27  C   UNL A   1      41.566  28.663  31.854  1.00  0.00     0.074 A 
ATOM     28  C   UNL A   1      39.765  29.748  30.548  1.00  0.00     0.049 A 
ATOM     29  N   UNL A   1      41.538  29.369  32.954  1.00  0.00    -0.248 NA
ATOM     30  C   UNL A   1      42.566  27.583  31.862  1.00  0.00     0.031 C 
ATOM     31  C   UNL A   1      38.840  29.941  29.428  1.00  0.00     0.029 A 
ATOM     32  N   UNL A   1      39.416  30.735  31.436  1.00  0.00    -0.354 N 
ATOM     33  C   UNL A   1      42.501  28.813  33.787  1.00  0.00     0.074 A 
ATOM     34  C   UNL A   1      43.055  27.674  33.090  1.00  0.00     0.031 C 
ATOM     35  C   UNL A   1      38.048  30.994  29.686  1.00  0.00     0.029 A 
ATOM     36  C   UNL A   1      38.375  31.524  31.006  1.00  0.00     0.049 A 
ATOM     37  H   UNL A   1      39.869  30.865  32.301  1.00  0.00     0.167 HD
ATOM     38  C   UNL A   1      42.905  29.229  35.012  1.00  0.00     0.037 A 
ATOM     39  C   UNL A   1      37.745  32.551  31.611  1.00  0.00     0.037 A 
ATOM     40  C   UNL A   1      42.362  30.377  35.689  1.00  0.00     0.049 A 
ATOM     41  C   UNL A   1      38.203  32.986  32.976  1.00  0.00     0.074 A 
ATOM     42  C   UNL A   1      42.742  30.916  36.906  1.00  0.00     0.029 A 
ATOM     43  N   UNL A   1      41.320  31.161  35.213  1.00  0.00    -0.354 N 
ATOM     44  N   UNL A   1      39.163  32.490  33.721  1.00  0.00    -0.248 NA
ATOM     45  C   UNL A   1      37.500  34.124  33.583  1.00  0.00     0.031 C 
ATOM     46  C   UNL A   1      41.895  31.992  37.191  1.00  0.00     0.029 A 
ATOM     47  C   UNL A   1      41.027  32.162  36.124  1.00  0.00     0.049 A 
ATOM     48  H   UNL A   1      40.858  31.025  34.355  1.00  0.00     0.167 HD
ATOM     49  C   UNL A   1      39.197  33.274  34.869  1.00  0.00     0.074 A 
ATOM     50  C   UNL A   1      38.171  34.284  34.715  1.00  0.00     0.031 C 
ATOM     51  C   UNL A   1      40.006  33.168  35.953  1.00  0.00     0.037 A 
BRANCH  38  52
ATOM     52  C   UNL A   1      43.987  28.439  35.697  1.00  0.00     0.058 A 
ATOM     53  C   UNL A   1      43.691  27.380  36.572  1.00  0.00     0.135 A 
ATOM     54  C   UNL A   1      45.342  28.718  35.449  1.00  0.00     0.135 A 
ATOM     55  F   UNL A   1      42.414  27.078  36.858  1.00  0.00    -0.206 F 
ATOM     56  C   UNL A   1      44.694  26.647  37.197  1.00  0.00     0.059 A 
ATOM     57  C   UNL A   1      46.362  27.977  36.037  1.00  0.00     0.059 A 
ATOM     58  F   UNL A   1      45.685  29.720  34.623  1.00  0.00    -0.206 F 
ATOM     59  C   UNL A   1      46.028  26.953  36.922  1.00  0.00     0.060 A 
BRANCH  59  60
ATOM     60  S   UNL A   1      47.317  25.985  37.735  1.00  0.00     0.124 S 
ATOM     61  O   UNL A   1      47.148  24.683  37.096  1.00  0.00    -0.237 OA
ATOM     62  O   UNL A   1      48.527  26.715  37.375  1.00  0.00    -0.237 OA
ATOM     63  O   UNL A   1      46.947  26.043  39.146  1.00  0.00    -0.744 OA
ENDBRANCH  59  60
ENDBRANCH  38  52
BRANCH  39  64
ATOM     64  C   UNL A   1      36.625  33.247  30.921  1.00  0.00     0.058 A 
ATOM     65  C   UNL A   1      35.294  33.042  31.314  1.00  0.00     0.135 A 
ATOM     66  C   UNL A   1      36.862  34.138  29.862  1.00  0.00     0.135 A 
ATOM     67  F   UNL A   1      35.014  32.194  32.316  1.00  0.00    -0.206 F 
ATOM     68  C   UNL A   1      34.237  33.680  30.674  1.00  0.00     0.059 A 
ATOM     69  C   UNL A   1      35.824  34.811  29.225  1.00  0.00     0.059 A 
ATOM     70  F   UNL A   1      38.118  34.384  29.458  1.00  0.00    -0.206 F 
ATOM     71  C   UNL A   1      34.514  34.567  29.631  1.00  0.00     0.060 A 
BRANCH  71  72
ATOM     72  S   UNL A   1      33.136  35.426  28.840  1.00  0.00     0.124 S 
ATOM     73  O   UNL A   1      33.835  36.406  28.015  1.00  0.00    -0.237 OA
ATOM     74  O   UNL A   1      32.472  34.342  28.123  1.00  0.00    -0.237 OA
ATOM     75  O   UNL A   1      32.387  35.970  29.970  1.00  0.00    -0.744 OA
ENDBRANCH  71  72
ENDBRANCH  39  64
BRANCH  51  76
ATOM     76  C   UNL A   1      39.845  34.191  37.044  1.00  0.00     0.058 A 
ATOM     77  C   UNL A   1      40.453  35.454  36.971  1.00  0.00     0.135 A 
ATOM     78  C   UNL A   1      39.023  33.921  38.151  1.00  0.00     0.135 A 
ATOM     79  F   UNL A   1      41.254  35.761  35.939  1.00  0.00    -0.206 F 
ATOM     80  C   UNL A   1      40.268  36.406  37.969  1.00  0.00     0.059 A 
ATOM     81  C   UNL A   1      38.800  34.870  39.144  1.00  0.00     0.059 A 
ATOM     82  F   UNL A   1      38.409  32.733  38.265  1.00  0.00    -0.206 F 
ATOM     83  C   UNL A   1      39.437  36.106  39.050  1.00  0.00     0.060 A 
BRANCH  83  84
ATOM     84  S   UNL A   1      39.176  37.366  40.316  1.00  0.00     0.124 S 
ATOM     85  O   UNL A   1      38.572  36.584  41.389  1.00  0.00    -0.237 OA
ATOM     86  O   UNL A   1      40.534  37.842  40.565  1.00  0.00    -0.237 OA
ATOM     87  O   UNL A   1      38.290  38.326  39.664  1.00  0.00    -0.744 OA
ENDBRANCH  83  84
ENDBRANCH  51  76
ENDBRANCH  25  26
ENDBRANCH  17  20
ENDBRANCH   1  16
TORSDOF 14
ENDMDL
MODEL 2
REMARK VINA RESULT:     -10.9      5.831     11.623
REMARK SMILES CC(C)(C(=O)NCCCNC(=O)c1ccc(-c2c3nc(c(-c4c(F)cc(S(=O)(=O)[O-])cc4F)c4ccc([nH]4)c(-c4c(F)cc(S(=O)(=O)[O-])cc4F)c4nc(c(-c5c(F)cc(S(=O)(=O)[O-])cc5F)c5ccc2[nH]5)C=C4)C=C3)cc1)n1cccc1
REMARK SMILES IDX 9 1 8 2 7 3 6 4 4 5 5 6 2 8 1 9 3 10 79 11 80 12 83 13 81 14
REMARK SMILES IDX 82 15 10 16 11 17 12 19 13 20 14 21 78 22 15 23 77 24 16 25
REMARK SMILES IDX 17 26 18 27 71 28 19 29 76 30 70 31 72 32 20 33 75 34 69 35
REMARK SMILES IDX 68 36 21 38 55 39 34 40 54 41 35 42 38 43 53 44 73 45 36 46
REMARK SMILES IDX 37 47 52 49 74 50 39 51 22 52 23 53 32 54 24 55 25 56 31 57
REMARK SMILES IDX 33 58 26 59 27 60 28 61 29 62 30 63 56 64 57 65 66 66 58 67
REMARK SMILES IDX 59 68 65 69 67 70 60 71 61 72 62 73 63 74 64 75 40 76 41 77
REMARK SMILES IDX 50 78 42 79 43 80 49 81 51 82 44 83 45 84 46 85 47 86 48 87
REMARK H PARENT 6 7 10 18 72 37 38 48
REMARK Flexibility Score: inf
ROOT
ATOM      1  C   UNL A   1      33.630  28.313  26.990  1.00  0.00     0.118 C 
ENDROOT
BRANCH   1   2
ATOM      2  C   UNL A   1      33.929  28.150  25.505  1.00  0.00     0.042 C 
BRANCH   2   3
ATOM      3  C   UNL A   1      32.892  27.329  24.755  1.00  0.00     0.117 C 
BRANCH   3   4
ATOM      4  N   UNL A   1      33.291  27.050  23.385  1.00  0.00    -0.354 N 
ATOM      5  C   UNL A   1      33.307  25.915  22.626  1.00  0.00     0.245 C 
ATOM      6  O   UNL A   1      33.630  26.100  21.447  1.00  0.00    -0.272 OA
ATOM      7  H   UNL A   1      33.618  27.845  22.904  1.00  0.00     0.163 HD
BRANCH   5   8
ATOM      8  C   UNL A   1      32.909  24.519  23.185  1.00  0.00     0.117 C 
ATOM      9  C   UNL A   1      31.420  24.479  23.582  1.00  0.00     0.045 C 
ATOM     10  C   UNL A   1      33.224  23.470  22.095  1.00  0.00     0.045 C 
BRANCH   8  11
ATOM     11  N   UNL A   1      33.677  24.201  24.433  1.00  0.00    -0.340 N 
ATOM     12  C   UNL A   1      35.049  24.144  24.561  1.00  0.00     0.086 A 
ATOM     13  C   UNL A   1      33.124  23.785  25.627  1.00  0.00     0.086 A 
ATOM     14  C   UNL A   1      35.357  23.764  25.849  1.00  0.00     0.019 A 
ATOM     15  C   UNL A   1      34.140  23.539  26.522  1.00  0.00     0.019 A 
ENDBRANCH   8  11
ENDBRANCH   5   8
ENDBRANCH   3   4
ENDBRANCH   2   3
ENDBRANCH   1   2
BRANCH   1  16
ATOM     16  N   UNL A   1      33.560  29.711  27.398  1.00  0.00    -0.352 N 
ATOM     17  C   UNL A   1      34.477  30.487  28.064  1.00  0.00     0.251 C 
ATOM     18  H   UNL A   1      32.723  30.171  27.159  1.00  0.00     0.163 HD
ATOM     19  O   UNL A   1      34.137  31.588  28.495  1.00  0.00    -0.269 OA
BRANCH  17  20
ATOM     20  C   UNL A   1      35.855  29.998  28.280  1.00  0.00     0.039 A 
ATOM     21  C   UNL A   1      36.781  30.093  27.238  1.00  0.00     0.014 A 
ATOM     22  C   UNL A   1      36.234  29.439  29.502  1.00  0.00     0.014 A 
ATOM     23  C   UNL A   1      38.104  29.699  27.451  1.00  0.00     0.010 A 
ATOM     24  C   UNL A   1      37.571  29.138  29.743  1.00  0.00     0.010 A 
ATOM     25  C   UNL A   1      38.520  29.260  28.720  1.00  0.00    -0.014 A 
BRANCH  25  26
ATOM     26  C   UNL A   1      39.941  28.924  28.996  1.00  0.00     0.031 A 
ATOM     27  C   UNL A   1      40.869  29.967  29.560  1.00  0.00     0.074 A 
ATOM     28  C   UNL A   1      40.412  27.703  28.671  1.00  0.00     0.049 A 
ATOM     29  N   UNL A   1      42.154  29.890  29.792  1.00  0.00    -0.248 NA
ATOM     30  C   UNL A   1      40.281  31.279  29.877  1.00  0.00     0.031 C 
ATOM     31  C   UNL A   1      39.622  26.624  28.072  1.00  0.00     0.029 A 
ATOM     32  N   UNL A   1      41.669  27.165  28.787  1.00  0.00    -0.354 N 
ATOM     33  C   UNL A   1      42.530  31.142  30.267  1.00  0.00     0.074 A 
ATOM     34  C   UNL A   1      41.350  31.977  30.234  1.00  0.00     0.031 C 
ATOM     35  C   UNL A   1      40.407  25.549  27.897  1.00  0.00     0.029 A 
ATOM     36  C   UNL A   1      41.763  25.873  28.326  1.00  0.00     0.049 A 
ATOM     37  H   UNL A   1      42.433  27.659  29.165  1.00  0.00     0.167 HD
ATOM     38  C   UNL A   1      43.742  31.549  30.714  1.00  0.00     0.037 A 
ATOM     39  C   UNL A   1      42.825  25.046  28.246  1.00  0.00     0.037 A 
ATOM     40  C   UNL A   1      44.906  30.703  30.763  1.00  0.00     0.049 A 
ATOM     41  C   UNL A   1      44.163  25.526  28.737  1.00  0.00     0.074 A 
ATOM     42  C   UNL A   1      46.165  31.003  31.253  1.00  0.00     0.029 A 
ATOM     43  N   UNL A   1      44.956  29.395  30.303  1.00  0.00    -0.354 N 
ATOM     44  N   UNL A   1      44.485  26.691  29.247  1.00  0.00    -0.248 NA
ATOM     45  C   UNL A   1      45.283  24.579  28.649  1.00  0.00     0.031 C 
ATOM     46  C   UNL A   1      46.992  29.895  31.039  1.00  0.00     0.029 A 
ATOM     47  C   UNL A   1      46.232  28.883  30.473  1.00  0.00     0.049 A 
ATOM     48  H   UNL A   1      44.198  28.904  29.913  1.00  0.00     0.167 HD
ATOM     49  C   UNL A   1      45.836  26.606  29.568  1.00  0.00     0.074 A 
ATOM     50  C   UNL A   1      46.266  25.272  29.206  1.00  0.00     0.031 C 
ATOM     51  C   UNL A   1      46.645  27.547  30.114  1.00  0.00     0.037 A 
BRANCH  38  52
ATOM     52  C   UNL A   1      43.871  32.972  31.188  1.00  0.00     0.058 A 
ATOM     53  C   UNL A   1      43.653  33.328  32.530  1.00  0.00     0.135 A 
ATOM     54  C   UNL A   1      44.255  33.990  30.299  1.00  0.00     0.135 A 
ATOM     55  F   UNL A   1      43.269  32.400  33.422  1.00  0.00    -0.206 F 
ATOM     56  C   UNL A   1      43.782  34.642  32.966  1.00  0.00     0.059 A 
ATOM     57  C   UNL A   1      44.422  35.305  30.720  1.00  0.00     0.059 A 
ATOM     58  F   UNL A   1      44.476  33.708  29.005  1.00  0.00    -0.206 F 
ATOM     59  C   UNL A   1      44.168  35.624  32.053  1.00  0.00     0.060 A 
BRANCH  59  60
ATOM     60  S   UNL A   1      44.339  37.323  32.639  1.00  0.00     0.124 S 
ATOM     61  O   UNL A   1      44.106  38.079  31.411  1.00  0.00    -0.237 OA
ATOM     62  O   UNL A   1      43.287  37.412  33.646  1.00  0.00    -0.237 OA
ATOM     63  O   UNL A   1      45.704  37.370  33.154  1.00  0.00    -0.744 OA
ENDBRANCH  59  60
ENDBRANCH  38  52
BRANCH  39  64
ATOM     64  C   UNL A   1      42.658  23.674  27.693  1.00  0.00     0.058 A 
ATOM     65  C   UNL A   1      42.743  23.435  26.314  1.00  0.00     0.135 A 
ATOM     66  C   UNL A   1      42.422  22.574  28.532  1.00  0.00     0.135 A 
ATOM     67  F   UNL A   1      42.961  24.455  25.468  1.00  0.00    -0.206 F 
ATOM     68  C   UNL A   1      42.583  22.159  25.782  1.00  0.00     0.059 A 
ATOM     69  C   UNL A   1      42.288  21.284  28.028  1.00  0.00     0.059 A 
ATOM     70  F   UNL A   1      42.350  22.744  29.862  1.00  0.00    -0.206 F 
ATOM     71  C   UNL A   1      42.359  21.089  26.650  1.00  0.00     0.060 A 
BRANCH  71  72
ATOM     72  S   UNL A   1      42.201  19.430  25.952  1.00  0.00     0.124 S 
ATOM     73  O   UNL A   1      43.043  19.528  24.766  1.00  0.00    -0.237 OA
ATOM     74  O   UNL A   1      42.712  18.594  27.034  1.00  0.00    -0.237 OA
ATOM     75  O   UNL A   1      40.767  19.308  25.701  1.00  0.00    -0.744 OA
ENDBRANCH  71  72
ENDBRANCH  39  64
BRANCH  51  76
ATOM     76  C   UNL A   1      48.073  27.161  30.393  1.00  0.00     0.058 A 
ATOM     77  C   UNL A   1      49.111  27.469  29.501  1.00  0.00     0.135 A 
ATOM     78  C   UNL A   1      48.411  26.523  31.598  1.00  0.00     0.135 A 
ATOM     79  F   UNL A   1      48.843  28.071  28.331  1.00  0.00    -0.206 F 
ATOM     80  C   UNL A   1      50.432  27.139  29.784  1.00  0.00     0.059 A 
ATOM     81  C   UNL A   1      49.729  26.213  31.916  1.00  0.00     0.059 A 
ATOM     82  F   UNL A   1      47.457  26.215  32.492  1.00  0.00    -0.206 F 
ATOM     83  C   UNL A   1      50.732  26.514  30.997  1.00  0.00     0.060 A 
BRANCH  83  84
ATOM     84  S   UNL A   1      52.456  26.128  31.368  1.00  0.00     0.124 S 
ATOM     85  O   UNL A   1      52.838  27.261  32.204  1.00  0.00    -0.237 OA
ATOM     86  O   UNL A   1      52.347  24.843  32.053  1.00  0.00    -0.237 OA
ATOM     87  O   UNL A   1      53.085  26.080  30.051  1.00  0.00    -0.744 OA
ENDBRANCH  83  84
ENDBRANCH  51  76
ENDBRANCH  25  26
ENDBRANCH  17  20
ENDBRANCH   1  16
TORSDOF 14
ENDMDL
MODEL 3
REMARK VINA RESULT:     -10.7      7.098     13.446
REMARK SMILES CC(C)(C(=O)NCCCNC(=O)c1ccc(-c2c3nc(c(-c4c(F)cc(S(=O)(=O)[O-])cc4F)c4ccc([nH]4)c(-c4c(F)cc(S(=O)(=O)[O-])cc4F)c4nc(c(-c5c(F)cc(S(=O)(=O)[O-])cc5F)c5ccc2[nH]5)C=C4)C=C3)cc1)n1cccc1
REMARK SMILES IDX 9 1 8 2 7 3 6 4 4 5 5 6 2 8 1 9 3 10 79 11 80 12 83 13 81 14
REMARK SMILES IDX 82 15 10 16 11 17 12 19 13 20 14 21 78 22 15 23 77 24 16 25
REMARK SMILES IDX 17 26 18 27 71 28 19 29 76 30 70 31 72 32 20 33 75 34 69 35
REMARK SMILES IDX 68 36 21 38 55 39 34 40 54 41 35 42 38 43 53 44 73 45 36 46
REMARK SMILES IDX 37 47 52 49 74 50 39 51 22 52 23 53 32 54 24 55 25 56 31 57
REMARK SMILES IDX 33 58 26 59 27 60 28 61 29 62 30 63 56 64 57 65 66 66 58 67
REMARK SMILES IDX 59 68 65 69 67 70 60 71 61 72 62 73 63 74 64 75 40 76 41 77
REMARK SMILES IDX 50 78 42 79 43 80 49 81 51 82 44 83 45 84 46 85 47 86 48 87
REMARK H PARENT 6 7 10 18 72 37 38 48
REMARK Flexibility Score: inf
ROOT
ATOM      1  C   UNL A   1      35.085  29.409  27.412  1.00  0.00     0.118 C 
ENDROOT
BRANCH   1   2
ATOM      2  C   UNL A   1      33.725  28.740  27.255  1.00  0.00     0.042 C 
BRANCH   2   3
ATOM      3  C   UNL A   1      32.912  29.264  26.083  1.00  0.00     0.117 C 
BRANCH   3   4
ATOM      4  N   UNL A   1      33.662  29.256  24.838  1.00  0.00    -0.354 N 
ATOM      5  C   UNL A   1      33.582  28.507  23.699  1.00  0.00     0.245 C 
ATOM      6  O   UNL A   1      34.348  28.871  22.800  1.00  0.00    -0.272 OA
ATOM      7  H   UNL A   1      34.379  29.932  24.809  1.00  0.00     0.163 HD
BRANCH   5   8
ATOM      8  C   UNL A   1      32.581  27.328  23.532  1.00  0.00     0.117 C 
ATOM      9  C   UNL A   1      31.126  27.797  23.734  1.00  0.00     0.045 C 
ATOM     10  C   UNL A   1      32.786  26.735  22.120  1.00  0.00     0.045 C 
BRANCH   8  11
ATOM     11  N   UNL A   1      32.821  26.270  24.567  1.00  0.00    -0.340 N 
ATOM     12  C   UNL A   1      31.915  25.809  25.498  1.00  0.00     0.086 A 
ATOM     13  C   UNL A   1      34.039  25.679  24.837  1.00  0.00     0.086 A 
ATOM     14  C   UNL A   1      32.539  24.881  26.303  1.00  0.00     0.019 A 
ATOM     15  C   UNL A   1      33.882  24.799  25.883  1.00  0.00     0.019 A 
ENDBRANCH   8  11
ENDBRANCH   5   8
ENDBRANCH   3   4
ENDBRANCH   2   3
ENDBRANCH   1   2
BRANCH   1  16
ATOM     16  N   UNL A   1      35.169  30.237  28.609  1.00  0.00    -0.352 N 
ATOM     17  C   UNL A   1      36.200  30.400  29.502  1.00  0.00     0.251 C 
ATOM     18  H   UNL A   1      34.361  30.761  28.809  1.00  0.00     0.163 HD
ATOM     19  O   UNL A   1      35.992  30.988  30.562  1.00  0.00    -0.269 OA
BRANCH  17  20
ATOM     20  C   UNL A   1      37.542  29.858  29.203  1.00  0.00     0.039 A 
ATOM     21  C   UNL A   1      37.972  29.802  27.875  1.00  0.00     0.014 A 
ATOM     22  C   UNL A   1      38.374  29.399  30.226  1.00  0.00     0.014 A 
ATOM     23  C   UNL A   1      39.264  29.357  27.585  1.00  0.00     0.010 A 
ATOM     24  C   UNL A   1      39.691  29.049  29.946  1.00  0.00     0.010 A 
ATOM     25  C   UNL A   1      40.150  29.019  28.622  1.00  0.00    -0.014 A 
BRANCH  25  26
ATOM     26  C   UNL A   1      41.558  28.633  28.345  1.00  0.00     0.031 A 
ATOM     27  C   UNL A   1      42.640  29.680  28.328  1.00  0.00     0.074 A 
ATOM     28  C   UNL A   1      41.848  27.353  28.035  1.00  0.00     0.049 A 
ATOM     29  N   UNL A   1      43.907  29.553  28.029  1.00  0.00    -0.248 NA
ATOM     30  C   UNL A   1      42.240  31.056  28.666  1.00  0.00     0.031 C 
ATOM     31  C   UNL A   1      40.877  26.258  27.968  1.00  0.00     0.029 A 
ATOM     32  N   UNL A   1      43.040  26.757  27.708  1.00  0.00    -0.354 N 
ATOM     33  C   UNL A   1      44.450  30.829  28.127  1.00  0.00     0.074 A 
ATOM     34  C   UNL A   1      43.364  31.725  28.456  1.00  0.00     0.031 C 
ATOM     35  C   UNL A   1      41.517  25.122  27.646  1.00  0.00     0.029 A 
ATOM     36  C   UNL A   1      42.931  25.413  27.438  1.00  0.00     0.049 A 
ATOM     37  H   UNL A   1      43.894  27.246  27.669  1.00  0.00     0.167 HD
ATOM     38  C   UNL A   1      45.741  31.213  27.982  1.00  0.00     0.037 A 
ATOM     39  C   UNL A   1      43.862  24.517  27.054  1.00  0.00     0.037 A 
ATOM     40  C   UNL A   1      46.819  30.309  27.676  1.00  0.00     0.049 A 
ATOM     41  C   UNL A   1      45.287  24.972  26.887  1.00  0.00     0.074 A 
ATOM     42  C   UNL A   1      48.170  30.590  27.565  1.00  0.00     0.029 A 
ATOM     43  N   UNL A   1      46.670  28.952  27.427  1.00  0.00    -0.354 N 
ATOM     44  N   UNL A   1      45.795  26.170  27.051  1.00  0.00    -0.248 NA
ATOM     45  C   UNL A   1      46.268  23.953  26.489  1.00  0.00     0.031 C 
ATOM     46  C   UNL A   1      48.831  29.413  27.195  1.00  0.00     0.029 A 
ATOM     47  C   UNL A   1      47.901  28.387  27.137  1.00  0.00     0.049 A 
ATOM     48  H   UNL A   1      45.816  28.463  27.452  1.00  0.00     0.167 HD
ATOM     49  C   UNL A   1      47.158  26.043  26.806  1.00  0.00     0.074 A 
ATOM     50  C   UNL A   1      47.397  24.648  26.495  1.00  0.00     0.031 C 
ATOM     51  C   UNL A   1      48.125  26.993  26.837  1.00  0.00     0.037 A 
BRANCH  38  52
ATOM     52  C   UNL A   1      46.060  32.674  28.154  1.00  0.00     0.058 A 
ATOM     53  C   UNL A   1      46.455  33.204  29.394  1.00  0.00     0.135 A 
ATOM     54  C   UNL A   1      46.007  33.552  27.058  1.00  0.00     0.135 A 
ATOM     55  F   UNL A   1      46.509  32.416  30.480  1.00  0.00    -0.206 F 
ATOM     56  C   UNL A   1      46.757  34.553  29.547  1.00  0.00     0.059 A 
ATOM     57  C   UNL A   1      46.336  34.898  27.181  1.00  0.00     0.059 A 
ATOM     58  F   UNL A   1      45.635  33.101  25.850  1.00  0.00    -0.206 F 
ATOM     59  C   UNL A   1      46.696  35.393  28.434  1.00  0.00     0.060 A 
BRANCH  59  60
ATOM     60  S   UNL A   1      47.100  37.138  28.650  1.00  0.00     0.124 S 
ATOM     61  O   UNL A   1      45.777  37.719  28.861  1.00  0.00    -0.237 OA
ATOM     62  O   UNL A   1      47.973  37.113  29.818  1.00  0.00    -0.237 OA
ATOM     63  O   UNL A   1      47.748  37.497  27.392  1.00  0.00    -0.744 OA
ENDBRANCH  59  60
ENDBRANCH  38  52
BRANCH  39  64
ATOM     64  C   UNL A   1      43.478  23.099  26.818  1.00  0.00     0.058 A 
ATOM     65  C   UNL A   1      43.438  22.566  25.521  1.00  0.00     0.135 A 
ATOM     66  C   UNL A   1      43.153  22.245  27.884  1.00  0.00     0.135 A 
ATOM     67  F   UNL A   1      43.733  23.344  24.468  1.00  0.00    -0.206 F 
ATOM     68  C   UNL A   1      43.074  21.245  25.285  1.00  0.00     0.059 A 
ATOM     69  C   UNL A   1      42.814  20.911  27.677  1.00  0.00     0.059 A 
ATOM     70  F   UNL A   1      43.193  22.699  29.147  1.00  0.00    -0.206 F 
ATOM     71  C   UNL A   1      42.767  20.423  26.372  1.00  0.00     0.060 A 
BRANCH  71  72
ATOM     72  S   UNL A   1      42.342  18.696  26.057  1.00  0.00     0.124 S 
ATOM     73  O   UNL A   1      42.623  18.084  27.350  1.00  0.00    -0.237 OA
ATOM     74  O   UNL A   1      40.934  18.791  25.685  1.00  0.00    -0.237 OA
ATOM     75  O   UNL A   1      43.245  18.322  24.971  1.00  0.00    -0.744 OA
ENDBRANCH  71  72
ENDBRANCH  39  64
BRANCH  51  76
ATOM     76  C   UNL A   1      49.539  26.557  26.565  1.00  0.00     0.058 A 
ATOM     77  C   UNL A   1      50.349  26.004  27.568  1.00  0.00     0.135 A 
ATOM     78  C   UNL A   1      50.069  26.642  25.266  1.00  0.00     0.135 A 
ATOM     79  F   UNL A   1      49.896  25.906  28.828  1.00  0.00    -0.206 F 
ATOM     80  C   UNL A   1      51.644  25.570  27.298  1.00  0.00     0.059 A 
ATOM     81  C   UNL A   1      51.349  26.186  24.968  1.00  0.00     0.059 A 
ATOM     82  F   UNL A   1      49.333  27.154  24.267  1.00  0.00    -0.206 F 
ATOM     83  C   UNL A   1      52.133  25.662  25.994  1.00  0.00     0.060 A 
BRANCH  83  84
ATOM     84  S   UNL A   1      53.800  25.059  25.651  1.00  0.00     0.124 S 
ATOM     85  O   UNL A   1      53.551  23.647  25.378  1.00  0.00    -0.237 OA
ATOM     86  O   UNL A   1      54.193  25.867  24.500  1.00  0.00    -0.237 OA
ATOM     87  O   UNL A   1      54.525  25.341  26.886  1.00  0.00    -0.744 OA
ENDBRANCH  83  84
ENDBRANCH  51  76
ENDBRANCH  25  26
ENDBRANCH  17  20
ENDBRANCH   1  16
TORSDOF 14
ENDMDL
