MODEL 1
REMARK VINA RESULT:     -13.6      0.000      0.000
REMARK SMILES COc1ccc(N2C(=O)/C(=C/c3c(C(=O)NCCCNC(=O)c4ccc(-c5c6nc(c(-c7c(F)cc(S(=O)(=O)[O-])cc7F)c7ccc([nH]7)c(-c7c(F)cc(S(=O)(=O)[O-])cc7F)c7nc(c(-c8c(F)cc(S(=O)(=O)[O-])cc8F)c8ccc5[nH]8)C=C7)C=C6)cc4)[nH]c4cc(OC)ccc34)SC2=S)cc1
REMARK SMILES IDX 18 1 17 2 16 3 14 4 15 5 13 7 12 8 97 9 89 10 90 11 96 12
REMARK SMILES IDX 91 14 95 15 92 16 11 17 7 18 8 19 99 20 9 21 10 22 98 23
REMARK SMILES IDX 100 24 6 25 3 26 4 27 102 28 5 29 101 30 2 31 1 32 93 33
REMARK SMILES IDX 94 34 19 35 20 36 21 37 22 39 23 40 24 41 88 42 25 43 87 44
REMARK SMILES IDX 26 45 27 46 28 47 81 48 29 49 86 50 80 51 82 52 30 53 85 54
REMARK SMILES IDX 79 55 78 56 31 58 65 59 44 60 64 61 45 62 48 63 63 64 83 65
REMARK SMILES IDX 46 66 47 67 62 69 84 70 49 71 32 72 33 73 42 74 34 75 35 76
REMARK SMILES IDX 41 77 43 78 36 79 37 80 38 81 39 82 40 83 66 84 67 85 76 86
REMARK SMILES IDX 68 87 69 88 75 89 77 90 70 91 71 92 72 93 73 94 74 95 50 96
REMARK SMILES IDX 51 97 60 98 52 99 53 100 59 101 61 102 54 103 55 104 56 105
REMARK SMILES IDX 57 106 58 107
REMARK H PARENT 16 6 89 13 20 38 82 57 48 68
REMARK Flexibility Score: inf
ROOT
ATOM      1  C   UNL A   1      33.005  28.900  27.522  1.00  0.00     0.042 C 
ENDROOT
BRANCH   1   2
ATOM      2  C   UNL A   1      33.233  27.824  26.478  1.00  0.00     0.118 C 
BRANCH   2   3
ATOM      3  N   UNL A   1      33.957  28.271  25.300  1.00  0.00    -0.351 N 
ATOM      4  C   UNL A   1      33.427  28.623  24.080  1.00  0.00     0.268 C 
ATOM      5  O   UNL A   1      34.186  28.767  23.128  1.00  0.00    -0.268 OA
ATOM      6  H   UNL A   1      34.935  28.329  25.385  1.00  0.00     0.163 HD
BRANCH   4   7
ATOM      7  C   UNL A   1      31.993  28.703  23.938  1.00  0.00     0.112 A 
ATOM      8  C   UNL A   1      31.015  27.916  23.316  1.00  0.00     0.014 A 
ATOM      9  C   UNL A   1      29.873  28.805  23.137  1.00  0.00     0.008 A 
ATOM     10  N   UNL A   1      31.335  29.747  24.527  1.00  0.00    -0.350 N 
ATOM     11  C   UNL A   1      30.148  29.952  23.888  1.00  0.00     0.050 A 
ATOM     12  C   UNL A   1      28.656  28.833  22.402  1.00  0.00     0.015 A 
ATOM     13  H   UNL A   1      31.667  30.269  25.294  1.00  0.00     0.167 HD
ATOM     14  C   UNL A   1      29.349  31.095  23.921  1.00  0.00     0.073 A 
ATOM     15  C   UNL A   1      27.836  30.002  22.409  1.00  0.00     0.047 A 
ATOM     16  C   UNL A   1      28.191  31.124  23.155  1.00  0.00     0.120 A 
BRANCH   8  17
ATOM     17  C   UNL A   1      31.325  26.599  22.769  1.00  0.00     0.032 C 
ATOM     18  N   UNL A   1      32.475  23.534  24.350  1.00  0.00    -0.261 N 
ATOM     19  C   UNL A   1      32.243  24.264  23.172  1.00  0.00     0.270 C 
ATOM     20  C   UNL A   1      31.771  23.947  25.472  1.00  0.00     0.152 C 
ATOM     21  O   UNL A   1      32.785  24.127  22.084  1.00  0.00    -0.268 OA
ATOM     22  C   UNL A   1      31.328  25.436  23.471  1.00  0.00     0.081 C 
ATOM     23  S   UNL A   1      30.589  25.163  25.007  1.00  0.00    -0.054 SA
ATOM     24  S   UNL A   1      31.882  23.424  27.057  1.00  0.00    -0.051 S 
BRANCH  18  25
ATOM     25  C   UNL A   1      33.439  22.476  24.418  1.00  0.00     0.051 A 
ATOM     26  C   UNL A   1      35.328  20.394  24.810  1.00  0.00     0.119 A 
ATOM     27  C   UNL A   1      35.730  21.726  24.802  1.00  0.00     0.048 A 
ATOM     28  C   UNL A   1      33.971  20.103  24.676  1.00  0.00     0.048 A 
ATOM     29  C   UNL A   1      34.797  22.758  24.615  1.00  0.00     0.030 A 
ATOM     30  C   UNL A   1      33.033  21.136  24.467  1.00  0.00     0.030 A 
BRANCH  26  31
ATOM     31  O   UNL A   1      36.336  19.490  24.996  1.00  0.00    -0.497 OA
ATOM     32  C   UNL A   1      37.666  19.994  24.944  1.00  0.00     0.278 C 
ENDBRANCH  26  31
ENDBRANCH  18  25
ENDBRANCH   8  17
BRANCH  16  33
ATOM     33  O   UNL A   1      27.575  32.343  23.177  1.00  0.00    -0.497 OA
ATOM     34  C   UNL A   1      28.330  33.481  22.799  1.00  0.00     0.278 C 
ENDBRANCH  16  33
ENDBRANCH   4   7
ENDBRANCH   2   3
ENDBRANCH   1   2
BRANCH   1  35
ATOM     35  C   UNL A   1      33.454  30.284  27.077  1.00  0.00     0.118 C 
BRANCH  35  36
ATOM     36  N   UNL A   1      33.747  31.224  28.153  1.00  0.00    -0.352 N 
ATOM     37  C   UNL A   1      34.847  31.312  28.982  1.00  0.00     0.251 C 
ATOM     38  H   UNL A   1      33.052  31.903  28.311  1.00  0.00     0.163 HD
ATOM     39  O   UNL A   1      34.855  32.174  29.859  1.00  0.00    -0.269 OA
BRANCH  37  40
ATOM     40  C   UNL A   1      35.983  30.356  28.890  1.00  0.00     0.039 A 
ATOM     41  C   UNL A   1      36.602  30.199  27.643  1.00  0.00     0.014 A 
ATOM     42  C   UNL A   1      36.492  29.665  29.992  1.00  0.00     0.014 A 
ATOM     43  C   UNL A   1      37.820  29.530  27.549  1.00  0.00     0.010 A 
ATOM     44  C   UNL A   1      37.745  29.080  29.928  1.00  0.00     0.010 A 
ATOM     45  C   UNL A   1      38.446  29.081  28.720  1.00  0.00    -0.014 A 
BRANCH  45  46
ATOM     46  C   UNL A   1      39.906  28.867  28.768  1.00  0.00     0.031 A 
ATOM     47  C   UNL A   1      40.503  27.547  28.395  1.00  0.00     0.074 A 
ATOM     48  C   UNL A   1      40.637  29.847  29.341  1.00  0.00     0.049 A 
ATOM     49  N   UNL A   1      41.751  27.172  28.455  1.00  0.00    -0.248 NA
ATOM     50  C   UNL A   1      39.579  26.497  27.937  1.00  0.00     0.031 C 
ATOM     51  C   UNL A   1      40.090  31.104  29.874  1.00  0.00     0.029 A 
ATOM     52  N   UNL A   1      41.976  29.943  29.608  1.00  0.00    -0.354 N 
ATOM     53  C   UNL A   1      41.767  25.843  28.052  1.00  0.00     0.074 A 
ATOM     54  C   UNL A   1      40.396  25.462  27.793  1.00  0.00     0.031 C 
ATOM     55  C   UNL A   1      41.083  31.847  30.380  1.00  0.00     0.029 A 
ATOM     56  C   UNL A   1      42.329  31.112  30.243  1.00  0.00     0.049 A 
ATOM     57  H   UNL A   1      42.625  29.242  29.368  1.00  0.00     0.167 HD
ATOM     58  C   UNL A   1      42.841  25.035  27.902  1.00  0.00     0.037 A 
ATOM     59  C   UNL A   1      43.530  31.539  30.674  1.00  0.00     0.037 A 
ATOM     60  C   UNL A   1      44.191  25.467  28.169  1.00  0.00     0.049 A 
ATOM     61  C   UNL A   1      44.712  30.651  30.417  1.00  0.00     0.074 A 
ATOM     62  C   UNL A   1      45.372  24.783  27.958  1.00  0.00     0.029 A 
ATOM     63  N   UNL A   1      44.531  26.697  28.719  1.00  0.00    -0.354 N 
ATOM     64  N   UNL A   1      44.730  29.447  29.894  1.00  0.00    -0.248 NA
ATOM     65  C   UNL A   1      46.031  31.174  30.781  1.00  0.00     0.031 C 
ATOM     66  C   UNL A   1      46.423  25.576  28.432  1.00  0.00     0.029 A 
ATOM     67  C   UNL A   1      45.903  26.781  28.880  1.00  0.00     0.049 A 
ATOM     68  H   UNL A   1      43.890  27.405  28.960  1.00  0.00     0.167 HD
ATOM     69  C   UNL A   1      46.066  29.076  29.845  1.00  0.00     0.074 A 
ATOM     70  C   UNL A   1      46.824  30.195  30.371  1.00  0.00     0.031 C 
ATOM     71  C   UNL A   1      46.619  27.917  29.407  1.00  0.00     0.037 A 
BRANCH  58  72
ATOM     72  C   UNL A   1      42.619  23.627  27.421  1.00  0.00     0.058 A 
ATOM     73  C   UNL A   1      42.706  23.288  26.061  1.00  0.00     0.135 A 
ATOM     74  C   UNL A   1      42.394  22.584  28.336  1.00  0.00     0.135 A 
ATOM     75  F   UNL A   1      42.903  24.243  25.137  1.00  0.00    -0.206 F 
ATOM     76  C   UNL A   1      42.572  21.973  25.625  1.00  0.00     0.059 A 
ATOM     77  C   UNL A   1      42.284  21.258  27.925  1.00  0.00     0.059 A 
ATOM     78  F   UNL A   1      42.293  22.848  29.648  1.00  0.00    -0.206 F 
ATOM     79  C   UNL A   1      42.372  20.963  26.567  1.00  0.00     0.060 A 
BRANCH  79  80
ATOM     80  S   UNL A   1      42.259  19.257  25.986  1.00  0.00     0.124 S 
ATOM     81  O   UNL A   1      42.687  18.516  27.168  1.00  0.00    -0.237 OA
ATOM     82  O   UNL A   1      40.846  19.139  25.642  1.00  0.00    -0.237 OA
ATOM     83  O   UNL A   1      43.182  19.218  24.856  1.00  0.00    -0.744 OA
ENDBRANCH  79  80
ENDBRANCH  58  72
BRANCH  59  84
ATOM     84  C   UNL A   1      43.663  32.862  31.344  1.00  0.00     0.058 A 
ATOM     85  C   UNL A   1      43.774  34.046  30.597  1.00  0.00     0.135 A 
ATOM     86  C   UNL A   1      43.656  32.975  32.743  1.00  0.00     0.135 A 
ATOM     87  F   UNL A   1      43.773  33.995  29.256  1.00  0.00    -0.206 F 
ATOM     88  C   UNL A   1      43.911  35.287  31.212  1.00  0.00     0.059 A 
ATOM     89  C   UNL A   1      43.761  34.209  33.381  1.00  0.00     0.059 A 
ATOM     90  F   UNL A   1      43.516  31.881  33.507  1.00  0.00    -0.206 F 
ATOM     91  C   UNL A   1      43.908  35.358  32.605  1.00  0.00     0.060 A 
BRANCH  91  92
ATOM     92  S   UNL A   1      44.077  36.975  33.392  1.00  0.00     0.124 S 
ATOM     93  O   UNL A   1      45.212  36.750  34.280  1.00  0.00    -0.237 OA
ATOM     94  O   UNL A   1      44.323  37.848  32.249  1.00  0.00    -0.237 OA
ATOM     95  O   UNL A   1      42.789  37.164  34.051  1.00  0.00    -0.744 OA
ENDBRANCH  91  92
ENDBRANCH  59  84
BRANCH  71  96
ATOM     96  C   UNL A   1      48.115  27.826  29.454  1.00  0.00     0.058 A 
ATOM     97  C   UNL A   1      48.784  27.266  30.554  1.00  0.00     0.135 A 
ATOM     98  C   UNL A   1      48.884  28.262  28.364  1.00  0.00     0.135 A 
ATOM     99  F   UNL A   1      48.092  26.844  31.624  1.00  0.00    -0.206 F 
ATOM    100  C   UNL A   1      50.169  27.167  30.583  1.00  0.00     0.059 A 
ATOM    101  C   UNL A   1      50.268  28.140  28.356  1.00  0.00     0.059 A 
ATOM    102  F   UNL A   1      48.288  28.797  27.286  1.00  0.00    -0.206 F 
ATOM    103  C   UNL A   1      50.901  27.603  29.476  1.00  0.00     0.060 A 
BRANCH 103 104
ATOM    104  S   UNL A   1      52.696  27.434  29.512  1.00  0.00     0.124 S 
ATOM    105  O   UNL A   1      53.100  28.716  30.080  1.00  0.00    -0.237 OA
ATOM    106  O   UNL A   1      52.882  26.271  30.373  1.00  0.00    -0.237 OA
ATOM    107  O   UNL A   1      53.046  27.231  28.109  1.00  0.00    -0.744 OA
ENDBRANCH 103 104
ENDBRANCH  71  96
ENDBRANCH  45  46
ENDBRANCH  37  40
ENDBRANCH  35  36
ENDBRANCH   1  35
TORSDOF 17
ENDMDL
MODEL 2
REMARK VINA RESULT:     -13.4      0.613      7.904
REMARK SMILES COc1ccc(N2C(=O)/C(=C/c3c(C(=O)NCCCNC(=O)c4ccc(-c5c6nc(c(-c7c(F)cc(S(=O)(=O)[O-])cc7F)c7ccc([nH]7)c(-c7c(F)cc(S(=O)(=O)[O-])cc7F)c7nc(c(-c8c(F)cc(S(=O)(=O)[O-])cc8F)c8ccc5[nH]8)C=C7)C=C6)cc4)[nH]c4cc(OC)ccc34)SC2=S)cc1
REMARK SMILES IDX 18 1 17 2 16 3 14 4 15 5 13 7 12 8 97 9 89 10 90 11 96 12
REMARK SMILES IDX 91 14 95 15 92 16 11 17 7 18 8 19 99 20 9 21 10 22 98 23
REMARK SMILES IDX 100 24 6 25 3 26 4 27 102 28 5 29 101 30 2 31 1 32 93 33
REMARK SMILES IDX 94 34 19 35 20 36 21 37 22 39 23 40 24 41 88 42 25 43 87 44
REMARK SMILES IDX 26 45 27 46 28 47 81 48 29 49 86 50 80 51 82 52 30 53 85 54
REMARK SMILES IDX 79 55 78 56 31 58 65 59 44 60 64 61 45 62 48 63 63 64 83 65
REMARK SMILES IDX 46 66 47 67 62 69 84 70 49 71 32 72 33 73 42 74 34 75 35 76
REMARK SMILES IDX 41 77 43 78 36 79 37 80 38 81 39 82 40 83 66 84 67 85 76 86
REMARK SMILES IDX 68 87 69 88 75 89 77 90 70 91 71 92 72 93 73 94 74 95 50 96
REMARK SMILES IDX 51 97 60 98 52 99 53 100 59 101 61 102 54 103 55 104 56 105
REMARK SMILES IDX 57 106 58 107
REMARK H PARENT 16 6 89 13 20 38 82 57 48 68
REMARK Flexibility Score: inf
ROOT
ATOM      1  C   UNL A   1      33.201  28.696  27.328  1.00  0.00     0.042 C 
ENDROOT
BRANCH   1   2
ATOM      2  C   UNL A   1      33.309  27.635  26.251  1.00  0.00     0.118 C 
BRANCH   2   3
ATOM      3  N   UNL A   1      33.986  28.070  25.041  1.00  0.00    -0.351 N 
ATOM      4  C   UNL A   1      33.407  28.443  23.850  1.00  0.00     0.268 C 
ATOM      5  O   UNL A   1      34.122  28.573  22.863  1.00  0.00    -0.268 OA
ATOM      6  H   UNL A   1      34.969  28.103  25.077  1.00  0.00     0.163 HD
BRANCH   4   7
ATOM      7  C   UNL A   1      31.970  28.560  23.778  1.00  0.00     0.112 A 
ATOM      8  C   UNL A   1      30.938  27.770  23.257  1.00  0.00     0.014 A 
ATOM      9  C   UNL A   1      29.813  28.683  23.085  1.00  0.00     0.008 A 
ATOM     10  N   UNL A   1      31.376  29.657  24.339  1.00  0.00    -0.350 N 
ATOM     11  C   UNL A   1      30.162  29.863  23.751  1.00  0.00     0.050 A 
ATOM     12  C   UNL A   1      28.560  28.708  22.415  1.00  0.00     0.015 A 
ATOM     13  H   UNL A   1      31.763  30.211  25.055  1.00  0.00     0.167 HD
ATOM     14  C   UNL A   1      29.399  31.031  23.758  1.00  0.00     0.073 A 
ATOM     15  C   UNL A   1      27.775  29.900  22.396  1.00  0.00     0.047 A 
ATOM     16  C   UNL A   1      28.203  31.052  23.053  1.00  0.00     0.120 A 
BRANCH   8  17
ATOM     17  C   UNL A   1      31.179  26.415  22.774  1.00  0.00     0.032 C 
ATOM     18  N   UNL A   1      32.464  23.448  24.436  1.00  0.00    -0.261 N 
ATOM     19  C   UNL A   1      32.116  24.099  23.241  1.00  0.00     0.270 C 
ATOM     20  C   UNL A   1      31.885  23.947  25.594  1.00  0.00     0.152 C 
ATOM     21  O   UNL A   1      32.542  23.880  22.115  1.00  0.00    -0.268 OA
ATOM     22  C   UNL A   1      31.246  25.302  23.551  1.00  0.00     0.081 C 
ATOM     23  S   UNL A   1      30.670  25.145  25.170  1.00  0.00    -0.054 SA
ATOM     24  S   UNL A   1      32.156  23.532  27.191  1.00  0.00    -0.051 S 
BRANCH  18  25
ATOM     25  C   UNL A   1      33.423  22.384  24.478  1.00  0.00     0.051 A 
ATOM     26  C   UNL A   1      35.320  20.299  24.817  1.00  0.00     0.119 A 
ATOM     27  C   UNL A   1      35.731  21.626  24.717  1.00  0.00     0.048 A 
ATOM     28  C   UNL A   1      33.955  20.018  24.801  1.00  0.00     0.048 A 
ATOM     29  C   UNL A   1      34.795  22.658  24.556  1.00  0.00     0.030 A 
ATOM     30  C   UNL A   1      33.011  21.052  24.619  1.00  0.00     0.030 A 
BRANCH  26  31
ATOM     31  O   UNL A   1      36.333  19.394  24.965  1.00  0.00    -0.497 OA
ATOM     32  C   UNL A   1      37.660  19.890  24.838  1.00  0.00     0.278 C 
ENDBRANCH  26  31
ENDBRANCH  18  25
ENDBRANCH   8  17
BRANCH  16  33
ATOM     33  O   UNL A   1      27.624  32.289  23.035  1.00  0.00    -0.497 OA
ATOM     34  C   UNL A   1      28.471  33.423  22.969  1.00  0.00     0.278 C 
ENDBRANCH  16  33
ENDBRANCH   4   7
ENDBRANCH   2   3
ENDBRANCH   1   2
BRANCH   1  35
ATOM     35  C   UNL A   1      33.760  30.048  26.907  1.00  0.00     0.118 C 
BRANCH  35  36
ATOM     36  N   UNL A   1      33.934  31.017  27.983  1.00  0.00    -0.352 N 
ATOM     37  C   UNL A   1      34.950  31.147  28.907  1.00  0.00     0.251 C 
ATOM     38  H   UNL A   1      33.214  31.683  28.062  1.00  0.00     0.163 HD
ATOM     39  O   UNL A   1      34.861  32.027  29.761  1.00  0.00    -0.269 OA
BRANCH  37  40
ATOM     40  C   UNL A   1      36.109  30.214  28.941  1.00  0.00     0.039 A 
ATOM     41  C   UNL A   1      36.884  30.096  27.780  1.00  0.00     0.014 A 
ATOM     42  C   UNL A   1      36.490  29.510  30.086  1.00  0.00     0.014 A 
ATOM     43  C   UNL A   1      38.118  29.452  27.829  1.00  0.00     0.010 A 
ATOM     44  C   UNL A   1      37.753  28.949  30.170  1.00  0.00     0.010 A 
ATOM     45  C   UNL A   1      38.600  28.989  29.061  1.00  0.00    -0.014 A 
BRANCH  45  46
ATOM     46  C   UNL A   1      40.048  28.802  29.289  1.00  0.00     0.031 A 
ATOM     47  C   UNL A   1      40.911  29.940  29.732  1.00  0.00     0.074 A 
ATOM     48  C   UNL A   1      40.568  27.620  28.894  1.00  0.00     0.049 A 
ATOM     49  N   UNL A   1      42.204  29.963  29.901  1.00  0.00    -0.248 NA
ATOM     50  C   UNL A   1      40.247  31.232  29.975  1.00  0.00     0.031 C 
ATOM     51  C   UNL A   1      39.797  26.516  28.302  1.00  0.00     0.029 A 
ATOM     52  N   UNL A   1      41.853  27.150  28.892  1.00  0.00    -0.354 N 
ATOM     53  C   UNL A   1      42.515  31.267  30.263  1.00  0.00     0.074 A 
ATOM     54  C   UNL A   1      41.280  32.020  30.243  1.00  0.00     0.031 C 
ATOM     55  C   UNL A   1      40.620  25.497  28.017  1.00  0.00     0.029 A 
ATOM     56  C   UNL A   1      41.976  25.882  28.369  1.00  0.00     0.049 A 
ATOM     57  H   UNL A   1      42.618  27.669  29.232  1.00  0.00     0.167 HD
ATOM     58  C   UNL A   1      43.727  31.770  30.593  1.00  0.00     0.037 A 
ATOM     59  C   UNL A   1      43.068  25.118  28.189  1.00  0.00     0.037 A 
ATOM     60  C   UNL A   1      44.929  30.974  30.603  1.00  0.00     0.049 A 
ATOM     61  C   UNL A   1      44.385  25.676  28.643  1.00  0.00     0.074 A 
ATOM     62  C   UNL A   1      46.198  31.333  31.016  1.00  0.00     0.029 A 
ATOM     63  N   UNL A   1      45.007  29.658  30.162  1.00  0.00    -0.354 N 
ATOM     64  N   UNL A   1      44.643  26.870  29.126  1.00  0.00    -0.248 NA
ATOM     65  C   UNL A   1      45.551  24.793  28.553  1.00  0.00     0.031 C 
ATOM     66  C   UNL A   1      47.054  30.254  30.775  1.00  0.00     0.029 A 
ATOM     67  C   UNL A   1      46.309  29.199  30.271  1.00  0.00     0.049 A 
ATOM     68  H   UNL A   1      44.249  29.129  29.823  1.00  0.00     0.167 HD
ATOM     69  C   UNL A   1      45.999  26.874  29.420  1.00  0.00     0.074 A 
ATOM     70  C   UNL A   1      46.498  25.555  29.081  1.00  0.00     0.031 C 
ATOM     71  C   UNL A   1      46.764  27.875  29.922  1.00  0.00     0.037 A 
BRANCH  58  72
ATOM     72  C   UNL A   1      43.821  33.220  30.982  1.00  0.00     0.058 A 
ATOM     73  C   UNL A   1      43.640  33.642  32.310  1.00  0.00     0.135 A 
ATOM     74  C   UNL A   1      44.176  34.195  30.035  1.00  0.00     0.135 A 
ATOM     75  F   UNL A   1      43.285  32.760  33.258  1.00  0.00    -0.206 F 
ATOM     76  C   UNL A   1      43.800  34.973  32.682  1.00  0.00     0.059 A 
ATOM     77  C   UNL A   1      44.367  35.528  30.389  1.00  0.00     0.059 A 
ATOM     78  F   UNL A   1      44.354  33.853  28.749  1.00  0.00    -0.206 F 
ATOM     79  C   UNL A   1      44.174  35.908  31.715  1.00  0.00     0.060 A 
BRANCH  79  80
ATOM     80  S   UNL A   1      44.432  37.620  32.229  1.00  0.00     0.124 S 
ATOM     81  O   UNL A   1      45.887  37.678  32.336  1.00  0.00    -0.237 OA
ATOM     82  O   UNL A   1      43.849  38.368  31.120  1.00  0.00    -0.237 OA
ATOM     83  O   UNL A   1      43.708  37.710  33.493  1.00  0.00    -0.744 OA
ENDBRANCH  79  80
ENDBRANCH  58  72
BRANCH  59  84
ATOM     84  C   UNL A   1      42.947  23.758  27.595  1.00  0.00     0.058 A 
ATOM     85  C   UNL A   1      42.581  22.653  28.380  1.00  0.00     0.135 A 
ATOM     86  C   UNL A   1      43.166  23.538  26.226  1.00  0.00     0.135 A 
ATOM     87  F   UNL A   1      42.346  22.811  29.691  1.00  0.00    -0.206 F 
ATOM     88  C   UNL A   1      42.475  21.376  27.839  1.00  0.00     0.059 A 
ATOM     89  C   UNL A   1      43.037  22.274  25.655  1.00  0.00     0.059 A 
ATOM     90  F   UNL A   1      43.482  24.564  25.421  1.00  0.00    -0.206 F 
ATOM     91  C   UNL A   1      42.710  21.195  26.475  1.00  0.00     0.060 A 
BRANCH  91  92
ATOM     92  S   UNL A   1      42.561  19.534  25.781  1.00  0.00     0.124 S 
ATOM     93  O   UNL A   1      41.147  19.490  25.430  1.00  0.00    -0.237 OA
ATOM     94  O   UNL A   1      43.496  19.584  24.661  1.00  0.00    -0.237 OA
ATOM     95  O   UNL A   1      42.964  18.671  26.886  1.00  0.00    -0.744 OA
ENDBRANCH  91  92
ENDBRANCH  59  84
BRANCH  71  96
ATOM     96  C   UNL A   1      48.211  27.560  30.160  1.00  0.00     0.058 A 
ATOM     97  C   UNL A   1      48.634  26.863  31.303  1.00  0.00     0.135 A 
ATOM     98  C   UNL A   1      49.177  27.921  29.209  1.00  0.00     0.135 A 
ATOM     99  F   UNL A   1      47.747  26.506  32.245  1.00  0.00    -0.206 F 
ATOM    100  C   UNL A   1      49.974  26.558  31.507  1.00  0.00     0.059 A 
ATOM    101  C   UNL A   1      50.518  27.596  29.376  1.00  0.00     0.059 A 
ATOM    102  F   UNL A   1      48.819  28.581  28.096  1.00  0.00    -0.206 F 
ATOM    103  C   UNL A   1      50.907  26.925  30.535  1.00  0.00     0.060 A 
BRANCH 103 104
ATOM    104  S   UNL A   1      52.637  26.491  30.796  1.00  0.00     0.124 S 
ATOM    105  O   UNL A   1      53.190  27.756  31.267  1.00  0.00    -0.237 OA
ATOM    106  O   UNL A   1      52.545  25.429  31.793  1.00  0.00    -0.237 OA
ATOM    107  O   UNL A   1      53.084  26.064  29.474  1.00  0.00    -0.744 OA
ENDBRANCH 103 104
ENDBRANCH  71  96
ENDBRANCH  45  46
ENDBRANCH  37  40
ENDBRANCH  35  36
ENDBRANCH   1  35
TORSDOF 17
ENDMDL
MODEL 3
REMARK VINA RESULT:     -12.3      1.412      2.180
REMARK SMILES COc1ccc(N2C(=O)/C(=C/c3c(C(=O)NCCCNC(=O)c4ccc(-c5c6nc(c(-c7c(F)cc(S(=O)(=O)[O-])cc7F)c7ccc([nH]7)c(-c7c(F)cc(S(=O)(=O)[O-])cc7F)c7nc(c(-c8c(F)cc(S(=O)(=O)[O-])cc8F)c8ccc5[nH]8)C=C7)C=C6)cc4)[nH]c4cc(OC)ccc34)SC2=S)cc1
REMARK SMILES IDX 18 1 17 2 16 3 14 4 15 5 13 7 12 8 97 9 89 10 90 11 96 12
REMARK SMILES IDX 91 14 95 15 92 16 11 17 7 18 8 19 99 20 9 21 10 22 98 23
REMARK SMILES IDX 100 24 6 25 3 26 4 27 102 28 5 29 101 30 2 31 1 32 93 33
REMARK SMILES IDX 94 34 19 35 20 36 21 37 22 39 23 40 24 41 88 42 25 43 87 44
REMARK SMILES IDX 26 45 27 46 28 47 81 48 29 49 86 50 80 51 82 52 30 53 85 54
REMARK SMILES IDX 79 55 78 56 31 58 65 59 44 60 64 61 45 62 48 63 63 64 83 65
REMARK SMILES IDX 46 66 47 67 62 69 84 70 49 71 32 72 33 73 42 74 34 75 35 76
REMARK SMILES IDX 41 77 43 78 36 79 37 80 38 81 39 82 40 83 66 84 67 85 76 86
REMARK SMILES IDX 68 87 69 88 75 89 77 90 70 91 71 92 72 93 73 94 74 95 50 96
REMARK SMILES IDX 51 97 60 98 52 99 53 100 59 101 61 102 54 103 55 104 56 105
REMARK SMILES IDX 57 106 58 107
REMARK H PARENT 16 6 89 13 20 38 82 57 48 68
REMARK Flexibility Score: inf
ROOT
ATOM      1  C   UNL A   1      33.611  28.762  27.317  1.00  0.00     0.042 C 
ENDROOT
BRANCH   1   2
ATOM      2  C   UNL A   1      33.552  27.782  26.162  1.00  0.00     0.118 C 
BRANCH   2   3
ATOM      3  N   UNL A   1      34.197  28.244  24.945  1.00  0.00    -0.351 N 
ATOM      4  C   UNL A   1      33.590  28.594  23.761  1.00  0.00     0.268 C 
ATOM      5  O   UNL A   1      34.288  28.753  22.766  1.00  0.00    -0.268 OA
ATOM      6  H   UNL A   1      35.178  28.316  24.970  1.00  0.00     0.163 HD
BRANCH   4   7
ATOM      7  C   UNL A   1      32.148  28.654  23.706  1.00  0.00     0.112 A 
ATOM      8  C   UNL A   1      31.143  27.835  23.175  1.00  0.00     0.014 A 
ATOM      9  C   UNL A   1      29.981  28.706  23.037  1.00  0.00     0.008 A 
ATOM     10  N   UNL A   1      31.516  29.713  24.298  1.00  0.00    -0.350 N 
ATOM     11  C   UNL A   1      30.288  29.882  23.728  1.00  0.00     0.050 A 
ATOM     12  C   UNL A   1      28.721  28.695  22.379  1.00  0.00     0.015 A 
ATOM     13  H   UNL A   1      31.888  30.265  25.024  1.00  0.00     0.167 HD
ATOM     14  C   UNL A   1      29.479  31.018  23.770  1.00  0.00     0.073 A 
ATOM     15  C   UNL A   1      27.889  29.855  22.396  1.00  0.00     0.047 A 
ATOM     16  C   UNL A   1      28.276  31.007  23.077  1.00  0.00     0.120 A 
BRANCH   8  17
ATOM     17  C   UNL A   1      31.434  26.503  22.657  1.00  0.00     0.032 C 
ATOM     18  N   UNL A   1      32.581  23.468  24.298  1.00  0.00    -0.261 N 
ATOM     19  C   UNL A   1      32.338  24.170  23.106  1.00  0.00     0.270 C 
ATOM     20  C   UNL A   1      31.897  23.914  25.419  1.00  0.00     0.152 C 
ATOM     21  O   UNL A   1      32.865  24.002  22.014  1.00  0.00    -0.268 OA
ATOM     22  C   UNL A   1      31.438  25.357  23.388  1.00  0.00     0.081 C 
ATOM     23  S   UNL A   1      30.719  25.128  24.940  1.00  0.00    -0.054 SA
ATOM     24  S   UNL A   1      32.025  23.430  27.015  1.00  0.00    -0.051 S 
BRANCH  18  25
ATOM     25  C   UNL A   1      33.537  22.404  24.379  1.00  0.00     0.051 A 
ATOM     26  C   UNL A   1      35.404  20.307  24.796  1.00  0.00     0.119 A 
ATOM     27  C   UNL A   1      35.814  21.637  24.810  1.00  0.00     0.048 A 
ATOM     28  C   UNL A   1      34.050  20.025  24.628  1.00  0.00     0.048 A 
ATOM     29  C   UNL A   1      34.892  22.676  24.610  1.00  0.00     0.030 A 
ATOM     30  C   UNL A   1      33.122  21.066  24.406  1.00  0.00     0.030 A 
BRANCH  26  31
ATOM     31  O   UNL A   1      36.403  19.396  24.998  1.00  0.00    -0.497 OA
ATOM     32  C   UNL A   1      37.735  19.895  25.000  1.00  0.00     0.278 C 
ENDBRANCH  26  31
ENDBRANCH  18  25
ENDBRANCH   8  17
BRANCH  16  33
ATOM     33  O   UNL A   1      27.647  32.220  23.095  1.00  0.00    -0.497 OA
ATOM     34  C   UNL A   1      28.401  33.369  22.751  1.00  0.00     0.278 C 
ENDBRANCH  16  33
ENDBRANCH   4   7
ENDBRANCH   2   3
ENDBRANCH   1   2
BRANCH   1  35
ATOM     35  C   UNL A   1      34.871  29.616  27.325  1.00  0.00     0.118 C 
BRANCH  35  36
ATOM     36  N   UNL A   1      35.227  30.196  28.614  1.00  0.00    -0.352 N 
ATOM     37  C   UNL A   1      36.401  30.112  29.333  1.00  0.00     0.251 C 
ATOM     38  H   UNL A   1      34.518  30.732  29.038  1.00  0.00     0.163 HD
ATOM     39  O   UNL A   1      36.458  30.656  30.435  1.00  0.00    -0.269 OA
BRANCH  37  40
ATOM     40  C   UNL A   1      37.569  29.329  28.848  1.00  0.00     0.039 A 
ATOM     41  C   UNL A   1      38.145  29.706  27.628  1.00  0.00     0.014 A 
ATOM     42  C   UNL A   1      38.148  28.288  29.578  1.00  0.00     0.014 A 
ATOM     43  C   UNL A   1      39.383  29.191  27.253  1.00  0.00     0.010 A 
ATOM     44  C   UNL A   1      39.419  27.840  29.262  1.00  0.00     0.010 A 
ATOM     45  C   UNL A   1      40.071  28.351  28.139  1.00  0.00    -0.014 A 
BRANCH  45  46
ATOM     46  C   UNL A   1      41.540  28.211  28.067  1.00  0.00     0.031 A 
ATOM     47  C   UNL A   1      42.170  26.941  27.590  1.00  0.00     0.074 A 
ATOM     48  C   UNL A   1      42.264  29.202  28.630  1.00  0.00     0.049 A 
ATOM     49  N   UNL A   1      43.436  26.629  27.540  1.00  0.00    -0.248 NA
ATOM     50  C   UNL A   1      41.265  25.865  27.153  1.00  0.00     0.031 C 
ATOM     51  C   UNL A   1      41.699  30.405  29.259  1.00  0.00     0.029 A 
ATOM     52  N   UNL A   1      43.613  29.356  28.800  1.00  0.00    -0.354 N 
ATOM     53  C   UNL A   1      43.484  25.321  27.075  1.00  0.00     0.074 A 
ATOM     54  C   UNL A   1      42.117  24.881  26.902  1.00  0.00     0.031 C 
ATOM     55  C   UNL A   1      42.691  31.177  29.724  1.00  0.00     0.029 A 
ATOM     56  C   UNL A   1      43.958  30.514  29.462  1.00  0.00     0.049 A 
ATOM     57  H   UNL A   1      44.275  28.701  28.481  1.00  0.00     0.167 HD
ATOM     58  C   UNL A   1      44.582  24.577  26.809  1.00  0.00     0.037 A 
ATOM     59  C   UNL A   1      45.165  30.983  29.821  1.00  0.00     0.037 A 
ATOM     60  C   UNL A   1      45.925  25.066  26.994  1.00  0.00     0.049 A 
ATOM     61  C   UNL A   1      46.366  30.169  29.436  1.00  0.00     0.074 A 
ATOM     62  C   UNL A   1      47.119  24.453  26.665  1.00  0.00     0.029 A 
ATOM     63  N   UNL A   1      46.247  26.287  27.574  1.00  0.00    -0.354 N 
ATOM     64  N   UNL A   1      46.403  28.991  28.858  1.00  0.00    -0.248 NA
ATOM     65  C   UNL A   1      47.682  30.744  29.725  1.00  0.00     0.031 C 
ATOM     66  C   UNL A   1      48.164  25.279  27.096  1.00  0.00     0.029 A 
ATOM     67  C   UNL A   1      47.621  26.436  27.636  1.00  0.00     0.049 A 
ATOM     68  H   UNL A   1      45.593  26.951  27.895  1.00  0.00     0.167 HD
ATOM     69  C   UNL A   1      47.747  28.692  28.692  1.00  0.00     0.074 A 
ATOM     70  C   UNL A   1      48.488  29.826  29.212  1.00  0.00     0.031 C 
ATOM     71  C   UNL A   1      48.320  27.584  28.161  1.00  0.00     0.037 A 
BRANCH  58  72
ATOM     72  C   UNL A   1      44.392  23.181  26.281  1.00  0.00     0.058 A 
ATOM     73  C   UNL A   1      44.774  22.825  24.977  1.00  0.00     0.135 A 
ATOM     74  C   UNL A   1      43.895  22.162  27.111  1.00  0.00     0.135 A 
ATOM     75  F   UNL A   1      45.241  23.758  24.130  1.00  0.00    -0.206 F 
ATOM     76  C   UNL A   1      44.665  21.518  24.514  1.00  0.00     0.059 A 
ATOM     77  C   UNL A   1      43.802  20.841  26.678  1.00  0.00     0.059 A 
ATOM     78  F   UNL A   1      43.505  22.443  28.365  1.00  0.00    -0.206 F 
ATOM     79  C   UNL A   1      44.187  20.530  25.376  1.00  0.00     0.060 A 
BRANCH  79  80
ATOM     80  S   UNL A   1      44.108  18.828  24.775  1.00  0.00     0.124 S 
ATOM     81  O   UNL A   1      44.153  19.025  23.330  1.00  0.00    -0.237 OA
ATOM     82  O   UNL A   1      45.301  18.234  25.370  1.00  0.00    -0.237 OA
ATOM     83  O   UNL A   1      42.838  18.339  25.302  1.00  0.00    -0.744 OA
ENDBRANCH  79  80
ENDBRANCH  58  72
BRANCH  59  84
ATOM     84  C   UNL A   1      45.286  32.281  30.540  1.00  0.00     0.058 A 
ATOM     85  C   UNL A   1      45.322  32.334  31.942  1.00  0.00     0.135 A 
ATOM     86  C   UNL A   1      45.396  33.495  29.842  1.00  0.00     0.135 A 
ATOM     87  F   UNL A   1      45.234  31.202  32.658  1.00  0.00    -0.206 F 
ATOM     88  C   UNL A   1      45.423  33.542  32.626  1.00  0.00     0.059 A 
ATOM     89  C   UNL A   1      45.528  34.713  30.503  1.00  0.00     0.059 A 
ATOM     90  F   UNL A   1      45.405  33.501  28.500  1.00  0.00    -0.206 F 
ATOM     91  C   UNL A   1      45.521  34.728  31.896  1.00  0.00     0.060 A 
BRANCH  91  92
ATOM     92  S   UNL A   1      45.661  36.290  32.794  1.00  0.00     0.124 S 
ATOM     93  O   UNL A   1      44.673  37.111  32.105  1.00  0.00    -0.237 OA
ATOM     94  O   UNL A   1      45.321  35.891  34.156  1.00  0.00    -0.237 OA
ATOM     95  O   UNL A   1      47.054  36.672  32.588  1.00  0.00    -0.744 OA
ENDBRANCH  91  92
ENDBRANCH  59  84
BRANCH  71  96
ATOM     96  C   UNL A   1      49.818  27.568  28.093  1.00  0.00     0.058 A 
ATOM     97  C   UNL A   1      50.509  28.060  26.975  1.00  0.00     0.135 A 
ATOM     98  C   UNL A   1      50.569  27.097  29.181  1.00  0.00     0.135 A 
ATOM     99  F   UNL A   1      49.833  28.511  25.906  1.00  0.00    -0.206 F 
ATOM    100  C   UNL A   1      51.897  28.060  26.926  1.00  0.00     0.059 A 
ATOM    101  C   UNL A   1      51.958  27.120  29.169  1.00  0.00     0.059 A 
ATOM    102  F   UNL A   1      49.953  26.625  30.276  1.00  0.00    -0.206 F 
ATOM    103  C   UNL A   1      52.612  27.591  28.031  1.00  0.00     0.060 A 
BRANCH 103 104
ATOM    104  S   UNL A   1      54.414  27.632  27.969  1.00  0.00     0.124 S 
ATOM    105  O   UNL A   1      54.700  28.919  28.592  1.00  0.00    -0.237 OA
ATOM    106  O   UNL A   1      54.778  26.454  28.750  1.00  0.00    -0.237 OA
ATOM    107  O   UNL A   1      54.707  27.546  26.542  1.00  0.00    -0.744 OA
ENDBRANCH 103 104
ENDBRANCH  71  96
ENDBRANCH  45  46
ENDBRANCH  37  40
ENDBRANCH  35  36
ENDBRANCH   1  35
TORSDOF 17
ENDMDL
