MODEL 1
REMARK VINA RESULT:     -12.7      0.000      0.000
REMARK SMILES O=C(NCCCNC(=O)c1cn(C2CC2)c2cc(N3CC[NH2+]CC3)ccc2c1=O)c1ccc(-c2c3nc(c(-c4c(F)cc(S(=O)(=O)[O-])cc4F)c4ccc([nH]4)c(-c4c(F)cc(S(=O)(=O)[O-])cc4F)c4nc(c(-c5c(F)cc(S(=O)(=O)[O-])cc5F)c5ccc2[nH]5)C=C4)C=C3)cc1
REMARK SMILES IDX 4 1 3 2 1 3 2 4 30 6 31 7 95 8 32 9 94 10 33 11 34 12 35 13
REMARK SMILES IDX 88 14 36 15 93 16 87 17 89 18 37 19 92 20 86 21 85 22 38 24
REMARK SMILES IDX 72 25 51 26 71 27 52 28 55 29 70 30 90 31 53 32 54 33 69 35
REMARK SMILES IDX 91 36 56 37 39 38 40 39 49 40 41 41 42 42 48 43 50 44 43 45
REMARK SMILES IDX 44 46 45 47 46 48 47 49 73 50 74 51 83 52 75 53 76 54 82 55
REMARK SMILES IDX 84 56 77 57 78 58 79 59 80 60 81 61 57 62 58 63 67 64 59 65
REMARK SMILES IDX 60 66 66 67 68 68 61 69 62 70 63 71 64 72 65 73 5 74 6 75
REMARK SMILES IDX 7 76 8 77 9 79 10 80 11 81 28 82 12 83 27 84 29 85 16 86
REMARK SMILES IDX 26 87 17 88 25 89 18 90 13 91 14 92 15 93 19 94 20 95 24 96
REMARK SMILES IDX 21 97 23 98 22 99
REMARK H PARENT 3 5 89 23 55 34 7 78 22 100 22 101
REMARK Flexibility Score: inf
ROOT
ATOM      1  C   UNL A   1      33.259  28.423  27.270  1.00  0.00     0.118 C 
ENDROOT
BRANCH   1   2
ATOM      2  N   UNL A   1      33.279  29.844  27.583  1.00  0.00    -0.352 N 
ATOM      3  O   UNL A   1      33.968  31.763  28.506  1.00  0.00    -0.269 OA
ATOM      4  C   UNL A   1      34.257  30.624  28.141  1.00  0.00     0.251 C 
ATOM      5  H   UNL A   1      32.450  30.325  27.355  1.00  0.00     0.163 HD
BRANCH   4   6
ATOM      6  C   UNL A   1      35.642  30.126  28.312  1.00  0.00     0.039 A 
ATOM      7  C   UNL A   1      36.044  29.678  29.575  1.00  0.00     0.014 A 
ATOM      8  C   UNL A   1      36.572  30.181  27.270  1.00  0.00     0.014 A 
ATOM      9  C   UNL A   1      37.363  29.266  29.787  1.00  0.00     0.010 A 
ATOM     10  C   UNL A   1      37.865  29.699  27.460  1.00  0.00     0.010 A 
ATOM     11  C   UNL A   1      38.281  29.268  28.729  1.00  0.00    -0.014 A 
BRANCH  11  12
ATOM     12  C   UNL A   1      39.713  28.936  28.939  1.00  0.00     0.031 A 
ATOM     13  C   UNL A   1      40.623  29.969  29.546  1.00  0.00     0.074 A 
ATOM     14  C   UNL A   1      40.203  27.741  28.565  1.00  0.00     0.049 A 
ATOM     15  N   UNL A   1      41.922  29.950  29.690  1.00  0.00    -0.248 NA
ATOM     16  C   UNL A   1      39.981  31.200  30.038  1.00  0.00     0.031 C 
ATOM     17  C   UNL A   1      39.424  26.647  27.984  1.00  0.00     0.029 A 
ATOM     18  N   UNL A   1      41.482  27.248  28.621  1.00  0.00    -0.354 N 
ATOM     19  C   UNL A   1      42.256  31.170  30.269  1.00  0.00     0.074 A 
ATOM     20  C   UNL A   1      41.027  31.923  30.404  1.00  0.00     0.031 C 
ATOM     21  C   UNL A   1      40.235  25.599  27.768  1.00  0.00     0.029 A 
ATOM     22  C   UNL A   1      41.598  25.962  28.151  1.00  0.00     0.049 A 
ATOM     23  H   UNL A   1      42.244  27.766  28.965  1.00  0.00     0.167 HD
ATOM     24  C   UNL A   1      43.469  31.616  30.673  1.00  0.00     0.037 A 
ATOM     25  C   UNL A   1      42.682  25.172  28.035  1.00  0.00     0.037 A 
ATOM     26  C   UNL A   1      44.685  30.857  30.558  1.00  0.00     0.049 A 
ATOM     27  C   UNL A   1      44.028  25.700  28.447  1.00  0.00     0.074 A 
ATOM     28  C   UNL A   1      45.968  31.219  30.927  1.00  0.00     0.029 A 
ATOM     29  N   UNL A   1      44.765  29.569  30.045  1.00  0.00    -0.354 N 
ATOM     30  N   UNL A   1      44.335  26.872  28.949  1.00  0.00    -0.248 NA
ATOM     31  C   UNL A   1      45.176  24.802  28.264  1.00  0.00     0.031 C 
ATOM     32  C   UNL A   1      46.828  30.157  30.619  1.00  0.00     0.029 A 
ATOM     33  C   UNL A   1      46.074  29.122  30.086  1.00  0.00     0.049 A 
ATOM     34  H   UNL A   1      44.002  29.050  29.701  1.00  0.00     0.167 HD
ATOM     35  C   UNL A   1      45.710  26.849  29.156  1.00  0.00     0.074 A 
ATOM     36  C   UNL A   1      46.172  25.541  28.734  1.00  0.00     0.031 C 
ATOM     37  C   UNL A   1      46.516  27.821  29.651  1.00  0.00     0.037 A 
BRANCH  24  38
ATOM     38  C   UNL A   1      43.520  32.992  31.272  1.00  0.00     0.058 A 
ATOM     39  C   UNL A   1      43.703  34.131  30.471  1.00  0.00     0.135 A 
ATOM     40  C   UNL A   1      43.420  33.175  32.660  1.00  0.00     0.135 A 
ATOM     41  F   UNL A   1      43.826  34.009  29.141  1.00  0.00    -0.206 F 
ATOM     42  C   UNL A   1      43.834  35.398  31.030  1.00  0.00     0.059 A 
ATOM     43  C   UNL A   1      43.523  34.438  33.238  1.00  0.00     0.059 A 
ATOM     44  F   UNL A   1      43.246  32.120  33.471  1.00  0.00    -0.206 F 
ATOM     45  C   UNL A   1      43.754  35.540  32.415  1.00  0.00     0.060 A 
BRANCH  45  46
ATOM     46  S   UNL A   1      43.969  37.183  33.131  1.00  0.00     0.124 S 
ATOM     47  O   UNL A   1      44.014  38.017  31.933  1.00  0.00    -0.237 OA
ATOM     48  O   UNL A   1      42.775  37.326  33.957  1.00  0.00    -0.237 OA
ATOM     49  O   UNL A   1      45.225  37.070  33.866  1.00  0.00    -0.744 OA
ENDBRANCH  45  46
ENDBRANCH  24  38
BRANCH  25  50
ATOM     50  C   UNL A   1      42.524  23.781  27.540  1.00  0.00     0.058 A 
ATOM     51  C   UNL A   1      42.599  23.503  26.168  1.00  0.00     0.135 A 
ATOM     52  C   UNL A   1      42.351  22.702  28.420  1.00  0.00     0.135 A 
ATOM     53  F   UNL A   1      42.753  24.506  25.290  1.00  0.00    -0.206 F 
ATOM     54  C   UNL A   1      42.521  22.203  25.683  1.00  0.00     0.059 A 
ATOM     55  C   UNL A   1      42.286  21.390  27.960  1.00  0.00     0.059 A 
ATOM     56  F   UNL A   1      42.283  22.917  29.743  1.00  0.00    -0.206 F 
ATOM     57  C   UNL A   1      42.374  21.152  26.589  1.00  0.00     0.060 A 
BRANCH  57  58
ATOM     58  S   UNL A   1      42.368  19.461  25.953  1.00  0.00     0.124 S 
ATOM     59  O   UNL A   1      40.957  19.267  25.640  1.00  0.00    -0.237 OA
ATOM     60  O   UNL A   1      43.269  19.562  24.809  1.00  0.00    -0.237 OA
ATOM     61  O   UNL A   1      42.880  18.678  27.075  1.00  0.00    -0.744 OA
ENDBRANCH  57  58
ENDBRANCH  25  50
BRANCH  37  62
ATOM     62  C   UNL A   1      47.978  27.502  29.772  1.00  0.00     0.058 A 
ATOM     63  C   UNL A   1      48.869  27.736  28.714  1.00  0.00     0.135 A 
ATOM     64  C   UNL A   1      48.500  26.993  30.971  1.00  0.00     0.135 A 
ATOM     65  F   UNL A   1      48.416  28.216  27.545  1.00  0.00    -0.206 F 
ATOM     66  C   UNL A   1      50.226  27.458  28.832  1.00  0.00     0.059 A 
ATOM     67  C   UNL A   1      49.857  26.726  31.119  1.00  0.00     0.059 A 
ATOM     68  F   UNL A   1      47.690  26.759  32.016  1.00  0.00    -0.206 F 
ATOM     69  C   UNL A   1      50.711  26.950  30.040  1.00  0.00     0.060 A 
BRANCH  69  70
ATOM     70  S   UNL A   1      52.478  26.613  30.191  1.00  0.00     0.124 S 
ATOM     71  O   UNL A   1      52.974  27.879  30.722  1.00  0.00    -0.237 OA
ATOM     72  O   UNL A   1      52.505  25.484  31.114  1.00  0.00    -0.237 OA
ATOM     73  O   UNL A   1      52.883  26.304  28.822  1.00  0.00    -0.744 OA
ENDBRANCH  69  70
ENDBRANCH  37  62
ENDBRANCH  11  12
ENDBRANCH   4   6
ENDBRANCH   1   2
BRANCH   1  74
ATOM     74  C   UNL A   1      31.862  27.915  26.942  1.00  0.00     0.042 C 
BRANCH  74  75
ATOM     75  C   UNL A   1      31.803  26.909  25.802  1.00  0.00     0.118 C 
BRANCH  75  76
ATOM     76  N   UNL A   1      32.587  27.305  24.639  1.00  0.00    -0.352 N 
ATOM     77  C   UNL A   1      33.409  26.551  23.845  1.00  0.00     0.256 C 
ATOM     78  H   UNL A   1      32.514  28.254  24.387  1.00  0.00     0.163 HD
ATOM     79  O   UNL A   1      33.978  27.065  22.885  1.00  0.00    -0.269 OA
BRANCH  77  80
ATOM     80  C   UNL A   1      33.545  25.115  24.144  1.00  0.00     0.104 A 
ATOM     81  C   UNL A   1      34.463  24.728  25.041  1.00  0.00     0.104 A 
ATOM     82  C   UNL A   1      32.731  24.075  23.486  1.00  0.00     0.202 A 
ATOM     83  N   UNL A   1      34.803  23.426  25.348  1.00  0.00    -0.343 N 
ATOM     84  C   UNL A   1      32.967  22.670  23.904  1.00  0.00     0.047 A 
ATOM     85  O   UNL A   1      31.910  24.337  22.613  1.00  0.00    -0.288 OA
ATOM     86  C   UNL A   1      33.988  22.374  24.829  1.00  0.00     0.054 A 
ATOM     87  C   UNL A   1      32.189  21.655  23.339  1.00  0.00     0.016 A 
ATOM     88  C   UNL A   1      34.163  21.028  25.191  1.00  0.00     0.053 A 
ATOM     89  C   UNL A   1      32.427  20.324  23.681  1.00  0.00     0.027 A 
ATOM     90  C   UNL A   1      33.416  19.989  24.609  1.00  0.00     0.039 A 
BRANCH  83  91
ATOM     91  C   UNL A   1      36.103  23.141  26.012  1.00  0.00     0.087 C 
ATOM     92  C   UNL A   1      37.369  22.719  25.306  1.00  0.00     0.027 C 
ATOM     93  C   UNL A   1      37.266  24.090  25.909  1.00  0.00     0.027 C 
ENDBRANCH  83  91
BRANCH  90  94
ATOM     94  N   UNL A   1      33.682  18.680  24.953  1.00  0.00    -0.360 N 
ATOM     95  C   UNL A   1      32.750  17.960  25.825  1.00  0.00     0.178 C 
ATOM     96  C   UNL A   1      34.635  17.868  24.189  1.00  0.00     0.178 C 
ATOM     97  C   UNL A   1      32.101  16.785  25.056  1.00  0.00     0.282 C 
ATOM     98  C   UNL A   1      33.926  16.685  23.495  1.00  0.00     0.282 C 
ATOM     99  N   UNL A   1      33.081  15.883  24.410  1.00  0.00    -0.343 N 
ATOM    100  H   UNL A   1      32.590  15.162  23.881  1.00  0.00     0.346 HD
ATOM    101  H   UNL A   1      33.661  15.433  25.118  1.00  0.00     0.346 HD
ENDBRANCH  90  94
ENDBRANCH  77  80
ENDBRANCH  75  76
ENDBRANCH  74  75
ENDBRANCH   1  74
TORSDOF 15
ENDMDL
MODEL 2
REMARK VINA RESULT:     -12.2      3.244      9.793
REMARK SMILES O=C(NCCCNC(=O)c1cn(C2CC2)c2cc(N3CC[NH2+]CC3)ccc2c1=O)c1ccc(-c2c3nc(c(-c4c(F)cc(S(=O)(=O)[O-])cc4F)c4ccc([nH]4)c(-c4c(F)cc(S(=O)(=O)[O-])cc4F)c4nc(c(-c5c(F)cc(S(=O)(=O)[O-])cc5F)c5ccc2[nH]5)C=C4)C=C3)cc1
REMARK SMILES IDX 4 1 3 2 1 3 2 4 30 6 31 7 95 8 32 9 94 10 33 11 34 12 35 13
REMARK SMILES IDX 88 14 36 15 93 16 87 17 89 18 37 19 92 20 86 21 85 22 38 24
REMARK SMILES IDX 72 25 51 26 71 27 52 28 55 29 70 30 90 31 53 32 54 33 69 35
REMARK SMILES IDX 91 36 56 37 39 38 40 39 49 40 41 41 42 42 48 43 50 44 43 45
REMARK SMILES IDX 44 46 45 47 46 48 47 49 73 50 74 51 83 52 75 53 76 54 82 55
REMARK SMILES IDX 84 56 77 57 78 58 79 59 80 60 81 61 57 62 58 63 67 64 59 65
REMARK SMILES IDX 60 66 66 67 68 68 61 69 62 70 63 71 64 72 65 73 5 74 6 75
REMARK SMILES IDX 7 76 8 77 9 79 10 80 11 81 28 82 12 83 27 84 29 85 16 86
REMARK SMILES IDX 26 87 17 88 25 89 18 90 13 91 14 92 15 93 19 94 20 95 24 96
REMARK SMILES IDX 21 97 23 98 22 99
REMARK H PARENT 3 5 89 23 55 34 7 78 22 100 22 101
REMARK Flexibility Score: inf
ROOT
ATOM      1  C   UNL A   1      36.839  23.693  24.932  1.00  0.00     0.118 C 
ENDROOT
BRANCH   1   2
ATOM      2  N   UNL A   1      37.867  22.734  25.307  1.00  0.00    -0.352 N 
ATOM      3  O   UNL A   1      39.848  21.981  26.028  1.00  0.00    -0.269 OA
ATOM      4  C   UNL A   1      39.028  22.898  26.018  1.00  0.00     0.251 C 
ATOM      5  H   UNL A   1      37.702  21.814  24.997  1.00  0.00     0.163 HD
BRANCH   4   6
ATOM      6  C   UNL A   1      39.307  24.145  26.767  1.00  0.00     0.039 A 
ATOM      7  C   UNL A   1      40.067  25.144  26.148  1.00  0.00     0.014 A 
ATOM      8  C   UNL A   1      38.910  24.304  28.098  1.00  0.00     0.014 A 
ATOM      9  C   UNL A   1      40.407  26.304  26.850  1.00  0.00     0.010 A 
ATOM     10  C   UNL A   1      39.183  25.492  28.772  1.00  0.00     0.010 A 
ATOM     11  C   UNL A   1      39.962  26.488  28.166  1.00  0.00    -0.014 A 
BRANCH  11  12
ATOM     12  C   UNL A   1      40.389  27.656  28.976  1.00  0.00     0.031 A 
ATOM     13  C   UNL A   1      41.748  27.644  29.621  1.00  0.00     0.074 A 
ATOM     14  C   UNL A   1      39.563  28.703  29.162  1.00  0.00     0.049 A 
ATOM     15  N   UNL A   1      42.269  28.484  30.478  1.00  0.00    -0.248 NA
ATOM     16  C   UNL A   1      42.632  26.521  29.267  1.00  0.00     0.031 C 
ATOM     17  C   UNL A   1      38.229  28.845  28.577  1.00  0.00     0.029 A 
ATOM     18  N   UNL A   1      39.730  29.846  29.899  1.00  0.00    -0.354 N 
ATOM     19  C   UNL A   1      43.529  27.980  30.780  1.00  0.00     0.074 A 
ATOM     20  C   UNL A   1      43.675  26.738  30.052  1.00  0.00     0.031 C 
ATOM     21  C   UNL A   1      37.713  30.027  28.951  1.00  0.00     0.029 A 
ATOM     22  C   UNL A   1      38.657  30.702  29.838  1.00  0.00     0.049 A 
ATOM     23  H   UNL A   1      40.541  30.037  30.422  1.00  0.00     0.167 HD
ATOM     24  C   UNL A   1      44.490  28.513  31.573  1.00  0.00     0.037 A 
ATOM     25  C   UNL A   1      38.457  31.892  30.438  1.00  0.00     0.037 A 
ATOM     26  C   UNL A   1      44.353  29.758  32.279  1.00  0.00     0.049 A 
ATOM     27  C   UNL A   1      39.516  32.447  31.350  1.00  0.00     0.074 A 
ATOM     28  C   UNL A   1      45.260  30.382  33.116  1.00  0.00     0.029 A 
ATOM     29  N   UNL A   1      43.236  30.580  32.217  1.00  0.00    -0.354 N 
ATOM     30  N   UNL A   1      40.684  31.937  31.663  1.00  0.00    -0.248 NA
ATOM     31  C   UNL A   1      39.224  33.731  32.000  1.00  0.00     0.031 C 
ATOM     32  C   UNL A   1      44.683  31.573  33.575  1.00  0.00     0.029 A 
ATOM     33  C   UNL A   1      43.429  31.705  33.000  1.00  0.00     0.049 A 
ATOM     34  H   UNL A   1      42.424  30.390  31.692  1.00  0.00     0.167 HD
ATOM     35  C   UNL A   1      41.272  32.845  32.536  1.00  0.00     0.074 A 
ATOM     36  C   UNL A   1      40.335  33.940  32.692  1.00  0.00     0.031 C 
ATOM     37  C   UNL A   1      42.480  32.778  33.151  1.00  0.00     0.037 A 
BRANCH  24  38
ATOM     38  C   UNL A   1      45.766  27.733  31.709  1.00  0.00     0.058 A 
ATOM     39  C   UNL A   1      45.923  26.755  32.706  1.00  0.00     0.135 A 
ATOM     40  C   UNL A   1      46.856  27.984  30.860  1.00  0.00     0.135 A 
ATOM     41  F   UNL A   1      44.919  26.491  33.556  1.00  0.00    -0.206 F 
ATOM     42  C   UNL A   1      47.131  26.090  32.887  1.00  0.00     0.059 A 
ATOM     43  C   UNL A   1      48.065  27.312  31.008  1.00  0.00     0.059 A 
ATOM     44  F   UNL A   1      46.760  28.909  29.892  1.00  0.00    -0.206 F 
ATOM     45  C   UNL A   1      48.200  26.383  32.040  1.00  0.00     0.060 A 
BRANCH  45  46
ATOM     46  S   UNL A   1      49.775  25.545  32.314  1.00  0.00     0.124 S 
ATOM     47  O   UNL A   1      50.052  25.008  30.985  1.00  0.00    -0.237 OA
ATOM     48  O   UNL A   1      50.641  26.636  32.749  1.00  0.00    -0.237 OA
ATOM     49  O   UNL A   1      49.458  24.555  33.339  1.00  0.00    -0.744 OA
ENDBRANCH  45  46
ENDBRANCH  24  38
BRANCH  25  50
ATOM     50  C   UNL A   1      37.214  32.653  30.157  1.00  0.00     0.058 A 
ATOM     51  C   UNL A   1      37.187  33.621  29.144  1.00  0.00     0.135 A 
ATOM     52  C   UNL A   1      36.021  32.395  30.851  1.00  0.00     0.135 A 
ATOM     53  F   UNL A   1      38.307  33.907  28.462  1.00  0.00    -0.206 F 
ATOM     54  C   UNL A   1      36.020  34.301  28.817  1.00  0.00     0.059 A 
ATOM     55  C   UNL A   1      34.837  33.051  30.530  1.00  0.00     0.059 A 
ATOM     56  F   UNL A   1      35.995  31.471  31.823  1.00  0.00    -0.206 F 
ATOM     57  C   UNL A   1      34.846  34.001  29.510  1.00  0.00     0.060 A 
BRANCH  57  58
ATOM     58  S   UNL A   1      33.317  34.823  29.011  1.00  0.00     0.124 S 
ATOM     59  O   UNL A   1      32.785  33.886  28.028  1.00  0.00    -0.237 OA
ATOM     60  O   UNL A   1      32.590  34.906  30.274  1.00  0.00    -0.237 OA
ATOM     61  O   UNL A   1      33.780  36.102  28.480  1.00  0.00    -0.744 OA
ENDBRANCH  57  58
ENDBRANCH  25  50
BRANCH  37  62
ATOM     62  C   UNL A   1      42.858  33.927  34.041  1.00  0.00     0.058 A 
ATOM     63  C   UNL A   1      42.486  33.958  35.394  1.00  0.00     0.135 A 
ATOM     64  C   UNL A   1      43.633  34.987  33.547  1.00  0.00     0.135 A 
ATOM     65  F   UNL A   1      41.740  32.970  35.911  1.00  0.00    -0.206 F 
ATOM     66  C   UNL A   1      42.853  35.013  36.222  1.00  0.00     0.059 A 
ATOM     67  C   UNL A   1      44.028  36.043  34.362  1.00  0.00     0.059 A 
ATOM     68  F   UNL A   1      44.021  34.999  32.261  1.00  0.00    -0.206 F 
ATOM     69  C   UNL A   1      43.623  36.053  35.697  1.00  0.00     0.060 A 
BRANCH  69  70
ATOM     70  S   UNL A   1      44.112  37.407  36.787  1.00  0.00     0.124 S 
ATOM     71  O   UNL A   1      43.919  38.565  35.920  1.00  0.00    -0.237 OA
ATOM     72  O   UNL A   1      43.167  37.277  37.891  1.00  0.00    -0.237 OA
ATOM     73  O   UNL A   1      45.498  37.092  37.117  1.00  0.00    -0.744 OA
ENDBRANCH  69  70
ENDBRANCH  37  62
ENDBRANCH  11  12
ENDBRANCH   4   6
ENDBRANCH   1   2
BRANCH   1  74
ATOM     74  C   UNL A   1      36.043  23.250  23.713  1.00  0.00     0.042 C 
BRANCH  74  75
ATOM     75  C   UNL A   1      34.534  23.245  23.906  1.00  0.00     0.118 C 
BRANCH  75  76
ATOM     76  N   UNL A   1      34.128  23.040  25.291  1.00  0.00    -0.352 N 
ATOM     77  C   UNL A   1      33.352  23.828  26.099  1.00  0.00     0.256 C 
ATOM     78  H   UNL A   1      34.461  22.212  25.708  1.00  0.00     0.163 HD
ATOM     79  O   UNL A   1      33.101  23.474  27.248  1.00  0.00    -0.269 OA
BRANCH  77  80
ATOM     80  C   UNL A   1      32.795  25.070  25.535  1.00  0.00     0.104 A 
ATOM     81  C   UNL A   1      33.523  26.193  25.605  1.00  0.00     0.104 A 
ATOM     82  C   UNL A   1      31.459  25.143  24.913  1.00  0.00     0.202 A 
ATOM     83  N   UNL A   1      33.107  27.457  25.239  1.00  0.00    -0.343 N 
ATOM     84  C   UNL A   1      31.039  26.460  24.371  1.00  0.00     0.047 A 
ATOM     85  O   UNL A   1      30.705  24.176  24.859  1.00  0.00    -0.288 OA
ATOM     86  C   UNL A   1      31.871  27.585  24.535  1.00  0.00     0.054 A 
ATOM     87  C   UNL A   1      29.799  26.566  23.734  1.00  0.00     0.016 A 
ATOM     88  C   UNL A   1      31.425  28.804  23.999  1.00  0.00     0.053 A 
ATOM     89  C   UNL A   1      29.364  27.804  23.261  1.00  0.00     0.027 A 
ATOM     90  C   UNL A   1      30.166  28.941  23.386  1.00  0.00     0.039 A 
BRANCH  83  91
ATOM     91  C   UNL A   1      33.826  28.649  25.763  1.00  0.00     0.087 C 
ATOM     92  C   UNL A   1      33.361  29.514  26.911  1.00  0.00     0.027 C 
ATOM     93  C   UNL A   1      34.554  28.617  27.079  1.00  0.00     0.027 C 
ENDBRANCH  83  91
BRANCH  90  94
ATOM     94  N   UNL A   1      29.754  30.180  22.941  1.00  0.00    -0.360 N 
ATOM     95  C   UNL A   1      29.578  30.408  21.504  1.00  0.00     0.178 C 
ATOM     96  C   UNL A   1      29.121  31.145  23.846  1.00  0.00     0.178 C 
ATOM     97  C   UNL A   1      28.091  30.687  21.186  1.00  0.00     0.282 C 
ATOM     98  C   UNL A   1      27.658  31.414  23.436  1.00  0.00     0.282 C 
ATOM     99  N   UNL A   1      27.500  31.769  22.006  1.00  0.00    -0.343 N 
ATOM    100  H   UNL A   1      26.509  31.868  21.784  1.00  0.00     0.346 HD
ATOM    101  H   UNL A   1      27.970  32.652  21.811  1.00  0.00     0.346 HD
ENDBRANCH  90  94
ENDBRANCH  77  80
ENDBRANCH  75  76
ENDBRANCH  74  75
ENDBRANCH   1  74
TORSDOF 15
ENDMDL
MODEL 3
REMARK VINA RESULT:     -11.9      0.804      1.476
REMARK SMILES O=C(NCCCNC(=O)c1cn(C2CC2)c2cc(N3CC[NH2+]CC3)ccc2c1=O)c1ccc(-c2c3nc(c(-c4c(F)cc(S(=O)(=O)[O-])cc4F)c4ccc([nH]4)c(-c4c(F)cc(S(=O)(=O)[O-])cc4F)c4nc(c(-c5c(F)cc(S(=O)(=O)[O-])cc5F)c5ccc2[nH]5)C=C4)C=C3)cc1
REMARK SMILES IDX 4 1 3 2 1 3 2 4 30 6 31 7 95 8 32 9 94 10 33 11 34 12 35 13
REMARK SMILES IDX 88 14 36 15 93 16 87 17 89 18 37 19 92 20 86 21 85 22 38 24
REMARK SMILES IDX 72 25 51 26 71 27 52 28 55 29 70 30 90 31 53 32 54 33 69 35
REMARK SMILES IDX 91 36 56 37 39 38 40 39 49 40 41 41 42 42 48 43 50 44 43 45
REMARK SMILES IDX 44 46 45 47 46 48 47 49 73 50 74 51 83 52 75 53 76 54 82 55
REMARK SMILES IDX 84 56 77 57 78 58 79 59 80 60 81 61 57 62 58 63 67 64 59 65
REMARK SMILES IDX 60 66 66 67 68 68 61 69 62 70 63 71 64 72 65 73 5 74 6 75
REMARK SMILES IDX 7 76 8 77 9 79 10 80 11 81 28 82 12 83 27 84 29 85 16 86
REMARK SMILES IDX 26 87 17 88 25 89 18 90 13 91 14 92 15 93 19 94 20 95 24 96
REMARK SMILES IDX 21 97 23 98 22 99
REMARK H PARENT 3 5 89 23 55 34 7 78 22 100 22 101
REMARK Flexibility Score: inf
ROOT
ATOM      1  C   UNL A   1      33.887  28.024  26.770  1.00  0.00     0.118 C 
ENDROOT
BRANCH   1   2
ATOM      2  N   UNL A   1      33.647  29.436  27.028  1.00  0.00    -0.352 N 
ATOM      3  O   UNL A   1      33.879  31.446  27.984  1.00  0.00    -0.269 OA
ATOM      4  C   UNL A   1      34.389  30.359  27.718  1.00  0.00     0.251 C 
ATOM      5  H   UNL A   1      32.811  29.786  26.643  1.00  0.00     0.163 HD
BRANCH   4   6
ATOM      6  C   UNL A   1      35.779  30.073  28.143  1.00  0.00     0.039 A 
ATOM      7  C   UNL A   1      36.814  30.246  27.217  1.00  0.00     0.014 A 
ATOM      8  C   UNL A   1      36.065  29.551  29.408  1.00  0.00     0.014 A 
ATOM      9  C   UNL A   1      38.128  29.921  27.563  1.00  0.00     0.010 A 
ATOM     10  C   UNL A   1      37.383  29.299  29.779  1.00  0.00     0.010 A 
ATOM     11  C   UNL A   1      38.423  29.450  28.850  1.00  0.00    -0.014 A 
BRANCH  11  12
ATOM     12  C   UNL A   1      39.787  28.997  29.220  1.00  0.00     0.031 A 
ATOM     13  C   UNL A   1      40.680  29.922  30.001  1.00  0.00     0.074 A 
ATOM     14  C   UNL A   1      40.236  27.787  28.839  1.00  0.00     0.049 A 
ATOM     15  N   UNL A   1      41.945  29.793  30.308  1.00  0.00    -0.248 NA
ATOM     16  C   UNL A   1      40.069  31.172  30.482  1.00  0.00     0.031 C 
ATOM     17  C   UNL A   1      39.463  26.790  28.097  1.00  0.00     0.029 A 
ATOM     18  N   UNL A   1      41.457  27.193  29.027  1.00  0.00    -0.354 N 
ATOM     19  C   UNL A   1      42.285  30.951  30.999  1.00  0.00     0.074 A 
ATOM     20  C   UNL A   1      41.106  31.791  31.023  1.00  0.00     0.031 C 
ATOM     21  C   UNL A   1      40.220  25.694  27.922  1.00  0.00     0.029 A 
ATOM     22  C   UNL A   1      41.542  25.929  28.497  1.00  0.00     0.049 A 
ATOM     23  H   UNL A   1      42.203  27.631  29.497  1.00  0.00     0.167 HD
ATOM     24  C   UNL A   1      43.463  31.279  31.581  1.00  0.00     0.037 A 
ATOM     25  C   UNL A   1      42.573  25.062  28.472  1.00  0.00     0.037 A 
ATOM     26  C   UNL A   1      44.626  30.434  31.576  1.00  0.00     0.049 A 
ATOM     27  C   UNL A   1      43.887  25.461  29.085  1.00  0.00     0.074 A 
ATOM     28  C   UNL A   1      45.872  30.674  32.127  1.00  0.00     0.029 A 
ATOM     29  N   UNL A   1      44.681  29.172  30.999  1.00  0.00    -0.354 N 
ATOM     30  N   UNL A   1      44.208  26.577  29.693  1.00  0.00    -0.248 NA
ATOM     31  C   UNL A   1      44.982  24.486  28.995  1.00  0.00     0.031 C 
ATOM     32  C   UNL A   1      46.687  29.564  31.866  1.00  0.00     0.029 A 
ATOM     33  C   UNL A   1      45.938  28.622  31.179  1.00  0.00     0.049 A 
ATOM     34  H   UNL A   1      43.935  28.733  30.529  1.00  0.00     0.167 HD
ATOM     35  C   UNL A   1      45.538  26.435  30.072  1.00  0.00     0.074 A 
ATOM     36  C   UNL A   1      45.958  25.119  29.632  1.00  0.00     0.031 C 
ATOM     37  C   UNL A   1      46.339  27.314  30.725  1.00  0.00     0.037 A 
BRANCH  24  38
ATOM     38  C   UNL A   1      43.532  32.614  32.265  1.00  0.00     0.058 A 
ATOM     39  C   UNL A   1      43.102  32.778  33.592  1.00  0.00     0.135 A 
ATOM     40  C   UNL A   1      43.999  33.748  31.582  1.00  0.00     0.135 A 
ATOM     41  F   UNL A   1      42.626  31.731  34.283  1.00  0.00    -0.206 F 
ATOM     42  C   UNL A   1      43.087  34.028  34.202  1.00  0.00     0.059 A 
ATOM     43  C   UNL A   1      44.017  35.004  32.182  1.00  0.00     0.059 A 
ATOM     44  F   UNL A   1      44.421  33.647  30.312  1.00  0.00    -0.206 F 
ATOM     45  C   UNL A   1      43.536  35.137  33.485  1.00  0.00     0.060 A 
BRANCH  45  46
ATOM     46  S   UNL A   1      43.470  36.761  34.271  1.00  0.00     0.124 S 
ATOM     47  O   UNL A   1      44.807  36.858  34.847  1.00  0.00    -0.237 OA
ATOM     48  O   UNL A   1      43.201  37.647  33.143  1.00  0.00    -0.237 OA
ATOM     49  O   UNL A   1      42.379  36.628  35.232  1.00  0.00    -0.744 OA
ENDBRANCH  45  46
ENDBRANCH  24  38
BRANCH  25  50
ATOM     50  C   UNL A   1      42.383  23.716  27.876  1.00  0.00     0.058 A 
ATOM     51  C   UNL A   1      42.388  23.548  26.485  1.00  0.00     0.135 A 
ATOM     52  C   UNL A   1      42.248  22.570  28.676  1.00  0.00     0.135 A 
ATOM     53  F   UNL A   1      42.504  24.618  25.683  1.00  0.00    -0.206 F 
ATOM     54  C   UNL A   1      42.278  22.291  25.902  1.00  0.00     0.059 A 
ATOM     55  C   UNL A   1      42.153  21.300  28.116  1.00  0.00     0.059 A 
ATOM     56  F   UNL A   1      42.247  22.679  30.013  1.00  0.00    -0.206 F 
ATOM     57  C   UNL A   1      42.171  21.171  26.728  1.00  0.00     0.060 A 
BRANCH  57  58
ATOM     58  S   UNL A   1      42.124  19.536  25.960  1.00  0.00     0.124 S 
ATOM     59  O   UNL A   1      40.706  19.393  25.655  1.00  0.00    -0.237 OA
ATOM     60  O   UNL A   1      43.010  19.712  24.813  1.00  0.00    -0.237 OA
ATOM     61  O   UNL A   1      42.637  18.658  27.008  1.00  0.00    -0.744 OA
ENDBRANCH  57  58
ENDBRANCH  25  50
BRANCH  37  62
ATOM     62  C   UNL A   1      47.747  26.874  31.011  1.00  0.00     0.058 A 
ATOM     63  C   UNL A   1      48.789  27.121  30.105  1.00  0.00     0.135 A 
ATOM     64  C   UNL A   1      48.062  26.237  32.221  1.00  0.00     0.135 A 
ATOM     65  F   UNL A   1      48.536  27.722  28.932  1.00  0.00    -0.206 F 
ATOM     66  C   UNL A   1      50.095  26.730  30.379  1.00  0.00     0.059 A 
ATOM     67  C   UNL A   1      49.365  25.855  32.525  1.00  0.00     0.059 A 
ATOM     68  F   UNL A   1      47.100  25.987  33.124  1.00  0.00    -0.206 F 
ATOM     69  C   UNL A   1      50.373  26.096  31.592  1.00  0.00     0.060 A 
BRANCH  69  70
ATOM     70  S   UNL A   1      52.076  25.613  31.947  1.00  0.00     0.124 S 
ATOM     71  O   UNL A   1      51.954  24.163  32.054  1.00  0.00    -0.237 OA
ATOM     72  O   UNL A   1      52.793  26.104  30.775  1.00  0.00    -0.237 OA
ATOM     73  O   UNL A   1      52.374  26.312  33.193  1.00  0.00    -0.744 OA
ENDBRANCH  69  70
ENDBRANCH  37  62
ENDBRANCH  11  12
ENDBRANCH   4   6
ENDBRANCH   1   2
BRANCH   1  74
ATOM     74  C   UNL A   1      32.622  27.186  26.879  1.00  0.00     0.042 C 
BRANCH  74  75
ATOM     75  C   UNL A   1      31.967  26.846  25.549  1.00  0.00     0.118 C 
BRANCH  75  76
ATOM     76  N   UNL A   1      32.782  27.203  24.395  1.00  0.00    -0.352 N 
ATOM     77  C   UNL A   1      33.608  26.418  23.635  1.00  0.00     0.256 C 
ATOM     78  H   UNL A   1      32.731  28.148  24.121  1.00  0.00     0.163 HD
ATOM     79  O   UNL A   1      34.207  26.901  22.677  1.00  0.00    -0.269 OA
BRANCH  77  80
ATOM     80  C   UNL A   1      33.712  24.987  23.968  1.00  0.00     0.104 A 
ATOM     81  C   UNL A   1      34.614  24.602  24.882  1.00  0.00     0.104 A 
ATOM     82  C   UNL A   1      32.883  23.949  23.327  1.00  0.00     0.202 A 
ATOM     83  N   UNL A   1      34.926  23.301  25.221  1.00  0.00    -0.343 N 
ATOM     84  C   UNL A   1      33.087  22.549  23.778  1.00  0.00     0.047 A 
ATOM     85  O   UNL A   1      32.075  24.207  22.441  1.00  0.00    -0.288 OA
ATOM     86  C   UNL A   1      34.093  22.253  24.719  1.00  0.00     0.054 A 
ATOM     87  C   UNL A   1      32.293  21.537  23.229  1.00  0.00     0.016 A 
ATOM     88  C   UNL A   1      34.239  20.914  25.113  1.00  0.00     0.053 A 
ATOM     89  C   UNL A   1      32.501  20.210  23.604  1.00  0.00     0.027 A 
ATOM     90  C   UNL A   1      33.476  19.877  24.548  1.00  0.00     0.039 A 
BRANCH  83  91
ATOM     91  C   UNL A   1      36.214  23.005  25.903  1.00  0.00     0.087 C 
ATOM     92  C   UNL A   1      37.488  22.577  25.214  1.00  0.00     0.027 C 
ATOM     93  C   UNL A   1      37.384  23.947  25.821  1.00  0.00     0.027 C 
ENDBRANCH  83  91
BRANCH  90  94
ATOM     94  N   UNL A   1      33.712  18.570  24.924  1.00  0.00    -0.360 N 
ATOM     95  C   UNL A   1      32.766  17.894  25.817  1.00  0.00     0.178 C 
ATOM     96  C   UNL A   1      34.643  17.717  24.178  1.00  0.00     0.178 C 
ATOM     97  C   UNL A   1      32.087  16.716  25.080  1.00  0.00     0.282 C 
ATOM     98  C   UNL A   1      33.904  16.535  23.516  1.00  0.00     0.282 C 
ATOM     99  N   UNL A   1      33.044  15.775  24.454  1.00  0.00    -0.343 N 
ATOM    100  H   UNL A   1      32.533  15.053  23.945  1.00  0.00     0.346 HD
ATOM    101  H   UNL A   1      33.616  15.330  25.171  1.00  0.00     0.346 HD
ENDBRANCH  90  94
ENDBRANCH  77  80
ENDBRANCH  75  76
ENDBRANCH  74  75
ENDBRANCH   1  74
TORSDOF 15
ENDMDL
