MODEL 1
REMARK VINA RESULT:     -12.6      0.000      0.000
REMARK SMILES CCn1c(N2CCC(C(=O)NCCCNC(=O)c3ccc(-c4c5nc(c(-c6c(F)cc(S(=O)(=O)[O-])cc6F)c6ccc([nH]6)c(-c6c(F)cc(S(=O)(=O)[O-])cc6F)c6nc(c(-c7c(F)cc(S(=O)(=O)[O-])cc7F)c7ccc4[nH]7)C=C6)C=C5)cc3)CC2)nc2cc(C)ccc21
REMARK SMILES IDX 13 1 12 2 11 3 9 4 10 5 8 7 5 8 6 9 85 10 7 11 84 12 4 13
REMARK SMILES IDX 3 14 93 15 86 16 87 17 92 18 88 19 91 20 89 21 90 22 2 23
REMARK SMILES IDX 1 24 14 25 15 26 16 27 17 29 18 30 19 31 83 32 20 33 82 34
REMARK SMILES IDX 21 35 22 36 23 37 76 38 24 39 81 40 75 41 77 42 25 43 80 44
REMARK SMILES IDX 74 45 73 46 26 48 60 49 39 50 59 51 40 52 43 53 58 54 78 55
REMARK SMILES IDX 41 56 42 57 57 59 79 60 44 61 27 62 28 63 37 64 29 65 30 66
REMARK SMILES IDX 36 67 38 68 31 69 32 70 33 71 34 72 35 73 61 74 62 75 71 76
REMARK SMILES IDX 63 77 64 78 70 79 72 80 65 81 66 82 67 83 68 84 69 85 45 86
REMARK SMILES IDX 46 87 55 88 47 89 48 90 54 91 56 92 49 93 50 94 51 95 52 96
REMARK SMILES IDX 53 97
REMARK H PARENT 11 6 15 28 77 47 43 58
REMARK Flexibility Score: inf
ROOT
ATOM      1  C   UNL A   1      32.220  30.109  26.847  1.00  0.00     0.042 C 
ENDROOT
BRANCH   1   2
ATOM      2  C   UNL A   1      31.832  29.892  25.387  1.00  0.00     0.117 C 
BRANCH   2   3
ATOM      3  N   UNL A   1      32.983  29.677  24.524  1.00  0.00    -0.356 N 
ATOM      4  C   UNL A   1      33.475  28.561  23.933  1.00  0.00     0.223 C 
ATOM      5  O   UNL A   1      34.468  28.701  23.210  1.00  0.00    -0.275 OA
ATOM      6  H   UNL A   1      33.500  30.493  24.336  1.00  0.00     0.163 HD
BRANCH   4   7
ATOM      7  C   UNL A   1      32.860  27.182  24.108  1.00  0.00     0.082 C 
ATOM      8  N   UNL A   1      32.873  24.346  24.573  1.00  0.00    -0.342 N 
ATOM      9  C   UNL A   1      32.593  24.836  23.220  1.00  0.00     0.120 C 
ATOM     10  C   UNL A   1      32.434  25.233  25.651  1.00  0.00     0.120 C 
ATOM     11  C   UNL A   1      33.226  26.208  22.984  1.00  0.00     0.035 C 
ATOM     12  C   UNL A   1      33.083  26.609  25.513  1.00  0.00     0.035 C 
BRANCH   8  13
ATOM     13  C   UNL A   1      34.052  23.691  24.751  1.00  0.00     0.206 A 
ATOM     14  N   UNL A   1      34.188  22.328  24.517  1.00  0.00    -0.310 N 
ATOM     15  C   UNL A   1      35.472  21.977  24.871  1.00  0.00     0.070 A 
ATOM     16  N   UNL A   1      35.182  24.229  25.137  1.00  0.00    -0.213 NA
ATOM     17  C   UNL A   1      36.063  23.188  25.236  1.00  0.00     0.091 A 
ATOM     18  C   UNL A   1      36.202  20.781  24.896  1.00  0.00     0.029 A 
ATOM     19  C   UNL A   1      37.404  23.226  25.646  1.00  0.00     0.034 A 
ATOM     20  C   UNL A   1      37.537  20.834  25.318  1.00  0.00     0.006 A 
ATOM     21  C   UNL A   1      38.134  22.035  25.712  1.00  0.00    -0.049 A 
ATOM     22  C   UNL A   1      39.573  22.068  26.128  1.00  0.00     0.044 C 
BRANCH  14  23
ATOM     23  C   UNL A   1      33.136  21.533  23.914  1.00  0.00     0.122 C 
ATOM     24  C   UNL A   1      32.196  20.734  24.799  1.00  0.00     0.028 C 
ENDBRANCH  14  23
ENDBRANCH   8  13
ENDBRANCH   4   7
ENDBRANCH   2   3
ENDBRANCH   1   2
BRANCH   1  25
ATOM     25  C   UNL A   1      33.632  30.656  27.070  1.00  0.00     0.118 C 
BRANCH  25  26
ATOM     26  N   UNL A   1      33.737  31.698  28.076  1.00  0.00    -0.352 N 
ATOM     27  C   UNL A   1      34.725  32.144  28.912  1.00  0.00     0.251 C 
ATOM     28  H   UNL A   1      32.900  32.205  28.180  1.00  0.00     0.163 HD
ATOM     29  O   UNL A   1      34.475  33.186  29.525  1.00  0.00    -0.269 OA
BRANCH  27  30
ATOM     30  C   UNL A   1      36.030  31.462  29.162  1.00  0.00     0.039 A 
ATOM     31  C   UNL A   1      37.275  32.082  29.161  1.00  0.00     0.014 A 
ATOM     32  C   UNL A   1      35.987  30.066  29.362  1.00  0.00     0.014 A 
ATOM     33  C   UNL A   1      38.443  31.329  29.276  1.00  0.00     0.010 A 
ATOM     34  C   UNL A   1      37.156  29.310  29.505  1.00  0.00     0.010 A 
ATOM     35  C   UNL A   1      38.394  29.938  29.428  1.00  0.00    -0.014 A 
BRANCH  35  36
ATOM     36  C   UNL A   1      39.679  29.239  29.533  1.00  0.00     0.031 A 
ATOM     37  C   UNL A   1      40.242  29.079  30.905  1.00  0.00     0.074 A 
ATOM     38  C   UNL A   1      40.382  28.711  28.510  1.00  0.00     0.049 A 
ATOM     39  N   UNL A   1      41.298  29.639  31.397  1.00  0.00    -0.248 NA
ATOM     40  C   UNL A   1      39.519  28.225  31.855  1.00  0.00     0.031 C 
ATOM     41  C   UNL A   1      39.943  28.446  27.141  1.00  0.00     0.029 A 
ATOM     42  N   UNL A   1      41.659  28.219  28.532  1.00  0.00    -0.354 N 
ATOM     43  C   UNL A   1      41.486  29.084  32.662  1.00  0.00     0.074 A 
ATOM     44  C   UNL A   1      40.309  28.294  32.929  1.00  0.00     0.031 C 
ATOM     45  C   UNL A   1      40.856  27.654  26.533  1.00  0.00     0.029 A 
ATOM     46  C   UNL A   1      42.003  27.479  27.413  1.00  0.00     0.049 A 
ATOM     47  H   UNL A   1      42.280  28.379  29.280  1.00  0.00     0.167 HD
ATOM     48  C   UNL A   1      42.665  29.193  33.338  1.00  0.00     0.037 A 
ATOM     49  C   UNL A   1      43.117  26.728  27.241  1.00  0.00     0.037 A 
ATOM     50  C   UNL A   1      43.520  30.205  32.773  1.00  0.00     0.049 A 
ATOM     51  C   UNL A   1      44.158  27.173  28.202  1.00  0.00     0.074 A 
ATOM     52  C   UNL A   1      43.375  31.551  32.495  1.00  0.00     0.029 A 
ATOM     53  N   UNL A   1      44.666  29.821  32.118  1.00  0.00    -0.354 N 
ATOM     54  N   UNL A   1      44.865  28.262  28.087  1.00  0.00    -0.248 NA
ATOM     55  C   UNL A   1      44.187  26.552  29.517  1.00  0.00     0.031 C 
ATOM     56  C   UNL A   1      44.119  31.765  31.301  1.00  0.00     0.029 A 
ATOM     57  C   UNL A   1      44.711  30.550  30.957  1.00  0.00     0.049 A 
ATOM     58  H   UNL A   1      45.325  29.155  32.423  1.00  0.00     0.167 HD
ATOM     59  C   UNL A   1      45.058  28.699  29.386  1.00  0.00     0.074 A 
ATOM     60  C   UNL A   1      44.734  27.545  30.219  1.00  0.00     0.031 C 
ATOM     61  C   UNL A   1      45.185  30.026  29.690  1.00  0.00     0.037 A 
BRANCH  48  62
ATOM     62  C   UNL A   1      43.179  28.197  34.349  1.00  0.00     0.058 A 
ATOM     63  C   UNL A   1      43.518  28.634  35.647  1.00  0.00     0.135 A 
ATOM     64  C   UNL A   1      43.623  26.904  34.001  1.00  0.00     0.135 A 
ATOM     65  F   UNL A   1      43.145  29.848  36.081  1.00  0.00    -0.206 F 
ATOM     66  C   UNL A   1      44.320  27.878  36.504  1.00  0.00     0.059 A 
ATOM     67  C   UNL A   1      44.379  26.111  34.860  1.00  0.00     0.059 A 
ATOM     68  F   UNL A   1      43.429  26.397  32.777  1.00  0.00    -0.206 F 
ATOM     69  C   UNL A   1      44.768  26.628  36.087  1.00  0.00     0.060 A 
BRANCH  69  70
ATOM     70  S   UNL A   1      45.935  25.722  37.120  1.00  0.00     0.124 S 
ATOM     71  O   UNL A   1      46.893  25.253  36.124  1.00  0.00    -0.237 OA
ATOM     72  O   UNL A   1      46.414  26.760  38.027  1.00  0.00    -0.237 OA
ATOM     73  O   UNL A   1      45.106  24.692  37.736  1.00  0.00    -0.744 OA
ENDBRANCH  69  70
ENDBRANCH  48  62
BRANCH  49  74
ATOM     74  C   UNL A   1      43.274  25.474  26.465  1.00  0.00     0.058 A 
ATOM     75  C   UNL A   1      44.226  25.370  25.438  1.00  0.00     0.135 A 
ATOM     76  C   UNL A   1      42.701  24.270  26.917  1.00  0.00     0.135 A 
ATOM     77  F   UNL A   1      44.833  26.468  24.961  1.00  0.00    -0.206 F 
ATOM     78  C   UNL A   1      44.634  24.135  24.929  1.00  0.00     0.059 A 
ATOM     79  C   UNL A   1      43.080  23.028  26.416  1.00  0.00     0.059 A 
ATOM     80  F   UNL A   1      41.825  24.260  27.935  1.00  0.00    -0.206 F 
ATOM     81  C   UNL A   1      44.073  22.967  25.444  1.00  0.00     0.060 A 
BRANCH  81  82
ATOM     82  S   UNL A   1      44.743  21.368  24.935  1.00  0.00     0.124 S 
ATOM     83  O   UNL A   1      44.606  21.430  23.485  1.00  0.00    -0.237 OA
ATOM     84  O   UNL A   1      46.107  21.430  25.452  1.00  0.00    -0.237 OA
ATOM     85  O   UNL A   1      43.871  20.406  25.604  1.00  0.00    -0.744 OA
ENDBRANCH  81  82
ENDBRANCH  49  74
BRANCH  61  86
ATOM     86  C   UNL A   1      45.535  31.039  28.617  1.00  0.00     0.058 A 
ATOM     87  C   UNL A   1      44.669  31.505  27.613  1.00  0.00     0.135 A 
ATOM     88  C   UNL A   1      46.789  31.682  28.704  1.00  0.00     0.135 A 
ATOM     89  F   UNL A   1      43.396  31.089  27.527  1.00  0.00    -0.206 F 
ATOM     90  C   UNL A   1      45.044  32.511  26.718  1.00  0.00     0.059 A 
ATOM     91  C   UNL A   1      47.144  32.749  27.881  1.00  0.00     0.059 A 
ATOM     92  F   UNL A   1      47.675  31.315  29.646  1.00  0.00    -0.206 F 
ATOM     93  C   UNL A   1      46.260  33.163  26.891  1.00  0.00     0.060 A 
BRANCH  93  94
ATOM     94  S   UNL A   1      46.685  34.606  25.894  1.00  0.00     0.124 S 
ATOM     95  O   UNL A   1      48.034  34.315  25.418  1.00  0.00    -0.237 OA
ATOM     96  O   UNL A   1      45.647  34.584  24.871  1.00  0.00    -0.237 OA
ATOM     97  O   UNL A   1      46.590  35.696  26.862  1.00  0.00    -0.744 OA
ENDBRANCH  93  94
ENDBRANCH  61  86
ENDBRANCH  35  36
ENDBRANCH  27  30
ENDBRANCH  25  26
ENDBRANCH   1  25
TORSDOF 15
ENDMDL
MODEL 2
REMARK VINA RESULT:     -12.5      2.809      9.529
REMARK SMILES CCn1c(N2CCC(C(=O)NCCCNC(=O)c3ccc(-c4c5nc(c(-c6c(F)cc(S(=O)(=O)[O-])cc6F)c6ccc([nH]6)c(-c6c(F)cc(S(=O)(=O)[O-])cc6F)c6nc(c(-c7c(F)cc(S(=O)(=O)[O-])cc7F)c7ccc4[nH]7)C=C6)C=C5)cc3)CC2)nc2cc(C)ccc21
REMARK SMILES IDX 13 1 12 2 11 3 9 4 10 5 8 7 5 8 6 9 85 10 7 11 84 12 4 13
REMARK SMILES IDX 3 14 93 15 86 16 87 17 92 18 88 19 91 20 89 21 90 22 2 23
REMARK SMILES IDX 1 24 14 25 15 26 16 27 17 29 18 30 19 31 83 32 20 33 82 34
REMARK SMILES IDX 21 35 22 36 23 37 76 38 24 39 81 40 75 41 77 42 25 43 80 44
REMARK SMILES IDX 74 45 73 46 26 48 60 49 39 50 59 51 40 52 43 53 58 54 78 55
REMARK SMILES IDX 41 56 42 57 57 59 79 60 44 61 27 62 28 63 37 64 29 65 30 66
REMARK SMILES IDX 36 67 38 68 31 69 32 70 33 71 34 72 35 73 61 74 62 75 71 76
REMARK SMILES IDX 63 77 64 78 70 79 72 80 65 81 66 82 67 83 68 84 69 85 45 86
REMARK SMILES IDX 46 87 55 88 47 89 48 90 54 91 56 92 49 93 50 94 51 95 52 96
REMARK SMILES IDX 53 97
REMARK H PARENT 11 6 15 28 77 47 43 58
REMARK Flexibility Score: inf
ROOT
ATOM      1  C   UNL A   1      36.644  21.450  24.511  1.00  0.00     0.042 C 
ENDROOT
BRANCH   1   2
ATOM      2  C   UNL A   1      35.503  20.773  25.268  1.00  0.00     0.117 C 
BRANCH   2   3
ATOM      3  N   UNL A   1      35.235  21.395  26.555  1.00  0.00    -0.356 N 
ATOM      4  C   UNL A   1      34.379  22.379  26.924  1.00  0.00     0.223 C 
ATOM      5  O   UNL A   1      34.349  22.675  28.124  1.00  0.00    -0.275 OA
ATOM      6  H   UNL A   1      35.776  21.035  27.294  1.00  0.00     0.163 HD
BRANCH   4   7
ATOM      7  C   UNL A   1      33.469  23.106  25.947  1.00  0.00     0.082 C 
ATOM      8  N   UNL A   1      32.143  25.380  24.795  1.00  0.00    -0.342 N 
ATOM      9  C   UNL A   1      31.352  24.428  25.582  1.00  0.00     0.120 C 
ATOM     10  C   UNL A   1      33.280  24.794  24.083  1.00  0.00     0.120 C 
ATOM     11  C   UNL A   1      32.222  23.699  26.607  1.00  0.00     0.035 C 
ATOM     12  C   UNL A   1      34.227  24.102  25.061  1.00  0.00     0.035 C 
BRANCH   8  13
ATOM     13  C   UNL A   1      32.320  26.617  25.335  1.00  0.00     0.206 A 
ATOM     14  N   UNL A   1      31.503  27.692  25.010  1.00  0.00    -0.310 N 
ATOM     15  C   UNL A   1      32.004  28.799  25.662  1.00  0.00     0.070 A 
ATOM     16  N   UNL A   1      33.234  26.951  26.210  1.00  0.00    -0.213 NA
ATOM     17  C   UNL A   1      33.069  28.294  26.409  1.00  0.00     0.091 A 
ATOM     18  C   UNL A   1      31.658  30.156  25.721  1.00  0.00     0.029 A 
ATOM     19  C   UNL A   1      33.822  29.146  27.231  1.00  0.00     0.034 A 
ATOM     20  C   UNL A   1      32.427  30.994  26.539  1.00  0.00     0.006 A 
ATOM     21  C   UNL A   1      33.513  30.509  27.272  1.00  0.00    -0.049 A 
ATOM     22  C   UNL A   1      34.298  31.423  28.164  1.00  0.00     0.044 C 
BRANCH  14  23
ATOM     23  C   UNL A   1      30.308  27.547  24.202  1.00  0.00     0.122 C 
ATOM     24  C   UNL A   1      30.142  28.386  22.947  1.00  0.00     0.028 C 
ENDBRANCH  14  23
ENDBRANCH   8  13
ENDBRANCH   4   7
ENDBRANCH   2   3
ENDBRANCH   1   2
BRANCH   1  25
ATOM     25  C   UNL A   1      37.592  22.285  25.374  1.00  0.00     0.118 C 
BRANCH  25  26
ATOM     26  N   UNL A   1      38.868  21.659  25.670  1.00  0.00    -0.352 N 
ATOM     27  C   UNL A   1      39.981  22.013  26.386  1.00  0.00     0.251 C 
ATOM     28  H   UNL A   1      38.954  20.769  25.258  1.00  0.00     0.163 HD
ATOM     29  O   UNL A   1      40.821  21.121  26.541  1.00  0.00    -0.269 OA
BRANCH  27  30
ATOM     30  C   UNL A   1      40.264  23.369  26.942  1.00  0.00     0.039 A 
ATOM     31  C   UNL A   1      41.367  23.705  27.720  1.00  0.00     0.014 A 
ATOM     32  C   UNL A   1      39.300  24.369  26.697  1.00  0.00     0.014 A 
ATOM     33  C   UNL A   1      41.470  24.970  28.298  1.00  0.00     0.010 A 
ATOM     34  C   UNL A   1      39.412  25.648  27.254  1.00  0.00     0.010 A 
ATOM     35  C   UNL A   1      40.485  25.942  28.089  1.00  0.00    -0.014 A 
BRANCH  35  36
ATOM     36  C   UNL A   1      40.683  27.236  28.748  1.00  0.00     0.031 A 
ATOM     37  C   UNL A   1      41.710  28.140  28.153  1.00  0.00     0.074 A 
ATOM     38  C   UNL A   1      40.008  27.692  29.823  1.00  0.00     0.049 A 
ATOM     39  N   UNL A   1      42.845  28.492  28.663  1.00  0.00    -0.248 NA
ATOM     40  C   UNL A   1      41.462  28.681  26.811  1.00  0.00     0.031 C 
ATOM     41  C   UNL A   1      38.770  27.179  30.409  1.00  0.00     0.029 A 
ATOM     42  N   UNL A   1      40.280  28.799  30.580  1.00  0.00    -0.354 N 
ATOM     43  C   UNL A   1      43.390  29.438  27.797  1.00  0.00     0.074 A 
ATOM     44  C   UNL A   1      42.544  29.443  26.629  1.00  0.00     0.031 C 
ATOM     45  C   UNL A   1      38.289  28.091  31.285  1.00  0.00     0.029 A 
ATOM     46  C   UNL A   1      39.251  29.175  31.429  1.00  0.00     0.049 A 
ATOM     47  H   UNL A   1      41.134  29.287  30.526  1.00  0.00     0.167 HD
ATOM     48  C   UNL A   1      44.413  30.260  28.166  1.00  0.00     0.037 A 
ATOM     49  C   UNL A   1      39.163  30.318  32.151  1.00  0.00     0.037 A 
ATOM     50  C   UNL A   1      45.065  29.805  29.366  1.00  0.00     0.049 A 
ATOM     51  C   UNL A   1      40.519  30.904  32.301  1.00  0.00     0.074 A 
ATOM     52  C   UNL A   1      45.668  28.622  29.753  1.00  0.00     0.029 A 
ATOM     53  N   UNL A   1      44.913  30.529  30.525  1.00  0.00    -0.354 N 
ATOM     54  N   UNL A   1      41.442  30.458  33.106  1.00  0.00    -0.248 NA
ATOM     55  C   UNL A   1      40.984  31.826  31.277  1.00  0.00     0.031 C 
ATOM     56  C   UNL A   1      45.367  28.489  31.138  1.00  0.00     0.029 A 
ATOM     57  C   UNL A   1      44.646  29.621  31.518  1.00  0.00     0.049 A 
ATOM     58  H   UNL A   1      44.982  31.507  30.622  1.00  0.00     0.167 HD
ATOM     59  C   UNL A   1      42.633  30.676  32.438  1.00  0.00     0.074 A 
ATOM     60  C   UNL A   1      42.299  31.633  31.386  1.00  0.00     0.031 C 
ATOM     61  C   UNL A   1      43.717  29.859  32.605  1.00  0.00     0.037 A 
BRANCH  48  62
ATOM     62  C   UNL A   1      44.664  31.638  27.603  1.00  0.00     0.058 A 
ATOM     63  C   UNL A   1      45.817  31.874  26.825  1.00  0.00     0.135 A 
ATOM     64  C   UNL A   1      43.975  32.787  28.043  1.00  0.00     0.135 A 
ATOM     65  F   UNL A   1      46.547  30.850  26.354  1.00  0.00    -0.206 F 
ATOM     66  C   UNL A   1      46.303  33.160  26.580  1.00  0.00     0.059 A 
ATOM     67  C   UNL A   1      44.412  34.080  27.765  1.00  0.00     0.059 A 
ATOM     68  F   UNL A   1      42.907  32.705  28.848  1.00  0.00    -0.206 F 
ATOM     69  C   UNL A   1      45.605  34.255  27.080  1.00  0.00     0.060 A 
BRANCH  69  70
ATOM     70  S   UNL A   1      46.315  35.904  26.907  1.00  0.00     0.124 S 
ATOM     71  O   UNL A   1      47.130  35.739  25.708  1.00  0.00    -0.237 OA
ATOM     72  O   UNL A   1      45.125  36.736  26.763  1.00  0.00    -0.237 OA
ATOM     73  O   UNL A   1      47.051  36.082  28.154  1.00  0.00    -0.744 OA
ENDBRANCH  69  70
ENDBRANCH  48  62
BRANCH  49  74
ATOM     74  C   UNL A   1      37.949  31.084  32.521  1.00  0.00     0.058 A 
ATOM     75  C   UNL A   1      37.731  31.507  33.842  1.00  0.00     0.135 A 
ATOM     76  C   UNL A   1      37.136  31.669  31.531  1.00  0.00     0.135 A 
ATOM     77  F   UNL A   1      38.474  31.012  34.844  1.00  0.00    -0.206 F 
ATOM     78  C   UNL A   1      36.801  32.500  34.159  1.00  0.00     0.059 A 
ATOM     79  C   UNL A   1      36.192  32.649  31.823  1.00  0.00     0.059 A 
ATOM     80  F   UNL A   1      37.307  31.374  30.232  1.00  0.00    -0.206 F 
ATOM     81  C   UNL A   1      36.054  33.084  33.136  1.00  0.00     0.060 A 
BRANCH  81  82
ATOM     82  S   UNL A   1      35.004  34.504  33.514  1.00  0.00     0.124 S 
ATOM     83  O   UNL A   1      35.040  34.529  34.971  1.00  0.00    -0.237 OA
ATOM     84  O   UNL A   1      35.705  35.592  32.838  1.00  0.00    -0.237 OA
ATOM     85  O   UNL A   1      33.716  34.139  32.927  1.00  0.00    -0.744 OA
ENDBRANCH  81  82
ENDBRANCH  49  74
BRANCH  61  86
ATOM     86  C   UNL A   1      43.820  28.944  33.810  1.00  0.00     0.058 A 
ATOM     87  C   UNL A   1      44.441  29.260  35.031  1.00  0.00     0.135 A 
ATOM     88  C   UNL A   1      43.117  27.720  33.768  1.00  0.00     0.135 A 
ATOM     89  F   UNL A   1      45.002  30.458  35.250  1.00  0.00    -0.206 F 
ATOM     90  C   UNL A   1      44.410  28.391  36.125  1.00  0.00     0.059 A 
ATOM     91  C   UNL A   1      42.997  26.886  34.878  1.00  0.00     0.059 A 
ATOM     92  F   UNL A   1      42.477  27.345  32.648  1.00  0.00    -0.206 F 
ATOM     93  C   UNL A   1      43.644  27.232  36.058  1.00  0.00     0.060 A 
BRANCH  93  94
ATOM     94  S   UNL A   1      43.404  26.198  37.517  1.00  0.00     0.124 S 
ATOM     95  O   UNL A   1      44.199  26.859  38.548  1.00  0.00    -0.237 OA
ATOM     96  O   UNL A   1      41.960  26.269  37.705  1.00  0.00    -0.237 OA
ATOM     97  O   UNL A   1      43.917  24.903  37.073  1.00  0.00    -0.744 OA
ENDBRANCH  93  94
ENDBRANCH  61  86
ENDBRANCH  35  36
ENDBRANCH  27  30
ENDBRANCH  25  26
ENDBRANCH   1  25
TORSDOF 15
ENDMDL
MODEL 3
REMARK VINA RESULT:     -12.2      3.166      9.244
REMARK SMILES CCn1c(N2CCC(C(=O)NCCCNC(=O)c3ccc(-c4c5nc(c(-c6c(F)cc(S(=O)(=O)[O-])cc6F)c6ccc([nH]6)c(-c6c(F)cc(S(=O)(=O)[O-])cc6F)c6nc(c(-c7c(F)cc(S(=O)(=O)[O-])cc7F)c7ccc4[nH]7)C=C6)C=C5)cc3)CC2)nc2cc(C)ccc21
REMARK SMILES IDX 13 1 12 2 11 3 9 4 10 5 8 7 5 8 6 9 85 10 7 11 84 12 4 13
REMARK SMILES IDX 3 14 93 15 86 16 87 17 92 18 88 19 91 20 89 21 90 22 2 23
REMARK SMILES IDX 1 24 14 25 15 26 16 27 17 29 18 30 19 31 83 32 20 33 82 34
REMARK SMILES IDX 21 35 22 36 23 37 76 38 24 39 81 40 75 41 77 42 25 43 80 44
REMARK SMILES IDX 74 45 73 46 26 48 60 49 39 50 59 51 40 52 43 53 58 54 78 55
REMARK SMILES IDX 41 56 42 57 57 59 79 60 44 61 27 62 28 63 37 64 29 65 30 66
REMARK SMILES IDX 36 67 38 68 31 69 32 70 33 71 34 72 35 73 61 74 62 75 71 76
REMARK SMILES IDX 63 77 64 78 70 79 72 80 65 81 66 82 67 83 68 84 69 85 45 86
REMARK SMILES IDX 46 87 55 88 47 89 48 90 54 91 56 92 49 93 50 94 51 95 52 96
REMARK SMILES IDX 53 97
REMARK H PARENT 11 6 15 28 77 47 43 58
REMARK Flexibility Score: inf
ROOT
ATOM      1  C   UNL A   1      39.870  20.527  26.421  1.00  0.00     0.042 C 
ENDROOT
BRANCH   1   2
ATOM      2  C   UNL A   1      38.872  21.485  25.776  1.00  0.00     0.117 C 
BRANCH   2   3
ATOM      3  N   UNL A   1      39.004  22.848  26.264  1.00  0.00    -0.356 N 
ATOM      4  C   UNL A   1      38.160  23.908  26.228  1.00  0.00     0.223 C 
ATOM      5  O   UNL A   1      38.545  24.951  26.770  1.00  0.00    -0.275 OA
ATOM      6  H   UNL A   1      39.866  23.035  26.701  1.00  0.00     0.163 HD
BRANCH   4   7
ATOM      7  C   UNL A   1      36.788  23.863  25.575  1.00  0.00     0.082 C 
ATOM      8  N   UNL A   1      34.436  22.610  24.502  1.00  0.00    -0.342 N 
ATOM      9  C   UNL A   1      35.398  23.212  23.574  1.00  0.00     0.120 C 
ATOM     10  C   UNL A   1      34.350  23.265  25.808  1.00  0.00     0.120 C 
ATOM     11  C   UNL A   1      36.804  23.244  24.175  1.00  0.00     0.035 C 
ATOM     12  C   UNL A   1      35.713  23.273  26.496  1.00  0.00     0.035 C 
BRANCH   8  13
ATOM     13  C   UNL A   1      34.336  21.253  24.481  1.00  0.00     0.206 A 
ATOM     14  N   UNL A   1      33.178  20.599  24.081  1.00  0.00    -0.310 N 
ATOM     15  C   UNL A   1      33.388  19.248  24.257  1.00  0.00     0.070 A 
ATOM     16  N   UNL A   1      35.281  20.407  24.805  1.00  0.00    -0.213 NA
ATOM     17  C   UNL A   1      34.712  19.169  24.693  1.00  0.00     0.091 A 
ATOM     18  C   UNL A   1      32.618  18.092  24.070  1.00  0.00     0.029 A 
ATOM     19  C   UNL A   1      35.294  17.921  24.963  1.00  0.00     0.034 A 
ATOM     20  C   UNL A   1      33.212  16.855  24.354  1.00  0.00     0.006 A 
ATOM     21  C   UNL A   1      34.527  16.761  24.816  1.00  0.00    -0.049 A 
ATOM     22  C   UNL A   1      35.146  15.422  25.081  1.00  0.00     0.044 C 
BRANCH  14  23
ATOM     23  C   UNL A   1      32.047  21.300  23.505  1.00  0.00     0.122 C 
ATOM     24  C   UNL A   1      31.895  21.367  21.995  1.00  0.00     0.028 C 
ENDBRANCH  14  23
ENDBRANCH   8  13
ENDBRANCH   4   7
ENDBRANCH   2   3
ENDBRANCH   1   2
BRANCH   1  25
ATOM     25  C   UNL A   1      41.227  21.142  26.773  1.00  0.00     0.118 C 
BRANCH  25  26
ATOM     26  N   UNL A   1      42.018  21.579  25.636  1.00  0.00    -0.352 N 
ATOM     27  C   UNL A   1      42.716  22.714  25.318  1.00  0.00     0.251 C 
ATOM     28  H   UNL A   1      42.063  20.899  24.926  1.00  0.00     0.163 HD
ATOM     29  O   UNL A   1      43.412  22.643  24.300  1.00  0.00    -0.269 OA
BRANCH  27  30
ATOM     30  C   UNL A   1      42.670  24.005  26.066  1.00  0.00     0.039 A 
ATOM     31  C   UNL A   1      43.180  24.213  27.343  1.00  0.00     0.014 A 
ATOM     32  C   UNL A   1      42.005  25.078  25.438  1.00  0.00     0.014 A 
ATOM     33  C   UNL A   1      42.969  25.423  28.004  1.00  0.00     0.010 A 
ATOM     34  C   UNL A   1      41.813  26.303  26.087  1.00  0.00     0.010 A 
ATOM     35  C   UNL A   1      42.267  26.468  27.391  1.00  0.00    -0.014 A 
BRANCH  35  36
ATOM     36  C   UNL A   1      42.093  27.695  28.174  1.00  0.00     0.031 A 
ATOM     37  C   UNL A   1      43.133  28.751  28.002  1.00  0.00     0.074 A 
ATOM     38  C   UNL A   1      41.072  27.964  29.012  1.00  0.00     0.049 A 
ATOM     39  N   UNL A   1      44.005  29.150  28.869  1.00  0.00    -0.248 NA
ATOM     40  C   UNL A   1      43.241  29.410  26.695  1.00  0.00     0.031 C 
ATOM     41  C   UNL A   1      39.787  27.276  29.138  1.00  0.00     0.029 A 
ATOM     42  N   UNL A   1      40.960  29.003  29.896  1.00  0.00    -0.354 N 
ATOM     43  C   UNL A   1      44.667  30.233  28.292  1.00  0.00     0.074 A 
ATOM     44  C   UNL A   1      44.225  30.285  26.920  1.00  0.00     0.031 C 
ATOM     45  C   UNL A   1      38.953  28.037  29.883  1.00  0.00     0.029 A 
ATOM     46  C   UNL A   1      39.683  29.185  30.403  1.00  0.00     0.049 A 
ATOM     47  H   UNL A   1      41.723  29.572  30.151  1.00  0.00     0.167 HD
ATOM     48  C   UNL A   1      45.420  31.102  29.025  1.00  0.00     0.037 A 
ATOM     49  C   UNL A   1      39.239  30.229  31.143  1.00  0.00     0.037 A 
ATOM     50  C   UNL A   1      45.725  30.582  30.333  1.00  0.00     0.049 A 
ATOM     51  C   UNL A   1      40.401  30.920  31.757  1.00  0.00     0.074 A 
ATOM     52  C   UNL A   1      46.322  29.426  30.801  1.00  0.00     0.029 A 
ATOM     53  N   UNL A   1      45.138  31.158  31.434  1.00  0.00    -0.354 N 
ATOM     54  N   UNL A   1      41.082  30.478  32.776  1.00  0.00    -0.248 NA
ATOM     55  C   UNL A   1      41.039  31.989  31.003  1.00  0.00     0.031 C 
ATOM     56  C   UNL A   1      45.632  29.114  32.006  1.00  0.00     0.029 A 
ATOM     57  C   UNL A   1      44.696  30.125  32.222  1.00  0.00     0.049 A 
ATOM     58  H   UNL A   1      45.053  32.121  31.621  1.00  0.00     0.167 HD
ATOM     59  C   UNL A   1      42.384  30.879  32.536  1.00  0.00     0.074 A 
ATOM     60  C   UNL A   1      42.271  31.909  31.507  1.00  0.00     0.031 C 
ATOM     61  C   UNL A   1      43.457  30.155  32.975  1.00  0.00     0.037 A 
BRANCH  48  62
ATOM     62  C   UNL A   1      45.658  32.550  28.675  1.00  0.00     0.058 A 
ATOM     63  C   UNL A   1      46.972  33.064  28.687  1.00  0.00     0.135 A 
ATOM     64  C   UNL A   1      44.625  33.510  28.617  1.00  0.00     0.135 A 
ATOM     65  F   UNL A   1      48.029  32.239  28.741  1.00  0.00    -0.206 F 
ATOM     66  C   UNL A   1      47.238  34.434  28.734  1.00  0.00     0.059 A 
ATOM     67  C   UNL A   1      44.870  34.880  28.608  1.00  0.00     0.059 A 
ATOM     68  F   UNL A   1      43.333  33.160  28.670  1.00  0.00    -0.206 F 
ATOM     69  C   UNL A   1      46.176  35.332  28.721  1.00  0.00     0.060 A 
BRANCH  69  70
ATOM     70  S   UNL A   1      46.508  37.090  28.946  1.00  0.00     0.124 S 
ATOM     71  O   UNL A   1      47.883  37.061  29.434  1.00  0.00    -0.237 OA
ATOM     72  O   UNL A   1      46.319  37.614  27.598  1.00  0.00    -0.237 OA
ATOM     73  O   UNL A   1      45.499  37.498  29.919  1.00  0.00    -0.744 OA
ENDBRANCH  69  70
ENDBRANCH  48  62
BRANCH  49  74
ATOM     74  C   UNL A   1      37.885  30.833  31.167  1.00  0.00     0.058 A 
ATOM     75  C   UNL A   1      37.095  30.799  32.328  1.00  0.00     0.135 A 
ATOM     76  C   UNL A   1      37.468  31.710  30.147  1.00  0.00     0.135 A 
ATOM     77  F   UNL A   1      37.431  30.002  33.354  1.00  0.00    -0.206 F 
ATOM     78  C   UNL A   1      35.988  31.633  32.495  1.00  0.00     0.059 A 
ATOM     79  C   UNL A   1      36.360  32.541  30.284  1.00  0.00     0.059 A 
ATOM     80  F   UNL A   1      38.189  31.857  29.024  1.00  0.00    -0.206 F 
ATOM     81  C   UNL A   1      35.644  32.521  31.475  1.00  0.00     0.060 A 
BRANCH  81  82
ATOM     82  S   UNL A   1      34.343  33.740  31.770  1.00  0.00     0.124 S 
ATOM     83  O   UNL A   1      35.106  34.890  32.240  1.00  0.00    -0.237 OA
ATOM     84  O   UNL A   1      33.740  33.869  30.447  1.00  0.00    -0.237 OA
ATOM     85  O   UNL A   1      33.498  33.097  32.775  1.00  0.00    -0.744 OA
ENDBRANCH  81  82
ENDBRANCH  49  74
BRANCH  61  86
ATOM     86  C   UNL A   1      43.300  29.127  34.079  1.00  0.00     0.058 A 
ATOM     87  C   UNL A   1      43.501  29.357  35.451  1.00  0.00     0.135 A 
ATOM     88  C   UNL A   1      42.772  27.864  33.732  1.00  0.00     0.135 A 
ATOM     89  F   UNL A   1      43.846  30.565  35.923  1.00  0.00    -0.206 F 
ATOM     90  C   UNL A   1      43.244  28.377  36.414  1.00  0.00     0.059 A 
ATOM     91  C   UNL A   1      42.422  26.909  34.685  1.00  0.00     0.059 A 
ATOM     92  F   UNL A   1      42.529  27.562  32.445  1.00  0.00    -0.206 F 
ATOM     93  C   UNL A   1      42.657  27.177  36.029  1.00  0.00     0.060 A 
BRANCH  93  94
ATOM     94  S   UNL A   1      42.112  25.978  37.262  1.00  0.00     0.124 S 
ATOM     95  O   UNL A   1      42.374  24.687  36.632  1.00  0.00    -0.237 OA
ATOM     96  O   UNL A   1      42.968  26.300  38.398  1.00  0.00    -0.237 OA
ATOM     97  O   UNL A   1      40.699  26.313  37.425  1.00  0.00    -0.744 OA
ENDBRANCH  93  94
ENDBRANCH  61  86
ENDBRANCH  35  36
ENDBRANCH  27  30
ENDBRANCH  25  26
ENDBRANCH   1  25
TORSDOF 15
ENDMDL
