MODEL 1
REMARK VINA RESULT:      -9.6      0.000      0.000
REMARK SMILES CC[C@@](C)(NC(=O)N1CCC[C@H]1C1CCCC1)C(=O)NCCCNC(=O)c1ccc(-c2c3nc(c(-c4c(F)cc(S(=O)(=O)[O-])cc4F)c4ccc([nH]4)c(-c4c(F)cc(S(=O)(=O)[O-])cc4F)c4nc(c(-c5c(F)cc(S(=O)(=O)[O-])cc5F)c5ccc2[nH]5)C=C4)C=C3)cc1
REMARK SMILES IDX 22 1 21 2 20 3 18 4 19 5 3 7 4 8 2 9 1 10 5 11 6 12 7 14
REMARK SMILES IDX 8 15 9 16 12 17 10 18 11 19 13 20 14 21 17 22 15 23 16 24
REMARK SMILES IDX 23 25 24 26 25 27 26 29 27 30 28 31 92 32 29 33 91 34 30 35
REMARK SMILES IDX 31 36 32 37 85 38 33 39 90 40 84 41 86 42 34 43 89 44 83 45
REMARK SMILES IDX 82 46 35 48 69 49 48 50 68 51 49 52 52 53 67 54 87 55 50 56
REMARK SMILES IDX 51 57 66 59 88 60 53 61 36 62 37 63 46 64 38 65 39 66 45 67
REMARK SMILES IDX 47 68 40 69 41 70 42 71 43 72 44 73 70 74 71 75 80 76 72 77
REMARK SMILES IDX 73 78 79 79 81 80 74 81 75 82 76 83 77 84 78 85 54 86 55 87
REMARK SMILES IDX 64 88 56 89 57 90 63 91 65 92 58 93 59 94 60 95 61 96 62 97
REMARK H PARENT 20 6 5 13 24 28 86 47 52 58
REMARK Flexibility Score: inf
ROOT
ATOM      1  C   UNL A   1      34.404  32.820  29.757  1.00  0.00     0.042 C 
ENDROOT
BRANCH   1   2
ATOM      2  C   UNL A   1      34.680  34.283  30.088  1.00  0.00     0.117 C 
BRANCH   2   3
ATOM      3  N   UNL A   1      35.190  34.569  31.419  1.00  0.00    -0.354 N 
ATOM      4  C   UNL A   1      36.420  34.429  32.002  1.00  0.00     0.245 C 
ATOM      5  O   UNL A   1      36.578  35.082  33.042  1.00  0.00    -0.272 OA
ATOM      6  H   UNL A   1      34.510  34.942  32.027  1.00  0.00     0.163 HD
BRANCH   4   7
ATOM      7  C   UNL A   1      37.588  33.607  31.373  1.00  0.00     0.117 C 
ATOM      8  C   UNL A   1      37.151  32.120  31.455  1.00  0.00     0.045 C 
BRANCH   7   9
ATOM      9  C   UNL A   1      37.839  33.928  29.860  1.00  0.00     0.035 C 
ATOM     10  C   UNL A   1      39.111  34.687  29.485  1.00  0.00     0.007 C 
ENDBRANCH   7   9
BRANCH   7  11
ATOM     11  N   UNL A   1      38.894  33.745  32.085  1.00  0.00    -0.324 N 
ATOM     12  C   UNL A   1      39.199  33.770  33.408  1.00  0.00     0.318 C 
ATOM     13  H   UNL A   1      39.672  33.833  31.489  1.00  0.00     0.166 HD
ATOM     14  O   UNL A   1      39.818  34.773  33.771  1.00  0.00    -0.249 OA
BRANCH  12  15
ATOM     15  N   UNL A   1      38.914  32.753  34.266  1.00  0.00    -0.322 N 
ATOM     16  C   UNL A   1      37.715  32.478  35.019  1.00  0.00     0.122 C 
ATOM     17  C   UNL A   1      39.937  31.749  34.633  1.00  0.00     0.090 C 
ATOM     18  C   UNL A   1      38.214  31.968  36.348  1.00  0.00     0.024 C 
ATOM     19  C   UNL A   1      39.416  31.131  35.957  1.00  0.00     0.027 C 
BRANCH  17  20
ATOM     20  C   UNL A   1      40.192  30.604  33.615  1.00  0.00     0.012 C 
ATOM     21  C   UNL A   1      41.344  29.654  33.939  1.00  0.00     0.006 C 
ATOM     22  C   UNL A   1      39.052  29.614  33.377  1.00  0.00     0.006 C 
ATOM     23  C   UNL A   1      41.182  28.510  32.943  1.00  0.00     0.000 C 
ATOM     24  C   UNL A   1      39.699  28.476  32.586  1.00  0.00     0.000 C 
ENDBRANCH  17  20
ENDBRANCH  12  15
ENDBRANCH   7  11
ENDBRANCH   4   7
ENDBRANCH   2   3
ENDBRANCH   1   2
BRANCH   1  25
ATOM     25  C   UNL A   1      34.444  32.424  28.283  1.00  0.00     0.118 C 
BRANCH  25  26
ATOM     26  N   UNL A   1      33.853  31.141  27.964  1.00  0.00    -0.352 N 
ATOM     27  C   UNL A   1      34.430  29.888  27.943  1.00  0.00     0.251 C 
ATOM     28  H   UNL A   1      32.898  31.168  27.727  1.00  0.00     0.163 HD
ATOM     29  O   UNL A   1      33.734  28.917  27.678  1.00  0.00    -0.269 OA
BRANCH  27  30
ATOM     30  C   UNL A   1      35.886  29.702  28.180  1.00  0.00     0.039 A 
ATOM     31  C   UNL A   1      36.292  29.279  29.449  1.00  0.00     0.014 A 
ATOM     32  C   UNL A   1      36.852  29.972  27.207  1.00  0.00     0.014 A 
ATOM     33  C   UNL A   1      37.649  29.052  29.719  1.00  0.00     0.010 A 
ATOM     34  C   UNL A   1      38.204  29.701  27.469  1.00  0.00     0.010 A 
ATOM     35  C   UNL A   1      38.622  29.218  28.722  1.00  0.00    -0.014 A 
BRANCH  35  36
ATOM     36  C   UNL A   1      40.057  28.868  28.975  1.00  0.00     0.031 A 
ATOM     37  C   UNL A   1      41.011  29.883  29.557  1.00  0.00     0.074 A 
ATOM     38  C   UNL A   1      40.528  27.645  28.648  1.00  0.00     0.049 A 
ATOM     39  N   UNL A   1      42.295  29.773  29.790  1.00  0.00    -0.248 NA
ATOM     40  C   UNL A   1      40.452  31.197  29.905  1.00  0.00     0.031 C 
ATOM     41  C   UNL A   1      39.741  26.565  28.050  1.00  0.00     0.029 A 
ATOM     42  N   UNL A   1      41.788  27.101  28.768  1.00  0.00    -0.354 N 
ATOM     43  C   UNL A   1      42.702  31.004  30.295  1.00  0.00     0.074 A 
ATOM     44  C   UNL A   1      41.534  31.859  30.290  1.00  0.00     0.031 C 
ATOM     45  C   UNL A   1      40.525  25.488  27.878  1.00  0.00     0.029 A 
ATOM     46  C   UNL A   1      41.883  25.805  28.310  1.00  0.00     0.049 A 
ATOM     47  H   UNL A   1      42.551  27.593  29.148  1.00  0.00     0.167 HD
ATOM     48  C   UNL A   1      43.924  31.383  30.742  1.00  0.00     0.037 A 
ATOM     49  C   UNL A   1      42.939  24.968  28.229  1.00  0.00     0.037 A 
ATOM     50  C   UNL A   1      45.085  30.530  30.778  1.00  0.00     0.049 A 
ATOM     51  C   UNL A   1      44.293  25.418  28.714  1.00  0.00     0.074 A 
ATOM     52  C   UNL A   1      46.350  30.823  31.262  1.00  0.00     0.029 A 
ATOM     53  N   UNL A   1      45.131  29.225  30.313  1.00  0.00    -0.354 N 
ATOM     54  N   UNL A   1      44.640  26.569  29.236  1.00  0.00    -0.248 NA
ATOM     55  C   UNL A   1      45.401  24.455  28.600  1.00  0.00     0.031 C 
ATOM     56  C   UNL A   1      47.173  29.714  31.045  1.00  0.00     0.029 A 
ATOM     57  C   UNL A   1      46.407  28.707  30.480  1.00  0.00     0.049 A 
ATOM     58  H   UNL A   1      44.371  28.738  29.921  1.00  0.00     0.167 HD
ATOM     59  C   UNL A   1      45.991  26.454  29.551  1.00  0.00     0.074 A 
ATOM     60  C   UNL A   1      46.402  25.123  29.159  1.00  0.00     0.031 C 
ATOM     61  C   UNL A   1      46.811  27.372  30.118  1.00  0.00     0.037 A 
BRANCH  48  62
ATOM     62  C   UNL A   1      44.079  32.798  31.235  1.00  0.00     0.058 A 
ATOM     63  C   UNL A   1      44.474  33.839  30.380  1.00  0.00     0.135 A 
ATOM     64  C   UNL A   1      43.779  33.127  32.568  1.00  0.00     0.135 A 
ATOM     65  F   UNL A   1      44.780  33.582  29.098  1.00  0.00    -0.206 F 
ATOM     66  C   UNL A   1      44.603  35.147  30.837  1.00  0.00     0.059 A 
ATOM     67  C   UNL A   1      43.871  34.433  33.039  1.00  0.00     0.059 A 
ATOM     68  F   UNL A   1      43.388  32.172  33.428  1.00  0.00    -0.206 F 
ATOM     69  C   UNL A   1      44.301  35.433  32.169  1.00  0.00     0.060 A 
BRANCH  69  70
ATOM     70  S   UNL A   1      44.481  37.134  32.746  1.00  0.00     0.124 S 
ATOM     71  O   UNL A   1      43.927  37.882  31.621  1.00  0.00    -0.237 OA
ATOM     72  O   UNL A   1      43.680  37.137  33.966  1.00  0.00    -0.237 OA
ATOM     73  O   UNL A   1      45.920  37.276  32.944  1.00  0.00    -0.744 OA
ENDBRANCH  69  70
ENDBRANCH  48  62
BRANCH  49  74
ATOM     74  C   UNL A   1      42.760  23.596  27.674  1.00  0.00     0.058 A 
ATOM     75  C   UNL A   1      42.844  23.356  26.294  1.00  0.00     0.135 A 
ATOM     76  C   UNL A   1      42.496  22.499  28.510  1.00  0.00     0.135 A 
ATOM     77  F   UNL A   1      43.081  24.373  25.450  1.00  0.00    -0.206 F 
ATOM     78  C   UNL A   1      42.656  22.085  25.760  1.00  0.00     0.059 A 
ATOM     79  C   UNL A   1      42.333  21.214  28.003  1.00  0.00     0.059 A 
ATOM     80  F   UNL A   1      42.417  22.671  29.839  1.00  0.00    -0.206 F 
ATOM     81  C   UNL A   1      42.403  21.019  26.624  1.00  0.00     0.060 A 
BRANCH  81  82
ATOM     82  S   UNL A   1      42.205  19.366  25.923  1.00  0.00     0.124 S 
ATOM     83  O   UNL A   1      40.765  19.310  25.701  1.00  0.00    -0.237 OA
ATOM     84  O   UNL A   1      43.034  19.439  24.725  1.00  0.00    -0.237 OA
ATOM     85  O   UNL A   1      42.715  18.492  26.976  1.00  0.00    -0.744 OA
ENDBRANCH  81  82
ENDBRANCH  49  74
BRANCH  61  86
ATOM     86  C   UNL A   1      48.230  26.969  30.420  1.00  0.00     0.058 A 
ATOM     87  C   UNL A   1      49.290  27.257  29.546  1.00  0.00     0.135 A 
ATOM     88  C   UNL A   1      48.545  26.370  31.653  1.00  0.00     0.135 A 
ATOM     89  F   UNL A   1      49.047  27.820  28.352  1.00  0.00    -0.206 F 
ATOM     90  C   UNL A   1      50.609  26.963  29.881  1.00  0.00     0.059 A 
ATOM     91  C   UNL A   1      49.859  26.093  32.019  1.00  0.00     0.059 A 
ATOM     92  F   UNL A   1      47.571  26.079  32.530  1.00  0.00    -0.206 F 
ATOM     93  C   UNL A   1      50.885  26.390  31.124  1.00  0.00     0.060 A 
BRANCH  93  94
ATOM     94  S   UNL A   1      52.607  26.084  31.576  1.00  0.00     0.124 S 
ATOM     95  O   UNL A   1      53.278  26.216  30.287  1.00  0.00    -0.237 OA
ATOM     96  O   UNL A   1      52.871  27.148  32.539  1.00  0.00    -0.237 OA
ATOM     97  O   UNL A   1      52.579  24.734  32.132  1.00  0.00    -0.744 OA
ENDBRANCH  93  94
ENDBRANCH  61  86
ENDBRANCH  35  36
ENDBRANCH  27  30
ENDBRANCH  25  26
ENDBRANCH   1  25
TORSDOF 17
ENDMDL
MODEL 2
REMARK VINA RESULT:      -9.6      3.396      6.477
REMARK SMILES CC[C@@](C)(NC(=O)N1CCC[C@H]1C1CCCC1)C(=O)NCCCNC(=O)c1ccc(-c2c3nc(c(-c4c(F)cc(S(=O)(=O)[O-])cc4F)c4ccc([nH]4)c(-c4c(F)cc(S(=O)(=O)[O-])cc4F)c4nc(c(-c5c(F)cc(S(=O)(=O)[O-])cc5F)c5ccc2[nH]5)C=C4)C=C3)cc1
REMARK SMILES IDX 22 1 21 2 20 3 18 4 19 5 3 7 4 8 2 9 1 10 5 11 6 12 7 14
REMARK SMILES IDX 8 15 9 16 12 17 10 18 11 19 13 20 14 21 17 22 15 23 16 24
REMARK SMILES IDX 23 25 24 26 25 27 26 29 27 30 28 31 92 32 29 33 91 34 30 35
REMARK SMILES IDX 31 36 32 37 85 38 33 39 90 40 84 41 86 42 34 43 89 44 83 45
REMARK SMILES IDX 82 46 35 48 69 49 48 50 68 51 49 52 52 53 67 54 87 55 50 56
REMARK SMILES IDX 51 57 66 59 88 60 53 61 36 62 37 63 46 64 38 65 39 66 45 67
REMARK SMILES IDX 47 68 40 69 41 70 42 71 43 72 44 73 70 74 71 75 80 76 72 77
REMARK SMILES IDX 73 78 79 79 81 80 74 81 75 82 76 83 77 84 78 85 54 86 55 87
REMARK SMILES IDX 64 88 56 89 57 90 63 91 65 92 58 93 59 94 60 95 61 96 62 97
REMARK H PARENT 20 6 5 13 24 28 86 47 52 58
REMARK Flexibility Score: inf
ROOT
ATOM      1  C   UNL A   1      33.758  28.298  25.640  1.00  0.00     0.042 C 
ENDROOT
BRANCH   1   2
ATOM      2  C   UNL A   1      33.706  26.882  25.076  1.00  0.00     0.117 C 
BRANCH   2   3
ATOM      3  N   UNL A   1      32.675  26.003  25.604  1.00  0.00    -0.354 N 
ATOM      4  C   UNL A   1      31.927  24.998  25.053  1.00  0.00     0.245 C 
ATOM      5  O   UNL A   1      31.389  24.244  25.872  1.00  0.00    -0.272 OA
ATOM      6  H   UNL A   1      32.473  26.163  26.554  1.00  0.00     0.163 HD
BRANCH   4   7
ATOM      7  C   UNL A   1      31.832  24.732  23.518  1.00  0.00     0.117 C 
ATOM      8  C   UNL A   1      30.604  23.802  23.325  1.00  0.00     0.045 C 
BRANCH   7   9
ATOM      9  C   UNL A   1      31.566  26.023  22.671  1.00  0.00     0.035 C 
ATOM     10  C   UNL A   1      32.676  26.523  21.749  1.00  0.00     0.007 C 
ENDBRANCH   7   9
BRANCH   7  11
ATOM     11  N   UNL A   1      33.025  24.049  22.934  1.00  0.00    -0.324 N 
ATOM     12  C   UNL A   1      34.096  23.453  23.518  1.00  0.00     0.318 C 
ATOM     13  H   UNL A   1      33.037  24.027  21.950  1.00  0.00     0.166 HD
ATOM     14  O   UNL A   1      35.188  23.902  23.161  1.00  0.00    -0.249 OA
BRANCH  12  15
ATOM     15  N   UNL A   1      33.997  22.402  24.377  1.00  0.00    -0.322 N 
ATOM     16  C   UNL A   1      33.436  21.088  24.178  1.00  0.00     0.122 C 
ATOM     17  C   UNL A   1      34.419  22.521  25.790  1.00  0.00     0.090 C 
ATOM     18  C   UNL A   1      32.743  20.773  25.480  1.00  0.00     0.024 C 
ATOM     19  C   UNL A   1      33.684  21.361  26.513  1.00  0.00     0.027 C 
BRANCH  17  20
ATOM     20  C   UNL A   1      35.941  22.404  26.079  1.00  0.00     0.012 C 
ATOM     21  C   UNL A   1      36.745  21.521  25.126  1.00  0.00     0.006 C 
ATOM     22  C   UNL A   1      36.759  23.695  26.046  1.00  0.00     0.006 C 
ATOM     23  C   UNL A   1      38.200  21.812  25.479  1.00  0.00     0.000 C 
ATOM     24  C   UNL A   1      38.212  23.220  26.065  1.00  0.00     0.000 C 
ENDBRANCH  17  20
ENDBRANCH  12  15
ENDBRANCH   7  11
ENDBRANCH   4   7
ENDBRANCH   2   3
ENDBRANCH   1   2
BRANCH   1  25
ATOM     25  C   UNL A   1      33.773  28.437  27.160  1.00  0.00     0.118 C 
BRANCH  25  26
ATOM     26  N   UNL A   1      33.680  29.791  27.666  1.00  0.00    -0.352 N 
ATOM     27  C   UNL A   1      34.658  30.592  28.218  1.00  0.00     0.251 C 
ATOM     28  H   UNL A   1      32.787  30.200  27.605  1.00  0.00     0.163 HD
ATOM     29  O   UNL A   1      34.372  31.735  28.553  1.00  0.00    -0.269 OA
BRANCH  27  30
ATOM     30  C   UNL A   1      36.030  30.078  28.467  1.00  0.00     0.039 A 
ATOM     31  C   UNL A   1      36.948  30.128  27.413  1.00  0.00     0.014 A 
ATOM     32  C   UNL A   1      36.420  29.517  29.686  1.00  0.00     0.014 A 
ATOM     33  C   UNL A   1      38.267  29.691  27.600  1.00  0.00     0.010 A 
ATOM     34  C   UNL A   1      37.752  29.122  29.882  1.00  0.00     0.010 A 
ATOM     35  C   UNL A   1      38.701  29.222  28.849  1.00  0.00    -0.014 A 
BRANCH  35  36
ATOM     36  C   UNL A   1      40.136  28.861  29.083  1.00  0.00     0.031 A 
ATOM     37  C   UNL A   1      41.103  29.862  29.667  1.00  0.00     0.074 A 
ATOM     38  C   UNL A   1      40.597  27.639  28.736  1.00  0.00     0.049 A 
ATOM     39  N   UNL A   1      42.389  29.741  29.885  1.00  0.00    -0.248 NA
ATOM     40  C   UNL A   1      40.557  31.175  30.037  1.00  0.00     0.031 C 
ATOM     41  C   UNL A   1      39.796  26.571  28.133  1.00  0.00     0.029 A 
ATOM     42  N   UNL A   1      41.854  27.086  28.836  1.00  0.00    -0.354 N 
ATOM     43  C   UNL A   1      42.809  30.963  30.401  1.00  0.00     0.074 A 
ATOM     44  C   UNL A   1      41.647  31.826  30.419  1.00  0.00     0.031 C 
ATOM     45  C   UNL A   1      40.571  25.492  27.939  1.00  0.00     0.029 A 
ATOM     46  C   UNL A   1      41.937  25.795  28.360  1.00  0.00     0.049 A 
ATOM     47  H   UNL A   1      42.625  27.568  29.213  1.00  0.00     0.167 HD
ATOM     48  C   UNL A   1      44.039  31.329  30.839  1.00  0.00     0.037 A 
ATOM     49  C   UNL A   1      42.986  24.952  28.258  1.00  0.00     0.037 A 
ATOM     50  C   UNL A   1      45.194  30.468  30.852  1.00  0.00     0.049 A 
ATOM     51  C   UNL A   1      44.348  25.388  28.733  1.00  0.00     0.074 A 
ATOM     52  C   UNL A   1      46.466  30.748  31.327  1.00  0.00     0.029 A 
ATOM     53  N   UNL A   1      45.227  29.169  30.370  1.00  0.00    -0.354 N 
ATOM     54  N   UNL A   1      44.707  26.530  29.266  1.00  0.00    -0.248 NA
ATOM     55  C   UNL A   1      45.448  24.420  28.596  1.00  0.00     0.031 C 
ATOM     56  C   UNL A   1      47.280  29.636  31.087  1.00  0.00     0.029 A 
ATOM     57  C   UNL A   1      46.501  28.642  30.518  1.00  0.00     0.049 A 
ATOM     58  H   UNL A   1      44.460  28.691  29.981  1.00  0.00     0.167 HD
ATOM     59  C   UNL A   1      46.061  26.402  29.565  1.00  0.00     0.074 A 
ATOM     60  C   UNL A   1      46.459  25.074  29.152  1.00  0.00     0.031 C 
ATOM     61  C   UNL A   1      46.893  27.308  30.135  1.00  0.00     0.037 A 
BRANCH  48  62
ATOM     62  C   UNL A   1      44.208  32.737  31.349  1.00  0.00     0.058 A 
ATOM     63  C   UNL A   1      44.559  33.794  30.494  1.00  0.00     0.135 A 
ATOM     64  C   UNL A   1      43.965  33.042  32.699  1.00  0.00     0.135 A 
ATOM     65  F   UNL A   1      44.811  33.559  29.196  1.00  0.00    -0.206 F 
ATOM     66  C   UNL A   1      44.701  35.095  30.966  1.00  0.00     0.059 A 
ATOM     67  C   UNL A   1      44.070  34.341  33.186  1.00  0.00     0.059 A 
ATOM     68  F   UNL A   1      43.616  32.072  33.558  1.00  0.00    -0.206 F 
ATOM     69  C   UNL A   1      44.457  35.358  32.314  1.00  0.00     0.060 A 
BRANCH  69  70
ATOM     70  S   UNL A   1      44.654  37.050  32.911  1.00  0.00     0.124 S 
ATOM     71  O   UNL A   1      43.445  37.683  32.390  1.00  0.00    -0.237 OA
ATOM     72  O   UNL A   1      44.700  36.868  34.359  1.00  0.00    -0.237 OA
ATOM     73  O   UNL A   1      45.903  37.486  32.296  1.00  0.00    -0.744 OA
ENDBRANCH  69  70
ENDBRANCH  48  62
BRANCH  49  74
ATOM     74  C   UNL A   1      42.793  23.588  27.687  1.00  0.00     0.058 A 
ATOM     75  C   UNL A   1      42.541  22.485  28.516  1.00  0.00     0.135 A 
ATOM     76  C   UNL A   1      42.863  23.360  26.303  1.00  0.00     0.135 A 
ATOM     77  F   UNL A   1      42.478  22.647  29.847  1.00  0.00    -0.206 F 
ATOM     78  C   UNL A   1      42.384  21.203  27.999  1.00  0.00     0.059 A 
ATOM     79  C   UNL A   1      42.680  22.092  25.760  1.00  0.00     0.059 A 
ATOM     80  F   UNL A   1      43.090  24.383  25.465  1.00  0.00    -0.206 F 
ATOM     81  C   UNL A   1      42.452  21.017  26.618  1.00  0.00     0.060 A 
BRANCH  81  82
ATOM     82  S   UNL A   1      42.201  19.356  25.954  1.00  0.00     0.124 S 
ATOM     83  O   UNL A   1      42.700  18.525  27.044  1.00  0.00    -0.237 OA
ATOM     84  O   UNL A   1      40.758  19.327  25.738  1.00  0.00    -0.237 OA
ATOM     85  O   UNL A   1      43.009  19.354  24.738  1.00  0.00    -0.744 OA
ENDBRANCH  81  82
ENDBRANCH  49  74
BRANCH  61  86
ATOM     86  C   UNL A   1      48.313  26.893  30.417  1.00  0.00     0.058 A 
ATOM     87  C   UNL A   1      49.377  27.254  29.576  1.00  0.00     0.135 A 
ATOM     88  C   UNL A   1      48.623  26.203  31.602  1.00  0.00     0.135 A 
ATOM     89  F   UNL A   1      49.139  27.906  28.427  1.00  0.00    -0.206 F 
ATOM     90  C   UNL A   1      50.696  26.944  29.898  1.00  0.00     0.059 A 
ATOM     91  C   UNL A   1      49.936  25.907  31.956  1.00  0.00     0.059 A 
ATOM     92  F   UNL A   1      47.645  25.838  32.446  1.00  0.00    -0.206 F 
ATOM     93  C   UNL A   1      50.966  26.279  31.095  1.00  0.00     0.060 A 
BRANCH  93  94
ATOM     94  S   UNL A   1      52.687  25.951  31.536  1.00  0.00     0.124 S 
ATOM     95  O   UNL A   1      53.345  26.028  30.235  1.00  0.00    -0.237 OA
ATOM     96  O   UNL A   1      52.985  27.038  32.463  1.00  0.00    -0.237 OA
ATOM     97  O   UNL A   1      52.638  24.620  32.135  1.00  0.00    -0.744 OA
ENDBRANCH  93  94
ENDBRANCH  61  86
ENDBRANCH  35  36
ENDBRANCH  27  30
ENDBRANCH  25  26
ENDBRANCH   1  25
TORSDOF 17
ENDMDL
MODEL 3
REMARK VINA RESULT:      -9.5      3.871      6.837
REMARK SMILES CC[C@@](C)(NC(=O)N1CCC[C@H]1C1CCCC1)C(=O)NCCCNC(=O)c1ccc(-c2c3nc(c(-c4c(F)cc(S(=O)(=O)[O-])cc4F)c4ccc([nH]4)c(-c4c(F)cc(S(=O)(=O)[O-])cc4F)c4nc(c(-c5c(F)cc(S(=O)(=O)[O-])cc5F)c5ccc2[nH]5)C=C4)C=C3)cc1
REMARK SMILES IDX 22 1 21 2 20 3 18 4 19 5 3 7 4 8 2 9 1 10 5 11 6 12 7 14
REMARK SMILES IDX 8 15 9 16 12 17 10 18 11 19 13 20 14 21 17 22 15 23 16 24
REMARK SMILES IDX 23 25 24 26 25 27 26 29 27 30 28 31 92 32 29 33 91 34 30 35
REMARK SMILES IDX 31 36 32 37 85 38 33 39 90 40 84 41 86 42 34 43 89 44 83 45
REMARK SMILES IDX 82 46 35 48 69 49 48 50 68 51 49 52 52 53 67 54 87 55 50 56
REMARK SMILES IDX 51 57 66 59 88 60 53 61 36 62 37 63 46 64 38 65 39 66 45 67
REMARK SMILES IDX 47 68 40 69 41 70 42 71 43 72 44 73 70 74 71 75 80 76 72 77
REMARK SMILES IDX 73 78 79 79 81 80 74 81 75 82 76 83 77 84 78 85 54 86 55 87
REMARK SMILES IDX 64 88 56 89 57 90 63 91 65 92 58 93 59 94 60 95 61 96 62 97
REMARK H PARENT 20 6 5 13 24 28 86 47 52 58
REMARK Flexibility Score: inf
ROOT
ATOM      1  C   UNL A   1      33.773  29.766  26.794  1.00  0.00     0.042 C 
ENDROOT
BRANCH   1   2
ATOM      2  C   UNL A   1      33.357  28.599  25.905  1.00  0.00     0.117 C 
BRANCH   2   3
ATOM      3  N   UNL A   1      32.295  27.740  26.404  1.00  0.00    -0.354 N 
ATOM      4  C   UNL A   1      31.251  27.094  25.800  1.00  0.00     0.245 C 
ATOM      5  O   UNL A   1      30.745  26.185  26.471  1.00  0.00    -0.272 OA
ATOM      6  H   UNL A   1      32.335  27.593  27.376  1.00  0.00     0.163 HD
BRANCH   4   7
ATOM      7  C   UNL A   1      30.783  27.381  24.339  1.00  0.00     0.117 C 
ATOM      8  C   UNL A   1      29.388  26.713  24.202  1.00  0.00     0.045 C 
BRANCH   7   9
ATOM      9  C   UNL A   1      30.594  28.905  24.027  1.00  0.00     0.035 C 
ATOM     10  C   UNL A   1      30.414  29.326  22.570  1.00  0.00     0.007 C 
ENDBRANCH   7   9
BRANCH   7  11
ATOM     11  N   UNL A   1      31.673  26.812  23.282  1.00  0.00    -0.324 N 
ATOM     12  C   UNL A   1      32.764  26.009  23.362  1.00  0.00     0.318 C 
ATOM     13  H   UNL A   1      31.423  27.066  22.364  1.00  0.00     0.166 HD
ATOM     14  O   UNL A   1      33.776  26.468  22.827  1.00  0.00    -0.249 OA
BRANCH  12  15
ATOM     15  N   UNL A   1      32.746  24.768  23.920  1.00  0.00    -0.322 N 
ATOM     16  C   UNL A   1      31.853  23.659  23.694  1.00  0.00     0.122 C 
ATOM     17  C   UNL A   1      33.685  24.399  25.003  1.00  0.00     0.090 C 
ATOM     18  C   UNL A   1      31.649  23.054  25.060  1.00  0.00     0.024 C 
ATOM     19  C   UNL A   1      33.022  23.178  25.691  1.00  0.00     0.027 C 
BRANCH  17  20
ATOM     20  C   UNL A   1      35.127  24.009  24.577  1.00  0.00     0.012 C 
ATOM     21  C   UNL A   1      35.923  23.166  25.572  1.00  0.00     0.006 C 
ATOM     22  C   UNL A   1      35.278  23.182  23.301  1.00  0.00     0.006 C 
ATOM     23  C   UNL A   1      37.153  22.720  24.789  1.00  0.00     0.000 C 
ATOM     24  C   UNL A   1      36.736  22.719  23.322  1.00  0.00     0.000 C 
ENDBRANCH  17  20
ENDBRANCH  12  15
ENDBRANCH   7  11
ENDBRANCH   4   7
ENDBRANCH   2   3
ENDBRANCH   1   2
BRANCH   1  25
ATOM     25  C   UNL A   1      35.046  29.590  27.617  1.00  0.00     0.118 C 
BRANCH  25  26
ATOM     26  N   UNL A   1      35.073  30.289  28.885  1.00  0.00    -0.352 N 
ATOM     27  C   UNL A   1      36.137  30.554  29.721  1.00  0.00     0.251 C 
ATOM     28  H   UNL A   1      34.201  30.623  29.197  1.00  0.00     0.163 HD
ATOM     29  O   UNL A   1      35.945  31.199  30.743  1.00  0.00    -0.269 OA
BRANCH  27  30
ATOM     30  C   UNL A   1      37.497  30.023  29.435  1.00  0.00     0.039 A 
ATOM     31  C   UNL A   1      37.901  29.951  28.098  1.00  0.00     0.014 A 
ATOM     32  C   UNL A   1      38.356  29.563  30.435  1.00  0.00     0.014 A 
ATOM     33  C   UNL A   1      39.185  29.493  27.771  1.00  0.00     0.010 A 
ATOM     34  C   UNL A   1      39.656  29.148  30.107  1.00  0.00     0.010 A 
ATOM     35  C   UNL A   1      40.098  29.126  28.771  1.00  0.00    -0.014 A 
BRANCH  35  36
ATOM     36  C   UNL A   1      41.506  28.744  28.431  1.00  0.00     0.031 A 
ATOM     37  C   UNL A   1      42.605  29.779  28.403  1.00  0.00     0.074 A 
ATOM     38  C   UNL A   1      41.807  27.468  28.105  1.00  0.00     0.049 A 
ATOM     39  N   UNL A   1      43.866  29.639  28.076  1.00  0.00    -0.248 NA
ATOM     40  C   UNL A   1      42.234  31.152  28.772  1.00  0.00     0.031 C 
ATOM     41  C   UNL A   1      40.853  26.359  28.056  1.00  0.00     0.029 A 
ATOM     42  N   UNL A   1      43.002  26.885  27.748  1.00  0.00    -0.354 N 
ATOM     43  C   UNL A   1      44.434  30.904  28.184  1.00  0.00     0.074 A 
ATOM     44  C   UNL A   1      43.367  31.807  28.562  1.00  0.00     0.031 C 
ATOM     45  C   UNL A   1      41.500  25.232  27.715  1.00  0.00     0.029 A 
ATOM     46  C   UNL A   1      42.908  25.538  27.475  1.00  0.00     0.049 A 
ATOM     47  H   UNL A   1      43.848  27.385  27.692  1.00  0.00     0.167 HD
ATOM     48  C   UNL A   1      45.725  31.280  28.007  1.00  0.00     0.037 A 
ATOM     49  C   UNL A   1      43.836  24.647  27.066  1.00  0.00     0.037 A 
ATOM     50  C   UNL A   1      46.799  30.384  27.660  1.00  0.00     0.049 A 
ATOM     51  C   UNL A   1      45.261  25.092  26.857  1.00  0.00     0.074 A 
ATOM     52  C   UNL A   1      48.145  30.677  27.510  1.00  0.00     0.029 A 
ATOM     53  N   UNL A   1      46.657  29.030  27.404  1.00  0.00    -0.354 N 
ATOM     54  N   UNL A   1      45.784  26.283  27.017  1.00  0.00    -0.248 NA
ATOM     55  C   UNL A   1      46.224  24.071  26.413  1.00  0.00     0.031 C 
ATOM     56  C   UNL A   1      48.809  29.511  27.116  1.00  0.00     0.029 A 
ATOM     57  C   UNL A   1      47.887  28.478  27.078  1.00  0.00     0.049 A 
ATOM     58  H   UNL A   1      45.809  28.532  27.447  1.00  0.00     0.167 HD
ATOM     59  C   UNL A   1      47.141  26.145  26.735  1.00  0.00     0.074 A 
ATOM     60  C   UNL A   1      47.359  24.757  26.392  1.00  0.00     0.031 C 
ATOM     61  C   UNL A   1      48.113  27.088  26.765  1.00  0.00     0.037 A 
BRANCH  48  62
ATOM     62  C   UNL A   1      46.059  32.738  28.188  1.00  0.00     0.058 A 
ATOM     63  C   UNL A   1      45.968  33.652  27.126  1.00  0.00     0.135 A 
ATOM     64  C   UNL A   1      46.425  33.236  29.450  1.00  0.00     0.135 A 
ATOM     65  F   UNL A   1      45.631  33.231  25.897  1.00  0.00    -0.206 F 
ATOM     66  C   UNL A   1      46.265  35.001  27.301  1.00  0.00     0.059 A 
ATOM     67  C   UNL A   1      46.695  34.586  29.654  1.00  0.00     0.059 A 
ATOM     68  F   UNL A   1      46.518  32.408  30.502  1.00  0.00    -0.206 F 
ATOM     69  C   UNL A   1      46.630  35.457  28.568  1.00  0.00     0.060 A 
BRANCH  69  70
ATOM     70  S   UNL A   1      47.018  37.208  28.773  1.00  0.00     0.124 S 
ATOM     71  O   UNL A   1      46.265  37.532  29.981  1.00  0.00    -0.237 OA
ATOM     72  O   UNL A   1      48.471  37.191  28.918  1.00  0.00    -0.237 OA
ATOM     73  O   UNL A   1      46.521  37.815  27.543  1.00  0.00    -0.744 OA
ENDBRANCH  69  70
ENDBRANCH  48  62
BRANCH  49  74
ATOM     74  C   UNL A   1      43.454  23.225  26.835  1.00  0.00     0.058 A 
ATOM     75  C   UNL A   1      43.352  22.704  25.536  1.00  0.00     0.135 A 
ATOM     76  C   UNL A   1      43.175  22.361  27.906  1.00  0.00     0.135 A 
ATOM     77  F   UNL A   1      43.594  23.492  24.477  1.00  0.00    -0.206 F 
ATOM     78  C   UNL A   1      42.973  21.385  25.305  1.00  0.00     0.059 A 
ATOM     79  C   UNL A   1      42.822  21.031  27.702  1.00  0.00     0.059 A 
ATOM     80  F   UNL A   1      43.269  22.806  29.169  1.00  0.00    -0.206 F 
ATOM     81  C   UNL A   1      42.712  20.555  26.396  1.00  0.00     0.060 A 
BRANCH  81  82
ATOM     82  S   UNL A   1      42.264  18.833  26.085  1.00  0.00     0.124 S 
ATOM     83  O   UNL A   1      43.184  18.479  25.010  1.00  0.00    -0.237 OA
ATOM     84  O   UNL A   1      42.523  18.211  27.379  1.00  0.00    -0.237 OA
ATOM     85  O   UNL A   1      40.855  18.916  25.709  1.00  0.00    -0.744 OA
ENDBRANCH  81  82
ENDBRANCH  49  74
BRANCH  61  86
ATOM     86  C   UNL A   1      49.529  26.661  26.482  1.00  0.00     0.058 A 
ATOM     87  C   UNL A   1      50.336  26.058  27.460  1.00  0.00     0.135 A 
ATOM     88  C   UNL A   1      50.052  26.772  25.182  1.00  0.00     0.135 A 
ATOM     89  F   UNL A   1      49.891  25.934  28.721  1.00  0.00    -0.206 F 
ATOM     90  C   UNL A   1      51.610  25.583  27.160  1.00  0.00     0.059 A 
ATOM     91  C   UNL A   1      51.312  26.279  24.853  1.00  0.00     0.059 A 
ATOM     92  F   UNL A   1      49.321  27.334  24.206  1.00  0.00    -0.206 F 
ATOM     93  C   UNL A   1      52.085  25.689  25.851  1.00  0.00     0.060 A 
BRANCH  93  94
ATOM     94  S   UNL A   1      53.709  25.000  25.459  1.00  0.00     0.124 S 
ATOM     95  O   UNL A   1      54.469  25.336  26.659  1.00  0.00    -0.237 OA
ATOM     96  O   UNL A   1      53.410  23.584  25.275  1.00  0.00    -0.237 OA
ATOM     97  O   UNL A   1      54.100  25.715  24.248  1.00  0.00    -0.744 OA
ENDBRANCH  93  94
ENDBRANCH  61  86
ENDBRANCH  35  36
ENDBRANCH  27  30
ENDBRANCH  25  26
ENDBRANCH   1  25
TORSDOF 17
ENDMDL
