MODEL 1
REMARK VINA RESULT:     -13.6      0.000      0.000
REMARK SMILES C[C@H]1CCc2sc3ncn4nc(/C=C\C(=O)NCCCNC(=O)c5ccc(-c6c7nc(c(-c8c(F)cc(S(=O)(=O)[O-])cc8F)c8ccc([nH]8)c(-c8c(F)cc(S(=O)(=O)[O-])cc8F)c8nc(c(-c9c(F)cc(S(=O)(=O)[O-])cc9F)c9ccc6[nH]9)C=C8)C=C7)cc5)nc4c3c2C1
REMARK SMILES IDX 20 1 19 2 18 3 17 4 15 5 16 6 14 8 13 9 12 10 1 11 2 12 3 13
REMARK SMILES IDX 94 14 4 15 93 16 5 17 92 18 6 19 7 20 91 21 8 22 10 23 90 24
REMARK SMILES IDX 9 25 11 26 21 27 22 28 23 30 24 31 25 32 89 33 26 34 88 35
REMARK SMILES IDX 27 36 28 37 29 38 82 39 30 40 87 41 81 42 83 43 31 44 86 45
REMARK SMILES IDX 80 46 79 47 32 49 66 50 45 51 65 52 46 53 49 54 64 55 84 56
REMARK SMILES IDX 47 57 48 58 63 60 85 61 50 62 33 63 34 64 43 65 35 66 36 67
REMARK SMILES IDX 42 68 44 69 37 70 38 71 39 72 40 73 41 74 67 75 68 76 77 77
REMARK SMILES IDX 69 78 70 79 76 80 78 81 71 82 72 83 73 84 74 85 75 86 51 87
REMARK SMILES IDX 52 88 61 89 53 90 54 91 60 92 62 93 55 94 56 95 57 96 58 97
REMARK SMILES IDX 59 98
REMARK H PARENT 17 7 21 29 83 48 49 59
REMARK Flexibility Score: inf
ROOT
ATOM      1  C   UNL A   1      42.150  20.099  26.847  1.00  0.00     0.118 C 
ENDROOT
BRANCH   1   2
ATOM      2  C   UNL A   1      40.890  20.579  26.120  1.00  0.00     0.042 C 
BRANCH   2   3
ATOM      3  C   UNL A   1      40.061  21.557  26.937  1.00  0.00     0.118 C 
BRANCH   3   4
ATOM      4  N   UNL A   1      39.286  22.531  26.198  1.00  0.00    -0.352 N 
ATOM      5  C   UNL A   1      38.077  22.418  25.585  1.00  0.00     0.244 C 
ATOM      6  O   UNL A   1      37.496  23.435  25.205  1.00  0.00    -0.270 OA
ATOM      7  H   UNL A   1      39.701  23.421  26.128  1.00  0.00     0.163 HD
BRANCH   5   8
ATOM      8  C   UNL A   1      37.517  21.111  25.174  1.00  0.00     0.075 C 
ATOM      9  C   UNL A   1      36.256  20.664  25.058  1.00  0.00     0.057 C 
BRANCH   9  10
ATOM     10  C   UNL A   1      35.030  21.317  25.369  1.00  0.00     0.175 A 
ATOM     11  C   UNL A   1      32.168  25.884  21.059  1.00  0.00     0.008 C 
ATOM     12  C   UNL A   1      33.272  26.361  21.995  1.00  0.00    -0.009 C 
ATOM     13  C   UNL A   1      32.832  27.649  22.715  1.00  0.00     0.009 C 
ATOM     14  C   UNL A   1      33.720  25.242  22.964  1.00  0.00     0.041 C 
ATOM     15  C   UNL A   1      31.804  27.456  23.838  1.00  0.00     0.047 C 
ATOM     16  C   UNL A   1      32.869  25.149  24.195  1.00  0.00    -0.020 A 
ATOM     17  C   UNL A   1      32.021  26.172  24.577  1.00  0.00     0.011 A 
ATOM     18  C   UNL A   1      32.860  24.129  25.181  1.00  0.00     0.060 A 
ATOM     19  S   UNL A   1      31.188  25.847  26.034  1.00  0.00    -0.120 S 
ATOM     20  C   UNL A   1      32.060  24.399  26.285  1.00  0.00     0.129 A 
ATOM     21  C   UNL A   1      33.633  22.878  25.312  1.00  0.00     0.168 A 
ATOM     22  N   UNL A   1      31.960  23.683  27.457  1.00  0.00    -0.225 NA
ATOM     23  N   UNL A   1      33.542  22.216  26.501  1.00  0.00    -0.201 N 
ATOM     24  N   UNL A   1      34.527  22.303  24.546  1.00  0.00    -0.207 NA
ATOM     25  C   UNL A   1      32.735  22.635  27.556  1.00  0.00     0.227 A 
ATOM     26  N   UNL A   1      34.409  21.188  26.556  1.00  0.00    -0.145 NA
ENDBRANCH   9  10
ENDBRANCH   5   8
ENDBRANCH   3   4
ENDBRANCH   2   3
ENDBRANCH   1   2
BRANCH   1  27
ATOM     27  N   UNL A   1      43.229  19.646  25.964  1.00  0.00    -0.352 N 
ATOM     28  C   UNL A   1      44.011  20.390  25.097  1.00  0.00     0.251 C 
ATOM     29  H   UNL A   1      43.422  18.681  25.990  1.00  0.00     0.163 HD
ATOM     30  O   UNL A   1      44.470  19.844  24.098  1.00  0.00    -0.269 OA
BRANCH  28  31
ATOM     31  C   UNL A   1      44.260  21.828  25.349  1.00  0.00     0.039 A 
ATOM     32  C   UNL A   1      43.485  22.802  24.715  1.00  0.00     0.014 A 
ATOM     33  C   UNL A   1      45.239  22.211  26.264  1.00  0.00     0.014 A 
ATOM     34  C   UNL A   1      43.586  24.127  25.136  1.00  0.00     0.010 A 
ATOM     35  C   UNL A   1      45.267  23.495  26.766  1.00  0.00     0.010 A 
ATOM     36  C   UNL A   1      44.418  24.450  26.224  1.00  0.00    -0.014 A 
BRANCH  36  37
ATOM     37  C   UNL A   1      44.080  25.608  27.052  1.00  0.00     0.031 A 
ATOM     38  C   UNL A   1      45.022  26.739  26.792  1.00  0.00     0.074 A 
ATOM     39  C   UNL A   1      42.914  25.832  27.689  1.00  0.00     0.049 A 
ATOM     40  N   UNL A   1      45.970  27.173  27.553  1.00  0.00    -0.248 NA
ATOM     41  C   UNL A   1      45.069  27.281  25.419  1.00  0.00     0.031 C 
ATOM     42  C   UNL A   1      41.709  25.001  27.697  1.00  0.00     0.029 A 
ATOM     43  N   UNL A   1      42.524  26.940  28.380  1.00  0.00    -0.354 N 
ATOM     44  C   UNL A   1      46.567  28.212  26.844  1.00  0.00     0.074 A 
ATOM     45  C   UNL A   1      46.159  28.047  25.476  1.00  0.00     0.031 C 
ATOM     46  C   UNL A   1      40.668  25.726  28.171  1.00  0.00     0.029 A 
ATOM     47  C   UNL A   1      41.161  27.008  28.644  1.00  0.00     0.049 A 
ATOM     48  H   UNL A   1      43.157  27.636  28.669  1.00  0.00     0.167 HD
ATOM     49  C   UNL A   1      47.100  29.288  27.485  1.00  0.00     0.037 A 
ATOM     50  C   UNL A   1      40.496  28.062  29.184  1.00  0.00     0.037 A 
ATOM     51  C   UNL A   1      47.220  29.024  28.898  1.00  0.00     0.049 A 
ATOM     52  C   UNL A   1      41.511  28.895  29.882  1.00  0.00     0.074 A 
ATOM     53  C   UNL A   1      47.915  28.123  29.677  1.00  0.00     0.029 A 
ATOM     54  N   UNL A   1      46.200  29.516  29.678  1.00  0.00    -0.354 N 
ATOM     55  N   UNL A   1      42.197  28.495  30.919  1.00  0.00    -0.248 NA
ATOM     56  C   UNL A   1      42.047  30.062  29.198  1.00  0.00     0.031 C 
ATOM     57  C   UNL A   1      47.050  27.825  30.772  1.00  0.00     0.029 A 
ATOM     58  C   UNL A   1      45.894  28.598  30.648  1.00  0.00     0.049 A 
ATOM     59  H   UNL A   1      45.760  30.388  29.558  1.00  0.00     0.167 HD
ATOM     60  C   UNL A   1      43.445  29.075  30.763  1.00  0.00     0.074 A 
ATOM     61  C   UNL A   1      43.245  30.137  29.783  1.00  0.00     0.031 C 
ATOM     62  C   UNL A   1      44.568  28.448  31.220  1.00  0.00     0.037 A 
BRANCH  49  63
ATOM     63  C   UNL A   1      47.090  30.706  26.945  1.00  0.00     0.058 A 
ATOM     64  C   UNL A   1      48.287  31.456  26.980  1.00  0.00     0.135 A 
ATOM     65  C   UNL A   1      45.922  31.451  26.669  1.00  0.00     0.135 A 
ATOM     66  F   UNL A   1      49.460  30.859  27.240  1.00  0.00    -0.206 F 
ATOM     67  C   UNL A   1      48.306  32.844  26.834  1.00  0.00     0.059 A 
ATOM     68  C   UNL A   1      45.928  32.826  26.463  1.00  0.00     0.059 A 
ATOM     69  F   UNL A   1      44.698  30.913  26.681  1.00  0.00    -0.206 F 
ATOM     70  C   UNL A   1      47.116  33.522  26.589  1.00  0.00     0.060 A 
BRANCH  70  71
ATOM     71  S   UNL A   1      47.117  35.318  26.498  1.00  0.00     0.124 S 
ATOM     72  O   UNL A   1      45.736  35.591  26.121  1.00  0.00    -0.237 OA
ATOM     73  O   UNL A   1      47.500  35.689  27.855  1.00  0.00    -0.237 OA
ATOM     74  O   UNL A   1      48.121  35.600  25.471  1.00  0.00    -0.744 OA
ENDBRANCH  70  71
ENDBRANCH  49  63
BRANCH  50  75
ATOM     75  C   UNL A   1      39.116  28.553  28.918  1.00  0.00     0.058 A 
ATOM     76  C   UNL A   1      38.165  28.636  29.953  1.00  0.00     0.135 A 
ATOM     77  C   UNL A   1      38.790  29.226  27.725  1.00  0.00     0.135 A 
ATOM     78  F   UNL A   1      38.393  28.030  31.129  1.00  0.00    -0.206 F 
ATOM     79  C   UNL A   1      37.000  29.402  29.841  1.00  0.00     0.059 A 
ATOM     80  C   UNL A   1      37.629  29.988  27.585  1.00  0.00     0.059 A 
ATOM     81  F   UNL A   1      39.640  29.245  26.687  1.00  0.00    -0.206 F 
ATOM     82  C   UNL A   1      36.755  30.100  28.660  1.00  0.00     0.060 A 
BRANCH  82  83
ATOM     83  S   UNL A   1      35.358  31.248  28.584  1.00  0.00     0.124 S 
ATOM     84  O   UNL A   1      35.164  31.583  29.990  1.00  0.00    -0.237 OA
ATOM     85  O   UNL A   1      35.887  32.317  27.742  1.00  0.00    -0.237 OA
ATOM     86  O   UNL A   1      34.296  30.450  27.979  1.00  0.00    -0.744 OA
ENDBRANCH  82  83
ENDBRANCH  50  75
BRANCH  62  87
ATOM     87  C   UNL A   1      44.407  27.377  32.268  1.00  0.00     0.058 A 
ATOM     88  C   UNL A   1      44.139  27.609  33.628  1.00  0.00     0.135 A 
ATOM     89  C   UNL A   1      44.370  26.045  31.826  1.00  0.00     0.135 A 
ATOM     90  F   UNL A   1      44.073  28.854  34.119  1.00  0.00    -0.206 F 
ATOM     91  C   UNL A   1      43.865  26.560  34.510  1.00  0.00     0.059 A 
ATOM     92  C   UNL A   1      44.067  24.990  32.679  1.00  0.00     0.059 A 
ATOM     93  F   UNL A   1      44.571  25.763  30.527  1.00  0.00    -0.206 F 
ATOM     94  C   UNL A   1      43.820  25.254  34.023  1.00  0.00     0.060 A 
BRANCH  94  95
ATOM     95  S   UNL A   1      43.357  23.913  35.140  1.00  0.00     0.124 S 
ATOM     96  O   UNL A   1      44.217  24.161  36.293  1.00  0.00    -0.237 OA
ATOM     97  O   UNL A   1      41.932  24.153  35.349  1.00  0.00    -0.237 OA
ATOM     98  O   UNL A   1      43.672  22.708  34.376  1.00  0.00    -0.744 OA
ENDBRANCH  94  95
ENDBRANCH  62  87
ENDBRANCH  36  37
ENDBRANCH  28  31
ENDBRANCH   1  27
TORSDOF 14
ENDMDL
MODEL 2
REMARK VINA RESULT:     -13.6      0.313      1.115
REMARK SMILES C[C@H]1CCc2sc3ncn4nc(/C=C\C(=O)NCCCNC(=O)c5ccc(-c6c7nc(c(-c8c(F)cc(S(=O)(=O)[O-])cc8F)c8ccc([nH]8)c(-c8c(F)cc(S(=O)(=O)[O-])cc8F)c8nc(c(-c9c(F)cc(S(=O)(=O)[O-])cc9F)c9ccc6[nH]9)C=C8)C=C7)cc5)nc4c3c2C1
REMARK SMILES IDX 20 1 19 2 18 3 17 4 15 5 16 6 14 8 13 9 12 10 1 11 2 12 3 13
REMARK SMILES IDX 94 14 4 15 93 16 5 17 92 18 6 19 7 20 91 21 8 22 10 23 90 24
REMARK SMILES IDX 9 25 11 26 21 27 22 28 23 30 24 31 25 32 89 33 26 34 88 35
REMARK SMILES IDX 27 36 28 37 29 38 82 39 30 40 87 41 81 42 83 43 31 44 86 45
REMARK SMILES IDX 80 46 79 47 32 49 66 50 45 51 65 52 46 53 49 54 64 55 84 56
REMARK SMILES IDX 47 57 48 58 63 60 85 61 50 62 33 63 34 64 43 65 35 66 36 67
REMARK SMILES IDX 42 68 44 69 37 70 38 71 39 72 40 73 41 74 67 75 68 76 77 77
REMARK SMILES IDX 69 78 70 79 76 80 78 81 71 82 72 83 73 84 74 85 75 86 51 87
REMARK SMILES IDX 52 88 61 89 53 90 54 91 60 92 62 93 55 94 56 95 57 96 58 97
REMARK SMILES IDX 59 98
REMARK H PARENT 17 7 21 29 83 48 49 59
REMARK Flexibility Score: inf
ROOT
ATOM      1  C   UNL A   1      42.147  20.097  26.843  1.00  0.00     0.118 C 
ENDROOT
BRANCH   1   2
ATOM      2  C   UNL A   1      40.861  20.515  26.124  1.00  0.00     0.042 C 
BRANCH   2   3
ATOM      3  C   UNL A   1      40.033  21.519  26.907  1.00  0.00     0.118 C 
BRANCH   3   4
ATOM      4  N   UNL A   1      39.267  22.476  26.137  1.00  0.00    -0.352 N 
ATOM      5  C   UNL A   1      38.057  22.356  25.528  1.00  0.00     0.244 C 
ATOM      6  O   UNL A   1      37.486  23.365  25.114  1.00  0.00    -0.270 OA
ATOM      7  H   UNL A   1      39.691  23.359  26.039  1.00  0.00     0.163 HD
BRANCH   5   8
ATOM      8  C   UNL A   1      37.485  21.041  25.159  1.00  0.00     0.075 C 
ATOM      9  C   UNL A   1      36.220  20.600  25.065  1.00  0.00     0.057 C 
BRANCH   9  10
ATOM     10  C   UNL A   1      35.001  21.271  25.366  1.00  0.00     0.175 A 
ATOM     11  C   UNL A   1      32.224  25.853  21.016  1.00  0.00     0.008 C 
ATOM     12  C   UNL A   1      33.330  26.321  21.956  1.00  0.00    -0.009 C 
ATOM     13  C   UNL A   1      32.903  27.618  22.666  1.00  0.00     0.009 C 
ATOM     14  C   UNL A   1      33.757  25.201  22.933  1.00  0.00     0.041 C 
ATOM     15  C   UNL A   1      31.866  27.445  23.785  1.00  0.00     0.047 C 
ATOM     16  C   UNL A   1      32.898  25.126  24.159  1.00  0.00    -0.020 A 
ATOM     17  C   UNL A   1      32.062  26.162  24.532  1.00  0.00     0.011 A 
ATOM     18  C   UNL A   1      32.870  24.111  25.151  1.00  0.00     0.060 A 
ATOM     19  S   UNL A   1      31.216  25.856  25.986  1.00  0.00    -0.120 S 
ATOM     20  C   UNL A   1      32.067  24.397  26.249  1.00  0.00     0.129 A 
ATOM     21  C   UNL A   1      33.625  22.851  25.293  1.00  0.00     0.168 A 
ATOM     22  N   UNL A   1      31.951  23.689  27.424  1.00  0.00    -0.225 NA
ATOM     23  N   UNL A   1      33.519  22.196  26.485  1.00  0.00    -0.201 N 
ATOM     24  N   UNL A   1      34.515  22.260  24.535  1.00  0.00    -0.207 NA
ATOM     25  C   UNL A   1      32.712  22.631  27.533  1.00  0.00     0.227 A 
ATOM     26  N   UNL A   1      34.372  21.157  26.550  1.00  0.00    -0.145 NA
ENDBRANCH   9  10
ENDBRANCH   5   8
ENDBRANCH   3   4
ENDBRANCH   2   3
ENDBRANCH   1   2
BRANCH   1  27
ATOM     27  N   UNL A   1      43.227  19.656  25.955  1.00  0.00    -0.352 N 
ATOM     28  C   UNL A   1      43.992  20.407  25.079  1.00  0.00     0.251 C 
ATOM     29  H   UNL A   1      43.437  18.695  25.986  1.00  0.00     0.163 HD
ATOM     30  O   UNL A   1      44.453  19.862  24.080  1.00  0.00    -0.269 OA
BRANCH  28  31
ATOM     31  C   UNL A   1      44.220  21.850  25.320  1.00  0.00     0.039 A 
ATOM     32  C   UNL A   1      43.413  22.807  24.699  1.00  0.00     0.014 A 
ATOM     33  C   UNL A   1      45.211  22.256  26.212  1.00  0.00     0.014 A 
ATOM     34  C   UNL A   1      43.498  24.135  25.112  1.00  0.00     0.010 A 
ATOM     35  C   UNL A   1      45.226  23.542  26.708  1.00  0.00     0.010 A 
ATOM     36  C   UNL A   1      44.348  24.479  26.181  1.00  0.00    -0.014 A 
BRANCH  36  37
ATOM     37  C   UNL A   1      44.006  25.634  27.011  1.00  0.00     0.031 A 
ATOM     38  C   UNL A   1      44.956  26.762  26.769  1.00  0.00     0.074 A 
ATOM     39  C   UNL A   1      42.834  25.860  27.636  1.00  0.00     0.049 A 
ATOM     40  N   UNL A   1      45.898  27.186  27.543  1.00  0.00    -0.248 NA
ATOM     41  C   UNL A   1      45.021  27.311  25.400  1.00  0.00     0.031 C 
ATOM     42  C   UNL A   1      41.624  25.035  27.626  1.00  0.00     0.029 A 
ATOM     43  N   UNL A   1      42.441  26.966  28.329  1.00  0.00    -0.354 N 
ATOM     44  C   UNL A   1      46.508  28.227  26.846  1.00  0.00     0.074 A 
ATOM     45  C   UNL A   1      46.115  28.071  25.473  1.00  0.00     0.031 C 
ATOM     46  C   UNL A   1      40.582  25.763  28.092  1.00  0.00     0.029 A 
ATOM     47  C   UNL A   1      41.076  27.040  28.578  1.00  0.00     0.049 A 
ATOM     48  H   UNL A   1      43.075  27.657  28.629  1.00  0.00     0.167 HD
ATOM     49  C   UNL A   1      47.039  29.296  27.500  1.00  0.00     0.037 A 
ATOM     50  C   UNL A   1      40.410  28.094  29.117  1.00  0.00     0.037 A 
ATOM     51  C   UNL A   1      47.141  29.024  28.913  1.00  0.00     0.049 A 
ATOM     52  C   UNL A   1      41.421  28.918  29.831  1.00  0.00     0.074 A 
ATOM     53  C   UNL A   1      47.823  28.115  29.694  1.00  0.00     0.029 A 
ATOM     54  N   UNL A   1      46.115  29.516  29.684  1.00  0.00    -0.354 N 
ATOM     55  N   UNL A   1      42.093  28.509  30.873  1.00  0.00    -0.248 NA
ATOM     56  C   UNL A   1      41.971  30.086  29.159  1.00  0.00     0.031 C 
ATOM     57  C   UNL A   1      46.944  27.815  30.777  1.00  0.00     0.029 A 
ATOM     58  C   UNL A   1      45.793  28.595  30.644  1.00  0.00     0.049 A 
ATOM     59  H   UNL A   1      45.681  30.391  29.564  1.00  0.00     0.167 HD
ATOM     60  C   UNL A   1      43.346  29.083  30.734  1.00  0.00     0.074 A 
ATOM     61  C   UNL A   1      43.163  30.151  29.759  1.00  0.00     0.031 C 
ATOM     62  C   UNL A   1      44.461  28.448  31.201  1.00  0.00     0.037 A 
BRANCH  49  63
ATOM     63  C   UNL A   1      47.043  30.717  26.968  1.00  0.00     0.058 A 
ATOM     64  C   UNL A   1      48.245  31.456  27.009  1.00  0.00     0.135 A 
ATOM     65  C   UNL A   1      45.882  31.474  26.694  1.00  0.00     0.135 A 
ATOM     66  F   UNL A   1      49.413  30.847  27.267  1.00  0.00    -0.206 F 
ATOM     67  C   UNL A   1      48.277  32.845  26.871  1.00  0.00     0.059 A 
ATOM     68  C   UNL A   1      45.899  32.850  26.496  1.00  0.00     0.059 A 
ATOM     69  F   UNL A   1      44.653  30.947  26.702  1.00  0.00    -0.206 F 
ATOM     70  C   UNL A   1      47.094  33.534  26.628  1.00  0.00     0.060 A 
BRANCH  70  71
ATOM     71  S   UNL A   1      47.111  35.331  26.547  1.00  0.00     0.124 S 
ATOM     72  O   UNL A   1      47.511  35.679  27.904  1.00  0.00    -0.237 OA
ATOM     73  O   UNL A   1      48.097  35.577  25.502  1.00  0.00    -0.237 OA
ATOM     74  O   UNL A   1      45.731  35.663  26.189  1.00  0.00    -0.744 OA
ENDBRANCH  70  71
ENDBRANCH  49  63
BRANCH  50  75
ATOM     75  C   UNL A   1      39.035  28.593  28.838  1.00  0.00     0.058 A 
ATOM     76  C   UNL A   1      38.074  28.680  29.864  1.00  0.00     0.135 A 
ATOM     77  C   UNL A   1      38.726  29.271  27.643  1.00  0.00     0.135 A 
ATOM     78  F   UNL A   1      38.287  28.071  31.041  1.00  0.00    -0.206 F 
ATOM     79  C   UNL A   1      36.916  29.453  29.742  1.00  0.00     0.059 A 
ATOM     80  C   UNL A   1      37.570  30.040  27.492  1.00  0.00     0.059 A 
ATOM     81  F   UNL A   1      39.586  29.286  26.613  1.00  0.00    -0.206 F 
ATOM     82  C   UNL A   1      36.686  30.155  28.559  1.00  0.00     0.060 A 
BRANCH  82  83
ATOM     83  S   UNL A   1      35.297  31.311  28.471  1.00  0.00     0.124 S 
ATOM     84  O   UNL A   1      35.824  32.351  27.595  1.00  0.00    -0.237 OA
ATOM     85  O   UNL A   1      34.241  30.477  27.907  1.00  0.00    -0.237 OA
ATOM     86  O   UNL A   1      35.098  31.709  29.862  1.00  0.00    -0.744 OA
ENDBRANCH  82  83
ENDBRANCH  50  75
BRANCH  62  87
ATOM     87  C   UNL A   1      44.282  27.372  32.240  1.00  0.00     0.058 A 
ATOM     88  C   UNL A   1      44.198  25.994  31.973  1.00  0.00     0.135 A 
ATOM     89  C   UNL A   1      44.359  27.758  33.587  1.00  0.00     0.135 A 
ATOM     90  F   UNL A   1      44.202  25.531  30.715  1.00  0.00    -0.206 F 
ATOM     91  C   UNL A   1      44.172  25.048  33.000  1.00  0.00     0.059 A 
ATOM     92  C   UNL A   1      44.369  26.832  34.625  1.00  0.00     0.059 A 
ATOM     93  F   UNL A   1      44.490  29.058  33.907  1.00  0.00    -0.206 F 
ATOM     94  C   UNL A   1      44.271  25.477  34.324  1.00  0.00     0.060 A 
BRANCH  94  95
ATOM     95  S   UNL A   1      44.350  24.247  35.644  1.00  0.00     0.124 S 
ATOM     96  O   UNL A   1      44.219  25.071  36.842  1.00  0.00    -0.237 OA
ATOM     97  O   UNL A   1      43.212  23.384  35.341  1.00  0.00    -0.237 OA
ATOM     98  O   UNL A   1      45.659  23.627  35.454  1.00  0.00    -0.744 OA
ENDBRANCH  94  95
ENDBRANCH  62  87
ENDBRANCH  36  37
ENDBRANCH  28  31
ENDBRANCH   1  27
TORSDOF 14
ENDMDL
MODEL 3
REMARK VINA RESULT:     -13.3      3.823      7.367
REMARK SMILES C[C@H]1CCc2sc3ncn4nc(/C=C\C(=O)NCCCNC(=O)c5ccc(-c6c7nc(c(-c8c(F)cc(S(=O)(=O)[O-])cc8F)c8ccc([nH]8)c(-c8c(F)cc(S(=O)(=O)[O-])cc8F)c8nc(c(-c9c(F)cc(S(=O)(=O)[O-])cc9F)c9ccc6[nH]9)C=C8)C=C7)cc5)nc4c3c2C1
REMARK SMILES IDX 20 1 19 2 18 3 17 4 15 5 16 6 14 8 13 9 12 10 1 11 2 12 3 13
REMARK SMILES IDX 94 14 4 15 93 16 5 17 92 18 6 19 7 20 91 21 8 22 10 23 90 24
REMARK SMILES IDX 9 25 11 26 21 27 22 28 23 30 24 31 25 32 89 33 26 34 88 35
REMARK SMILES IDX 27 36 28 37 29 38 82 39 30 40 87 41 81 42 83 43 31 44 86 45
REMARK SMILES IDX 80 46 79 47 32 49 66 50 45 51 65 52 46 53 49 54 64 55 84 56
REMARK SMILES IDX 47 57 48 58 63 60 85 61 50 62 33 63 34 64 43 65 35 66 36 67
REMARK SMILES IDX 42 68 44 69 37 70 38 71 39 72 40 73 41 74 67 75 68 76 77 77
REMARK SMILES IDX 69 78 70 79 76 80 78 81 71 82 72 83 73 84 74 85 75 86 51 87
REMARK SMILES IDX 52 88 61 89 53 90 54 91 60 92 62 93 55 94 56 95 57 96 58 97
REMARK SMILES IDX 59 98
REMARK H PARENT 17 7 21 29 83 48 49 59
REMARK Flexibility Score: inf
ROOT
ATOM      1  C   UNL A   1      41.032  21.041  27.455  1.00  0.00     0.118 C 
ENDROOT
BRANCH   1   2
ATOM      2  C   UNL A   1      42.213  20.439  26.687  1.00  0.00     0.042 C 
BRANCH   2   3
ATOM      3  C   UNL A   1      43.325  21.438  26.416  1.00  0.00     0.118 C 
BRANCH   3   4
ATOM      4  N   UNL A   1      43.701  21.637  25.032  1.00  0.00    -0.352 N 
ATOM      5  C   UNL A   1      43.933  22.781  24.334  1.00  0.00     0.244 C 
ATOM      6  O   UNL A   1      44.460  22.714  23.223  1.00  0.00    -0.270 OA
ATOM      7  H   UNL A   1      43.806  20.808  24.511  1.00  0.00     0.163 HD
BRANCH   5   8
ATOM      8  C   UNL A   1      43.398  24.093  24.764  1.00  0.00     0.075 C 
ATOM      9  C   UNL A   1      43.870  25.031  25.600  1.00  0.00     0.057 C 
BRANCH   9  10
ATOM     10  C   UNL A   1      45.042  25.020  26.408  1.00  0.00     0.175 A 
ATOM     11  C   UNL A   1      44.782  23.541  33.144  1.00  0.00     0.008 C 
ATOM     12  C   UNL A   1      44.460  24.963  32.699  1.00  0.00    -0.009 C 
ATOM     13  C   UNL A   1      45.252  25.972  33.551  1.00  0.00     0.009 C 
ATOM     14  C   UNL A   1      44.676  25.146  31.178  1.00  0.00     0.041 C 
ATOM     15  C   UNL A   1      46.746  26.083  33.220  1.00  0.00     0.047 C 
ATOM     16  C   UNL A   1      46.093  25.471  30.815  1.00  0.00    -0.020 A 
ATOM     17  C   UNL A   1      47.008  25.908  31.756  1.00  0.00     0.011 A 
ATOM     18  C   UNL A   1      46.685  25.500  29.526  1.00  0.00     0.060 A 
ATOM     19  S   UNL A   1      48.545  26.251  31.092  1.00  0.00    -0.120 S 
ATOM     20  C   UNL A   1      47.988  25.983  29.499  1.00  0.00     0.129 A 
ATOM     21  C   UNL A   1      46.137  25.224  28.184  1.00  0.00     0.168 A 
ATOM     22  N   UNL A   1      48.766  26.268  28.399  1.00  0.00    -0.225 NA
ATOM     23  N   UNL A   1      46.917  25.556  27.116  1.00  0.00    -0.201 N 
ATOM     24  N   UNL A   1      44.959  24.826  27.771  1.00  0.00    -0.207 NA
ATOM     25  C   UNL A   1      48.197  26.090  27.235  1.00  0.00     0.227 A 
ATOM     26  N   UNL A   1      46.250  25.407  25.957  1.00  0.00    -0.145 NA
ENDBRANCH   9  10
ENDBRANCH   5   8
ENDBRANCH   3   4
ENDBRANCH   2   3
ENDBRANCH   1   2
BRANCH   1  27
ATOM     27  N   UNL A   1      39.940  21.530  26.608  1.00  0.00    -0.352 N 
ATOM     28  C   UNL A   1      39.381  22.796  26.558  1.00  0.00     0.251 C 
ATOM     29  H   UNL A   1      39.552  20.869  25.991  1.00  0.00     0.163 HD
ATOM     30  O   UNL A   1      38.207  22.910  26.219  1.00  0.00    -0.269 OA
BRANCH  28  31
ATOM     31  C   UNL A   1      40.172  23.987  26.941  1.00  0.00     0.039 A 
ATOM     32  C   UNL A   1      40.037  25.184  26.232  1.00  0.00     0.014 A 
ATOM     33  C   UNL A   1      41.017  23.932  28.049  1.00  0.00     0.014 A 
ATOM     34  C   UNL A   1      40.616  26.343  26.744  1.00  0.00     0.010 A 
ATOM     35  C   UNL A   1      41.496  25.089  28.624  1.00  0.00     0.010 A 
ATOM     36  C   UNL A   1      41.271  26.303  27.990  1.00  0.00    -0.014 A 
BRANCH  36  37
ATOM     37  C   UNL A   1      41.310  27.516  28.807  1.00  0.00     0.031 A 
ATOM     38  C   UNL A   1      42.364  28.454  28.316  1.00  0.00     0.074 A 
ATOM     39  C   UNL A   1      40.349  27.956  29.643  1.00  0.00     0.049 A 
ATOM     40  N   UNL A   1      43.504  28.721  28.858  1.00  0.00    -0.248 NA
ATOM     41  C   UNL A   1      42.233  28.957  26.933  1.00  0.00     0.031 C 
ATOM     42  C   UNL A   1      39.043  27.357  29.924  1.00  0.00     0.029 A 
ATOM     43  N   UNL A   1      40.302  29.127  30.340  1.00  0.00    -0.354 N 
ATOM     44  C   UNL A   1      44.121  29.624  27.996  1.00  0.00     0.074 A 
ATOM     45  C   UNL A   1      43.429  29.514  26.742  1.00  0.00     0.031 C 
ATOM     46  C   UNL A   1      38.258  28.265  30.551  1.00  0.00     0.029 A 
ATOM     47  C   UNL A   1      39.051  29.445  30.856  1.00  0.00     0.049 A 
ATOM     48  H   UNL A   1      41.091  29.701  30.466  1.00  0.00     0.167 HD
ATOM     49  C   UNL A   1      44.949  30.596  28.468  1.00  0.00     0.037 A 
ATOM     50  C   UNL A   1      38.699  30.609  31.459  1.00  0.00     0.037 A 
ATOM     51  C   UNL A   1      45.297  30.337  29.844  1.00  0.00     0.049 A 
ATOM     52  C   UNL A   1      39.961  31.256  31.907  1.00  0.00     0.074 A 
ATOM     53  C   UNL A   1      45.965  29.337  30.520  1.00  0.00     0.029 A 
ATOM     54  N   UNL A   1      44.553  31.016  30.779  1.00  0.00    -0.354 N 
ATOM     55  N   UNL A   1      40.758  30.755  32.812  1.00  0.00    -0.248 NA
ATOM     56  C   UNL A   1      40.547  32.296  31.075  1.00  0.00     0.031 C 
ATOM     57  C   UNL A   1      45.295  29.217  31.773  1.00  0.00     0.029 A 
ATOM     58  C   UNL A   1      44.289  30.184  31.834  1.00  0.00     0.049 A 
ATOM     59  H   UNL A   1      44.256  31.952  30.701  1.00  0.00     0.167 HD
ATOM     60  C   UNL A   1      42.032  31.097  32.391  1.00  0.00     0.074 A 
ATOM     61  C   UNL A   1      41.831  32.162  31.415  1.00  0.00     0.031 C 
ATOM     62  C   UNL A   1      43.097  30.285  32.656  1.00  0.00     0.037 A 
BRANCH  49  63
ATOM     63  C   UNL A   1      45.080  31.983  27.869  1.00  0.00     0.058 A 
ATOM     64  C   UNL A   1      46.323  32.375  27.324  1.00  0.00     0.135 A 
ATOM     65  C   UNL A   1      44.151  33.031  28.060  1.00  0.00     0.135 A 
ATOM     66  F   UNL A   1      47.288  31.469  27.103  1.00  0.00    -0.206 F 
ATOM     67  C   UNL A   1      46.643  33.710  27.069  1.00  0.00     0.059 A 
ATOM     68  C   UNL A   1      44.430  34.359  27.759  1.00  0.00     0.059 A 
ATOM     69  F   UNL A   1      42.961  32.848  28.643  1.00  0.00    -0.206 F 
ATOM     70  C   UNL A   1      45.691  34.697  27.304  1.00  0.00     0.060 A 
BRANCH  70  71
ATOM     71  S   UNL A   1      46.127  36.427  27.073  1.00  0.00     0.124 S 
ATOM     72  O   UNL A   1      46.911  36.367  25.846  1.00  0.00    -0.237 OA
ATOM     73  O   UNL A   1      44.817  37.057  26.969  1.00  0.00    -0.237 OA
ATOM     74  O   UNL A   1      46.877  36.748  28.287  1.00  0.00    -0.744 OA
ENDBRANCH  70  71
ENDBRANCH  49  63
BRANCH  50  75
ATOM     75  C   UNL A   1      37.401  31.337  31.437  1.00  0.00     0.058 A 
ATOM     76  C   UNL A   1      36.608  31.438  32.597  1.00  0.00     0.135 A 
ATOM     77  C   UNL A   1      37.054  32.195  30.376  1.00  0.00     0.135 A 
ATOM     78  F   UNL A   1      36.869  30.665  33.662  1.00  0.00    -0.206 F 
ATOM     79  C   UNL A   1      35.586  32.384  32.726  1.00  0.00     0.059 A 
ATOM     80  C   UNL A   1      36.031  33.139  30.475  1.00  0.00     0.059 A 
ATOM     81  F   UNL A   1      37.765  32.209  29.238  1.00  0.00    -0.206 F 
ATOM     82  C   UNL A   1      35.323  33.252  31.667  1.00  0.00     0.060 A 
BRANCH  82  83
ATOM     83  S   UNL A   1      34.143  34.603  31.902  1.00  0.00     0.124 S 
ATOM     84  O   UNL A   1      35.010  35.690  32.343  1.00  0.00    -0.237 OA
ATOM     85  O   UNL A   1      33.572  34.746  30.566  1.00  0.00    -0.237 OA
ATOM     86  O   UNL A   1      33.229  34.083  32.915  1.00  0.00    -0.744 OA
ENDBRANCH  82  83
ENDBRANCH  50  75
BRANCH  62  87
ATOM     87  C   UNL A   1      42.962  29.277  33.768  1.00  0.00     0.058 A 
ATOM     88  C   UNL A   1      43.268  29.515  35.119  1.00  0.00     0.135 A 
ATOM     89  C   UNL A   1      42.340  28.057  33.459  1.00  0.00     0.135 A 
ATOM     90  F   UNL A   1      43.788  30.685  35.515  1.00  0.00    -0.206 F 
ATOM     91  C   UNL A   1      42.985  28.574  36.112  1.00  0.00     0.059 A 
ATOM     92  C   UNL A   1      42.018  27.121  34.435  1.00  0.00     0.059 A 
ATOM     93  F   UNL A   1      41.978  27.791  32.192  1.00  0.00    -0.206 F 
ATOM     94  C   UNL A   1      42.348  27.384  35.762  1.00  0.00     0.060 A 
BRANCH  94  95
ATOM     95  S   UNL A   1      41.882  26.219  37.060  1.00  0.00     0.124 S 
ATOM     96  O   UNL A   1      42.967  26.379  38.022  1.00  0.00    -0.237 OA
ATOM     97  O   UNL A   1      40.579  26.722  37.484  1.00  0.00    -0.237 OA
ATOM     98  O   UNL A   1      41.849  24.932  36.368  1.00  0.00    -0.744 OA
ENDBRANCH  94  95
ENDBRANCH  62  87
ENDBRANCH  36  37
ENDBRANCH  28  31
ENDBRANCH   1  27
TORSDOF 14
ENDMDL
