MODEL 1
REMARK VINA RESULT:     -11.2      0.000      0.000
REMARK SMILES Cc1cccc2c(C(=O)NCCCNC(=O)c3ccc(-c4c5nc(c(-c6c(F)cc(S(=O)(=O)[O-])cc6F)c6ccc([nH]6)c(-c6c(F)cc(S(=O)(=O)[O-])cc6F)c6nc(c(-c7c(F)cc(S(=O)(=O)[O-])cc7F)c7ccc4[nH]7)C=C6)C=C5)cc3)cc(=O)[nH]c12
REMARK SMILES IDX 14 1 15 2 16 3 13 5 12 6 11 7 10 8 8 9 9 10 7 12 1 13 2 14
REMARK SMILES IDX 3 15 87 16 4 17 6 18 86 19 5 20 84 21 83 23 85 24 17 25
REMARK SMILES IDX 18 26 82 27 19 28 81 29 20 30 21 31 22 32 75 33 23 34 80 35
REMARK SMILES IDX 74 36 76 37 24 38 79 39 73 40 72 41 25 43 59 44 38 45 58 46
REMARK SMILES IDX 39 47 42 48 57 49 77 50 40 51 41 52 56 54 78 55 43 56 26 57
REMARK SMILES IDX 27 58 36 59 28 60 29 61 35 62 37 63 30 64 31 65 32 66 33 67
REMARK SMILES IDX 34 68 60 69 61 70 70 71 62 72 63 73 69 74 71 75 64 76 65 77
REMARK SMILES IDX 66 78 67 79 68 80 44 81 45 82 54 83 46 84 47 85 53 86 55 87
REMARK SMILES IDX 48 88 49 89 50 90 51 91 52 92
REMARK H PARENT 14 4 10 11 86 22 76 42 42 53
REMARK Flexibility Score: inf
ROOT
ATOM      1  N   UNL A   1      35.528  30.293  29.974  1.00  0.00    -0.352 N 
ATOM      2  C   UNL A   1      36.528  30.088  30.895  1.00  0.00     0.251 C 
ATOM      3  O   UNL A   1      36.254  30.043  32.091  1.00  0.00    -0.269 OA
ATOM      4  H   UNL A   1      34.667  30.583  30.350  1.00  0.00     0.163 HD
ENDROOT
BRANCH   1   5
ATOM      5  C   UNL A   1      35.552  30.145  28.522  1.00  0.00     0.118 C 
BRANCH   5   6
ATOM      6  C   UNL A   1      35.233  31.455  27.804  1.00  0.00     0.042 C 
BRANCH   6   7
ATOM      7  C   UNL A   1      33.837  31.986  28.131  1.00  0.00     0.118 C 
BRANCH   7   8
ATOM      8  N   UNL A   1      33.860  33.435  28.236  1.00  0.00    -0.352 N 
ATOM      9  C   UNL A   1      34.242  34.332  29.185  1.00  0.00     0.252 C 
ATOM     10  O   UNL A   1      33.953  35.500  28.916  1.00  0.00    -0.269 OA
ATOM     11  H   UNL A   1      33.516  33.874  27.425  1.00  0.00     0.163 HD
BRANCH   9  12
ATOM     12  C   UNL A   1      35.026  33.981  30.426  1.00  0.00     0.054 A 
ATOM     13  C   UNL A   1      39.290  32.653  32.851  1.00  0.00     0.046 C 
ATOM     14  C   UNL A   1      38.574  33.220  31.656  1.00  0.00    -0.027 A 
ATOM     15  C   UNL A   1      39.339  33.587  30.542  1.00  0.00     0.005 A 
ATOM     16  C   UNL A   1      37.172  33.364  31.592  1.00  0.00     0.052 A 
ATOM     17  C   UNL A   1      38.725  34.084  29.401  1.00  0.00     0.001 A 
ATOM     18  C   UNL A   1      36.521  33.838  30.429  1.00  0.00     0.011 A 
ATOM     19  N   UNL A   1      36.400  33.069  32.721  1.00  0.00    -0.322 N 
ATOM     20  C   UNL A   1      37.335  34.196  29.343  1.00  0.00     0.011 A 
ATOM     21  C   UNL A   1      35.066  33.315  32.811  1.00  0.00     0.249 A 
ATOM     22  H   UNL A   1      36.848  32.660  33.495  1.00  0.00     0.170 HD
ATOM     23  C   UNL A   1      34.404  33.849  31.609  1.00  0.00     0.086 A 
ATOM     24  O   UNL A   1      34.426  33.079  33.825  1.00  0.00    -0.270 OA
ENDBRANCH   9  12
ENDBRANCH   7   8
ENDBRANCH   6   7
ENDBRANCH   5   6
ENDBRANCH   1   5
BRANCH   2  25
ATOM     25  C   UNL A   1      37.922  29.908  30.439  1.00  0.00     0.039 A 
ATOM     26  C   UNL A   1      38.317  30.378  29.187  1.00  0.00     0.014 A 
ATOM     27  C   UNL A   1      38.838  29.254  31.267  1.00  0.00     0.014 A 
ATOM     28  C   UNL A   1      39.565  30.031  28.686  1.00  0.00     0.010 A 
ATOM     29  C   UNL A   1      40.130  28.996  30.799  1.00  0.00     0.010 A 
ATOM     30  C   UNL A   1      40.487  29.335  29.485  1.00  0.00    -0.014 A 
BRANCH  30  31
ATOM     31  C   UNL A   1      41.809  28.966  28.915  1.00  0.00     0.031 A 
ATOM     32  C   UNL A   1      42.946  29.954  28.913  1.00  0.00     0.074 A 
ATOM     33  C   UNL A   1      42.001  27.713  28.458  1.00  0.00     0.049 A 
ATOM     34  N   UNL A   1      44.171  29.799  28.480  1.00  0.00    -0.248 NA
ATOM     35  C   UNL A   1      42.673  31.290  29.466  1.00  0.00     0.031 C 
ATOM     36  C   UNL A   1      40.979  26.664  28.430  1.00  0.00     0.029 A 
ATOM     37  N   UNL A   1      43.120  27.099  27.961  1.00  0.00    -0.354 N 
ATOM     38  C   UNL A   1      44.809  31.016  28.693  1.00  0.00     0.074 A 
ATOM     39  C   UNL A   1      43.823  31.914  29.255  1.00  0.00     0.031 C 
ATOM     40  C   UNL A   1      41.534  25.521  28.005  1.00  0.00     0.029 A 
ATOM     41  C   UNL A   1      42.928  25.772  27.656  1.00  0.00     0.049 A 
ATOM     42  H   UNL A   1      43.979  27.562  27.835  1.00  0.00     0.167 HD
ATOM     43  C   UNL A   1      46.102  31.349  28.459  1.00  0.00     0.037 A 
ATOM     44  C   UNL A   1      43.772  24.859  27.139  1.00  0.00     0.037 A 
ATOM     45  C   UNL A   1      47.077  30.443  27.906  1.00  0.00     0.049 A 
ATOM     46  C   UNL A   1      45.181  25.268  26.822  1.00  0.00     0.074 A 
ATOM     47  C   UNL A   1      48.413  30.679  27.634  1.00  0.00     0.029 A 
ATOM     48  N   UNL A   1      46.821  29.128  27.537  1.00  0.00    -0.354 N 
ATOM     49  N   UNL A   1      45.766  26.425  27.026  1.00  0.00    -0.248 NA
ATOM     50  C   UNL A   1      46.040  24.257  26.195  1.00  0.00     0.031 C 
ATOM     51  C   UNL A   1      48.952  29.526  27.052  1.00  0.00     0.029 A 
ATOM     52  C   UNL A   1      47.968  28.549  27.015  1.00  0.00     0.049 A 
ATOM     53  H   UNL A   1      45.953  28.674  27.634  1.00  0.00     0.167 HD
ATOM     54  C   UNL A   1      47.068  26.279  26.561  1.00  0.00     0.074 A 
ATOM     55  C   UNL A   1      47.187  24.915  26.084  1.00  0.00     0.031 C 
ATOM     56  C   UNL A   1      48.069  27.193  26.532  1.00  0.00     0.037 A 
BRANCH  43  57
ATOM     57  C   UNL A   1      46.528  32.758  28.780  1.00  0.00     0.058 A 
ATOM     58  C   UNL A   1      47.048  33.106  30.037  1.00  0.00     0.135 A 
ATOM     59  C   UNL A   1      46.430  33.772  27.813  1.00  0.00     0.135 A 
ATOM     60  F   UNL A   1      47.153  32.182  31.006  1.00  0.00    -0.206 F 
ATOM     61  C   UNL A   1      47.415  34.414  30.338  1.00  0.00     0.059 A 
ATOM     62  C   UNL A   1      46.821  35.082  28.082  1.00  0.00     0.059 A 
ATOM     63  F   UNL A   1      45.944  33.498  26.592  1.00  0.00    -0.206 F 
ATOM     64  C   UNL A   1      47.293  35.397  29.354  1.00  0.00     0.060 A 
BRANCH  64  65
ATOM     65  S   UNL A   1      47.750  37.094  29.771  1.00  0.00     0.124 S 
ATOM     66  O   UNL A   1      46.455  37.662  30.132  1.00  0.00    -0.237 OA
ATOM     67  O   UNL A   1      48.685  36.902  30.873  1.00  0.00    -0.237 OA
ATOM     68  O   UNL A   1      48.335  37.604  28.535  1.00  0.00    -0.744 OA
ENDBRANCH  64  65
ENDBRANCH  43  57
BRANCH  44  69
ATOM     69  C   UNL A   1      43.290  23.472  26.911  1.00  0.00     0.058 A 
ATOM     70  C   UNL A   1      43.041  23.003  25.613  1.00  0.00     0.135 A 
ATOM     71  C   UNL A   1      43.153  22.564  27.973  1.00  0.00     0.135 A 
ATOM     72  F   UNL A   1      43.148  23.834  24.566  1.00  0.00    -0.206 F 
ATOM     73  C   UNL A   1      42.688  21.678  25.376  1.00  0.00     0.059 A 
ATOM     74  C   UNL A   1      42.828  21.229  27.758  1.00  0.00     0.059 A 
ATOM     75  F   UNL A   1      43.395  22.961  29.233  1.00  0.00    -0.206 F 
ATOM     76  C   UNL A   1      42.601  20.795  26.454  1.00  0.00     0.060 A 
BRANCH  76  77
ATOM     77  S   UNL A   1      42.243  19.057  26.118  1.00  0.00     0.124 S 
ATOM     78  O   UNL A   1      42.579  18.434  27.392  1.00  0.00    -0.237 OA
ATOM     79  O   UNL A   1      40.823  19.100  25.783  1.00  0.00    -0.237 OA
ATOM     80  O   UNL A   1      43.133  18.739  25.004  1.00  0.00    -0.744 OA
ENDBRANCH  76  77
ENDBRANCH  44  69
BRANCH  56  81
ATOM     81  C   UNL A   1      49.392  26.752  25.969  1.00  0.00     0.058 A 
ATOM     82  C   UNL A   1      49.759  27.038  24.645  1.00  0.00     0.135 A 
ATOM     83  C   UNL A   1      50.332  26.098  26.784  1.00  0.00     0.135 A 
ATOM     84  F   UNL A   1      48.896  27.652  23.821  1.00  0.00    -0.206 F 
ATOM     85  C   UNL A   1      51.005  26.678  24.143  1.00  0.00     0.059 A 
ATOM     86  C   UNL A   1      51.595  25.755  26.311  1.00  0.00     0.059 A 
ATOM     87  F   UNL A   1      50.035  25.809  28.061  1.00  0.00    -0.206 F 
ATOM     88  C   UNL A   1      51.919  26.043  24.986  1.00  0.00     0.060 A 
BRANCH  88  89
ATOM     89  S   UNL A   1      53.549  25.624  24.331  1.00  0.00     0.124 S 
ATOM     90  O   UNL A   1      53.393  25.958  22.919  1.00  0.00    -0.237 OA
ATOM     91  O   UNL A   1      54.426  26.504  25.096  1.00  0.00    -0.237 OA
ATOM     92  O   UNL A   1      53.682  24.202  24.628  1.00  0.00    -0.744 OA
ENDBRANCH  88  89
ENDBRANCH  56  81
ENDBRANCH  30  31
ENDBRANCH   2  25
TORSDOF 13
ENDMDL
MODEL 2
REMARK VINA RESULT:     -11.1      0.469      8.509
REMARK SMILES Cc1cccc2c(C(=O)NCCCNC(=O)c3ccc(-c4c5nc(c(-c6c(F)cc(S(=O)(=O)[O-])cc6F)c6ccc([nH]6)c(-c6c(F)cc(S(=O)(=O)[O-])cc6F)c6nc(c(-c7c(F)cc(S(=O)(=O)[O-])cc7F)c7ccc4[nH]7)C=C6)C=C5)cc3)cc(=O)[nH]c12
REMARK SMILES IDX 14 1 15 2 16 3 13 5 12 6 11 7 10 8 8 9 9 10 7 12 1 13 2 14
REMARK SMILES IDX 3 15 87 16 4 17 6 18 86 19 5 20 84 21 83 23 85 24 17 25
REMARK SMILES IDX 18 26 82 27 19 28 81 29 20 30 21 31 22 32 75 33 23 34 80 35
REMARK SMILES IDX 74 36 76 37 24 38 79 39 73 40 72 41 25 43 59 44 38 45 58 46
REMARK SMILES IDX 39 47 42 48 57 49 77 50 40 51 41 52 56 54 78 55 43 56 26 57
REMARK SMILES IDX 27 58 36 59 28 60 29 61 35 62 37 63 30 64 31 65 32 66 33 67
REMARK SMILES IDX 34 68 60 69 61 70 70 71 62 72 63 73 69 74 71 75 64 76 65 77
REMARK SMILES IDX 66 78 67 79 68 80 44 81 45 82 54 83 46 84 47 85 53 86 55 87
REMARK SMILES IDX 48 88 49 89 50 90 51 91 52 92
REMARK H PARENT 14 4 10 11 86 22 76 42 42 53
REMARK Flexibility Score: inf
ROOT
ATOM      1  N   UNL A   1      35.619  29.994  29.856  1.00  0.00    -0.352 N 
ATOM      2  C   UNL A   1      36.602  29.899  30.812  1.00  0.00     0.251 C 
ATOM      3  O   UNL A   1      36.298  29.909  32.001  1.00  0.00    -0.269 OA
ATOM      4  H   UNL A   1      34.734  30.259  30.193  1.00  0.00     0.163 HD
ENDROOT
BRANCH   1   5
ATOM      5  C   UNL A   1      35.690  29.763  28.416  1.00  0.00     0.118 C 
BRANCH   5   6
ATOM      6  C   UNL A   1      35.423  31.035  27.614  1.00  0.00     0.042 C 
BRANCH   6   7
ATOM      7  C   UNL A   1      34.126  31.733  28.023  1.00  0.00     0.118 C 
BRANCH   7   8
ATOM      8  N   UNL A   1      34.295  33.175  27.986  1.00  0.00    -0.352 N 
ATOM      9  C   UNL A   1      34.717  34.124  28.864  1.00  0.00     0.252 C 
ATOM     10  O   UNL A   1      34.567  35.281  28.463  1.00  0.00    -0.269 OA
ATOM     11  H   UNL A   1      34.043  33.559  27.115  1.00  0.00     0.163 HD
BRANCH   9  12
ATOM     12  C   UNL A   1      35.392  33.830  30.182  1.00  0.00     0.054 A 
ATOM     13  C   UNL A   1      39.411  32.533  33.008  1.00  0.00     0.046 C 
ATOM     14  C   UNL A   1      38.808  33.044  31.729  1.00  0.00    -0.027 A 
ATOM     15  C   UNL A   1      39.668  33.317  30.658  1.00  0.00     0.005 A 
ATOM     16  C   UNL A   1      37.421  33.224  31.546  1.00  0.00     0.052 A 
ATOM     17  C   UNL A   1      39.159  33.759  29.444  1.00  0.00     0.001 A 
ATOM     18  C   UNL A   1      36.877  33.644  30.310  1.00  0.00     0.011 A 
ATOM     19  N   UNL A   1      36.555  33.024  32.628  1.00  0.00    -0.322 N 
ATOM     20  C   UNL A   1      37.782  33.908  29.271  1.00  0.00     0.011 A 
ATOM     21  C   UNL A   1      35.228  33.315  32.599  1.00  0.00     0.249 A 
ATOM     22  H   UNL A   1      36.929  32.652  33.458  1.00  0.00     0.170 HD
ATOM     23  C   UNL A   1      34.678  33.791  31.318  1.00  0.00     0.086 A 
ATOM     24  O   UNL A   1      34.504  33.162  33.571  1.00  0.00    -0.270 OA
ENDBRANCH   9  12
ENDBRANCH   7   8
ENDBRANCH   6   7
ENDBRANCH   5   6
ENDBRANCH   1   5
BRANCH   2  25
ATOM     25  C   UNL A   1      38.016  29.768  30.402  1.00  0.00     0.039 A 
ATOM     26  C   UNL A   1      38.412  30.143  29.118  1.00  0.00     0.014 A 
ATOM     27  C   UNL A   1      38.951  29.256  31.306  1.00  0.00     0.014 A 
ATOM     28  C   UNL A   1      39.691  29.833  28.677  1.00  0.00     0.010 A 
ATOM     29  C   UNL A   1      40.267  29.040  30.889  1.00  0.00     0.010 A 
ATOM     30  C   UNL A   1      40.635  29.276  29.555  1.00  0.00    -0.014 A 
BRANCH  30  31
ATOM     31  C   UNL A   1      41.991  28.943  29.048  1.00  0.00     0.031 A 
ATOM     32  C   UNL A   1      42.301  27.562  28.534  1.00  0.00     0.074 A 
ATOM     33  C   UNL A   1      42.927  29.911  28.992  1.00  0.00     0.049 A 
ATOM     34  N   UNL A   1      43.419  27.101  28.035  1.00  0.00    -0.248 NA
ATOM     35  C   UNL A   1      41.217  26.569  28.590  1.00  0.00     0.031 C 
ATOM     36  C   UNL A   1      42.734  31.292  29.440  1.00  0.00     0.029 A 
ATOM     37  N   UNL A   1      44.209  29.896  28.508  1.00  0.00    -0.354 N 
ATOM     38  C   UNL A   1      43.180  25.764  27.732  1.00  0.00     0.074 A 
ATOM     39  C   UNL A   1      41.823  25.477  28.143  1.00  0.00     0.031 C 
ATOM     40  C   UNL A   1      43.832  32.005  29.152  1.00  0.00     0.029 A 
ATOM     41  C   UNL A   1      44.834  31.119  28.570  1.00  0.00     0.049 A 
ATOM     42  H   UNL A   1      44.641  29.087  28.151  1.00  0.00     0.167 HD
ATOM     43  C   UNL A   1      44.009  24.865  27.148  1.00  0.00     0.037 A 
ATOM     44  C   UNL A   1      46.079  31.489  28.213  1.00  0.00     0.037 A 
ATOM     45  C   UNL A   1      45.357  25.165  26.734  1.00  0.00     0.049 A 
ATOM     46  C   UNL A   1      47.003  30.459  27.632  1.00  0.00     0.074 A 
ATOM     47  C   UNL A   1      46.277  24.328  26.130  1.00  0.00     0.029 A 
ATOM     48  N   UNL A   1      45.979  26.398  26.887  1.00  0.00    -0.354 N 
ATOM     49  N   UNL A   1      46.762  29.200  27.357  1.00  0.00    -0.248 NA
ATOM     50  C   UNL A   1      48.371  30.895  27.325  1.00  0.00     0.031 C 
ATOM     51  C   UNL A   1      47.472  25.037  25.965  1.00  0.00     0.029 A 
ATOM     52  C   UNL A   1      47.280  26.336  26.413  1.00  0.00     0.049 A 
ATOM     53  H   UNL A   1      45.557  27.199  27.274  1.00  0.00     0.167 HD
ATOM     54  C   UNL A   1      47.945  28.692  26.834  1.00  0.00     0.074 A 
ATOM     55  C   UNL A   1      48.894  29.788  26.814  1.00  0.00     0.031 C 
ATOM     56  C   UNL A   1      48.218  27.432  26.410  1.00  0.00     0.037 A 
BRANCH  43  57
ATOM     57  C   UNL A   1      43.487  23.467  26.942  1.00  0.00     0.058 A 
ATOM     58  C   UNL A   1      43.369  22.556  28.004  1.00  0.00     0.135 A 
ATOM     59  C   UNL A   1      43.083  23.036  25.667  1.00  0.00     0.135 A 
ATOM     60  F   UNL A   1      43.751  22.906  29.242  1.00  0.00    -0.206 F 
ATOM     61  C   UNL A   1      42.911  21.257  27.803  1.00  0.00     0.059 A 
ATOM     62  C   UNL A   1      42.592  21.750  25.448  1.00  0.00     0.059 A 
ATOM     63  F   UNL A   1      43.170  23.864  24.613  1.00  0.00    -0.206 F 
ATOM     64  C   UNL A   1      42.529  20.862  26.519  1.00  0.00     0.060 A 
BRANCH  64  65
ATOM     65  S   UNL A   1      41.962  19.165  26.274  1.00  0.00     0.124 S 
ATOM     66  O   UNL A   1      42.201  18.586  27.592  1.00  0.00    -0.237 OA
ATOM     67  O   UNL A   1      40.562  19.355  25.911  1.00  0.00    -0.237 OA
ATOM     68  O   UNL A   1      42.824  18.668  25.206  1.00  0.00    -0.744 OA
ENDBRANCH  64  65
ENDBRANCH  43  57
BRANCH  44  69
ATOM     69  C   UNL A   1      46.495  32.904  28.391  1.00  0.00     0.058 A 
ATOM     70  C   UNL A   1      47.091  33.332  29.585  1.00  0.00     0.135 A 
ATOM     71  C   UNL A   1      46.385  33.832  27.343  1.00  0.00     0.135 A 
ATOM     72  F   UNL A   1      47.210  32.486  30.618  1.00  0.00    -0.206 F 
ATOM     73  C   UNL A   1      47.578  34.627  29.729  1.00  0.00     0.059 A 
ATOM     74  C   UNL A   1      46.890  35.124  27.454  1.00  0.00     0.059 A 
ATOM     75  F   UNL A   1      45.835  33.467  26.175  1.00  0.00    -0.206 F 
ATOM     76  C   UNL A   1      47.488  35.511  28.651  1.00  0.00     0.060 A 
BRANCH  76  77
ATOM     77  S   UNL A   1      48.218  37.154  28.820  1.00  0.00     0.124 S 
ATOM     78  O   UNL A   1      49.597  36.908  28.418  1.00  0.00    -0.237 OA
ATOM     79  O   UNL A   1      47.413  37.939  27.889  1.00  0.00    -0.237 OA
ATOM     80  O   UNL A   1      48.018  37.469  30.232  1.00  0.00    -0.744 OA
ENDBRANCH  76  77
ENDBRANCH  44  69
BRANCH  56  81
ATOM     81  C   UNL A   1      49.601  27.164  25.882  1.00  0.00     0.058 A 
ATOM     82  C   UNL A   1      50.636  26.724  26.722  1.00  0.00     0.135 A 
ATOM     83  C   UNL A   1      49.875  27.281  24.509  1.00  0.00     0.135 A 
ATOM     84  F   UNL A   1      50.430  26.605  28.043  1.00  0.00    -0.206 F 
ATOM     85  C   UNL A   1      51.898  26.424  26.222  1.00  0.00     0.059 A 
ATOM     86  C   UNL A   1      51.122  26.957  23.984  1.00  0.00     0.059 A 
ATOM     87  F   UNL A   1      48.918  27.688  23.660  1.00  0.00    -0.206 F 
ATOM     88  C   UNL A   1      52.130  26.537  24.850  1.00  0.00     0.060 A 
BRANCH  88  89
ATOM     89  S   UNL A   1      53.761  26.098  24.213  1.00  0.00     0.124 S 
ATOM     90  O   UNL A   1      54.594  27.152  24.786  1.00  0.00    -0.237 OA
ATOM     91  O   UNL A   1      53.961  24.763  24.766  1.00  0.00    -0.237 OA
ATOM     92  O   UNL A   1      53.589  26.154  22.765  1.00  0.00    -0.744 OA
ENDBRANCH  88  89
ENDBRANCH  56  81
ENDBRANCH  30  31
ENDBRANCH   2  25
TORSDOF 13
ENDMDL
MODEL 3
REMARK VINA RESULT:     -11.1      6.752     12.898
REMARK SMILES Cc1cccc2c(C(=O)NCCCNC(=O)c3ccc(-c4c5nc(c(-c6c(F)cc(S(=O)(=O)[O-])cc6F)c6ccc([nH]6)c(-c6c(F)cc(S(=O)(=O)[O-])cc6F)c6nc(c(-c7c(F)cc(S(=O)(=O)[O-])cc7F)c7ccc4[nH]7)C=C6)C=C5)cc3)cc(=O)[nH]c12
REMARK SMILES IDX 14 1 15 2 16 3 13 5 12 6 11 7 10 8 8 9 9 10 7 12 1 13 2 14
REMARK SMILES IDX 3 15 87 16 4 17 6 18 86 19 5 20 84 21 83 23 85 24 17 25
REMARK SMILES IDX 18 26 82 27 19 28 81 29 20 30 21 31 22 32 75 33 23 34 80 35
REMARK SMILES IDX 74 36 76 37 24 38 79 39 73 40 72 41 25 43 59 44 38 45 58 46
REMARK SMILES IDX 39 47 42 48 57 49 77 50 40 51 41 52 56 54 78 55 43 56 26 57
REMARK SMILES IDX 27 58 36 59 28 60 29 61 35 62 37 63 30 64 31 65 32 66 33 67
REMARK SMILES IDX 34 68 60 69 61 70 70 71 62 72 63 73 69 74 71 75 64 76 65 77
REMARK SMILES IDX 66 78 67 79 68 80 44 81 45 82 54 83 46 84 47 85 53 86 55 87
REMARK SMILES IDX 48 88 49 89 50 90 51 91 52 92
REMARK H PARENT 14 4 10 11 86 22 76 42 42 53
REMARK Flexibility Score: inf
ROOT
ATOM      1  N   UNL A   1      39.796  23.862  26.110  1.00  0.00    -0.352 N 
ATOM      2  C   UNL A   1      40.829  24.651  26.560  1.00  0.00     0.251 C 
ATOM      3  O   UNL A   1      41.962  24.478  26.121  1.00  0.00    -0.269 OA
ATOM      4  H   UNL A   1      40.070  23.070  25.595  1.00  0.00     0.163 HD
ENDROOT
BRANCH   1   5
ATOM      5  C   UNL A   1      38.355  24.022  26.282  1.00  0.00     0.118 C 
BRANCH   5   6
ATOM      6  C   UNL A   1      37.569  22.870  25.660  1.00  0.00     0.042 C 
BRANCH   6   7
ATOM      7  C   UNL A   1      36.069  22.955  25.943  1.00  0.00     0.118 C 
BRANCH   7   8
ATOM      8  N   UNL A   1      35.317  22.888  24.701  1.00  0.00    -0.352 N 
ATOM      9  C   UNL A   1      34.043  23.178  24.324  1.00  0.00     0.252 C 
ATOM     10  O   UNL A   1      33.770  22.831  23.172  1.00  0.00    -0.269 OA
ATOM     11  H   UNL A   1      35.860  22.551  23.953  1.00  0.00     0.163 HD
BRANCH   9  12
ATOM     12  C   UNL A   1      33.049  23.932  25.174  1.00  0.00     0.054 A 
ATOM     13  C   UNL A   1      31.372  28.110  27.530  1.00  0.00     0.046 C 
ATOM     14  C   UNL A   1      32.236  27.432  26.502  1.00  0.00    -0.027 A 
ATOM     15  C   UNL A   1      33.108  28.225  25.748  1.00  0.00     0.005 A 
ATOM     16  C   UNL A   1      32.235  26.037  26.291  1.00  0.00     0.052 A 
ATOM     17  C   UNL A   1      33.952  27.646  24.810  1.00  0.00     0.001 A 
ATOM     18  C   UNL A   1      33.107  25.420  25.364  1.00  0.00     0.011 A 
ATOM     19  N   UNL A   1      31.319  25.239  26.985  1.00  0.00    -0.322 N 
ATOM     20  C   UNL A   1      33.958  26.261  24.631  1.00  0.00     0.011 A 
ATOM     21  C   UNL A   1      31.135  23.914  26.745  1.00  0.00     0.249 A 
ATOM     22  H   UNL A   1      30.776  25.661  27.689  1.00  0.00     0.170 HD
ATOM     23  C   UNL A   1      32.019  23.288  25.747  1.00  0.00     0.086 A 
ATOM     24  O   UNL A   1      30.302  23.251  27.345  1.00  0.00    -0.270 OA
ENDBRANCH   9  12
ENDBRANCH   7   8
ENDBRANCH   6   7
ENDBRANCH   5   6
ENDBRANCH   1   5
BRANCH   2  25
ATOM     25  C   UNL A   1      40.565  25.711  27.555  1.00  0.00     0.039 A 
ATOM     26  C   UNL A   1      41.271  26.912  27.504  1.00  0.00     0.014 A 
ATOM     27  C   UNL A   1      39.610  25.497  28.553  1.00  0.00     0.014 A 
ATOM     28  C   UNL A   1      41.163  27.817  28.552  1.00  0.00     0.010 A 
ATOM     29  C   UNL A   1      39.429  26.458  29.551  1.00  0.00     0.010 A 
ATOM     30  C   UNL A   1      40.242  27.601  29.589  1.00  0.00    -0.014 A 
BRANCH  30  31
ATOM     31  C   UNL A   1      40.159  28.581  30.703  1.00  0.00     0.031 A 
ATOM     32  C   UNL A   1      41.141  28.532  31.844  1.00  0.00     0.074 A 
ATOM     33  C   UNL A   1      39.235  29.560  30.649  1.00  0.00     0.049 A 
ATOM     34  N   UNL A   1      41.233  29.317  32.886  1.00  0.00    -0.248 NA
ATOM     35  C   UNL A   1      42.148  27.458  31.814  1.00  0.00     0.031 C 
ATOM     36  C   UNL A   1      38.245  29.723  29.581  1.00  0.00     0.029 A 
ATOM     37  N   UNL A   1      38.995  30.618  31.487  1.00  0.00    -0.354 N 
ATOM     38  C   UNL A   1      42.294  28.828  33.642  1.00  0.00     0.074 A 
ATOM     39  C   UNL A   1      42.786  27.651  32.960  1.00  0.00     0.031 C 
ATOM     40  C   UNL A   1      37.550  30.848  29.794  1.00  0.00     0.029 A 
ATOM     41  C   UNL A   1      37.988  31.446  31.050  1.00  0.00     0.049 A 
ATOM     42  H   UNL A   1      39.494  30.769  32.322  1.00  0.00     0.167 HD
ATOM     43  C   UNL A   1      42.820  29.324  34.788  1.00  0.00     0.037 A 
ATOM     44  C   UNL A   1      37.463  32.557  31.602  1.00  0.00     0.037 A 
ATOM     45  C   UNL A   1      42.326  30.503  35.454  1.00  0.00     0.049 A 
ATOM     46  C   UNL A   1      38.015  33.050  32.908  1.00  0.00     0.074 A 
ATOM     47  C   UNL A   1      42.790  31.093  36.616  1.00  0.00     0.029 A 
ATOM     48  N   UNL A   1      41.252  31.271  35.019  1.00  0.00    -0.354 N 
ATOM     49  N   UNL A   1      39.015  32.572  33.610  1.00  0.00    -0.248 NA
ATOM     50  C   UNL A   1      37.363  34.222  33.503  1.00  0.00     0.031 C 
ATOM     51  C   UNL A   1      41.966  32.184  36.913  1.00  0.00     0.029 A 
ATOM     52  C   UNL A   1      41.022  32.312  35.905  1.00  0.00     0.049 A 
ATOM     53  H   UNL A   1      40.732  31.100  34.200  1.00  0.00     0.167 HD
ATOM     54  C   UNL A   1      39.120  33.392  34.727  1.00  0.00     0.074 A 
ATOM     55  C   UNL A   1      38.093  34.407  34.595  1.00  0.00     0.031 C 
ATOM     56  C   UNL A   1      39.988  33.309  35.767  1.00  0.00     0.037 A 
BRANCH  43  57
ATOM     57  C   UNL A   1      43.977  28.581  35.404  1.00  0.00     0.058 A 
ATOM     58  C   UNL A   1      43.787  27.612  36.402  1.00  0.00     0.135 A 
ATOM     59  C   UNL A   1      45.292  28.829  34.979  1.00  0.00     0.135 A 
ATOM     60  F   UNL A   1      42.554  27.341  36.858  1.00  0.00    -0.206 F 
ATOM     61  C   UNL A   1      44.862  26.947  36.987  1.00  0.00     0.059 A 
ATOM     62  C   UNL A   1      46.381  28.153  35.527  1.00  0.00     0.059 A 
ATOM     63  F   UNL A   1      45.535  29.742  34.025  1.00  0.00    -0.206 F 
ATOM     64  C   UNL A   1      46.156  27.228  36.545  1.00  0.00     0.060 A 
BRANCH  64  65
ATOM     65  S   UNL A   1      47.538  26.375  37.333  1.00  0.00     0.124 S 
ATOM     66  O   UNL A   1      46.977  26.062  38.643  1.00  0.00    -0.237 OA
ATOM     67  O   UNL A   1      47.747  25.236  36.446  1.00  0.00    -0.237 OA
ATOM     68  O   UNL A   1      48.603  27.373  37.329  1.00  0.00    -0.744 OA
ENDBRANCH  64  65
ENDBRANCH  43  57
BRANCH  44  69
ATOM     69  C   UNL A   1      36.365  33.268  30.898  1.00  0.00     0.058 A 
ATOM     70  C   UNL A   1      35.051  33.220  31.383  1.00  0.00     0.135 A 
ATOM     71  C   UNL A   1      36.622  34.079  29.780  1.00  0.00     0.135 A 
ATOM     72  F   UNL A   1      34.754  32.453  32.442  1.00  0.00    -0.206 F 
ATOM     73  C   UNL A   1      34.032  33.962  30.794  1.00  0.00     0.059 A 
ATOM     74  C   UNL A   1      35.626  34.851  29.192  1.00  0.00     0.059 A 
ATOM     75  F   UNL A   1      37.867  34.170  29.287  1.00  0.00    -0.206 F 
ATOM     76  C   UNL A   1      34.333  34.788  29.709  1.00  0.00     0.060 A 
BRANCH  76  77
ATOM     77  S   UNL A   1      33.022  35.823  29.024  1.00  0.00     0.124 S 
ATOM     78  O   UNL A   1      33.787  36.887  28.387  1.00  0.00    -0.237 OA
ATOM     79  O   UNL A   1      32.346  34.895  28.121  1.00  0.00    -0.237 OA
ATOM     80  O   UNL A   1      32.251  36.215  30.200  1.00  0.00    -0.744 OA
ENDBRANCH  76  77
ENDBRANCH  44  69
BRANCH  56  81
ATOM     81  C   UNL A   1      39.873  34.346  36.849  1.00  0.00     0.058 A 
ATOM     82  C   UNL A   1      40.554  35.571  36.769  1.00  0.00     0.135 A 
ATOM     83  C   UNL A   1      39.016  34.143  37.944  1.00  0.00     0.135 A 
ATOM     84  F   UNL A   1      41.392  35.812  35.749  1.00  0.00    -0.206 F 
ATOM     85  C   UNL A   1      40.402  36.551  37.743  1.00  0.00     0.059 A 
ATOM     86  C   UNL A   1      38.827  35.122  38.915  1.00  0.00     0.059 A 
ATOM     87  F   UNL A   1      38.333  32.993  38.065  1.00  0.00    -0.206 F 
ATOM     88  C   UNL A   1      39.531  36.321  38.809  1.00  0.00     0.060 A 
BRANCH  88  89
ATOM     89  S   UNL A   1      39.311  37.623  40.040  1.00  0.00     0.124 S 
ATOM     90  O   UNL A   1      39.035  36.846  41.245  1.00  0.00    -0.237 OA
ATOM     91  O   UNL A   1      40.602  38.302  40.006  1.00  0.00    -0.237 OA
ATOM     92  O   UNL A   1      38.186  38.396  39.522  1.00  0.00    -0.744 OA
ENDBRANCH  88  89
ENDBRANCH  56  81
ENDBRANCH  30  31
ENDBRANCH   2  25
TORSDOF 13
ENDMDL
