MODEL 1
REMARK VINA RESULT:     -11.1      0.000      0.000
REMARK SMILES C[C@H](Nc1ccc2c(c1)OCCO2)[C@H](C)C(=O)NCCCNC(=O)c1ccc(-c2c3nc(c(-c4c(F)cc(S(=O)(=O)[O-])cc4F)c4ccc([nH]4)c(-c4c(F)cc(S(=O)(=O)[O-])cc4F)c4nc(c(-c5c(F)cc(S(=O)(=O)[O-])cc5F)c5ccc2[nH]5)C=C4)C=C3)cc1
REMARK SMILES IDX 20 1 19 2 18 3 16 4 17 5 14 7 15 8 2 9 1 10 3 11 4 13 5 14
REMARK SMILES IDX 9 15 6 16 8 17 7 18 10 19 13 20 11 21 12 22 21 23 22 24
REMARK SMILES IDX 23 25 24 27 25 28 26 29 90 30 27 31 89 32 28 33 29 34 30 35
REMARK SMILES IDX 83 36 31 37 88 38 82 39 84 40 32 41 87 42 81 43 80 44 33 46
REMARK SMILES IDX 67 47 46 48 66 49 47 50 50 51 65 52 85 53 48 54 49 55 64 57
REMARK SMILES IDX 86 58 51 59 34 60 35 61 44 62 36 63 37 64 43 65 45 66 38 67
REMARK SMILES IDX 39 68 40 69 41 70 42 71 68 72 69 73 78 74 70 75 71 76 77 77
REMARK SMILES IDX 79 78 72 79 73 80 74 81 75 82 76 83 52 84 53 85 62 86 54 87
REMARK SMILES IDX 55 88 61 89 63 90 56 91 57 92 58 93 59 94 60 95
REMARK H PARENT 18 6 3 12 22 26 84 45 50 56
REMARK Flexibility Score: inf
ROOT
ATOM      1  C   UNL A   1      43.491  23.232  29.334  1.00  0.00     0.042 C 
ENDROOT
BRANCH   1   2
ATOM      2  C   UNL A   1      44.776  23.162  28.525  1.00  0.00     0.117 C 
BRANCH   2   3
ATOM      3  N   UNL A   1      45.486  24.428  28.500  1.00  0.00    -0.356 N 
ATOM      4  C   UNL A   1      45.869  25.227  27.469  1.00  0.00     0.224 C 
ATOM      5  O   UNL A   1      46.529  26.231  27.758  1.00  0.00    -0.275 OA
ATOM      6  H   UNL A   1      45.734  24.769  29.389  1.00  0.00     0.163 HD
BRANCH   4   7
ATOM      7  C   UNL A   1      45.543  24.907  26.016  1.00  0.00     0.097 C 
ATOM      8  C   UNL A   1      45.022  26.175  25.329  1.00  0.00     0.020 C 
BRANCH   7   9
ATOM      9  C   UNL A   1      46.669  24.195  25.226  1.00  0.00     0.088 C 
ATOM     10  C   UNL A   1      47.635  25.207  24.607  1.00  0.00     0.031 C 
BRANCH   9  11
ATOM     11  N   UNL A   1      46.142  23.186  24.286  1.00  0.00    -0.382 N 
ATOM     12  H   UNL A   1      46.183  23.409  23.329  1.00  0.00     0.160 HD
BRANCH  11  13
ATOM     13  C   UNL A   1      45.597  21.958  24.617  1.00  0.00     0.038 A 
ATOM     14  C   UNL A   1      46.409  20.813  24.634  1.00  0.00     0.030 A 
ATOM     15  C   UNL A   1      44.255  21.805  24.965  1.00  0.00     0.076 A 
ATOM     16  C   UNL A   1      45.896  19.562  25.003  1.00  0.00     0.052 A 
ATOM     17  C   UNL A   1      43.750  20.577  25.382  1.00  0.00     0.163 A 
ATOM     18  C   UNL A   1      44.563  19.445  25.381  1.00  0.00     0.161 A 
ATOM     19  O   UNL A   1      42.441  20.566  25.791  1.00  0.00    -0.486 OA
ATOM     20  O   UNL A   1      44.120  18.203  25.758  1.00  0.00    -0.486 OA
ATOM     21  C   UNL A   1      42.189  19.420  26.607  1.00  0.00     0.271 C 
ATOM     22  C   UNL A   1      42.694  18.171  25.904  1.00  0.00     0.271 C 
ENDBRANCH  11  13
ENDBRANCH   9  11
ENDBRANCH   7   9
ENDBRANCH   4   7
ENDBRANCH   2   3
ENDBRANCH   1   2
BRANCH   1  23
ATOM     23  C   UNL A   1      42.255  22.806  28.557  1.00  0.00     0.118 C 
BRANCH  23  24
ATOM     24  N   UNL A   1      42.224  23.362  27.210  1.00  0.00    -0.352 N 
ATOM     25  C   UNL A   1      41.839  24.608  26.777  1.00  0.00     0.251 C 
ATOM     26  H   UNL A   1      42.525  22.749  26.501  1.00  0.00     0.163 HD
ATOM     27  O   UNL A   1      41.686  24.809  25.577  1.00  0.00    -0.269 OA
BRANCH  25  28
ATOM     28  C   UNL A   1      41.593  25.691  27.754  1.00  0.00     0.039 A 
ATOM     29  C   UNL A   1      40.374  25.725  28.434  1.00  0.00     0.014 A 
ATOM     30  C   UNL A   1      42.555  26.676  27.992  1.00  0.00     0.014 A 
ATOM     31  C   UNL A   1      40.152  26.705  29.404  1.00  0.00     0.010 A 
ATOM     32  C   UNL A   1      42.372  27.587  29.025  1.00  0.00     0.010 A 
ATOM     33  C   UNL A   1      41.165  27.619  29.738  1.00  0.00    -0.014 A 
BRANCH  33  34
ATOM     34  C   UNL A   1      40.982  28.616  30.823  1.00  0.00     0.031 A 
ATOM     35  C   UNL A   1      41.810  28.528  32.078  1.00  0.00     0.074 A 
ATOM     36  C   UNL A   1      40.020  29.555  30.709  1.00  0.00     0.049 A 
ATOM     37  N   UNL A   1      41.745  29.257  33.162  1.00  0.00    -0.248 NA
ATOM     38  C   UNL A   1      42.824  27.462  32.135  1.00  0.00     0.031 C 
ATOM     39  C   UNL A   1      39.114  29.704  29.567  1.00  0.00     0.029 A 
ATOM     40  N   UNL A   1      39.634  30.554  31.567  1.00  0.00    -0.354 N 
ATOM     41  C   UNL A   1      42.689  28.727  34.033  1.00  0.00     0.074 A 
ATOM     42  C   UNL A   1      43.278  27.583  33.374  1.00  0.00     0.031 C 
ATOM     43  C   UNL A   1      38.293  30.743  29.788  1.00  0.00     0.029 A 
ATOM     44  C   UNL A   1      38.582  31.308  31.102  1.00  0.00     0.049 A 
ATOM     45  H   UNL A   1      40.069  30.715  32.436  1.00  0.00     0.167 HD
ATOM     46  C   UNL A   1      43.048  29.168  35.262  1.00  0.00     0.037 A 
ATOM     47  C   UNL A   1      37.915  32.329  31.673  1.00  0.00     0.037 A 
ATOM     48  C   UNL A   1      42.478  30.327  35.897  1.00  0.00     0.049 A 
ATOM     49  C   UNL A   1      38.341  32.807  33.036  1.00  0.00     0.074 A 
ATOM     50  C   UNL A   1      42.828  30.903  37.105  1.00  0.00     0.029 A 
ATOM     51  N   UNL A   1      41.437  31.084  35.379  1.00  0.00    -0.354 N 
ATOM     52  N   UNL A   1      39.294  32.345  33.811  1.00  0.00    -0.248 NA
ATOM     53  C   UNL A   1      37.609  33.949  33.599  1.00  0.00     0.031 C 
ATOM     54  C   UNL A   1      41.961  31.973  37.346  1.00  0.00     0.029 A 
ATOM     55  C   UNL A   1      41.112  32.105  36.258  1.00  0.00     0.049 A 
ATOM     56  H   UNL A   1      40.995  30.921  34.515  1.00  0.00     0.167 HD
ATOM     57  C   UNL A   1      39.293  33.156  34.939  1.00  0.00     0.074 A 
ATOM     58  C   UNL A   1      38.256  34.147  34.740  1.00  0.00     0.031 C 
ATOM     59  C   UNL A   1      40.080  33.089  36.041  1.00  0.00     0.037 A 
BRANCH  46  60
ATOM     60  C   UNL A   1      44.105  28.398  36.006  1.00  0.00     0.058 A 
ATOM     61  C   UNL A   1      45.469  28.719  35.902  1.00  0.00     0.135 A 
ATOM     62  C   UNL A   1      43.745  27.358  36.879  1.00  0.00     0.135 A 
ATOM     63  F   UNL A   1      45.873  29.694  35.072  1.00  0.00    -0.206 F 
ATOM     64  C   UNL A   1      46.438  28.024  36.619  1.00  0.00     0.059 A 
ATOM     65  C   UNL A   1      44.695  26.669  37.629  1.00  0.00     0.059 A 
ATOM     66  F   UNL A   1      42.458  27.005  37.016  1.00  0.00    -0.206 F 
ATOM     67  C   UNL A   1      46.040  27.002  37.482  1.00  0.00     0.060 A 
BRANCH  67  68
ATOM     68  S   UNL A   1      47.309  26.126  38.420  1.00  0.00     0.124 S 
ATOM     69  O   UNL A   1      48.518  26.828  38.001  1.00  0.00    -0.237 OA
ATOM     70  O   UNL A   1      46.890  26.354  39.799  1.00  0.00    -0.237 OA
ATOM     71  O   UNL A   1      47.190  24.749  37.951  1.00  0.00    -0.744 OA
ENDBRANCH  67  68
ENDBRANCH  46  60
BRANCH  47  72
ATOM     72  C   UNL A   1      36.782  32.974  30.956  1.00  0.00     0.058 A 
ATOM     73  C   UNL A   1      35.453  32.751  31.346  1.00  0.00     0.135 A 
ATOM     74  C   UNL A   1      37.005  33.834  29.868  1.00  0.00     0.135 A 
ATOM     75  F   UNL A   1      35.186  31.934  32.376  1.00  0.00    -0.206 F 
ATOM     76  C   UNL A   1      34.386  33.336  30.672  1.00  0.00     0.059 A 
ATOM     77  C   UNL A   1      35.957  34.454  29.197  1.00  0.00     0.059 A 
ATOM     78  F   UNL A   1      38.259  34.098  29.466  1.00  0.00    -0.206 F 
ATOM     79  C   UNL A   1      34.650  34.189  29.598  1.00  0.00     0.060 A 
BRANCH  79  80
ATOM     80  S   UNL A   1      33.259  34.975  28.755  1.00  0.00     0.124 S 
ATOM     81  O   UNL A   1      33.916  36.092  28.086  1.00  0.00    -0.237 OA
ATOM     82  O   UNL A   1      32.781  33.902  27.889  1.00  0.00    -0.237 OA
ATOM     83  O   UNL A   1      32.363  35.332  29.850  1.00  0.00    -0.744 OA
ENDBRANCH  79  80
ENDBRANCH  47  72
BRANCH  59  84
ATOM     84  C   UNL A   1      39.881  34.134  37.104  1.00  0.00     0.058 A 
ATOM     85  C   UNL A   1      39.076  33.904  38.230  1.00  0.00     0.135 A 
ATOM     86  C   UNL A   1      40.551  35.366  37.019  1.00  0.00     0.135 A 
ATOM     87  F   UNL A   1      38.408  32.746  38.357  1.00  0.00    -0.206 F 
ATOM     88  C   UNL A   1      38.922  34.867  39.223  1.00  0.00     0.059 A 
ATOM     89  C   UNL A   1      40.437  36.331  38.016  1.00  0.00     0.059 A 
ATOM     90  F   UNL A   1      41.343  35.635  35.969  1.00  0.00    -0.206 F 
ATOM     91  C   UNL A   1      39.610  36.076  39.108  1.00  0.00     0.060 A 
BRANCH  91  92
ATOM     92  S   UNL A   1      39.428  37.302  40.420  1.00  0.00     0.124 S 
ATOM     93  O   UNL A   1      40.806  37.742  40.606  1.00  0.00    -0.237 OA
ATOM     94  O   UNL A   1      38.527  38.277  39.812  1.00  0.00    -0.237 OA
ATOM     95  O   UNL A   1      38.859  36.536  41.525  1.00  0.00    -0.744 OA
ENDBRANCH  91  92
ENDBRANCH  59  84
ENDBRANCH  33  34
ENDBRANCH  25  28
ENDBRANCH  23  24
ENDBRANCH   1  23
TORSDOF 16
ENDMDL
MODEL 2
REMARK VINA RESULT:     -10.8      6.189     11.648
REMARK SMILES C[C@H](Nc1ccc2c(c1)OCCO2)[C@H](C)C(=O)NCCCNC(=O)c1ccc(-c2c3nc(c(-c4c(F)cc(S(=O)(=O)[O-])cc4F)c4ccc([nH]4)c(-c4c(F)cc(S(=O)(=O)[O-])cc4F)c4nc(c(-c5c(F)cc(S(=O)(=O)[O-])cc5F)c5ccc2[nH]5)C=C4)C=C3)cc1
REMARK SMILES IDX 20 1 19 2 18 3 16 4 17 5 14 7 15 8 2 9 1 10 3 11 4 13 5 14
REMARK SMILES IDX 9 15 6 16 8 17 7 18 10 19 13 20 11 21 12 22 21 23 22 24
REMARK SMILES IDX 23 25 24 27 25 28 26 29 90 30 27 31 89 32 28 33 29 34 30 35
REMARK SMILES IDX 83 36 31 37 88 38 82 39 84 40 32 41 87 42 81 43 80 44 33 46
REMARK SMILES IDX 67 47 46 48 66 49 47 50 50 51 65 52 85 53 48 54 49 55 64 57
REMARK SMILES IDX 86 58 51 59 34 60 35 61 44 62 36 63 37 64 43 65 45 66 38 67
REMARK SMILES IDX 39 68 40 69 41 70 42 71 68 72 69 73 78 74 70 75 71 76 77 77
REMARK SMILES IDX 79 78 72 79 73 80 74 81 75 82 76 83 52 84 53 85 62 86 54 87
REMARK SMILES IDX 55 88 61 89 63 90 56 91 57 92 58 93 59 94 60 95
REMARK H PARENT 18 6 3 12 22 26 84 45 50 56
REMARK Flexibility Score: inf
ROOT
ATOM      1  C   UNL A   1      33.705  27.990  25.748  1.00  0.00     0.042 C 
ENDROOT
BRANCH   1   2
ATOM      2  C   UNL A   1      32.617  27.090  25.187  1.00  0.00     0.117 C 
BRANCH   2   3
ATOM      3  N   UNL A   1      33.109  26.208  24.144  1.00  0.00    -0.356 N 
ATOM      4  C   UNL A   1      32.682  24.990  23.717  1.00  0.00     0.224 C 
ATOM      5  O   UNL A   1      33.352  24.442  22.837  1.00  0.00    -0.275 OA
ATOM      6  H   UNL A   1      33.891  26.554  23.659  1.00  0.00     0.163 HD
BRANCH   4   7
ATOM      7  C   UNL A   1      31.458  24.296  24.303  1.00  0.00     0.097 C 
ATOM      8  C   UNL A   1      30.661  23.644  23.166  1.00  0.00     0.020 C 
BRANCH   7   9
ATOM      9  C   UNL A   1      31.743  23.338  25.486  1.00  0.00     0.088 C 
ATOM     10  C   UNL A   1      31.321  23.963  26.816  1.00  0.00     0.031 C 
BRANCH   9  11
ATOM     11  N   UNL A   1      33.122  22.809  25.459  1.00  0.00    -0.382 N 
ATOM     12  H   UNL A   1      33.844  23.448  25.656  1.00  0.00     0.160 HD
BRANCH  11  13
ATOM     13  C   UNL A   1      33.498  21.506  25.185  1.00  0.00     0.038 A 
ATOM     14  C   UNL A   1      34.851  21.198  24.970  1.00  0.00     0.030 A 
ATOM     15  C   UNL A   1      32.580  20.458  25.134  1.00  0.00     0.076 A 
ATOM     16  C   UNL A   1      35.269  19.882  24.729  1.00  0.00     0.052 A 
ATOM     17  C   UNL A   1      32.993  19.142  24.946  1.00  0.00     0.163 A 
ATOM     18  C   UNL A   1      34.337  18.851  24.720  1.00  0.00     0.161 A 
ATOM     19  O   UNL A   1      32.013  18.183  25.010  1.00  0.00    -0.486 OA
ATOM     20  O   UNL A   1      34.804  17.580  24.506  1.00  0.00    -0.486 OA
ATOM     21  C   UNL A   1      32.593  16.903  25.271  1.00  0.00     0.271 C 
ATOM     22  C   UNL A   1      33.733  16.650  24.297  1.00  0.00     0.271 C 
ENDBRANCH  11  13
ENDBRANCH   9  11
ENDBRANCH   7   9
ENDBRANCH   4   7
ENDBRANCH   2   3
ENDBRANCH   1   2
BRANCH   1  23
ATOM     23  C   UNL A   1      33.539  28.302  27.227  1.00  0.00     0.118 C 
BRANCH  23  24
ATOM     24  N   UNL A   1      33.469  29.733  27.491  1.00  0.00    -0.352 N 
ATOM     25  C   UNL A   1      34.386  30.570  28.081  1.00  0.00     0.251 C 
ATOM     26  H   UNL A   1      32.635  30.169  27.201  1.00  0.00     0.163 HD
ATOM     27  O   UNL A   1      34.051  31.704  28.402  1.00  0.00    -0.269 OA
BRANCH  25  28
ATOM     28  C   UNL A   1      35.763  30.095  28.344  1.00  0.00     0.039 A 
ATOM     29  C   UNL A   1      36.688  30.089  27.297  1.00  0.00     0.014 A 
ATOM     30  C   UNL A   1      36.139  29.650  29.612  1.00  0.00     0.014 A 
ATOM     31  C   UNL A   1      38.007  29.703  27.544  1.00  0.00     0.010 A 
ATOM     32  C   UNL A   1      37.473  29.362  29.879  1.00  0.00     0.010 A 
ATOM     33  C   UNL A   1      38.422  29.376  28.846  1.00  0.00    -0.014 A 
BRANCH  33  34
ATOM     34  C   UNL A   1      39.837  29.043  29.149  1.00  0.00     0.031 A 
ATOM     35  C   UNL A   1      40.750  30.086  29.736  1.00  0.00     0.074 A 
ATOM     36  C   UNL A   1      40.317  27.825  28.826  1.00  0.00     0.049 A 
ATOM     37  N   UNL A   1      42.028  30.010  29.998  1.00  0.00    -0.248 NA
ATOM     38  C   UNL A   1      40.155  31.399  30.039  1.00  0.00     0.031 C 
ATOM     39  C   UNL A   1      39.545  26.749  28.198  1.00  0.00     0.029 A 
ATOM     40  N   UNL A   1      41.572  27.288  28.969  1.00  0.00    -0.354 N 
ATOM     41  C   UNL A   1      42.394  31.263  30.476  1.00  0.00     0.074 A 
ATOM     42  C   UNL A   1      41.215  32.098  30.418  1.00  0.00     0.031 C 
ATOM     43  C   UNL A   1      40.336  25.679  28.029  1.00  0.00     0.029 A 
ATOM     44  C   UNL A   1      41.681  26.002  28.494  1.00  0.00     0.049 A 
ATOM     45  H   UNL A   1      42.324  27.778  29.373  1.00  0.00     0.167 HD
ATOM     46  C   UNL A   1      43.598  31.674  30.940  1.00  0.00     0.037 A 
ATOM     47  C   UNL A   1      42.747  25.180  28.426  1.00  0.00     0.037 A 
ATOM     48  C   UNL A   1      44.758  30.825  31.024  1.00  0.00     0.049 A 
ATOM     49  C   UNL A   1      44.071  25.657  28.960  1.00  0.00     0.074 A 
ATOM     50  C   UNL A   1      46.001  31.122  31.553  1.00  0.00     0.029 A 
ATOM     51  N   UNL A   1      44.820  29.519  30.563  1.00  0.00    -0.354 N 
ATOM     52  N   UNL A   1      44.378  26.819  29.485  1.00  0.00    -0.248 NA
ATOM     53  C   UNL A   1      45.192  24.709  28.900  1.00  0.00     0.031 C 
ATOM     54  C   UNL A   1      46.833  30.015  31.359  1.00  0.00     0.029 A 
ATOM     55  C   UNL A   1      46.090  29.005  30.767  1.00  0.00     0.049 A 
ATOM     56  H   UNL A   1      44.072  29.029  30.151  1.00  0.00     0.167 HD
ATOM     57  C   UNL A   1      45.718  26.733  29.843  1.00  0.00     0.074 A 
ATOM     58  C   UNL A   1      46.160  25.400  29.488  1.00  0.00     0.031 C 
ATOM     59  C   UNL A   1      46.512  27.672  30.415  1.00  0.00     0.037 A 
BRANCH  46  60
ATOM     60  C   UNL A   1      43.728  33.102  31.396  1.00  0.00     0.058 A 
ATOM     61  C   UNL A   1      43.478  33.482  32.725  1.00  0.00     0.135 A 
ATOM     62  C   UNL A   1      44.162  34.097  30.504  1.00  0.00     0.135 A 
ATOM     63  F   UNL A   1      43.047  32.578  33.618  1.00  0.00    -0.206 F 
ATOM     64  C   UNL A   1      43.632  34.800  33.147  1.00  0.00     0.059 A 
ATOM     65  C   UNL A   1      44.351  35.414  30.911  1.00  0.00     0.059 A 
ATOM     66  F   UNL A   1      44.412  33.791  29.221  1.00  0.00    -0.206 F 
ATOM     67  C   UNL A   1      44.073  35.758  32.233  1.00  0.00     0.060 A 
BRANCH  67  68
ATOM     68  S   UNL A   1      44.288  37.456  32.803  1.00  0.00     0.124 S 
ATOM     69  O   UNL A   1      43.846  38.215  31.637  1.00  0.00    -0.237 OA
ATOM     70  O   UNL A   1      43.405  37.509  33.964  1.00  0.00    -0.237 OA
ATOM     71  O   UNL A   1      45.715  37.538  33.100  1.00  0.00    -0.744 OA
ENDBRANCH  67  68
ENDBRANCH  46  60
BRANCH  47  72
ATOM     72  C   UNL A   1      42.603  23.820  27.839  1.00  0.00     0.058 A 
ATOM     73  C   UNL A   1      42.644  23.619  26.451  1.00  0.00     0.135 A 
ATOM     74  C   UNL A   1      42.429  22.690  28.655  1.00  0.00     0.135 A 
ATOM     75  F   UNL A   1      42.803  24.666  25.628  1.00  0.00    -0.206 F 
ATOM     76  C   UNL A   1      42.494  22.355  25.891  1.00  0.00     0.059 A 
ATOM     77  C   UNL A   1      42.307  21.412  28.121  1.00  0.00     0.059 A 
ATOM     78  F   UNL A   1      42.403  22.823  29.991  1.00  0.00    -0.206 F 
ATOM     79  C   UNL A   1      42.328  21.256  26.737  1.00  0.00     0.060 A 
BRANCH  79  80
ATOM     80  S   UNL A   1      42.174  19.613  26.002  1.00  0.00     0.124 S 
ATOM     81  O   UNL A   1      40.754  19.569  25.674  1.00  0.00    -0.237 OA
ATOM     82  O   UNL A   1      43.090  19.699  24.869  1.00  0.00    -0.237 OA
ATOM     83  O   UNL A   1      42.602  18.724  27.078  1.00  0.00    -0.744 OA
ENDBRANCH  79  80
ENDBRANCH  47  72
BRANCH  59  84
ATOM     84  C   UNL A   1      47.931  27.284  30.730  1.00  0.00     0.058 A 
ATOM     85  C   UNL A   1      48.288  26.707  31.958  1.00  0.00     0.135 A 
ATOM     86  C   UNL A   1      48.939  27.442  29.764  1.00  0.00     0.135 A 
ATOM     87  F   UNL A   1      47.364  26.540  32.919  1.00  0.00    -0.206 F 
ATOM     88  C   UNL A   1      49.598  26.325  32.228  1.00  0.00     0.059 A 
ATOM     89  C   UNL A   1      50.249  27.036  30.000  1.00  0.00     0.059 A 
ATOM     90  F   UNL A   1      48.651  27.978  28.567  1.00  0.00    -0.206 F 
ATOM     91  C   UNL A   1      50.570  26.489  31.241  1.00  0.00     0.060 A 
BRANCH  91  92
ATOM     92  S   UNL A   1      52.259  25.957  31.592  1.00  0.00     0.124 S 
ATOM     93  O   UNL A   1      52.904  26.150  30.299  1.00  0.00    -0.237 OA
ATOM     94  O   UNL A   1      52.664  26.881  32.648  1.00  0.00    -0.237 OA
ATOM     95  O   UNL A   1      52.097  24.568  32.012  1.00  0.00    -0.744 OA
ENDBRANCH  91  92
ENDBRANCH  59  84
ENDBRANCH  33  34
ENDBRANCH  25  28
ENDBRANCH  23  24
ENDBRANCH   1  23
TORSDOF 16
ENDMDL
MODEL 3
REMARK VINA RESULT:     -10.7      5.625     11.753
REMARK SMILES C[C@H](Nc1ccc2c(c1)OCCO2)[C@H](C)C(=O)NCCCNC(=O)c1ccc(-c2c3nc(c(-c4c(F)cc(S(=O)(=O)[O-])cc4F)c4ccc([nH]4)c(-c4c(F)cc(S(=O)(=O)[O-])cc4F)c4nc(c(-c5c(F)cc(S(=O)(=O)[O-])cc5F)c5ccc2[nH]5)C=C4)C=C3)cc1
REMARK SMILES IDX 20 1 19 2 18 3 16 4 17 5 14 7 15 8 2 9 1 10 3 11 4 13 5 14
REMARK SMILES IDX 9 15 6 16 8 17 7 18 10 19 13 20 11 21 12 22 21 23 22 24
REMARK SMILES IDX 23 25 24 27 25 28 26 29 90 30 27 31 89 32 28 33 29 34 30 35
REMARK SMILES IDX 83 36 31 37 88 38 82 39 84 40 32 41 87 42 81 43 80 44 33 46
REMARK SMILES IDX 67 47 46 48 66 49 47 50 50 51 65 52 85 53 48 54 49 55 64 57
REMARK SMILES IDX 86 58 51 59 34 60 35 61 44 62 36 63 37 64 43 65 45 66 38 67
REMARK SMILES IDX 39 68 40 69 41 70 42 71 68 72 69 73 78 74 70 75 71 76 77 77
REMARK SMILES IDX 79 78 72 79 73 80 74 81 75 82 76 83 52 84 53 85 62 86 54 87
REMARK SMILES IDX 55 88 61 89 63 90 56 91 57 92 58 93 59 94 60 95
REMARK H PARENT 18 6 3 12 22 26 84 45 50 56
REMARK Flexibility Score: inf
ROOT
ATOM      1  C   UNL A   1      32.758  27.800  26.404  1.00  0.00     0.042 C 
ENDROOT
BRANCH   1   2
ATOM      2  C   UNL A   1      33.004  26.307  26.253  1.00  0.00     0.117 C 
BRANCH   2   3
ATOM      3  N   UNL A   1      31.934  25.507  26.821  1.00  0.00    -0.356 N 
ATOM      4  C   UNL A   1      31.451  24.281  26.489  1.00  0.00     0.224 C 
ATOM      5  O   UNL A   1      30.472  23.877  27.124  1.00  0.00    -0.275 OA
ATOM      6  H   UNL A   1      31.477  25.928  27.584  1.00  0.00     0.163 HD
BRANCH   4   7
ATOM      7  C   UNL A   1      32.048  23.438  25.368  1.00  0.00     0.097 C 
ATOM      8  C   UNL A   1      32.060  21.967  25.801  1.00  0.00     0.020 C 
BRANCH   7   9
ATOM      9  C   UNL A   1      31.428  23.665  23.967  1.00  0.00     0.088 C 
ATOM     10  C   UNL A   1      31.858  22.570  22.989  1.00  0.00     0.031 C 
BRANCH   9  11
ATOM     11  N   UNL A   1      31.630  25.045  23.481  1.00  0.00    -0.382 N 
ATOM     12  H   UNL A   1      32.551  25.301  23.248  1.00  0.00     0.160 HD
BRANCH  11  13
ATOM     13  C   UNL A   1      30.654  26.013  23.322  1.00  0.00     0.038 A 
ATOM     14  C   UNL A   1      29.407  25.859  23.948  1.00  0.00     0.030 A 
ATOM     15  C   UNL A   1      30.864  27.170  22.573  1.00  0.00     0.076 A 
ATOM     16  C   UNL A   1      28.411  26.840  23.839  1.00  0.00     0.052 A 
ATOM     17  C   UNL A   1      29.900  28.171  22.501  1.00  0.00     0.163 A 
ATOM     18  C   UNL A   1      28.660  28.000  23.116  1.00  0.00     0.161 A 
ATOM     19  O   UNL A   1      30.252  29.306  21.815  1.00  0.00    -0.486 OA
ATOM     20  O   UNL A   1      27.661  28.938  23.063  1.00  0.00    -0.486 OA
ATOM     21  C   UNL A   1      29.411  30.396  22.199  1.00  0.00     0.271 C 
ATOM     22  C   UNL A   1      27.954  29.972  22.113  1.00  0.00     0.271 C 
ENDBRANCH  11  13
ENDBRANCH   9  11
ENDBRANCH   7   9
ENDBRANCH   4   7
ENDBRANCH   2   3
ENDBRANCH   1   2
BRANCH   1  23
ATOM     23  C   UNL A   1      33.967  28.657  26.068  1.00  0.00     0.118 C 
BRANCH  23  24
ATOM     24  N   UNL A   1      33.784  30.052  26.447  1.00  0.00    -0.352 N 
ATOM     25  C   UNL A   1      34.446  30.808  27.385  1.00  0.00     0.251 C 
ATOM     26  H   UNL A   1      33.077  30.528  25.954  1.00  0.00     0.163 HD
ATOM     27  O   UNL A   1      33.999  31.905  27.701  1.00  0.00    -0.269 OA
BRANCH  25  28
ATOM     28  C   UNL A   1      35.676  30.290  28.023  1.00  0.00     0.039 A 
ATOM     29  C   UNL A   1      36.894  30.425  27.352  1.00  0.00     0.014 A 
ATOM     30  C   UNL A   1      35.630  29.665  29.271  1.00  0.00     0.014 A 
ATOM     31  C   UNL A   1      38.072  29.997  27.968  1.00  0.00     0.010 A 
ATOM     32  C   UNL A   1      36.812  29.332  29.922  1.00  0.00     0.010 A 
ATOM     33  C   UNL A   1      38.047  29.485  29.276  1.00  0.00    -0.014 A 
BRANCH  33  34
ATOM     34  C   UNL A   1      39.295  29.101  29.983  1.00  0.00     0.031 A 
ATOM     35  C   UNL A   1      39.738  29.863  31.203  1.00  0.00     0.074 A 
ATOM     36  C   UNL A   1      40.066  28.114  29.482  1.00  0.00     0.049 A 
ATOM     37  N   UNL A   1      40.830  29.728  31.909  1.00  0.00    -0.248 NA
ATOM     38  C   UNL A   1      38.852  30.941  31.674  1.00  0.00     0.031 C 
ATOM     39  C   UNL A   1      39.773  27.341  28.271  1.00  0.00     0.029 A 
ATOM     40  N   UNL A   1      41.261  27.598  29.919  1.00  0.00    -0.354 N 
ATOM     41  C   UNL A   1      40.773  30.710  32.890  1.00  0.00     0.074 A 
ATOM     42  C   UNL A   1      39.565  31.470  32.658  1.00  0.00     0.031 C 
ATOM     43  C   UNL A   1      40.748  26.440  28.076  1.00  0.00     0.029 A 
ATOM     44  C   UNL A   1      41.757  26.597  29.118  1.00  0.00     0.049 A 
ATOM     45  H   UNL A   1      41.719  27.916  30.730  1.00  0.00     0.167 HD
ATOM     46  C   UNL A   1      41.638  30.944  33.905  1.00  0.00     0.037 A 
ATOM     47  C   UNL A   1      42.904  25.894  29.202  1.00  0.00     0.037 A 
ATOM     48  C   UNL A   1      42.822  30.162  34.147  1.00  0.00     0.049 A 
ATOM     49  C   UNL A   1      43.843  26.166  30.347  1.00  0.00     0.074 A 
ATOM     50  C   UNL A   1      43.720  30.266  35.194  1.00  0.00     0.029 A 
ATOM     51  N   UNL A   1      43.275  29.135  33.332  1.00  0.00    -0.354 N 
ATOM     52  N   UNL A   1      43.731  27.045  31.315  1.00  0.00    -0.248 NA
ATOM     53  C   UNL A   1      45.060  25.346  30.418  1.00  0.00     0.031 C 
ATOM     54  C   UNL A   1      44.748  29.343  34.981  1.00  0.00     0.029 A 
ATOM     55  C   UNL A   1      44.457  28.617  33.836  1.00  0.00     0.049 A 
ATOM     56  H   UNL A   1      42.823  28.820  32.516  1.00  0.00     0.167 HD
ATOM     57  C   UNL A   1      44.847  26.866  32.123  1.00  0.00     0.074 A 
ATOM     58  C   UNL A   1      45.615  25.785  31.540  1.00  0.00     0.031 C 
ATOM     59  C   UNL A   1      45.205  27.534  33.247  1.00  0.00     0.037 A 
BRANCH  46  60
ATOM     60  C   UNL A   1      41.342  32.091  34.834  1.00  0.00     0.058 A 
ATOM     61  C   UNL A   1      41.882  33.371  34.627  1.00  0.00     0.135 A 
ATOM     62  C   UNL A   1      40.462  31.921  35.916  1.00  0.00     0.135 A 
ATOM     63  F   UNL A   1      42.741  33.589  33.619  1.00  0.00    -0.206 F 
ATOM     64  C   UNL A   1      41.578  34.435  35.471  1.00  0.00     0.059 A 
ATOM     65  C   UNL A   1      40.120  32.978  36.754  1.00  0.00     0.059 A 
ATOM     66  F   UNL A   1      39.919  30.719  36.163  1.00  0.00    -0.206 F 
ATOM     67  C   UNL A   1      40.693  34.228  36.531  1.00  0.00     0.060 A 
BRANCH  67  68
ATOM     68  S   UNL A   1      40.294  35.625  37.602  1.00  0.00     0.124 S 
ATOM     69  O   UNL A   1      39.897  36.636  36.627  1.00  0.00    -0.237 OA
ATOM     70  O   UNL A   1      39.219  35.086  38.428  1.00  0.00    -0.237 OA
ATOM     71  O   UNL A   1      41.548  35.887  38.302  1.00  0.00    -0.744 OA
ENDBRANCH  67  68
ENDBRANCH  46  60
BRANCH  47  72
ATOM     72  C   UNL A   1      43.223  24.861  28.180  1.00  0.00     0.058 A 
ATOM     73  C   UNL A   1      43.844  25.203  26.970  1.00  0.00     0.135 A 
ATOM     74  C   UNL A   1      42.918  23.507  28.395  1.00  0.00     0.135 A 
ATOM     75  F   UNL A   1      44.151  26.484  26.714  1.00  0.00    -0.206 F 
ATOM     76  C   UNL A   1      44.131  24.248  26.000  1.00  0.00     0.059 A 
ATOM     77  C   UNL A   1      43.222  22.529  27.454  1.00  0.00     0.059 A 
ATOM     78  F   UNL A   1      42.341  23.122  29.545  1.00  0.00    -0.206 F 
ATOM     79  C   UNL A   1      43.817  22.911  26.254  1.00  0.00     0.060 A 
BRANCH  79  80
ATOM     80  S   UNL A   1      44.230  21.672  25.007  1.00  0.00     0.124 S 
ATOM     81  O   UNL A   1      45.578  21.287  25.410  1.00  0.00    -0.237 OA
ATOM     82  O   UNL A   1      43.189  20.670  25.214  1.00  0.00    -0.237 OA
ATOM     83  O   UNL A   1      44.134  22.414  23.753  1.00  0.00    -0.744 OA
ENDBRANCH  79  80
ENDBRANCH  47  72
BRANCH  59  84
ATOM     84  C   UNL A   1      46.462  27.095  33.947  1.00  0.00     0.058 A 
ATOM     85  C   UNL A   1      47.706  27.689  33.682  1.00  0.00     0.135 A 
ATOM     86  C   UNL A   1      46.410  26.101  34.938  1.00  0.00     0.135 A 
ATOM     87  F   UNL A   1      47.812  28.640  32.739  1.00  0.00    -0.206 F 
ATOM     88  C   UNL A   1      48.857  27.297  34.356  1.00  0.00     0.059 A 
ATOM     89  C   UNL A   1      47.543  25.717  35.649  1.00  0.00     0.059 A 
ATOM     90  F   UNL A   1      45.245  25.508  35.241  1.00  0.00    -0.206 F 
ATOM     91  C   UNL A   1      48.765  26.312  35.341  1.00  0.00     0.060 A 
BRANCH  91  92
ATOM     92  S   UNL A   1      50.261  25.837  36.232  1.00  0.00     0.124 S 
ATOM     93  O   UNL A   1      50.280  26.812  37.317  1.00  0.00    -0.237 OA
ATOM     94  O   UNL A   1      49.968  24.460  36.621  1.00  0.00    -0.237 OA
ATOM     95  O   UNL A   1      51.315  25.989  35.233  1.00  0.00    -0.744 OA
ENDBRANCH  91  92
ENDBRANCH  59  84
ENDBRANCH  33  34
ENDBRANCH  25  28
ENDBRANCH  23  24
ENDBRANCH   1  23
TORSDOF 16
ENDMDL
