MODEL 1
REMARK VINA RESULT:     -11.4      0.000      0.000
REMARK SMILES N#CCS(=O)(=O)NC[C@H]1CC[C@H](C(=O)NCCCNC(=O)c2ccc(-c3c4nc(c(-c5c(F)cc(S(=O)(=O)[O-])cc5F)c5ccc([nH]5)c(-c5c(F)cc(S(=O)(=O)[O-])cc5F)c5nc(c(-c6c(F)cc(S(=O)(=O)[O-])cc6F)c6ccc3[nH]6)C=C5)C=C4)cc2)O1
REMARK SMILES IDX 16 1 15 2 13 3 14 4 12 6 9 7 10 8 88 9 11 10 8 11 7 12 4 14
REMARK SMILES IDX 5 15 6 16 3 17 2 18 1 19 17 20 18 21 19 22 20 23 21 25 22 26
REMARK SMILES IDX 23 27 87 28 24 29 86 30 25 31 26 32 27 33 80 34 28 35 85 36
REMARK SMILES IDX 79 37 81 38 29 39 84 40 78 41 77 42 30 44 64 45 43 46 63 47
REMARK SMILES IDX 44 48 47 49 62 50 82 51 45 52 46 53 61 55 83 56 48 57 31 58
REMARK SMILES IDX 32 59 41 60 33 61 34 62 40 63 42 64 35 65 36 66 37 67 38 68
REMARK SMILES IDX 39 69 65 70 66 71 75 72 67 73 68 74 74 75 76 76 69 77 70 78
REMARK SMILES IDX 71 79 72 80 73 81 49 82 50 83 59 84 51 85 52 86 58 87 60 88
REMARK SMILES IDX 53 89 54 90 55 91 56 92 57 93
REMARK H PARENT 15 5 7 13 19 24 81 43 47 54
REMARK Flexibility Score: inf
ROOT
ATOM      1  C   UNL A   1      37.821  23.405  26.047  1.00  0.00     0.117 C 
ENDROOT
BRANCH   1   2
ATOM      2  N   UNL A   1      37.715  23.387  24.613  1.00  0.00    -0.354 N 
ATOM      3  C   UNL A   1      36.610  23.185  23.852  1.00  0.00     0.249 C 
ATOM      4  O   UNL A   1      36.770  23.123  22.628  1.00  0.00    -0.272 OA
ATOM      5  H   UNL A   1      38.552  23.542  24.120  1.00  0.00     0.163 HD
BRANCH   3   6
ATOM      6  C   UNL A   1      35.213  23.007  24.483  1.00  0.00     0.207 C 
ATOM      7  C   UNL A   1      33.562  21.328  24.235  1.00  0.00     0.134 C 
ATOM      8  C   UNL A   1      33.131  22.508  23.376  1.00  0.00     0.037 C 
ATOM      9  O   UNL A   1      34.800  21.694  24.853  1.00  0.00    -0.364 OA
ATOM     10  C   UNL A   1      34.067  23.643  23.726  1.00  0.00     0.045 C 
BRANCH   7  11
ATOM     11  C   UNL A   1      32.478  20.907  25.239  1.00  0.00     0.130 C 
BRANCH  11  12
ATOM     12  N   UNL A   1      32.468  19.473  25.616  1.00  0.00    -0.212 NA
ATOM     13  H   UNL A   1      33.226  19.364  26.289  1.00  0.00     0.141 HD
BRANCH  12  14
ATOM     14  S   UNL A   1      32.631  18.193  24.552  1.00  0.00     0.225 S 
ATOM     15  O   UNL A   1      32.078  18.549  23.266  1.00  0.00    -0.211 OA
ATOM     16  O   UNL A   1      32.032  17.080  25.263  1.00  0.00    -0.211 OA
BRANCH  14  17
ATOM     17  C   UNL A   1      34.365  17.811  24.416  1.00  0.00     0.273 C 
BRANCH  17  18
ATOM     18  C   UNL A   1      34.626  16.376  24.845  1.00  0.00     0.080 C 
ATOM     19  N   UNL A   1      34.841  15.186  25.201  1.00  0.00    -0.197 NA
ENDBRANCH  17  18
ENDBRANCH  14  17
ENDBRANCH  12  14
ENDBRANCH  11  12
ENDBRANCH   7  11
ENDBRANCH   3   6
ENDBRANCH   1   2
BRANCH   1  20
ATOM     20  C   UNL A   1      38.988  22.548  26.511  1.00  0.00     0.042 C 
BRANCH  20  21
ATOM     21  C   UNL A   1      40.051  23.374  27.212  1.00  0.00     0.118 C 
BRANCH  21  22
ATOM     22  N   UNL A   1      40.903  24.052  26.246  1.00  0.00    -0.352 N 
ATOM     23  C   UNL A   1      41.208  25.379  26.130  1.00  0.00     0.251 C 
ATOM     24  H   UNL A   1      41.321  23.466  25.575  1.00  0.00     0.163 HD
ATOM     25  O   UNL A   1      41.661  25.801  25.070  1.00  0.00    -0.269 OA
BRANCH  23  26
ATOM     26  C   UNL A   1      41.006  26.285  27.276  1.00  0.00     0.039 A 
ATOM     27  C   UNL A   1      41.854  27.384  27.420  1.00  0.00     0.014 A 
ATOM     28  C   UNL A   1      40.022  26.024  28.235  1.00  0.00     0.014 A 
ATOM     29  C   UNL A   1      41.700  28.228  28.518  1.00  0.00     0.010 A 
ATOM     30  C   UNL A   1      39.799  26.924  29.267  1.00  0.00     0.010 A 
ATOM     31  C   UNL A   1      40.659  28.015  29.437  1.00  0.00    -0.014 A 
BRANCH  31  32
ATOM     32  C   UNL A   1      40.488  28.904  30.609  1.00  0.00     0.031 A 
ATOM     33  C   UNL A   1      41.357  28.722  31.824  1.00  0.00     0.074 A 
ATOM     34  C   UNL A   1      39.532  29.851  30.579  1.00  0.00     0.049 A 
ATOM     35  N   UNL A   1      41.353  29.396  32.945  1.00  0.00    -0.248 NA
ATOM     36  C   UNL A   1      42.336  27.623  31.791  1.00  0.00     0.031 C 
ATOM     37  C   UNL A   1      38.597  30.074  29.472  1.00  0.00     0.029 A 
ATOM     38  N   UNL A   1      39.188  30.804  31.500  1.00  0.00    -0.354 N 
ATOM     39  C   UNL A   1      42.319  28.799  33.748  1.00  0.00     0.074 A 
ATOM     40  C   UNL A   1      42.840  27.667  33.015  1.00  0.00     0.031 C 
ATOM     41  C   UNL A   1      37.813  31.124  29.764  1.00  0.00     0.029 A 
ATOM     42  C   UNL A   1      38.161  31.621  31.091  1.00  0.00     0.049 A 
ATOM     43  H   UNL A   1      39.634  30.897  32.373  1.00  0.00     0.167 HD
ATOM     44  C   UNL A   1      42.753  29.179  34.972  1.00  0.00     0.037 A 
ATOM     45  C   UNL A   1      37.566  32.653  31.718  1.00  0.00     0.037 A 
ATOM     46  C   UNL A   1      42.241  30.324  35.678  1.00  0.00     0.049 A 
ATOM     47  C   UNL A   1      38.067  33.056  33.078  1.00  0.00     0.074 A 
ATOM     48  C   UNL A   1      42.648  30.837  36.897  1.00  0.00     0.029 A 
ATOM     49  N   UNL A   1      41.204  31.131  35.231  1.00  0.00    -0.354 N 
ATOM     50  N   UNL A   1      39.034  32.527  33.791  1.00  0.00    -0.248 NA
ATOM     51  C   UNL A   1      37.403  34.200  33.715  1.00  0.00     0.031 C 
ATOM     52  C   UNL A   1      41.821  31.919  37.212  1.00  0.00     0.029 A 
ATOM     53  C   UNL A   1      40.939  32.121  36.162  1.00  0.00     0.049 A 
ATOM     54  H   UNL A   1      40.728  31.017  34.377  1.00  0.00     0.167 HD
ATOM     55  C   UNL A   1      39.109  33.289  34.953  1.00  0.00     0.074 A 
ATOM     56  C   UNL A   1      38.105  34.328  34.832  1.00  0.00     0.031 C 
ATOM     57  C   UNL A   1      39.929  33.143  36.023  1.00  0.00     0.037 A 
BRANCH  44  58
ATOM     58  C   UNL A   1      43.835  28.356  35.619  1.00  0.00     0.058 A 
ATOM     59  C   UNL A   1      43.537  27.298  36.495  1.00  0.00     0.135 A 
ATOM     60  C   UNL A   1      45.188  28.607  35.337  1.00  0.00     0.135 A 
ATOM     61  F   UNL A   1      42.262  27.024  36.816  1.00  0.00    -0.206 F 
ATOM     62  C   UNL A   1      44.540  26.539  37.089  1.00  0.00     0.059 A 
ATOM     63  C   UNL A   1      46.207  27.838  35.895  1.00  0.00     0.059 A 
ATOM     64  F   UNL A   1      45.532  29.608  34.511  1.00  0.00    -0.206 F 
ATOM     65  C   UNL A   1      45.872  26.816  36.780  1.00  0.00     0.060 A 
BRANCH  65  66
ATOM     66  S   UNL A   1      47.160  25.811  37.550  1.00  0.00     0.124 S 
ATOM     67  O   UNL A   1      47.466  26.594  38.742  1.00  0.00    -0.237 OA
ATOM     68  O   UNL A   1      46.469  24.547  37.782  1.00  0.00    -0.237 OA
ATOM     69  O   UNL A   1      48.211  25.771  36.538  1.00  0.00    -0.744 OA
ENDBRANCH  65  66
ENDBRANCH  44  58
BRANCH  45  70
ATOM     70  C   UNL A   1      36.453  33.383  31.057  1.00  0.00     0.058 A 
ATOM     71  C   UNL A   1      36.690  34.227  29.961  1.00  0.00     0.135 A 
ATOM     72  C   UNL A   1      35.127  33.238  31.494  1.00  0.00     0.135 A 
ATOM     73  F   UNL A   1      37.941  34.400  29.506  1.00  0.00    -0.206 F 
ATOM     74  C   UNL A   1      35.657  34.918  29.336  1.00  0.00     0.059 A 
ATOM     75  C   UNL A   1      34.073  33.894  30.866  1.00  0.00     0.059 A 
ATOM     76  F   UNL A   1      34.843  32.426  32.524  1.00  0.00    -0.206 F 
ATOM     77  C   UNL A   1      34.350  34.741  29.795  1.00  0.00     0.060 A 
BRANCH  77  78
ATOM     78  S   UNL A   1      33.011  35.607  28.948  1.00  0.00     0.124 S 
ATOM     79  O   UNL A   1      32.227  36.107  30.071  1.00  0.00    -0.237 OA
ATOM     80  O   UNL A   1      33.738  36.613  28.178  1.00  0.00    -0.237 OA
ATOM     81  O   UNL A   1      32.382  34.557  28.154  1.00  0.00    -0.744 OA
ENDBRANCH  77  78
ENDBRANCH  45  70
BRANCH  57  82
ATOM     82  C   UNL A   1      39.788  34.143  37.137  1.00  0.00     0.058 A 
ATOM     83  C   UNL A   1      40.408  35.401  37.082  1.00  0.00     0.135 A 
ATOM     84  C   UNL A   1      38.995  33.852  38.259  1.00  0.00     0.135 A 
ATOM     85  F   UNL A   1      41.181  35.729  36.034  1.00  0.00    -0.206 F 
ATOM     86  C   UNL A   1      40.276  36.322  38.115  1.00  0.00     0.059 A 
ATOM     87  C   UNL A   1      38.821  34.771  39.289  1.00  0.00     0.059 A 
ATOM     88  F   UNL A   1      38.369  32.668  38.357  1.00  0.00    -0.206 F 
ATOM     89  C   UNL A   1      39.479  35.997  39.215  1.00  0.00     0.060 A 
BRANCH  89  90
ATOM     90  S   UNL A   1      39.303  37.208  40.541  1.00  0.00     0.124 S 
ATOM     91  O   UNL A   1      40.652  37.760  40.615  1.00  0.00    -0.237 OA
ATOM     92  O   UNL A   1      38.280  38.104  40.012  1.00  0.00    -0.237 OA
ATOM     93  O   UNL A   1      38.891  36.402  41.686  1.00  0.00    -0.744 OA
ENDBRANCH  89  90
ENDBRANCH  57  82
ENDBRANCH  31  32
ENDBRANCH  23  26
ENDBRANCH  21  22
ENDBRANCH  20  21
ENDBRANCH   1  20
TORSDOF 18
ENDMDL
MODEL 2
REMARK VINA RESULT:     -11.0      3.813      6.005
REMARK SMILES N#CCS(=O)(=O)NC[C@H]1CC[C@H](C(=O)NCCCNC(=O)c2ccc(-c3c4nc(c(-c5c(F)cc(S(=O)(=O)[O-])cc5F)c5ccc([nH]5)c(-c5c(F)cc(S(=O)(=O)[O-])cc5F)c5nc(c(-c6c(F)cc(S(=O)(=O)[O-])cc6F)c6ccc3[nH]6)C=C5)C=C4)cc2)O1
REMARK SMILES IDX 16 1 15 2 13 3 14 4 12 6 9 7 10 8 88 9 11 10 8 11 7 12 4 14
REMARK SMILES IDX 5 15 6 16 3 17 2 18 1 19 17 20 18 21 19 22 20 23 21 25 22 26
REMARK SMILES IDX 23 27 87 28 24 29 86 30 25 31 26 32 27 33 80 34 28 35 85 36
REMARK SMILES IDX 79 37 81 38 29 39 84 40 78 41 77 42 30 44 64 45 43 46 63 47
REMARK SMILES IDX 44 48 47 49 62 50 82 51 45 52 46 53 61 55 83 56 48 57 31 58
REMARK SMILES IDX 32 59 41 60 33 61 34 62 40 63 42 64 35 65 36 66 37 67 38 68
REMARK SMILES IDX 39 69 65 70 66 71 75 72 67 73 68 74 74 75 76 76 69 77 70 78
REMARK SMILES IDX 71 79 72 80 73 81 49 82 50 83 59 84 51 85 52 86 58 87 60 88
REMARK SMILES IDX 53 89 54 90 55 91 56 92 57 93
REMARK H PARENT 15 5 7 13 19 24 81 43 47 54
REMARK Flexibility Score: inf
ROOT
ATOM      1  C   UNL A   1      41.672  20.799  27.587  1.00  0.00     0.117 C 
ENDROOT
BRANCH   1   2
ATOM      2  N   UNL A   1      42.155  20.035  26.469  1.00  0.00    -0.354 N 
ATOM      3  C   UNL A   1      43.182  20.325  25.631  1.00  0.00     0.249 C 
ATOM      4  O   UNL A   1      43.365  19.563  24.676  1.00  0.00    -0.272 OA
ATOM      5  H   UNL A   1      41.680  19.193  26.288  1.00  0.00     0.163 HD
BRANCH   3   6
ATOM      6  C   UNL A   1      44.069  21.570  25.838  1.00  0.00     0.207 C 
ATOM      7  C   UNL A   1      44.385  23.527  24.542  1.00  0.00     0.134 C 
ATOM      8  C   UNL A   1      45.567  22.611  24.261  1.00  0.00     0.037 C 
ATOM      9  O   UNL A   1      43.542  22.845  25.476  1.00  0.00    -0.364 OA
ATOM     10  C   UNL A   1      45.467  21.482  25.263  1.00  0.00     0.045 C 
BRANCH   7  11
ATOM     11  C   UNL A   1      44.823  24.920  25.018  1.00  0.00     0.130 C 
BRANCH  11  12
ATOM     12  N   UNL A   1      46.270  25.219  24.900  1.00  0.00    -0.212 NA
ATOM     13  H   UNL A   1      46.695  24.363  24.545  1.00  0.00     0.141 HD
BRANCH  12  14
ATOM     14  S   UNL A   1      47.258  25.717  26.154  1.00  0.00     0.225 S 
ATOM     15  O   UNL A   1      48.297  24.740  26.380  1.00  0.00    -0.211 OA
ATOM     16  O   UNL A   1      46.328  25.980  27.237  1.00  0.00    -0.211 OA
BRANCH  14  17
ATOM     17  C   UNL A   1      47.953  27.296  25.711  1.00  0.00     0.273 C 
BRANCH  17  18
ATOM     18  C   UNL A   1      47.349  27.793  24.409  1.00  0.00     0.080 C 
ATOM     19  N   UNL A   1      46.847  28.205  23.328  1.00  0.00    -0.197 NA
ENDBRANCH  17  18
ENDBRANCH  14  17
ENDBRANCH  12  14
ENDBRANCH  11  12
ENDBRANCH   7  11
ENDBRANCH   3   6
ENDBRANCH   1   2
BRANCH   1  20
ATOM     20  C   UNL A   1      40.453  21.619  27.193  1.00  0.00     0.042 C 
BRANCH  20  21
ATOM     21  C   UNL A   1      40.614  23.082  27.564  1.00  0.00     0.118 C 
BRANCH  21  22
ATOM     22  N   UNL A   1      41.115  23.853  26.435  1.00  0.00    -0.352 N 
ATOM     23  C   UNL A   1      41.133  25.206  26.240  1.00  0.00     0.251 C 
ATOM     24  H   UNL A   1      41.497  23.319  25.702  1.00  0.00     0.163 HD
ATOM     25  O   UNL A   1      41.279  25.647  25.105  1.00  0.00    -0.269 OA
BRANCH  23  26
ATOM     26  C   UNL A   1      40.990  26.118  27.390  1.00  0.00     0.039 A 
ATOM     27  C   UNL A   1      39.903  25.949  28.249  1.00  0.00     0.014 A 
ATOM     28  C   UNL A   1      41.890  27.169  27.591  1.00  0.00     0.014 A 
ATOM     29  C   UNL A   1      39.733  26.825  29.319  1.00  0.00     0.010 A 
ATOM     30  C   UNL A   1      41.781  27.973  28.716  1.00  0.00     0.010 A 
ATOM     31  C   UNL A   1      40.682  27.831  29.571  1.00  0.00    -0.014 A 
BRANCH  31  32
ATOM     32  C   UNL A   1      40.509  28.769  30.702  1.00  0.00     0.031 A 
ATOM     33  C   UNL A   1      41.371  28.636  31.929  1.00  0.00     0.074 A 
ATOM     34  C   UNL A   1      39.557  29.718  30.629  1.00  0.00     0.049 A 
ATOM     35  N   UNL A   1      41.366  29.357  33.020  1.00  0.00    -0.248 NA
ATOM     36  C   UNL A   1      42.346  27.532  31.946  1.00  0.00     0.031 C 
ATOM     37  C   UNL A   1      38.629  29.898  29.508  1.00  0.00     0.029 A 
ATOM     38  N   UNL A   1      39.213  30.711  31.507  1.00  0.00    -0.354 N 
ATOM     39  C   UNL A   1      42.326  28.790  33.852  1.00  0.00     0.074 A 
ATOM     40  C   UNL A   1      42.845  27.626  33.170  1.00  0.00     0.031 C 
ATOM     41  C   UNL A   1      37.848  30.963  29.752  1.00  0.00     0.029 A 
ATOM     42  C   UNL A   1      38.191  31.514  31.059  1.00  0.00     0.049 A 
ATOM     43  H   UNL A   1      39.656  30.838  32.378  1.00  0.00     0.167 HD
ATOM     44  C   UNL A   1      42.756  29.219  35.061  1.00  0.00     0.037 A 
ATOM     45  C   UNL A   1      37.599  32.573  31.639  1.00  0.00     0.037 A 
ATOM     46  C   UNL A   1      42.245  30.395  35.716  1.00  0.00     0.049 A 
ATOM     47  C   UNL A   1      38.094  33.032  32.983  1.00  0.00     0.074 A 
ATOM     48  C   UNL A   1      42.649  30.957  36.914  1.00  0.00     0.029 A 
ATOM     49  N   UNL A   1      41.214  31.187  35.230  1.00  0.00    -0.354 N 
ATOM     50  N   UNL A   1      39.056  32.530  33.723  1.00  0.00    -0.248 NA
ATOM     51  C   UNL A   1      37.433  34.205  33.568  1.00  0.00     0.031 C 
ATOM     52  C   UNL A   1      41.825  32.055  37.179  1.00  0.00     0.029 A 
ATOM     53  C   UNL A   1      40.948  32.216  36.118  1.00  0.00     0.049 A 
ATOM     54  H   UNL A   1      40.741  31.039  34.380  1.00  0.00     0.167 HD
ATOM     55  C   UNL A   1      39.129  33.340  34.851  1.00  0.00     0.074 A 
ATOM     56  C   UNL A   1      38.130  34.376  34.682  1.00  0.00     0.031 C 
ATOM     57  C   UNL A   1      39.944  33.235  35.930  1.00  0.00     0.037 A 
BRANCH  44  58
ATOM     58  C   UNL A   1      43.831  28.420  35.748  1.00  0.00     0.058 A 
ATOM     59  C   UNL A   1      45.196  28.670  35.525  1.00  0.00     0.135 A 
ATOM     60  C   UNL A   1      43.495  27.412  36.666  1.00  0.00     0.135 A 
ATOM     61  F   UNL A   1      45.578  29.609  34.644  1.00  0.00    -0.206 F 
ATOM     62  C   UNL A   1      46.186  27.930  36.164  1.00  0.00     0.059 A 
ATOM     63  C   UNL A   1      44.469  26.682  37.341  1.00  0.00     0.059 A 
ATOM     64  F   UNL A   1      42.207  27.127  36.915  1.00  0.00    -0.206 F 
ATOM     65  C   UNL A   1      45.812  26.940  37.072  1.00  0.00     0.060 A 
BRANCH  65  66
ATOM     66  S   UNL A   1      47.111  26.000  37.903  1.00  0.00     0.124 S 
ATOM     67  O   UNL A   1      48.006  27.065  38.342  1.00  0.00    -0.237 OA
ATOM     68  O   UNL A   1      46.372  25.316  38.959  1.00  0.00    -0.237 OA
ATOM     69  O   UNL A   1      47.634  25.136  36.848  1.00  0.00    -0.744 OA
ENDBRANCH  65  66
ENDBRANCH  44  58
BRANCH  45  70
ATOM     70  C   UNL A   1      36.492  33.280  30.942  1.00  0.00     0.058 A 
ATOM     71  C   UNL A   1      35.165  33.162  31.383  1.00  0.00     0.135 A 
ATOM     72  C   UNL A   1      36.740  34.103  29.831  1.00  0.00     0.135 A 
ATOM     73  F   UNL A   1      34.876  32.386  32.439  1.00  0.00    -0.206 F 
ATOM     74  C   UNL A   1      34.121  33.816  30.737  1.00  0.00     0.059 A 
ATOM     75  C   UNL A   1      35.717  34.791  29.187  1.00  0.00     0.059 A 
ATOM     76  F   UNL A   1      37.994  34.267  29.383  1.00  0.00    -0.206 F 
ATOM     77  C   UNL A   1      34.408  34.632  29.641  1.00  0.00     0.060 A 
BRANCH  77  78
ATOM     78  S   UNL A   1      33.052  35.511  28.837  1.00  0.00     0.124 S 
ATOM     79  O   UNL A   1      33.769  36.522  28.071  1.00  0.00    -0.237 OA
ATOM     80  O   UNL A   1      32.418  34.450  28.061  1.00  0.00    -0.237 OA
ATOM     81  O   UNL A   1      32.264  36.010  29.960  1.00  0.00    -0.744 OA
ENDBRANCH  77  78
ENDBRANCH  45  70
BRANCH  57  82
ATOM     82  C   UNL A   1      39.802  34.282  37.001  1.00  0.00     0.058 A 
ATOM     83  C   UNL A   1      38.994  34.078  38.131  1.00  0.00     0.135 A 
ATOM     84  C   UNL A   1      40.511  35.491  36.912  1.00  0.00     0.135 A 
ATOM     85  F   UNL A   1      38.292  32.941  38.263  1.00  0.00    -0.206 F 
ATOM     86  C   UNL A   1      38.866  35.049  39.117  1.00  0.00     0.059 A 
ATOM     87  C   UNL A   1      40.424  36.463  37.904  1.00  0.00     0.059 A 
ATOM     88  F   UNL A   1      41.308  35.733  35.859  1.00  0.00    -0.206 F 
ATOM     89  C   UNL A   1      39.585  36.239  38.994  1.00  0.00     0.060 A 
BRANCH  89  90
ATOM     90  S   UNL A   1      39.422  37.485  40.290  1.00  0.00     0.124 S 
ATOM     91  O   UNL A   1      38.496  38.429  39.673  1.00  0.00    -0.237 OA
ATOM     92  O   UNL A   1      38.887  36.708  41.403  1.00  0.00    -0.237 OA
ATOM     93  O   UNL A   1      40.786  37.970  40.470  1.00  0.00    -0.744 OA
ENDBRANCH  89  90
ENDBRANCH  57  82
ENDBRANCH  31  32
ENDBRANCH  23  26
ENDBRANCH  21  22
ENDBRANCH  20  21
ENDBRANCH   1  20
TORSDOF 18
ENDMDL
MODEL 3
REMARK VINA RESULT:     -10.9      4.602     10.163
REMARK SMILES N#CCS(=O)(=O)NC[C@H]1CC[C@H](C(=O)NCCCNC(=O)c2ccc(-c3c4nc(c(-c5c(F)cc(S(=O)(=O)[O-])cc5F)c5ccc([nH]5)c(-c5c(F)cc(S(=O)(=O)[O-])cc5F)c5nc(c(-c6c(F)cc(S(=O)(=O)[O-])cc6F)c6ccc3[nH]6)C=C5)C=C4)cc2)O1
REMARK SMILES IDX 16 1 15 2 13 3 14 4 12 6 9 7 10 8 88 9 11 10 8 11 7 12 4 14
REMARK SMILES IDX 5 15 6 16 3 17 2 18 1 19 17 20 18 21 19 22 20 23 21 25 22 26
REMARK SMILES IDX 23 27 87 28 24 29 86 30 25 31 26 32 27 33 80 34 28 35 85 36
REMARK SMILES IDX 79 37 81 38 29 39 84 40 78 41 77 42 30 44 64 45 43 46 63 47
REMARK SMILES IDX 44 48 47 49 62 50 82 51 45 52 46 53 61 55 83 56 48 57 31 58
REMARK SMILES IDX 32 59 41 60 33 61 34 62 40 63 42 64 35 65 36 66 37 67 38 68
REMARK SMILES IDX 39 69 65 70 66 71 75 72 67 73 68 74 74 75 76 76 69 77 70 78
REMARK SMILES IDX 71 79 72 80 73 81 49 82 50 83 59 84 51 85 52 86 58 87 60 88
REMARK SMILES IDX 53 89 54 90 55 91 56 92 57 93
REMARK H PARENT 15 5 7 13 19 24 81 43 47 54
REMARK Flexibility Score: inf
ROOT
ATOM      1  C   UNL A   1      32.654  26.662  24.930  1.00  0.00     0.117 C 
ENDROOT
BRANCH   1   2
ATOM      2  N   UNL A   1      32.101  25.886  26.007  1.00  0.00    -0.354 N 
ATOM      3  C   UNL A   1      32.349  24.590  26.325  1.00  0.00     0.249 C 
ATOM      4  O   UNL A   1      31.689  24.099  27.247  1.00  0.00    -0.272 OA
ATOM      5  H   UNL A   1      31.462  26.355  26.590  1.00  0.00     0.163 HD
BRANCH   3   6
ATOM      6  C   UNL A   1      33.387  23.751  25.552  1.00  0.00     0.207 C 
ATOM      7  C   UNL A   1      34.322  21.614  25.960  1.00  0.00     0.134 C 
ATOM      8  C   UNL A   1      35.347  22.643  26.414  1.00  0.00     0.037 C 
ATOM      9  O   UNL A   1      33.192  22.341  25.468  1.00  0.00    -0.364 OA
ATOM     10  C   UNL A   1      34.833  23.983  25.936  1.00  0.00     0.045 C 
BRANCH   7  11
ATOM     11  C   UNL A   1      34.900  20.620  24.941  1.00  0.00     0.130 C 
BRANCH  11  12
ATOM     12  N   UNL A   1      34.313  19.258  24.961  1.00  0.00    -0.212 NA
ATOM     13  H   UNL A   1      35.013  18.656  24.527  1.00  0.00     0.141 HD
BRANCH  12  14
ATOM     14  S   UNL A   1      32.859  18.823  24.261  1.00  0.00     0.225 S 
ATOM     15  O   UNL A   1      32.386  19.887  23.406  1.00  0.00    -0.211 OA
ATOM     16  O   UNL A   1      32.034  18.448  25.394  1.00  0.00    -0.211 OA
BRANCH  14  17
ATOM     17  C   UNL A   1      33.123  17.328  23.330  1.00  0.00     0.273 C 
BRANCH  17  18
ATOM     18  C   UNL A   1      33.517  16.191  24.258  1.00  0.00     0.080 C 
ATOM     19  N   UNL A   1      33.844  15.247  25.028  1.00  0.00    -0.197 NA
ENDBRANCH  17  18
ENDBRANCH  14  17
ENDBRANCH  12  14
ENDBRANCH  11  12
ENDBRANCH   7  11
ENDBRANCH   3   6
ENDBRANCH   1   2
BRANCH   1  20
ATOM     20  C   UNL A   1      33.832  27.494  25.415  1.00  0.00     0.042 C 
BRANCH  20  21
ATOM     21  C   UNL A   1      33.695  27.863  26.880  1.00  0.00     0.118 C 
BRANCH  21  22
ATOM     22  N   UNL A   1      33.474  29.292  27.038  1.00  0.00    -0.352 N 
ATOM     23  C   UNL A   1      34.216  30.222  27.712  1.00  0.00     0.251 C 
ATOM     24  H   UNL A   1      32.668  29.642  26.594  1.00  0.00     0.163 HD
ATOM     25  O   UNL A   1      33.702  31.295  28.016  1.00  0.00    -0.269 OA
BRANCH  23  26
ATOM     26  C   UNL A   1      35.621  29.937  28.054  1.00  0.00     0.039 A 
ATOM     27  C   UNL A   1      36.592  30.064  27.061  1.00  0.00     0.014 A 
ATOM     28  C   UNL A   1      35.975  29.492  29.332  1.00  0.00     0.014 A 
ATOM     29  C   UNL A   1      37.919  29.761  27.357  1.00  0.00     0.010 A 
ATOM     30  C   UNL A   1      37.309  29.296  29.656  1.00  0.00     0.010 A 
ATOM     31  C   UNL A   1      38.289  29.395  28.662  1.00  0.00    -0.014 A 
BRANCH  31  32
ATOM     32  C   UNL A   1      39.696  29.068  28.988  1.00  0.00     0.031 A 
ATOM     33  C   UNL A   1      40.571  30.094  29.657  1.00  0.00     0.074 A 
ATOM     34  C   UNL A   1      40.184  27.859  28.652  1.00  0.00     0.049 A 
ATOM     35  N   UNL A   1      41.825  29.997  30.016  1.00  0.00    -0.248 NA
ATOM     36  C   UNL A   1      39.970  31.410  29.934  1.00  0.00     0.031 C 
ATOM     37  C   UNL A   1      39.437  26.812  27.949  1.00  0.00     0.029 A 
ATOM     38  N   UNL A   1      41.419  27.304  28.859  1.00  0.00    -0.354 N 
ATOM     39  C   UNL A   1      42.162  31.236  30.550  1.00  0.00     0.074 A 
ATOM     40  C   UNL A   1      41.005  32.089  30.406  1.00  0.00     0.031 C 
ATOM     41  C   UNL A   1      40.218  25.728  27.819  1.00  0.00     0.029 A 
ATOM     42  C   UNL A   1      41.529  26.016  28.390  1.00  0.00     0.049 A 
ATOM     43  H   UNL A   1      42.158  27.781  29.301  1.00  0.00     0.167 HD
ATOM     44  C   UNL A   1      43.322  31.617  31.135  1.00  0.00     0.037 A 
ATOM     45  C   UNL A   1      42.572  25.166  28.417  1.00  0.00     0.037 A 
ATOM     46  C   UNL A   1      44.457  30.747  31.291  1.00  0.00     0.049 A 
ATOM     47  C   UNL A   1      43.850  25.612  29.073  1.00  0.00     0.074 A 
ATOM     48  C   UNL A   1      45.662  31.008  31.921  1.00  0.00     0.029 A 
ATOM     49  N   UNL A   1      44.531  29.447  30.809  1.00  0.00    -0.354 N 
ATOM     50  N   UNL A   1      44.127  26.763  29.642  1.00  0.00    -0.248 NA
ATOM     51  C   UNL A   1      44.953  24.645  29.099  1.00  0.00     0.031 C 
ATOM     52  C   UNL A   1      46.483  29.886  31.770  1.00  0.00     0.029 A 
ATOM     53  C   UNL A   1      45.771  28.903  31.102  1.00  0.00     0.049 A 
ATOM     54  H   UNL A   1      43.809  28.981  30.330  1.00  0.00     0.167 HD
ATOM     55  C   UNL A   1      45.431  26.648  30.113  1.00  0.00     0.074 A 
ATOM     56  C   UNL A   1      45.875  25.309  29.783  1.00  0.00     0.031 C 
ATOM     57  C   UNL A   1      46.193  27.567  30.757  1.00  0.00     0.037 A 
BRANCH  44  58
ATOM     58  C   UNL A   1      43.417  33.028  31.650  1.00  0.00     0.058 A 
ATOM     59  C   UNL A   1      43.000  33.372  32.948  1.00  0.00     0.135 A 
ATOM     60  C   UNL A   1      43.961  34.046  30.849  1.00  0.00     0.135 A 
ATOM     61  F   UNL A   1      42.455  32.445  33.752  1.00  0.00    -0.206 F 
ATOM     62  C   UNL A   1      43.093  34.677  33.421  1.00  0.00     0.059 A 
ATOM     63  C   UNL A   1      44.094  35.351  31.315  1.00  0.00     0.059 A 
ATOM     64  F   UNL A   1      44.373  33.775  29.600  1.00  0.00    -0.206 F 
ATOM     65  C   UNL A   1      43.644  35.659  32.597  1.00  0.00     0.060 A 
BRANCH  65  66
ATOM     66  S   UNL A   1      43.769  37.344  33.233  1.00  0.00     0.124 S 
ATOM     67  O   UNL A   1      45.082  37.319  33.868  1.00  0.00    -0.237 OA
ATOM     68  O   UNL A   1      43.668  38.143  32.016  1.00  0.00    -0.237 OA
ATOM     69  O   UNL A   1      42.633  37.450  34.144  1.00  0.00    -0.744 OA
ENDBRANCH  65  66
ENDBRANCH  44  58
BRANCH  45  70
ATOM     70  C   UNL A   1      42.440  23.808  27.827  1.00  0.00     0.058 A 
ATOM     71  C   UNL A   1      42.297  22.675  28.641  1.00  0.00     0.135 A 
ATOM     72  C   UNL A   1      42.435  23.618  26.436  1.00  0.00     0.135 A 
ATOM     73  F   UNL A   1      42.297  22.804  29.977  1.00  0.00    -0.206 F 
ATOM     74  C   UNL A   1      42.175  21.399  28.101  1.00  0.00     0.059 A 
ATOM     75  C   UNL A   1      42.284  22.355  25.871  1.00  0.00     0.059 A 
ATOM     76  F   UNL A   1      42.546  24.670  25.612  1.00  0.00    -0.206 F 
ATOM     77  C   UNL A   1      42.167  21.250  26.712  1.00  0.00     0.060 A 
BRANCH  77  78
ATOM     78  S   UNL A   1      41.963  19.595  26.020  1.00  0.00     0.124 S 
ATOM     79  O   UNL A   1      40.547  19.593  25.675  1.00  0.00    -0.237 OA
ATOM     80  O   UNL A   1      42.895  19.618  24.897  1.00  0.00    -0.237 OA
ATOM     81  O   UNL A   1      42.347  18.720  27.124  1.00  0.00    -0.744 OA
ENDBRANCH  77  78
ENDBRANCH  45  70
BRANCH  57  82
ATOM     82  C   UNL A   1      47.578  27.144  31.165  1.00  0.00     0.058 A 
ATOM     83  C   UNL A   1      48.689  27.357  30.333  1.00  0.00     0.135 A 
ATOM     84  C   UNL A   1      47.801  26.551  32.418  1.00  0.00     0.135 A 
ATOM     85  F   UNL A   1      48.530  27.916  29.123  1.00  0.00    -0.206 F 
ATOM     86  C   UNL A   1      49.967  26.964  30.714  1.00  0.00     0.059 A 
ATOM     87  C   UNL A   1      49.076  26.181  32.834  1.00  0.00     0.059 A 
ATOM     88  F   UNL A   1      46.776  26.336  33.258  1.00  0.00    -0.206 F 
ATOM     89  C   UNL A   1      50.150  26.376  31.968  1.00  0.00     0.060 A 
BRANCH  89  90
ATOM     90  S   UNL A   1      51.816  25.885  32.455  1.00  0.00     0.124 S 
ATOM     91  O   UNL A   1      52.374  25.436  31.184  1.00  0.00    -0.237 OA
ATOM     92  O   UNL A   1      52.366  27.129  32.984  1.00  0.00    -0.237 OA
ATOM     93  O   UNL A   1      51.587  24.837  33.445  1.00  0.00    -0.744 OA
ENDBRANCH  89  90
ENDBRANCH  57  82
ENDBRANCH  31  32
ENDBRANCH  23  26
ENDBRANCH  21  22
ENDBRANCH  20  21
ENDBRANCH   1  20
TORSDOF 18
ENDMDL
