MODEL 1
REMARK VINA RESULT:     -12.2      0.000      0.000
REMARK SMILES COc1c(C)cc([C@H](C(=O)NCCCNC(=O)c2ccc(-c3c4nc(c(-c5c(F)cc(S(=O)(=O)[O-])cc5F)c5ccc([nH]5)c(-c5c(F)cc(S(=O)(=O)[O-])cc5F)c5nc(c(-c6c(F)cc(S(=O)(=O)[O-])cc6F)c6ccc3[nH]6)C=C5)C=C4)cc2)[N@@H+](C)CCN2CCCCC2=O)cc1C
REMARK SMILES IDX 12 1 11 2 9 3 10 4 8 6 7 7 3 8 4 9 96 10 5 11 6 12 95 13
REMARK SMILES IDX 97 14 2 15 1 16 84 17 85 18 86 20 87 21 88 22 89 23 93 24
REMARK SMILES IDX 90 25 92 26 94 27 91 28 13 29 14 30 15 31 16 32 17 34 18 35
REMARK SMILES IDX 19 36 83 37 20 38 82 39 21 40 22 41 23 42 76 43 24 44 81 45
REMARK SMILES IDX 75 46 77 47 25 48 80 49 74 50 73 51 26 53 60 54 39 55 59 56
REMARK SMILES IDX 40 57 43 58 58 59 78 60 41 61 42 62 57 64 79 65 44 66 27 67
REMARK SMILES IDX 28 68 37 69 29 70 30 71 36 72 38 73 31 74 32 75 33 76 34 77
REMARK SMILES IDX 35 78 61 79 62 80 71 81 63 82 64 83 70 84 72 85 65 86 66 87
REMARK SMILES IDX 67 88 68 89 69 90 45 91 46 92 55 93 47 94 48 95 54 96 56 97
REMARK SMILES IDX 49 98 50 99 51 100 52 101 53 102
REMARK H PARENT 11 5 84 19 15 33 77 52 43 63
REMARK Flexibility Score: inf
ROOT
ATOM      1  C   UNL A   1      38.480  23.200  26.130  1.00  0.00     0.118 C 
ENDROOT
BRANCH   1   2
ATOM      2  N   UNL A   1      37.713  22.855  24.914  1.00  0.00    -0.351 N 
ATOM      3  C   UNL A   1      36.415  23.031  24.464  1.00  0.00     0.283 C 
ATOM      4  O   UNL A   1      36.239  22.841  23.251  1.00  0.00    -0.268 OA
ATOM      5  H   UNL A   1      38.267  22.377  24.255  1.00  0.00     0.163 HD
BRANCH   3   6
ATOM      6  C   UNL A   1      35.240  23.550  25.344  1.00  0.00     0.305 C 
BRANCH   6   7
ATOM      7  C   UNL A   1      34.317  24.707  24.841  1.00  0.00     0.020 A 
ATOM      8  C   UNL A   1      33.280  27.168  23.794  1.00  0.00     0.124 A 
ATOM      9  C   UNL A   1      33.423  26.043  22.963  1.00  0.00    -0.008 A 
ATOM     10  C   UNL A   1      33.653  27.077  25.130  1.00  0.00    -0.008 A 
ATOM     11  C   UNL A   1      33.025  26.128  21.514  1.00  0.00     0.048 C 
ATOM     12  C   UNL A   1      33.949  24.832  23.488  1.00  0.00     0.017 A 
ATOM     13  C   UNL A   1      34.041  25.820  25.638  1.00  0.00     0.017 A 
ATOM     14  C   UNL A   1      33.870  28.282  26.006  1.00  0.00     0.048 C 
BRANCH   8  15
ATOM     15  O   UNL A   1      32.905  28.351  23.212  1.00  0.00    -0.496 OA
ATOM     16  C   UNL A   1      31.532  28.696  23.402  1.00  0.00     0.278 C 
ENDBRANCH   8  15
ENDBRANCH   6   7
BRANCH   6  17
ATOM     17  N   UNL A   1      34.491  22.396  25.893  1.00  0.00    -0.322 N 
ATOM     18  C   UNL A   1      34.418  22.540  27.361  1.00  0.00     0.333 C 
ATOM     19  H   UNL A   1      35.032  21.582  25.603  1.00  0.00     0.348 HD
BRANCH  17  20
ATOM     20  C   UNL A   1      33.157  22.090  25.325  1.00  0.00     0.284 C 
BRANCH  20  21
ATOM     21  C   UNL A   1      32.691  21.161  24.099  1.00  0.00     0.180 C 
BRANCH  21  22
ATOM     22  N   UNL A   1      32.975  19.716  23.905  1.00  0.00    -0.337 N 
ATOM     23  C   UNL A   1      32.341  19.122  22.727  1.00  0.00     0.119 C 
ATOM     24  C   UNL A   1      33.097  18.780  24.925  1.00  0.00     0.222 C 
ATOM     25  C   UNL A   1      32.609  17.624  22.527  1.00  0.00     0.022 C 
ATOM     26  C   UNL A   1      33.982  17.585  24.591  1.00  0.00     0.100 C 
ATOM     27  O   UNL A   1      32.512  18.839  25.996  1.00  0.00    -0.275 OA
ATOM     28  C   UNL A   1      33.933  17.198  23.128  1.00  0.00     0.012 C 
ENDBRANCH  21  22
ENDBRANCH  20  21
ENDBRANCH  17  20
ENDBRANCH   6  17
ENDBRANCH   3   6
ENDBRANCH   1   2
BRANCH   1  29
ATOM     29  C   UNL A   1      39.675  22.309  26.573  1.00  0.00     0.042 C 
BRANCH  29  30
ATOM     30  C   UNL A   1      41.028  22.955  26.949  1.00  0.00     0.118 C 
BRANCH  30  31
ATOM     31  N   UNL A   1      41.452  23.999  26.018  1.00  0.00    -0.352 N 
ATOM     32  C   UNL A   1      41.502  25.373  26.060  1.00  0.00     0.251 C 
ATOM     33  H   UNL A   1      41.775  23.635  25.162  1.00  0.00     0.163 HD
ATOM     34  O   UNL A   1      41.835  25.942  25.016  1.00  0.00    -0.269 OA
BRANCH  32  35
ATOM     35  C   UNL A   1      41.172  26.229  27.241  1.00  0.00     0.039 A 
ATOM     36  C   UNL A   1      42.053  27.293  27.517  1.00  0.00     0.014 A 
ATOM     37  C   UNL A   1      40.166  25.960  28.173  1.00  0.00     0.014 A 
ATOM     38  C   UNL A   1      41.913  28.087  28.667  1.00  0.00     0.010 A 
ATOM     39  C   UNL A   1      40.007  26.779  29.316  1.00  0.00     0.010 A 
ATOM     40  C   UNL A   1      40.874  27.856  29.578  1.00  0.00    -0.014 A 
BRANCH  40  41
ATOM     41  C   UNL A   1      40.687  28.755  30.765  1.00  0.00     0.031 A 
ATOM     42  C   UNL A   1      39.641  29.844  30.782  1.00  0.00     0.074 A 
ATOM     43  C   UNL A   1      41.463  28.597  31.859  1.00  0.00     0.049 A 
ATOM     44  N   UNL A   1      39.377  30.727  31.716  1.00  0.00    -0.248 NA
ATOM     45  C   UNL A   1      38.782  29.954  29.597  1.00  0.00     0.031 C 
ATOM     46  C   UNL A   1      42.499  27.575  32.014  1.00  0.00     0.029 A 
ATOM     47  N   UNL A   1      41.504  29.290  33.047  1.00  0.00    -0.354 N 
ATOM     48  C   UNL A   1      38.329  31.503  31.232  1.00  0.00     0.074 A 
ATOM     49  C   UNL A   1      38.027  31.001  29.905  1.00  0.00     0.031 C 
ATOM     50  C   UNL A   1      43.059  27.697  33.228  1.00  0.00     0.029 A 
ATOM     51  C   UNL A   1      42.458  28.831  33.926  1.00  0.00     0.049 A 
ATOM     52  H   UNL A   1      40.906  30.046  33.249  1.00  0.00     0.167 HD
ATOM     53  C   UNL A   1      37.669  32.528  31.832  1.00  0.00     0.037 A 
ATOM     54  C   UNL A   1      42.827  29.273  35.146  1.00  0.00     0.037 A 
ATOM     55  C   UNL A   1      37.953  33.034  33.154  1.00  0.00     0.049 A 
ATOM     56  C   UNL A   1      42.144  30.466  35.757  1.00  0.00     0.074 A 
ATOM     57  C   UNL A   1      37.304  34.042  33.850  1.00  0.00     0.029 A 
ATOM     58  N   UNL A   1      38.975  32.583  33.976  1.00  0.00    -0.354 N 
ATOM     59  N   UNL A   1      41.141  31.169  35.289  1.00  0.00    -0.248 NA
ATOM     60  C   UNL A   1      42.652  30.934  37.056  1.00  0.00     0.031 C 
ATOM     61  C   UNL A   1      37.963  34.233  35.071  1.00  0.00     0.029 A 
ATOM     62  C   UNL A   1      38.997  33.316  35.155  1.00  0.00     0.049 A 
ATOM     63  H   UNL A   1      39.594  31.850  33.757  1.00  0.00     0.167 HD
ATOM     64  C   UNL A   1      40.887  32.150  36.243  1.00  0.00     0.074 A 
ATOM     65  C   UNL A   1      41.837  31.947  37.317  1.00  0.00     0.031 C 
ATOM     66  C   UNL A   1      39.948  33.127  36.224  1.00  0.00     0.037 A 
BRANCH  53  67
ATOM     67  C   UNL A   1      36.573  33.198  31.045  1.00  0.00     0.058 A 
ATOM     68  C   UNL A   1      36.853  34.037  29.955  1.00  0.00     0.135 A 
ATOM     69  C   UNL A   1      35.224  32.988  31.377  1.00  0.00     0.135 A 
ATOM     70  F   UNL A   1      38.124  34.273  29.593  1.00  0.00    -0.206 F 
ATOM     71  C   UNL A   1      35.838  34.685  29.256  1.00  0.00     0.059 A 
ATOM     72  C   UNL A   1      34.192  33.606  30.676  1.00  0.00     0.059 A 
ATOM     73  F   UNL A   1      34.896  32.182  32.400  1.00  0.00    -0.206 F 
ATOM     74  C   UNL A   1      34.512  34.475  29.633  1.00  0.00     0.060 A 
BRANCH  74  75
ATOM     75  S   UNL A   1      33.207  35.363  28.756  1.00  0.00     0.124 S 
ATOM     76  O   UNL A   1      32.553  34.275  28.036  1.00  0.00    -0.237 OA
ATOM     77  O   UNL A   1      32.435  35.951  29.850  1.00  0.00    -0.237 OA
ATOM     78  O   UNL A   1      33.938  36.314  27.929  1.00  0.00    -0.744 OA
ENDBRANCH  74  75
ENDBRANCH  53  67
BRANCH  54  79
ATOM     79  C   UNL A   1      43.912  28.571  35.883  1.00  0.00     0.058 A 
ATOM     80  C   UNL A   1      45.254  28.938  35.707  1.00  0.00     0.135 A 
ATOM     81  C   UNL A   1      43.627  27.543  36.796  1.00  0.00     0.135 A 
ATOM     82  F   UNL A   1      45.575  29.903  34.831  1.00  0.00    -0.206 F 
ATOM     83  C   UNL A   1      46.277  28.318  36.417  1.00  0.00     0.059 A 
ATOM     84  C   UNL A   1      44.631  26.923  37.532  1.00  0.00     0.059 A 
ATOM     85  F   UNL A   1      42.358  27.159  37.002  1.00  0.00    -0.206 F 
ATOM     86  C   UNL A   1      45.954  27.317  37.334  1.00  0.00     0.060 A 
BRANCH  86  87
ATOM     87  S   UNL A   1      47.280  26.578  38.313  1.00  0.00     0.124 S 
ATOM     88  O   UNL A   1      48.365  27.530  38.107  1.00  0.00    -0.237 OA
ATOM     89  O   UNL A   1      46.696  26.553  39.651  1.00  0.00    -0.237 OA
ATOM     90  O   UNL A   1      47.462  25.268  37.694  1.00  0.00    -0.744 OA
ENDBRANCH  86  87
ENDBRANCH  54  79
BRANCH  66  91
ATOM     91  C   UNL A   1      39.887  34.062  37.401  1.00  0.00     0.058 A 
ATOM     92  C   UNL A   1      40.511  35.319  37.373  1.00  0.00     0.135 A 
ATOM     93  C   UNL A   1      39.149  33.725  38.548  1.00  0.00     0.135 A 
ATOM     94  F   UNL A   1      41.240  35.687  36.306  1.00  0.00    -0.206 F 
ATOM     95  C   UNL A   1      40.411  36.207  38.440  1.00  0.00     0.059 A 
ATOM     96  C   UNL A   1      39.019  34.605  39.620  1.00  0.00     0.059 A 
ATOM     97  F   UNL A   1      38.529  32.538  38.628  1.00  0.00    -0.206 F 
ATOM     98  C   UNL A   1      39.659  35.843  39.558  1.00  0.00     0.060 A 
BRANCH  98  99
ATOM     99  S   UNL A   1      39.491  37.027  40.913  1.00  0.00     0.124 S 
ATOM    100  O   UNL A   1      38.822  36.221  41.928  1.00  0.00    -0.237 OA
ATOM    101  O   UNL A   1      40.880  37.378  41.197  1.00  0.00    -0.237 OA
ATOM    102  O   UNL A   1      38.688  38.098  40.331  1.00  0.00    -0.744 OA
ENDBRANCH  98  99
ENDBRANCH  66  91
ENDBRANCH  40  41
ENDBRANCH  32  35
ENDBRANCH  30  31
ENDBRANCH  29  30
ENDBRANCH   1  29
TORSDOF 19
ENDMDL
MODEL 2
REMARK VINA RESULT:     -12.0      1.229      2.213
REMARK SMILES COc1c(C)cc([C@H](C(=O)NCCCNC(=O)c2ccc(-c3c4nc(c(-c5c(F)cc(S(=O)(=O)[O-])cc5F)c5ccc([nH]5)c(-c5c(F)cc(S(=O)(=O)[O-])cc5F)c5nc(c(-c6c(F)cc(S(=O)(=O)[O-])cc6F)c6ccc3[nH]6)C=C5)C=C4)cc2)[N@@H+](C)CCN2CCCCC2=O)cc1C
REMARK SMILES IDX 12 1 11 2 9 3 10 4 8 6 7 7 3 8 4 9 96 10 5 11 6 12 95 13
REMARK SMILES IDX 97 14 2 15 1 16 84 17 85 18 86 20 87 21 88 22 89 23 93 24
REMARK SMILES IDX 90 25 92 26 94 27 91 28 13 29 14 30 15 31 16 32 17 34 18 35
REMARK SMILES IDX 19 36 83 37 20 38 82 39 21 40 22 41 23 42 76 43 24 44 81 45
REMARK SMILES IDX 75 46 77 47 25 48 80 49 74 50 73 51 26 53 60 54 39 55 59 56
REMARK SMILES IDX 40 57 43 58 58 59 78 60 41 61 42 62 57 64 79 65 44 66 27 67
REMARK SMILES IDX 28 68 37 69 29 70 30 71 36 72 38 73 31 74 32 75 33 76 34 77
REMARK SMILES IDX 35 78 61 79 62 80 71 81 63 82 64 83 70 84 72 85 65 86 66 87
REMARK SMILES IDX 67 88 68 89 69 90 45 91 46 92 55 93 47 94 48 95 54 96 56 97
REMARK SMILES IDX 49 98 50 99 51 100 52 101 53 102
REMARK H PARENT 11 5 84 19 15 33 77 52 43 63
REMARK Flexibility Score: inf
ROOT
ATOM      1  C   UNL A   1      38.590  23.235  26.178  1.00  0.00     0.118 C 
ENDROOT
BRANCH   1   2
ATOM      2  N   UNL A   1      37.985  22.978  24.854  1.00  0.00    -0.351 N 
ATOM      3  C   UNL A   1      36.725  23.082  24.290  1.00  0.00     0.283 C 
ATOM      4  O   UNL A   1      36.687  23.035  23.051  1.00  0.00    -0.268 OA
ATOM      5  H   UNL A   1      38.649  22.645  24.207  1.00  0.00     0.163 HD
BRANCH   3   6
ATOM      6  C   UNL A   1      35.421  23.365  25.093  1.00  0.00     0.305 C 
BRANCH   6   7
ATOM      7  C   UNL A   1      34.495  24.566  24.713  1.00  0.00     0.020 A 
ATOM      8  C   UNL A   1      33.450  27.126  23.951  1.00  0.00     0.124 A 
ATOM      9  C   UNL A   1      33.628  26.114  22.992  1.00  0.00    -0.008 A 
ATOM     10  C   UNL A   1      33.791  26.875  25.276  1.00  0.00    -0.008 A 
ATOM     11  C   UNL A   1      33.263  26.374  21.555  1.00  0.00     0.048 C 
ATOM     12  C   UNL A   1      34.158  24.853  23.377  1.00  0.00     0.017 A 
ATOM     13  C   UNL A   1      34.185  25.569  25.634  1.00  0.00     0.017 A 
ATOM     14  C   UNL A   1      33.971  27.964  26.299  1.00  0.00     0.048 C 
BRANCH   8  15
ATOM     15  O   UNL A   1      33.072  28.369  23.511  1.00  0.00    -0.496 OA
ATOM     16  C   UNL A   1      31.673  28.634  23.614  1.00  0.00     0.278 C 
ENDBRANCH   8  15
ENDBRANCH   6   7
BRANCH   6  17
ATOM     17  N   UNL A   1      34.685  22.097  25.298  1.00  0.00    -0.322 N 
ATOM     18  C   UNL A   1      34.517  21.881  26.749  1.00  0.00     0.333 C 
ATOM     19  H   UNL A   1      35.274  21.389  24.860  1.00  0.00     0.348 HD
BRANCH  17  20
ATOM     20  C   UNL A   1      33.401  21.905  24.583  1.00  0.00     0.284 C 
BRANCH  20  21
ATOM     21  C   UNL A   1      31.871  22.051  25.050  1.00  0.00     0.180 C 
BRANCH  21  22
ATOM     22  N   UNL A   1      31.108  23.309  25.258  1.00  0.00    -0.337 N 
ATOM     23  C   UNL A   1      30.212  23.296  26.415  1.00  0.00     0.119 C 
ATOM     24  C   UNL A   1      30.595  24.110  24.246  1.00  0.00     0.222 C 
ATOM     25  C   UNL A   1      29.402  24.581  26.628  1.00  0.00     0.022 C 
ATOM     26  C   UNL A   1      30.443  25.582  24.613  1.00  0.00     0.100 C 
ATOM     27  O   UNL A   1      30.226  23.702  23.155  1.00  0.00    -0.275 OA
ATOM     28  C   UNL A   1      30.113  25.799  26.075  1.00  0.00     0.012 C 
ENDBRANCH  21  22
ENDBRANCH  20  21
ENDBRANCH  17  20
ENDBRANCH   6  17
ENDBRANCH   3   6
ENDBRANCH   1   2
BRANCH   1  29
ATOM     29  C   UNL A   1      39.775  22.358  26.675  1.00  0.00     0.042 C 
BRANCH  29  30
ATOM     30  C   UNL A   1      41.152  23.001  26.955  1.00  0.00     0.118 C 
BRANCH  30  31
ATOM     31  N   UNL A   1      41.505  24.056  26.007  1.00  0.00    -0.352 N 
ATOM     32  C   UNL A   1      41.500  25.432  26.043  1.00  0.00     0.251 C 
ATOM     33  H   UNL A   1      41.817  23.701  25.144  1.00  0.00     0.163 HD
ATOM     34  O   UNL A   1      41.778  26.008  24.987  1.00  0.00    -0.269 OA
BRANCH  32  35
ATOM     35  C   UNL A   1      41.170  26.280  27.229  1.00  0.00     0.039 A 
ATOM     36  C   UNL A   1      42.040  27.353  27.500  1.00  0.00     0.014 A 
ATOM     37  C   UNL A   1      40.176  25.995  28.169  1.00  0.00     0.014 A 
ATOM     38  C   UNL A   1      41.901  28.142  28.655  1.00  0.00     0.010 A 
ATOM     39  C   UNL A   1      40.017  26.809  29.317  1.00  0.00     0.010 A 
ATOM     40  C   UNL A   1      40.874  27.895  29.574  1.00  0.00    -0.014 A 
BRANCH  40  41
ATOM     41  C   UNL A   1      40.686  28.788  30.766  1.00  0.00     0.031 A 
ATOM     42  C   UNL A   1      39.638  29.874  30.790  1.00  0.00     0.074 A 
ATOM     43  C   UNL A   1      41.465  28.627  31.858  1.00  0.00     0.049 A 
ATOM     44  N   UNL A   1      39.373  30.752  31.729  1.00  0.00    -0.248 NA
ATOM     45  C   UNL A   1      38.776  29.987  29.608  1.00  0.00     0.031 C 
ATOM     46  C   UNL A   1      42.504  27.607  32.006  1.00  0.00     0.029 A 
ATOM     47  N   UNL A   1      41.506  29.315  33.049  1.00  0.00    -0.354 N 
ATOM     48  C   UNL A   1      38.322  31.528  31.250  1.00  0.00     0.074 A 
ATOM     49  C   UNL A   1      38.019  31.031  29.922  1.00  0.00     0.031 C 
ATOM     50  C   UNL A   1      43.066  27.725  33.219  1.00  0.00     0.029 A 
ATOM     51  C   UNL A   1      42.463  28.854  33.924  1.00  0.00     0.049 A 
ATOM     52  H   UNL A   1      40.906  30.068  33.256  1.00  0.00     0.167 HD
ATOM     53  C   UNL A   1      37.660  32.548  31.857  1.00  0.00     0.037 A 
ATOM     54  C   UNL A   1      42.834  29.291  35.145  1.00  0.00     0.037 A 
ATOM     55  C   UNL A   1      37.946  33.048  33.180  1.00  0.00     0.049 A 
ATOM     56  C   UNL A   1      42.148  30.480  35.763  1.00  0.00     0.074 A 
ATOM     57  C   UNL A   1      37.295  34.051  33.883  1.00  0.00     0.029 A 
ATOM     58  N   UNL A   1      38.970  32.596  33.999  1.00  0.00    -0.354 N 
ATOM     59  N   UNL A   1      41.143  31.182  35.301  1.00  0.00    -0.248 NA
ATOM     60  C   UNL A   1      42.658  30.943  37.063  1.00  0.00     0.031 C 
ATOM     61  C   UNL A   1      37.955  34.238  35.103  1.00  0.00     0.029 A 
ATOM     62  C   UNL A   1      38.993  33.324  35.181  1.00  0.00     0.049 A 
ATOM     63  H   UNL A   1      39.591  31.866  33.775  1.00  0.00     0.167 HD
ATOM     64  C   UNL A   1      40.888  32.158  36.260  1.00  0.00     0.074 A 
ATOM     65  C   UNL A   1      41.840  31.952  37.331  1.00  0.00     0.031 C 
ATOM     66  C   UNL A   1      39.946  33.132  36.247  1.00  0.00     0.037 A 
BRANCH  53  67
ATOM     67  C   UNL A   1      36.560  33.218  31.075  1.00  0.00     0.058 A 
ATOM     68  C   UNL A   1      36.837  34.074  29.997  1.00  0.00     0.135 A 
ATOM     69  C   UNL A   1      35.212  32.993  31.401  1.00  0.00     0.135 A 
ATOM     70  F   UNL A   1      38.107  34.325  29.642  1.00  0.00    -0.206 F 
ATOM     71  C   UNL A   1      35.819  34.722  29.303  1.00  0.00     0.059 A 
ATOM     72  C   UNL A   1      34.177  33.611  30.704  1.00  0.00     0.059 A 
ATOM     73  F   UNL A   1      34.889  32.171  32.412  1.00  0.00    -0.206 F 
ATOM     74  C   UNL A   1      34.493  34.496  29.673  1.00  0.00     0.060 A 
BRANCH  74  75
ATOM     75  S   UNL A   1      33.183  35.384  28.804  1.00  0.00     0.124 S 
ATOM     76  O   UNL A   1      32.533  34.299  28.077  1.00  0.00    -0.237 OA
ATOM     77  O   UNL A   1      32.410  35.961  29.902  1.00  0.00    -0.237 OA
ATOM     78  O   UNL A   1      33.909  36.344  27.982  1.00  0.00    -0.744 OA
ENDBRANCH  74  75
ENDBRANCH  53  67
BRANCH  54  79
ATOM     79  C   UNL A   1      43.922  28.588  35.877  1.00  0.00     0.058 A 
ATOM     80  C   UNL A   1      43.632  27.539  36.761  1.00  0.00     0.135 A 
ATOM     81  C   UNL A   1      45.270  28.931  35.684  1.00  0.00     0.135 A 
ATOM     82  F   UNL A   1      42.357  27.189  36.990  1.00  0.00    -0.206 F 
ATOM     83  C   UNL A   1      44.640  26.846  37.423  1.00  0.00     0.059 A 
ATOM     84  C   UNL A   1      46.296  28.239  36.319  1.00  0.00     0.059 A 
ATOM     85  F   UNL A   1      45.598  29.925  34.844  1.00  0.00    -0.206 F 
ATOM     86  C   UNL A   1      45.970  27.198  37.188  1.00  0.00     0.060 A 
BRANCH  86  87
ATOM     87  S   UNL A   1      47.275  26.237  37.986  1.00  0.00     0.124 S 
ATOM     88  O   UNL A   1      46.540  25.063  38.440  1.00  0.00    -0.237 OA
ATOM     89  O   UNL A   1      48.212  26.021  36.887  1.00  0.00    -0.237 OA
ATOM     90  O   UNL A   1      47.752  27.131  39.038  1.00  0.00    -0.744 OA
ENDBRANCH  86  87
ENDBRANCH  54  79
BRANCH  66  91
ATOM     91  C   UNL A   1      39.884  34.061  37.429  1.00  0.00     0.058 A 
ATOM     92  C   UNL A   1      40.517  35.315  37.410  1.00  0.00     0.135 A 
ATOM     93  C   UNL A   1      39.139  33.723  38.570  1.00  0.00     0.135 A 
ATOM     94  F   UNL A   1      41.253  35.683  36.349  1.00  0.00    -0.206 F 
ATOM     95  C   UNL A   1      40.417  36.197  38.482  1.00  0.00     0.059 A 
ATOM     96  C   UNL A   1      39.009  34.598  39.646  1.00  0.00     0.059 A 
ATOM     97  F   UNL A   1      38.512  32.539  38.641  1.00  0.00    -0.206 F 
ATOM     98  C   UNL A   1      39.656  35.832  39.594  1.00  0.00     0.060 A 
BRANCH  98  99
ATOM     99  S   UNL A   1      39.489  37.010  40.955  1.00  0.00     0.124 S 
ATOM    100  O   UNL A   1      38.705  36.242  41.915  1.00  0.00    -0.237 OA
ATOM    101  O   UNL A   1      40.879  37.260  41.326  1.00  0.00    -0.237 OA
ATOM    102  O   UNL A   1      38.799  38.141  40.341  1.00  0.00    -0.744 OA
ENDBRANCH  98  99
ENDBRANCH  66  91
ENDBRANCH  40  41
ENDBRANCH  32  35
ENDBRANCH  30  31
ENDBRANCH  29  30
ENDBRANCH   1  29
TORSDOF 19
ENDMDL
MODEL 3
REMARK VINA RESULT:     -11.9      6.503     11.825
REMARK SMILES COc1c(C)cc([C@H](C(=O)NCCCNC(=O)c2ccc(-c3c4nc(c(-c5c(F)cc(S(=O)(=O)[O-])cc5F)c5ccc([nH]5)c(-c5c(F)cc(S(=O)(=O)[O-])cc5F)c5nc(c(-c6c(F)cc(S(=O)(=O)[O-])cc6F)c6ccc3[nH]6)C=C5)C=C4)cc2)[N@@H+](C)CCN2CCCCC2=O)cc1C
REMARK SMILES IDX 12 1 11 2 9 3 10 4 8 6 7 7 3 8 4 9 96 10 5 11 6 12 95 13
REMARK SMILES IDX 97 14 2 15 1 16 84 17 85 18 86 20 87 21 88 22 89 23 93 24
REMARK SMILES IDX 90 25 92 26 94 27 91 28 13 29 14 30 15 31 16 32 17 34 18 35
REMARK SMILES IDX 19 36 83 37 20 38 82 39 21 40 22 41 23 42 76 43 24 44 81 45
REMARK SMILES IDX 75 46 77 47 25 48 80 49 74 50 73 51 26 53 60 54 39 55 59 56
REMARK SMILES IDX 40 57 43 58 58 59 78 60 41 61 42 62 57 64 79 65 44 66 27 67
REMARK SMILES IDX 28 68 37 69 29 70 30 71 36 72 38 73 31 74 32 75 33 76 34 77
REMARK SMILES IDX 35 78 61 79 62 80 71 81 63 82 64 83 70 84 72 85 65 86 66 87
REMARK SMILES IDX 67 88 68 89 69 90 45 91 46 92 55 93 47 94 48 95 54 96 56 97
REMARK SMILES IDX 49 98 50 99 51 100 52 101 53 102
REMARK H PARENT 11 5 84 19 15 33 77 52 43 63
REMARK Flexibility Score: inf
ROOT
ATOM      1  C   UNL A   1      32.838  30.459  27.003  1.00  0.00     0.118 C 
ENDROOT
BRANCH   1   2
ATOM      2  N   UNL A   1      31.983  29.267  27.188  1.00  0.00    -0.351 N 
ATOM      3  C   UNL A   1      31.998  27.946  26.771  1.00  0.00     0.283 C 
ATOM      4  O   UNL A   1      31.237  27.182  27.382  1.00  0.00    -0.268 OA
ATOM      5  H   UNL A   1      31.200  29.462  27.752  1.00  0.00     0.163 HD
BRANCH   3   6
ATOM      6  C   UNL A   1      32.972  27.373  25.699  1.00  0.00     0.305 C 
BRANCH   6   7
ATOM      7  C   UNL A   1      33.148  25.829  25.526  1.00  0.00     0.020 A 
ATOM      8  C   UNL A   1      33.603  23.028  25.942  1.00  0.00     0.124 A 
ATOM      9  C   UNL A   1      32.295  23.541  25.909  1.00  0.00    -0.008 A 
ATOM     10  C   UNL A   1      34.677  23.895  25.776  1.00  0.00    -0.008 A 
ATOM     11  C   UNL A   1      31.123  22.614  26.089  1.00  0.00     0.048 C 
ATOM     12  C   UNL A   1      32.080  24.932  25.714  1.00  0.00     0.017 A 
ATOM     13  C   UNL A   1      34.413  25.242  25.451  1.00  0.00     0.017 A 
ATOM     14  C   UNL A   1      36.093  23.528  26.134  1.00  0.00     0.048 C 
BRANCH   8  15
ATOM     15  O   UNL A   1      33.767  21.708  26.274  1.00  0.00    -0.496 OA
ATOM     16  C   UNL A   1      33.995  20.841  25.163  1.00  0.00     0.278 C 
ENDBRANCH   8  15
ENDBRANCH   6   7
BRANCH   6  17
ATOM     17  N   UNL A   1      32.771  28.090  24.419  1.00  0.00    -0.322 N 
ATOM     18  C   UNL A   1      34.094  28.434  23.861  1.00  0.00     0.333 C 
ATOM     19  H   UNL A   1      32.225  28.913  24.673  1.00  0.00     0.348 HD
BRANCH  17  20
ATOM     20  C   UNL A   1      31.909  27.462  23.390  1.00  0.00     0.284 C 
BRANCH  20  21
ATOM     21  C   UNL A   1      30.316  27.437  23.182  1.00  0.00     0.180 C 
BRANCH  21  22
ATOM     22  N   UNL A   1      29.396  28.601  23.124  1.00  0.00    -0.337 N 
ATOM     23  C   UNL A   1      27.975  28.262  23.199  1.00  0.00     0.119 C 
ATOM     24  C   UNL A   1      29.592  29.738  22.348  1.00  0.00     0.222 C 
ATOM     25  C   UNL A   1      27.013  29.455  23.118  1.00  0.00     0.022 C 
ATOM     26  C   UNL A   1      28.937  31.001  22.893  1.00  0.00     0.100 C 
ATOM     27  O   UNL A   1      30.182  29.756  21.278  1.00  0.00    -0.275 OA
ATOM     28  C   UNL A   1      27.645  30.731  23.635  1.00  0.00     0.012 C 
ENDBRANCH  21  22
ENDBRANCH  20  21
ENDBRANCH  17  20
ENDBRANCH   6  17
ENDBRANCH   3   6
ENDBRANCH   1   2
BRANCH   1  29
ATOM     29  C   UNL A   1      34.360  30.378  27.312  1.00  0.00     0.042 C 
BRANCH  29  30
ATOM     30  C   UNL A   1      35.053  31.512  28.102  1.00  0.00     0.118 C 
BRANCH  30  31
ATOM     31  N   UNL A   1      35.190  31.227  29.529  1.00  0.00    -0.352 N 
ATOM     32  C   UNL A   1      36.160  30.645  30.312  1.00  0.00     0.251 C 
ATOM     33  H   UNL A   1      34.407  31.517  30.050  1.00  0.00     0.163 HD
ATOM     34  O   UNL A   1      35.878  30.480  31.502  1.00  0.00    -0.269 OA
BRANCH  32  35
ATOM     35  C   UNL A   1      37.505  30.182  29.848  1.00  0.00     0.039 A 
ATOM     36  C   UNL A   1      38.490  30.010  30.838  1.00  0.00     0.014 A 
ATOM     37  C   UNL A   1      37.898  30.068  28.512  1.00  0.00     0.014 A 
ATOM     38  C   UNL A   1      39.820  29.697  30.509  1.00  0.00     0.010 A 
ATOM     39  C   UNL A   1      39.231  29.723  28.181  1.00  0.00     0.010 A 
ATOM     40  C   UNL A   1      40.209  29.529  29.174  1.00  0.00    -0.014 A 
BRANCH  40  41
ATOM     41  C   UNL A   1      41.613  29.121  28.835  1.00  0.00     0.031 A 
ATOM     42  C   UNL A   1      42.763  30.099  28.897  1.00  0.00     0.074 A 
ATOM     43  C   UNL A   1      41.876  27.849  28.467  1.00  0.00     0.049 A 
ATOM     44  N   UNL A   1      44.028  29.912  28.602  1.00  0.00    -0.248 NA
ATOM     45  C   UNL A   1      42.450  31.459  29.351  1.00  0.00     0.031 C 
ATOM     46  C   UNL A   1      40.883  26.777  28.384  1.00  0.00     0.029 A 
ATOM     47  N   UNL A   1      43.051  27.239  28.094  1.00  0.00    -0.354 N 
ATOM     48  C   UNL A   1      44.662  31.130  28.824  1.00  0.00     0.074 A 
ATOM     49  C   UNL A   1      43.632  32.057  29.252  1.00  0.00     0.031 C 
ATOM     50  C   UNL A   1      41.492  25.642  28.004  1.00  0.00     0.029 A 
ATOM     51  C   UNL A   1      42.909  25.909  27.771  1.00  0.00     0.049 A 
ATOM     52  H   UNL A   1      43.915  27.711  28.061  1.00  0.00     0.167 HD
ATOM     53  C   UNL A   1      45.977  31.451  28.698  1.00  0.00     0.037 A 
ATOM     54  C   UNL A   1      43.804  25.004  27.323  1.00  0.00     0.037 A 
ATOM     55  C   UNL A   1      47.014  30.539  28.281  1.00  0.00     0.049 A 
ATOM     56  C   UNL A   1      45.238  25.403  27.104  1.00  0.00     0.074 A 
ATOM     57  C   UNL A   1      48.376  30.775  28.167  1.00  0.00     0.029 A 
ATOM     58  N   UNL A   1      46.810  29.222  27.896  1.00  0.00    -0.354 N 
ATOM     59  N   UNL A   1      45.818  26.553  27.342  1.00  0.00    -0.248 NA
ATOM     60  C   UNL A   1      46.137  24.381  26.542  1.00  0.00     0.031 C 
ATOM     61  C   UNL A   1      48.987  29.618  27.669  1.00  0.00     0.029 A 
ATOM     62  C   UNL A   1      48.013  28.646  27.510  1.00  0.00     0.049 A 
ATOM     63  H   UNL A   1      45.940  28.763  27.897  1.00  0.00     0.167 HD
ATOM     64  C   UNL A   1      47.151  26.390  26.977  1.00  0.00     0.074 A 
ATOM     65  C   UNL A   1      47.294  25.028  26.507  1.00  0.00     0.031 C 
ATOM     66  C   UNL A   1      48.161  27.294  27.030  1.00  0.00     0.037 A 
BRANCH  53  67
ATOM     67  C   UNL A   1      46.371  32.874  28.997  1.00  0.00     0.058 A 
ATOM     68  C   UNL A   1      46.307  33.880  28.019  1.00  0.00     0.135 A 
ATOM     69  C   UNL A   1      46.807  33.240  30.282  1.00  0.00     0.135 A 
ATOM     70  F   UNL A   1      45.898  33.586  26.774  1.00  0.00    -0.206 F 
ATOM     71  C   UNL A   1      46.711  35.184  28.289  1.00  0.00     0.059 A 
ATOM     72  C   UNL A   1      47.191  34.545  30.581  1.00  0.00     0.059 A 
ATOM     73  F   UNL A   1      46.872  32.324  31.261  1.00  0.00    -0.206 F 
ATOM     74  C   UNL A   1      47.165  35.504  29.569  1.00  0.00     0.060 A 
BRANCH  74  75
ATOM     75  S   UNL A   1      47.738  37.185  29.894  1.00  0.00     0.124 S 
ATOM     76  O   UNL A   1      48.369  37.027  31.200  1.00  0.00    -0.237 OA
ATOM     77  O   UNL A   1      48.650  37.429  28.777  1.00  0.00    -0.237 OA
ATOM     78  O   UNL A   1      46.512  37.973  29.879  1.00  0.00    -0.744 OA
ENDBRANCH  74  75
ENDBRANCH  53  67
BRANCH  54  79
ATOM     79  C   UNL A   1      43.362  23.610  27.049  1.00  0.00     0.058 A 
ATOM     80  C   UNL A   1      43.136  22.709  28.099  1.00  0.00     0.135 A 
ATOM     81  C   UNL A   1      43.130  23.162  25.738  1.00  0.00     0.135 A 
ATOM     82  F   UNL A   1      43.362  23.087  29.366  1.00  0.00    -0.206 F 
ATOM     83  C   UNL A   1      42.686  21.414  27.863  1.00  0.00     0.059 A 
ATOM     84  C   UNL A   1      42.660  21.880  25.479  1.00  0.00     0.059 A 
ATOM     85  F   UNL A   1      43.328  23.989  24.700  1.00  0.00    -0.206 F 
ATOM     86  C   UNL A   1      42.441  21.012  26.548  1.00  0.00     0.060 A 
BRANCH  86  87
ATOM     87  S   UNL A   1      41.776  19.358  26.258  1.00  0.00     0.124 S 
ATOM     88  O   UNL A   1      42.507  18.952  25.064  1.00  0.00    -0.237 OA
ATOM     89  O   UNL A   1      42.130  18.664  27.493  1.00  0.00    -0.237 OA
ATOM     90  O   UNL A   1      40.347  19.601  26.073  1.00  0.00    -0.744 OA
ENDBRANCH  86  87
ENDBRANCH  54  79
BRANCH  66  91
ATOM     91  C   UNL A   1      49.523  26.848  26.573  1.00  0.00     0.058 A 
ATOM     92  C   UNL A   1      50.438  26.261  27.461  1.00  0.00     0.135 A 
ATOM     93  C   UNL A   1      49.898  26.954  25.224  1.00  0.00     0.135 A 
ATOM     94  F   UNL A   1      50.136  26.146  28.764  1.00  0.00    -0.206 F 
ATOM     95  C   UNL A   1      51.678  25.799  27.029  1.00  0.00     0.059 A 
ATOM     96  C   UNL A   1      51.126  26.482  24.765  1.00  0.00     0.059 A 
ATOM     97  F   UNL A   1      49.061  27.505  24.331  1.00  0.00    -0.206 F 
ATOM     98  C   UNL A   1      52.012  25.910  25.678  1.00  0.00     0.060 A 
BRANCH  98  99
ATOM     99  S   UNL A   1      53.602  25.257  25.121  1.00  0.00     0.124 S 
ATOM    100  O   UNL A   1      53.673  25.775  23.759  1.00  0.00    -0.237 OA
ATOM    101  O   UNL A   1      54.536  25.850  26.074  1.00  0.00    -0.237 OA
ATOM    102  O   UNL A   1      53.435  23.811  25.236  1.00  0.00    -0.744 OA
ENDBRANCH  98  99
ENDBRANCH  66  91
ENDBRANCH  40  41
ENDBRANCH  32  35
ENDBRANCH  30  31
ENDBRANCH  29  30
ENDBRANCH   1  29
TORSDOF 19
ENDMDL
