MODEL 1
REMARK VINA RESULT:     -11.5      0.000      0.000
REMARK SMILES CC(=O)N1CCC[C@@H](Cc2nccnc2C(=O)NCCCNC(=O)c2ccc(-c3c4nc(c(-c5c(F)cc(S(=O)(=O)[O-])cc5F)c5ccc([nH]5)c(-c5c(F)cc(S(=O)(=O)[O-])cc5F)c5nc(c(-c6c(F)cc(S(=O)(=O)[O-])cc6F)c6ccc3[nH]6)C=C5)C=C4)cc2)C1
REMARK SMILES IDX 20 1 19 2 18 3 16 4 17 5 15 7 10 8 11 9 12 10 14 11 13 12
REMARK SMILES IDX 9 13 8 14 4 15 5 16 91 17 6 18 7 19 2 20 1 21 3 22 21 23
REMARK SMILES IDX 22 24 23 25 24 27 25 28 26 29 90 30 27 31 89 32 28 33 29 34
REMARK SMILES IDX 30 35 83 36 31 37 88 38 82 39 84 40 32 41 87 42 81 43 80 44
REMARK SMILES IDX 33 46 67 47 46 48 66 49 47 50 50 51 65 52 85 53 48 54 49 55
REMARK SMILES IDX 64 57 86 58 51 59 34 60 35 61 44 62 36 63 37 64 43 65 45 66
REMARK SMILES IDX 38 67 39 68 40 69 41 70 42 71 68 72 69 73 78 74 70 75 71 76
REMARK SMILES IDX 77 77 79 78 72 79 73 80 74 81 75 82 76 83 52 84 53 85 62 86
REMARK SMILES IDX 54 87 55 88 61 89 63 90 56 91 57 92 58 93 59 94 60 95
REMARK H PARENT 18 6 22 26 84 45 50 56
REMARK Flexibility Score: inf
ROOT
ATOM      1  C   UNL A   1      32.444  27.721  27.065  1.00  0.00     0.042 C 
ENDROOT
BRANCH   1   2
ATOM      2  C   UNL A   1      32.527  26.321  26.493  1.00  0.00     0.118 C 
BRANCH   2   3
ATOM      3  N   UNL A   1      31.443  25.443  26.840  1.00  0.00    -0.351 N 
ATOM      4  C   UNL A   1      31.077  24.161  26.502  1.00  0.00     0.271 C 
ATOM      5  O   UNL A   1      30.105  23.762  27.165  1.00  0.00    -0.267 OA
ATOM      6  H   UNL A   1      30.811  25.859  27.470  1.00  0.00     0.163 HD
BRANCH   4   7
ATOM      7  C   UNL A   1      31.646  23.210  25.449  1.00  0.00     0.149 A 
ATOM      8  C   UNL A   1      31.478  23.101  24.060  1.00  0.00     0.072 A 
ATOM      9  N   UNL A   1      32.181  22.181  23.315  1.00  0.00    -0.257 NA
ATOM     10  C   UNL A   1      33.042  21.379  23.957  1.00  0.00     0.131 A 
ATOM     11  N   UNL A   1      32.536  22.354  26.061  1.00  0.00    -0.248 NA
ATOM     12  C   UNL A   1      33.213  21.462  25.312  1.00  0.00     0.132 A 
BRANCH   8  13
ATOM     13  C   UNL A   1      30.555  23.855  23.164  1.00  0.00     0.064 C 
BRANCH  13  14
ATOM     14  C   UNL A   1      31.052  25.291  22.809  1.00  0.00     0.015 C 
ATOM     15  N   UNL A   1      30.614  27.701  23.066  1.00  0.00    -0.343 N 
ATOM     16  C   UNL A   1      32.030  28.041  23.198  1.00  0.00     0.119 C 
ATOM     17  C   UNL A   1      30.224  26.368  23.536  1.00  0.00     0.123 C 
ATOM     18  C   UNL A   1      32.918  26.982  22.558  1.00  0.00     0.022 C 
ATOM     19  C   UNL A   1      32.552  25.592  23.077  1.00  0.00     0.007 C 
BRANCH  15  20
ATOM     20  C   UNL A   1      29.752  28.638  22.520  1.00  0.00     0.219 C 
ATOM     21  C   UNL A   1      28.342  28.662  23.048  1.00  0.00     0.114 C 
ATOM     22  O   UNL A   1      30.101  29.447  21.662  1.00  0.00    -0.275 OA
ENDBRANCH  15  20
ENDBRANCH  13  14
ENDBRANCH   8  13
ENDBRANCH   4   7
ENDBRANCH   2   3
ENDBRANCH   1   2
BRANCH   1  23
ATOM     23  C   UNL A   1      33.627  28.592  26.691  1.00  0.00     0.118 C 
BRANCH  23  24
ATOM     24  N   UNL A   1      33.594  29.899  27.345  1.00  0.00    -0.352 N 
ATOM     25  C   UNL A   1      34.492  30.565  28.145  1.00  0.00     0.251 C 
ATOM     26  H   UNL A   1      32.764  30.402  27.178  1.00  0.00     0.163 HD
ATOM     27  O   UNL A   1      34.112  31.583  28.726  1.00  0.00    -0.269 OA
BRANCH  25  28
ATOM     28  C   UNL A   1      35.875  30.074  28.350  1.00  0.00     0.039 A 
ATOM     29  C   UNL A   1      36.789  30.132  27.291  1.00  0.00     0.014 A 
ATOM     30  C   UNL A   1      36.280  29.526  29.563  1.00  0.00     0.014 A 
ATOM     31  C   UNL A   1      38.114  29.725  27.488  1.00  0.00     0.010 A 
ATOM     32  C   UNL A   1      37.625  29.272  29.802  1.00  0.00     0.010 A 
ATOM     33  C   UNL A   1      38.559  29.345  28.764  1.00  0.00    -0.014 A 
BRANCH  33  34
ATOM     34  C   UNL A   1      39.979  28.994  29.039  1.00  0.00     0.031 A 
ATOM     35  C   UNL A   1      40.917  30.027  29.620  1.00  0.00     0.074 A 
ATOM     36  C   UNL A   1      40.449  27.779  28.687  1.00  0.00     0.049 A 
ATOM     37  N   UNL A   1      42.206  29.950  29.827  1.00  0.00    -0.248 NA
ATOM     38  C   UNL A   1      40.337  31.334  29.974  1.00  0.00     0.031 C 
ATOM     39  C   UNL A   1      39.662  26.717  28.054  1.00  0.00     0.029 A 
ATOM     40  N   UNL A   1      41.703  27.234  28.801  1.00  0.00    -0.354 N 
ATOM     41  C   UNL A   1      42.590  31.200  30.303  1.00  0.00     0.074 A 
ATOM     42  C   UNL A   1      41.414  32.037  30.287  1.00  0.00     0.031 C 
ATOM     43  C   UNL A   1      40.440  25.639  27.874  1.00  0.00     0.029 A 
ATOM     44  C   UNL A   1      41.793  25.946  28.326  1.00  0.00     0.049 A 
ATOM     45  H   UNL A   1      42.468  27.720  29.186  1.00  0.00     0.167 HD
ATOM     46  C   UNL A   1      43.804  31.604  30.747  1.00  0.00     0.037 A 
ATOM     47  C   UNL A   1      42.845  25.108  28.255  1.00  0.00     0.037 A 
ATOM     48  C   UNL A   1      44.959  30.749  30.805  1.00  0.00     0.049 A 
ATOM     49  C   UNL A   1      44.180  25.573  28.771  1.00  0.00     0.074 A 
ATOM     50  C   UNL A   1      46.215  31.033  31.309  1.00  0.00     0.029 A 
ATOM     51  N   UNL A   1      44.999  29.440  30.346  1.00  0.00    -0.354 N 
ATOM     52  N   UNL A   1      44.506  26.735  29.287  1.00  0.00    -0.248 NA
ATOM     53  C   UNL A   1      45.291  24.615  28.700  1.00  0.00     0.031 C 
ATOM     54  C   UNL A   1      47.030  29.915  31.106  1.00  0.00     0.029 A 
ATOM     55  C   UNL A   1      46.266  28.913  30.531  1.00  0.00     0.049 A 
ATOM     56  H   UNL A   1      44.238  28.958  29.947  1.00  0.00     0.167 HD
ATOM     57  C   UNL A   1      45.852  26.638  29.624  1.00  0.00     0.074 A 
ATOM     58  C   UNL A   1      46.274  25.298  29.270  1.00  0.00     0.031 C 
ATOM     59  C   UNL A   1      46.665  27.573  30.176  1.00  0.00     0.037 A 
BRANCH  46  60
ATOM     60  C   UNL A   1      43.941  33.029  31.219  1.00  0.00     0.058 A 
ATOM     61  C   UNL A   1      44.264  34.074  30.337  1.00  0.00     0.135 A 
ATOM     62  C   UNL A   1      43.715  33.361  32.565  1.00  0.00     0.135 A 
ATOM     63  F   UNL A   1      44.507  33.816  29.042  1.00  0.00    -0.206 F 
ATOM     64  C   UNL A   1      44.392  35.388  30.777  1.00  0.00     0.059 A 
ATOM     65  C   UNL A   1      43.804  34.673  33.021  1.00  0.00     0.059 A 
ATOM     66  F   UNL A   1      43.405  32.405  33.454  1.00  0.00    -0.206 F 
ATOM     67  C   UNL A   1      44.157  35.678  32.121  1.00  0.00     0.060 A 
BRANCH  67  68
ATOM     68  S   UNL A   1      44.319  37.389  32.672  1.00  0.00     0.124 S 
ATOM     69  O   UNL A   1      44.234  38.112  31.407  1.00  0.00    -0.237 OA
ATOM     70  O   UNL A   1      43.173  37.538  33.564  1.00  0.00    -0.237 OA
ATOM     71  O   UNL A   1      45.625  37.416  33.323  1.00  0.00    -0.744 OA
ENDBRANCH  67  68
ENDBRANCH  46  60
BRANCH  47  72
ATOM     72  C   UNL A   1      42.671  23.737  27.700  1.00  0.00     0.058 A 
ATOM     73  C   UNL A   1      42.472  22.636  28.545  1.00  0.00     0.135 A 
ATOM     74  C   UNL A   1      42.686  23.502  26.315  1.00  0.00     0.135 A 
ATOM     75  F   UNL A   1      42.455  22.806  29.876  1.00  0.00    -0.206 F 
ATOM     76  C   UNL A   1      42.316  21.348  28.042  1.00  0.00     0.059 A 
ATOM     77  C   UNL A   1      42.502  22.228  25.786  1.00  0.00     0.059 A 
ATOM     78  F   UNL A   1      42.856  24.524  25.461  1.00  0.00    -0.206 F 
ATOM     79  C   UNL A   1      42.331  21.154  26.660  1.00  0.00     0.060 A 
BRANCH  79  80
ATOM     80  S   UNL A   1      42.100  19.480  26.020  1.00  0.00     0.124 S 
ATOM     81  O   UNL A   1      42.592  18.673  27.130  1.00  0.00    -0.237 OA
ATOM     82  O   UNL A   1      40.660  19.436  25.790  1.00  0.00    -0.237 OA
ATOM     83  O   UNL A   1      42.924  19.461  24.816  1.00  0.00    -0.744 OA
ENDBRANCH  79  80
ENDBRANCH  47  72
BRANCH  59  84
ATOM     84  C   UNL A   1      48.086  27.173  30.461  1.00  0.00     0.058 A 
ATOM     85  C   UNL A   1      49.127  27.445  29.559  1.00  0.00     0.135 A 
ATOM     86  C   UNL A   1      48.420  26.559  31.680  1.00  0.00     0.135 A 
ATOM     87  F   UNL A   1      48.862  28.026  28.377  1.00  0.00    -0.206 F 
ATOM     88  C   UNL A   1      50.443  27.099  29.843  1.00  0.00     0.059 A 
ATOM     89  C   UNL A   1      49.734  26.234  31.999  1.00  0.00     0.059 A 
ATOM     90  F   UNL A   1      47.466  26.288  32.585  1.00  0.00    -0.206 F 
ATOM     91  C   UNL A   1      50.738  26.497  31.068  1.00  0.00     0.060 A 
BRANCH  91  92
ATOM     92  S   UNL A   1      52.456  26.086  31.438  1.00  0.00     0.124 S 
ATOM     93  O   UNL A   1      52.321  24.756  32.021  1.00  0.00    -0.237 OA
ATOM     94  O   UNL A   1      53.080  26.140  30.119  1.00  0.00    -0.237 OA
ATOM     95  O   UNL A   1      52.867  27.139  32.361  1.00  0.00    -0.744 OA
ENDBRANCH  91  92
ENDBRANCH  59  84
ENDBRANCH  33  34
ENDBRANCH  25  28
ENDBRANCH  23  24
ENDBRANCH   1  23
TORSDOF 16
ENDMDL
MODEL 2
REMARK VINA RESULT:     -11.4      6.343     12.145
REMARK SMILES CC(=O)N1CCC[C@@H](Cc2nccnc2C(=O)NCCCNC(=O)c2ccc(-c3c4nc(c(-c5c(F)cc(S(=O)(=O)[O-])cc5F)c5ccc([nH]5)c(-c5c(F)cc(S(=O)(=O)[O-])cc5F)c5nc(c(-c6c(F)cc(S(=O)(=O)[O-])cc6F)c6ccc3[nH]6)C=C5)C=C4)cc2)C1
REMARK SMILES IDX 20 1 19 2 18 3 16 4 17 5 15 7 10 8 11 9 12 10 14 11 13 12
REMARK SMILES IDX 9 13 8 14 4 15 5 16 91 17 6 18 7 19 2 20 1 21 3 22 21 23
REMARK SMILES IDX 22 24 23 25 24 27 25 28 26 29 90 30 27 31 89 32 28 33 29 34
REMARK SMILES IDX 30 35 83 36 31 37 88 38 82 39 84 40 32 41 87 42 81 43 80 44
REMARK SMILES IDX 33 46 67 47 46 48 66 49 47 50 50 51 65 52 85 53 48 54 49 55
REMARK SMILES IDX 64 57 86 58 51 59 34 60 35 61 44 62 36 63 37 64 43 65 45 66
REMARK SMILES IDX 38 67 39 68 40 69 41 70 42 71 68 72 69 73 78 74 70 75 71 76
REMARK SMILES IDX 77 77 79 78 72 79 73 80 74 81 75 82 76 83 52 84 53 85 62 86
REMARK SMILES IDX 54 87 55 88 61 89 63 90 56 91 57 92 58 93 59 94 60 95
REMARK H PARENT 18 6 22 26 84 45 50 56
REMARK Flexibility Score: inf
ROOT
ATOM      1  C   UNL A   1      41.532  22.744  28.202  1.00  0.00     0.042 C 
ENDROOT
BRANCH   1   2
ATOM      2  C   UNL A   1      41.918  21.280  28.230  1.00  0.00     0.118 C 
BRANCH   2   3
ATOM      3  N   UNL A   1      41.555  20.519  27.065  1.00  0.00    -0.351 N 
ATOM      4  C   UNL A   1      42.229  20.019  25.975  1.00  0.00     0.271 C 
ATOM      5  O   UNL A   1      41.505  19.297  25.270  1.00  0.00    -0.267 OA
ATOM      6  H   UNL A   1      40.594  20.306  27.041  1.00  0.00     0.163 HD
BRANCH   4   7
ATOM      7  C   UNL A   1      43.667  20.243  25.508  1.00  0.00     0.149 A 
ATOM      8  C   UNL A   1      44.414  21.393  25.210  1.00  0.00     0.072 A 
ATOM      9  N   UNL A   1      45.747  21.324  24.874  1.00  0.00    -0.257 NA
ATOM     10  C   UNL A   1      46.325  20.114  24.837  1.00  0.00     0.131 A 
ATOM     11  N   UNL A   1      44.306  19.023  25.444  1.00  0.00    -0.248 NA
ATOM     12  C   UNL A   1      45.611  18.980  25.114  1.00  0.00     0.132 A 
BRANCH   8  13
ATOM     13  C   UNL A   1      43.966  22.814  25.150  1.00  0.00     0.064 C 
BRANCH  13  14
ATOM     14  C   UNL A   1      44.934  23.811  25.861  1.00  0.00     0.015 C 
ATOM     15  N   UNL A   1      45.849  26.098  25.842  1.00  0.00    -0.343 N 
ATOM     16  C   UNL A   1      45.842  26.214  27.300  1.00  0.00     0.119 C 
ATOM     17  C   UNL A   1      44.824  25.226  25.259  1.00  0.00     0.123 C 
ATOM     18  C   UNL A   1      45.881  24.847  27.967  1.00  0.00     0.022 C 
ATOM     19  C   UNL A   1      44.785  23.943  27.401  1.00  0.00     0.007 C 
BRANCH  15  20
ATOM     20  C   UNL A   1      46.799  26.803  25.121  1.00  0.00     0.219 C 
ATOM     21  C   UNL A   1      47.622  27.813  25.876  1.00  0.00     0.114 C 
ATOM     22  O   UNL A   1      47.006  26.613  23.924  1.00  0.00    -0.275 OA
ENDBRANCH  15  20
ENDBRANCH  13  14
ENDBRANCH   8  13
ENDBRANCH   4   7
ENDBRANCH   2   3
ENDBRANCH   1   2
BRANCH   1  23
ATOM     23  C   UNL A   1      40.447  23.059  27.193  1.00  0.00     0.118 C 
BRANCH  23  24
ATOM     24  N   UNL A   1      40.903  23.961  26.137  1.00  0.00    -0.352 N 
ATOM     25  C   UNL A   1      41.101  25.321  26.092  1.00  0.00     0.251 C 
ATOM     26  H   UNL A   1      41.110  23.503  25.289  1.00  0.00     0.163 HD
ATOM     27  O   UNL A   1      41.302  25.845  24.994  1.00  0.00    -0.269 OA
BRANCH  25  28
ATOM     28  C   UNL A   1      41.043  26.164  27.309  1.00  0.00     0.039 A 
ATOM     29  C   UNL A   1      42.119  27.005  27.613  1.00  0.00     0.014 A 
ATOM     30  C   UNL A   1      39.957  26.115  28.177  1.00  0.00     0.014 A 
ATOM     31  C   UNL A   1      42.054  27.849  28.728  1.00  0.00     0.010 A 
ATOM     32  C   UNL A   1      39.826  27.060  29.187  1.00  0.00     0.010 A 
ATOM     33  C   UNL A   1      40.880  27.926  29.494  1.00  0.00    -0.014 A 
BRANCH  33  34
ATOM     34  C   UNL A   1      40.733  28.875  30.631  1.00  0.00     0.031 A 
ATOM     35  C   UNL A   1      41.601  28.728  31.858  1.00  0.00     0.074 A 
ATOM     36  C   UNL A   1      39.763  29.812  30.599  1.00  0.00     0.049 A 
ATOM     37  N   UNL A   1      41.551  29.381  32.991  1.00  0.00    -0.248 NA
ATOM     38  C   UNL A   1      42.635  27.679  31.826  1.00  0.00     0.031 C 
ATOM     39  C   UNL A   1      38.813  30.013  29.501  1.00  0.00     0.029 A 
ATOM     40  N   UNL A   1      39.406  30.767  31.519  1.00  0.00    -0.354 N 
ATOM     41  C   UNL A   1      42.518  28.804  33.807  1.00  0.00     0.074 A 
ATOM     42  C   UNL A   1      43.091  27.702  33.069  1.00  0.00     0.031 C 
ATOM     43  C   UNL A   1      38.012  31.048  29.794  1.00  0.00     0.029 A 
ATOM     44  C   UNL A   1      38.351  31.554  31.120  1.00  0.00     0.049 A 
ATOM     45  H   UNL A   1      39.862  30.877  32.385  1.00  0.00     0.167 HD
ATOM     46  C   UNL A   1      42.919  29.177  35.046  1.00  0.00     0.037 A 
ATOM     47  C   UNL A   1      37.722  32.563  31.751  1.00  0.00     0.037 A 
ATOM     48  C   UNL A   1      42.375  30.304  35.755  1.00  0.00     0.049 A 
ATOM     49  C   UNL A   1      38.195  32.972  33.120  1.00  0.00     0.074 A 
ATOM     50  C   UNL A   1      42.762  30.817  36.980  1.00  0.00     0.029 A 
ATOM     51  N   UNL A   1      41.331  31.097  35.301  1.00  0.00    -0.354 N 
ATOM     52  N   UNL A   1      39.162  32.461  33.845  1.00  0.00    -0.248 NA
ATOM     53  C   UNL A   1      37.498  34.097  33.756  1.00  0.00     0.031 C 
ATOM     54  C   UNL A   1      41.916  31.886  37.292  1.00  0.00     0.029 A 
ATOM     55  C   UNL A   1      41.042  32.078  36.234  1.00  0.00     0.049 A 
ATOM     56  H   UNL A   1      40.864  30.978  34.442  1.00  0.00     0.167 HD
ATOM     57  C   UNL A   1      39.205  33.217  35.011  1.00  0.00     0.074 A 
ATOM     58  C   UNL A   1      38.178  34.231  34.886  1.00  0.00     0.031 C 
ATOM     59  C   UNL A   1      40.018  33.084  36.089  1.00  0.00     0.037 A 
BRANCH  46  60
ATOM     60  C   UNL A   1      44.005  28.368  35.707  1.00  0.00     0.058 A 
ATOM     61  C   UNL A   1      43.712  27.292  36.561  1.00  0.00     0.135 A 
ATOM     62  C   UNL A   1      45.358  28.652  35.459  1.00  0.00     0.135 A 
ATOM     63  F   UNL A   1      42.437  26.983  36.849  1.00  0.00    -0.206 F 
ATOM     64  C   UNL A   1      44.718  26.549  37.172  1.00  0.00     0.059 A 
ATOM     65  C   UNL A   1      46.381  27.901  36.031  1.00  0.00     0.059 A 
ATOM     66  F   UNL A   1      45.699  29.669  34.653  1.00  0.00    -0.206 F 
ATOM     67  C   UNL A   1      46.050  26.860  36.898  1.00  0.00     0.060 A 
BRANCH  67  68
ATOM     68  S   UNL A   1      47.342  25.880  37.692  1.00  0.00     0.124 S 
ATOM     69  O   UNL A   1      46.680  24.587  37.835  1.00  0.00    -0.237 OA
ATOM     70  O   UNL A   1      48.421  25.933  36.709  1.00  0.00    -0.237 OA
ATOM     71  O   UNL A   1      47.597  26.596  38.937  1.00  0.00    -0.744 OA
ENDBRANCH  67  68
ENDBRANCH  46  60
BRANCH  47  72
ATOM     72  C   UNL A   1      36.595  33.274  31.084  1.00  0.00     0.058 A 
ATOM     73  C   UNL A   1      36.819  34.093  29.968  1.00  0.00     0.135 A 
ATOM     74  C   UNL A   1      35.273  33.137  31.538  1.00  0.00     0.135 A 
ATOM     75  F   UNL A   1      38.064  34.262  29.498  1.00  0.00    -0.206 F 
ATOM     76  C   UNL A   1      35.778  34.770  29.339  1.00  0.00     0.059 A 
ATOM     77  C   UNL A   1      34.212  33.779  30.907  1.00  0.00     0.059 A 
ATOM     78  F   UNL A   1      35.002  32.351  32.592  1.00  0.00    -0.206 F 
ATOM     79  C   UNL A   1      34.477  34.605  29.816  1.00  0.00     0.060 A 
BRANCH  79  80
ATOM     80  S   UNL A   1      33.133  35.468  28.971  1.00  0.00     0.124 S 
ATOM     81  O   UNL A   1      32.334  35.937  30.098  1.00  0.00    -0.237 OA
ATOM     82  O   UNL A   1      33.850  36.497  28.226  1.00  0.00    -0.237 OA
ATOM     83  O   UNL A   1      32.519  34.424  28.157  1.00  0.00    -0.744 OA
ENDBRANCH  79  80
ENDBRANCH  47  72
BRANCH  59  84
ATOM     84  C   UNL A   1      39.855  34.077  37.206  1.00  0.00     0.058 A 
ATOM     85  C   UNL A   1      40.436  35.353  37.151  1.00  0.00     0.135 A 
ATOM     86  C   UNL A   1      39.059  33.767  38.321  1.00  0.00     0.135 A 
ATOM     87  F   UNL A   1      41.211  35.700  36.110  1.00  0.00    -0.206 F 
ATOM     88  C   UNL A   1      40.256  36.278  38.174  1.00  0.00     0.059 A 
ATOM     89  C   UNL A   1      38.838  34.687  39.340  1.00  0.00     0.059 A 
ATOM     90  F   UNL A   1      38.469  32.564  38.418  1.00  0.00    -0.206 F 
ATOM     91  C   UNL A   1      39.451  35.937  39.263  1.00  0.00     0.060 A 
BRANCH  91  92
ATOM     92  S   UNL A   1      39.197  37.159  40.566  1.00  0.00     0.124 S 
ATOM     93  O   UNL A   1      38.271  38.086  39.924  1.00  0.00    -0.237 OA
ATOM     94  O   UNL A   1      38.637  36.351  41.646  1.00  0.00    -0.237 OA
ATOM     95  O   UNL A   1      40.539  37.680  40.812  1.00  0.00    -0.744 OA
ENDBRANCH  91  92
ENDBRANCH  59  84
ENDBRANCH  33  34
ENDBRANCH  25  28
ENDBRANCH  23  24
ENDBRANCH   1  23
TORSDOF 16
ENDMDL
MODEL 3
REMARK VINA RESULT:     -11.2      4.951     10.624
REMARK SMILES CC(=O)N1CCC[C@@H](Cc2nccnc2C(=O)NCCCNC(=O)c2ccc(-c3c4nc(c(-c5c(F)cc(S(=O)(=O)[O-])cc5F)c5ccc([nH]5)c(-c5c(F)cc(S(=O)(=O)[O-])cc5F)c5nc(c(-c6c(F)cc(S(=O)(=O)[O-])cc6F)c6ccc3[nH]6)C=C5)C=C4)cc2)C1
REMARK SMILES IDX 20 1 19 2 18 3 16 4 17 5 15 7 10 8 11 9 12 10 14 11 13 12
REMARK SMILES IDX 9 13 8 14 4 15 5 16 91 17 6 18 7 19 2 20 1 21 3 22 21 23
REMARK SMILES IDX 22 24 23 25 24 27 25 28 26 29 90 30 27 31 89 32 28 33 29 34
REMARK SMILES IDX 30 35 83 36 31 37 88 38 82 39 84 40 32 41 87 42 81 43 80 44
REMARK SMILES IDX 33 46 67 47 46 48 66 49 47 50 50 51 65 52 85 53 48 54 49 55
REMARK SMILES IDX 64 57 86 58 51 59 34 60 35 61 44 62 36 63 37 64 43 65 45 66
REMARK SMILES IDX 38 67 39 68 40 69 41 70 42 71 68 72 69 73 78 74 70 75 71 76
REMARK SMILES IDX 77 77 79 78 72 79 73 80 74 81 75 82 76 83 52 84 53 85 62 86
REMARK SMILES IDX 54 87 55 88 61 89 63 90 56 91 57 92 58 93 59 94 60 95
REMARK H PARENT 18 6 22 26 84 45 50 56
REMARK Flexibility Score: inf
ROOT
ATOM      1  C   UNL A   1      39.259  21.912  26.156  1.00  0.00     0.042 C 
ENDROOT
BRANCH   1   2
ATOM      2  C   UNL A   1      37.781  21.894  25.826  1.00  0.00     0.118 C 
BRANCH   2   3
ATOM      3  N   UNL A   1      37.438  22.295  24.487  1.00  0.00    -0.351 N 
ATOM      4  C   UNL A   1      36.384  22.960  23.906  1.00  0.00     0.271 C 
ATOM      5  O   UNL A   1      36.587  23.195  22.703  1.00  0.00    -0.267 OA
ATOM      6  H   UNL A   1      38.121  22.028  23.831  1.00  0.00     0.163 HD
BRANCH   4   7
ATOM      7  C   UNL A   1      35.042  23.400  24.492  1.00  0.00     0.149 A 
ATOM      8  C   UNL A   1      34.078  22.754  25.281  1.00  0.00     0.072 A 
ATOM      9  N   UNL A   1      32.965  23.414  25.750  1.00  0.00    -0.257 NA
ATOM     10  C   UNL A   1      32.820  24.708  25.429  1.00  0.00     0.131 A 
ATOM     11  N   UNL A   1      34.840  24.728  24.183  1.00  0.00    -0.248 NA
ATOM     12  C   UNL A   1      33.743  25.354  24.653  1.00  0.00     0.132 A 
BRANCH   8  13
ATOM     13  C   UNL A   1      34.021  21.328  25.713  1.00  0.00     0.064 C 
BRANCH  13  14
ATOM     14  C   UNL A   1      33.684  20.332  24.560  1.00  0.00     0.015 C 
ATOM     15  N   UNL A   1      33.306  17.968  23.979  1.00  0.00    -0.343 N 
ATOM     16  C   UNL A   1      32.231  18.274  23.036  1.00  0.00     0.119 C 
ATOM     17  C   UNL A   1      33.469  18.903  25.097  1.00  0.00     0.123 C 
ATOM     18  C   UNL A   1      32.340  19.699  22.512  1.00  0.00     0.022 C 
ATOM     19  C   UNL A   1      32.462  20.688  23.671  1.00  0.00     0.007 C 
BRANCH  15  20
ATOM     20  C   UNL A   1      34.083  16.841  23.763  1.00  0.00     0.219 C 
ATOM     21  C   UNL A   1      34.821  16.279  24.949  1.00  0.00     0.114 C 
ATOM     22  O   UNL A   1      34.162  16.285  22.669  1.00  0.00    -0.275 OA
ENDBRANCH  15  20
ENDBRANCH  13  14
ENDBRANCH   8  13
ENDBRANCH   4   7
ENDBRANCH   2   3
ENDBRANCH   1   2
BRANCH   1  23
ATOM     23  C   UNL A   1      39.741  23.252  26.673  1.00  0.00     0.118 C 
BRANCH  23  24
ATOM     24  N   UNL A   1      40.985  23.686  26.039  1.00  0.00    -0.352 N 
ATOM     25  C   UNL A   1      41.741  24.829  26.154  1.00  0.00     0.251 C 
ATOM     26  H   UNL A   1      41.355  23.029  25.406  1.00  0.00     0.163 HD
ATOM     27  O   UNL A   1      42.648  25.012  25.339  1.00  0.00    -0.269 OA
BRANCH  25  28
ATOM     28  C   UNL A   1      41.471  25.848  27.195  1.00  0.00     0.039 A 
ATOM     29  C   UNL A   1      40.576  25.553  28.230  1.00  0.00     0.014 A 
ATOM     30  C   UNL A   1      42.063  27.107  27.151  1.00  0.00     0.014 A 
ATOM     31  C   UNL A   1      40.356  26.485  29.251  1.00  0.00     0.010 A 
ATOM     32  C   UNL A   1      41.966  27.964  28.241  1.00  0.00     0.010 A 
ATOM     33  C   UNL A   1      41.095  27.678  29.297  1.00  0.00    -0.014 A 
BRANCH  33  34
ATOM     34  C   UNL A   1      40.961  28.654  30.412  1.00  0.00     0.031 A 
ATOM     35  C   UNL A   1      41.851  28.544  31.627  1.00  0.00     0.074 A 
ATOM     36  C   UNL A   1      39.984  29.584  30.374  1.00  0.00     0.049 A 
ATOM     37  N   UNL A   1      41.816  29.225  32.743  1.00  0.00    -0.248 NA
ATOM     38  C   UNL A   1      42.892  27.502  31.602  1.00  0.00     0.031 C 
ATOM     39  C   UNL A   1      39.013  29.750  29.289  1.00  0.00     0.029 A 
ATOM     40  N   UNL A   1      39.636  30.559  31.276  1.00  0.00    -0.354 N 
ATOM     41  C   UNL A   1      42.802  28.675  33.557  1.00  0.00     0.074 A 
ATOM     42  C   UNL A   1      43.370  27.559  32.836  1.00  0.00     0.031 C 
ATOM     43  C   UNL A   1      38.209  30.787  29.570  1.00  0.00     0.029 A 
ATOM     44  C   UNL A   1      38.568  31.328  30.876  1.00  0.00     0.049 A 
ATOM     45  H   UNL A   1      40.107  30.693  32.130  1.00  0.00     0.167 HD
ATOM     46  C   UNL A   1      43.222  29.082  34.778  1.00  0.00     0.037 A 
ATOM     47  C   UNL A   1      37.943  32.349  31.493  1.00  0.00     0.037 A 
ATOM     48  C   UNL A   1      42.683  30.223  35.468  1.00  0.00     0.049 A 
ATOM     49  C   UNL A   1      38.438  32.795  32.842  1.00  0.00     0.074 A 
ATOM     50  C   UNL A   1      43.088  30.770  36.673  1.00  0.00     0.029 A 
ATOM     51  N   UNL A   1      41.625  30.997  35.014  1.00  0.00    -0.354 N 
ATOM     52  N   UNL A   1      39.421  32.309  33.563  1.00  0.00    -0.248 NA
ATOM     53  C   UNL A   1      37.744  33.931  33.462  1.00  0.00     0.031 C 
ATOM     54  C   UNL A   1      42.239  31.840  36.973  1.00  0.00     0.029 A 
ATOM     55  C   UNL A   1      41.346  32.000  35.927  1.00  0.00     0.049 A 
ATOM     56  H   UNL A   1      41.144  30.853  34.166  1.00  0.00     0.167 HD
ATOM     57  C   UNL A   1      39.479  33.095  34.709  1.00  0.00     0.074 A 
ATOM     58  C   UNL A   1      38.443  34.099  34.577  1.00  0.00     0.031 C 
ATOM     59  C   UNL A   1      40.312  32.994  35.774  1.00  0.00     0.037 A 
BRANCH  46  60
ATOM     60  C   UNL A   1      44.325  28.297  35.440  1.00  0.00     0.058 A 
ATOM     61  C   UNL A   1      44.055  27.235  36.318  1.00  0.00     0.135 A 
ATOM     62  C   UNL A   1      45.672  28.591  35.168  1.00  0.00     0.135 A 
ATOM     63  F   UNL A   1      42.788  26.918  36.628  1.00  0.00    -0.206 F 
ATOM     64  C   UNL A   1      45.077  26.515  36.929  1.00  0.00     0.059 A 
ATOM     65  C   UNL A   1      46.711  27.862  35.741  1.00  0.00     0.059 A 
ATOM     66  F   UNL A   1      45.991  29.596  34.339  1.00  0.00    -0.206 F 
ATOM     67  C   UNL A   1      46.403  26.834  36.631  1.00  0.00     0.060 A 
BRANCH  67  68
ATOM     68  S   UNL A   1      47.715  25.883  37.426  1.00  0.00     0.124 S 
ATOM     69  O   UNL A   1      47.582  24.591  36.761  1.00  0.00    -0.237 OA
ATOM     70  O   UNL A   1      48.908  26.652  37.082  1.00  0.00    -0.237 OA
ATOM     71  O   UNL A   1      47.345  25.903  38.837  1.00  0.00    -0.744 OA
ENDBRANCH  67  68
ENDBRANCH  46  60
BRANCH  47  72
ATOM     72  C   UNL A   1      36.800  33.035  30.828  1.00  0.00     0.058 A 
ATOM     73  C   UNL A   1      35.481  32.804  31.244  1.00  0.00     0.135 A 
ATOM     74  C   UNL A   1      37.003  33.944  29.777  1.00  0.00     0.135 A 
ATOM     75  F   UNL A   1      35.232  31.941  32.240  1.00  0.00    -0.206 F 
ATOM     76  C   UNL A   1      34.401  33.431  30.628  1.00  0.00     0.059 A 
ATOM     77  C   UNL A   1      35.943  34.606  29.166  1.00  0.00     0.059 A 
ATOM     78  F   UNL A   1      38.248  34.213  29.352  1.00  0.00    -0.206 F 
ATOM     79  C   UNL A   1      34.643  34.332  29.590  1.00  0.00     0.060 A 
BRANCH  79  80
ATOM     80  S   UNL A   1      33.234  35.159  28.819  1.00  0.00     0.124 S 
ATOM     81  O   UNL A   1      32.689  34.093  27.986  1.00  0.00    -0.237 OA
ATOM     82  O   UNL A   1      32.429  35.537  29.977  1.00  0.00    -0.237 OA
ATOM     83  O   UNL A   1      33.846  36.269  28.097  1.00  0.00    -0.744 OA
ENDBRANCH  79  80
ENDBRANCH  47  72
BRANCH  59  84
ATOM     84  C   UNL A   1      40.162  34.014  36.869  1.00  0.00     0.058 A 
ATOM     85  C   UNL A   1      40.898  35.209  36.872  1.00  0.00     0.135 A 
ATOM     86  C   UNL A   1      39.227  33.818  37.899  1.00  0.00     0.135 A 
ATOM     87  F   UNL A   1      41.810  35.445  35.915  1.00  0.00    -0.206 F 
ATOM     88  C   UNL A   1      40.732  36.162  37.872  1.00  0.00     0.059 A 
ATOM     89  C   UNL A   1      39.020  34.772  38.890  1.00  0.00     0.059 A 
ATOM     90  F   UNL A   1      38.486  32.699  37.936  1.00  0.00    -0.206 F 
ATOM     91  C   UNL A   1      39.787  35.936  38.874  1.00  0.00     0.060 A 
BRANCH  91  92
ATOM     92  S   UNL A   1      39.556  37.197  40.145  1.00  0.00     0.124 S 
ATOM     93  O   UNL A   1      39.800  36.434  41.365  1.00  0.00    -0.237 OA
ATOM     94  O   UNL A   1      40.579  38.180  39.797  1.00  0.00    -0.237 OA
ATOM     95  O   UNL A   1      38.179  37.637  39.943  1.00  0.00    -0.744 OA
ENDBRANCH  91  92
ENDBRANCH  59  84
ENDBRANCH  33  34
ENDBRANCH  25  28
ENDBRANCH  23  24
ENDBRANCH   1  23
TORSDOF 16
ENDMDL
