MODEL 1
REMARK VINA RESULT:     -12.3      0.000      0.000
REMARK SMILES O=C(NCCCNC(=O)[C@H]1C[C@H]1c1ccc(C2CC2)cc1)c1ccc(-c2c3nc(c(-c4c(F)cc(S(=O)(=O)[O-])cc4F)c4ccc([nH]4)c(-c4c(F)cc(S(=O)(=O)[O-])cc4F)c4nc(c(-c5c(F)cc(S(=O)(=O)[O-])cc5F)c5ccc2[nH]5)C=C4)C=C3)cc1
REMARK SMILES IDX 4 1 3 2 1 3 2 4 22 6 23 7 87 8 24 9 86 10 25 11 26 12 27 13
REMARK SMILES IDX 80 14 28 15 85 16 79 17 81 18 29 19 84 20 78 21 77 22 30 24
REMARK SMILES IDX 64 25 43 26 63 27 44 28 47 29 62 30 82 31 45 32 46 33 61 35
REMARK SMILES IDX 83 36 48 37 31 38 32 39 41 40 33 41 34 42 40 43 42 44 35 45
REMARK SMILES IDX 36 46 37 47 38 48 39 49 65 50 66 51 75 52 67 53 68 54 74 55
REMARK SMILES IDX 76 56 69 57 70 58 71 59 72 60 73 61 49 62 50 63 59 64 51 65
REMARK SMILES IDX 52 66 58 67 60 68 53 69 54 70 55 71 56 72 57 73 5 74 6 75
REMARK SMILES IDX 7 76 8 77 9 79 10 80 11 81 12 82 13 83 14 84 21 85 15 86
REMARK SMILES IDX 20 87 16 88 17 89 18 90 19 91
REMARK H PARENT 3 5 81 23 47 34 7 78
REMARK Flexibility Score: inf
ROOT
ATOM      1  C   UNL A   1      40.334  23.075  27.079  1.00  0.00     0.118 C 
ENDROOT
BRANCH   1   2
ATOM      2  N   UNL A   1      41.008  23.898  26.083  1.00  0.00    -0.352 N 
ATOM      3  O   UNL A   1      41.800  25.739  25.073  1.00  0.00    -0.269 OA
ATOM      4  C   UNL A   1      41.365  25.225  26.101  1.00  0.00     0.251 C 
ATOM      5  H   UNL A   1      41.250  23.422  25.256  1.00  0.00     0.163 HD
BRANCH   4   6
ATOM      6  C   UNL A   1      41.204  26.047  27.324  1.00  0.00     0.039 A 
ATOM      7  C   UNL A   1      40.119  25.872  28.183  1.00  0.00     0.014 A 
ATOM      8  C   UNL A   1      42.185  26.995  27.637  1.00  0.00     0.014 A 
ATOM      9  C   UNL A   1      39.927  26.747  29.249  1.00  0.00     0.010 A 
ATOM     10  C   UNL A   1      42.038  27.814  28.761  1.00  0.00     0.010 A 
ATOM     11  C   UNL A   1      40.883  27.729  29.553  1.00  0.00    -0.014 A 
BRANCH  11  12
ATOM     12  C   UNL A   1      40.661  28.629  30.718  1.00  0.00     0.031 A 
ATOM     13  C   UNL A   1      41.543  28.556  31.936  1.00  0.00     0.074 A 
ATOM     14  C   UNL A   1      39.681  29.551  30.652  1.00  0.00     0.049 A 
ATOM     15  N   UNL A   1      41.532  29.312  33.007  1.00  0.00    -0.248 NA
ATOM     16  C   UNL A   1      42.562  27.495  31.967  1.00  0.00     0.031 C 
ATOM     17  C   UNL A   1      38.746  29.708  29.535  1.00  0.00     0.029 A 
ATOM     18  N   UNL A   1      39.322  30.547  31.526  1.00  0.00    -0.354 N 
ATOM     19  C   UNL A   1      42.522  28.807  33.844  1.00  0.00     0.074 A 
ATOM     20  C   UNL A   1      43.097  27.664  33.168  1.00  0.00     0.031 C 
ATOM     21  C   UNL A   1      37.963  30.773  29.763  1.00  0.00     0.029 A 
ATOM     22  C   UNL A   1      38.301  31.343  31.062  1.00  0.00     0.049 A 
ATOM     23  H   UNL A   1      39.754  30.678  32.400  1.00  0.00     0.167 HD
ATOM     24  C   UNL A   1      42.921  29.261  35.058  1.00  0.00     0.037 A 
ATOM     25  C   UNL A   1      37.703  32.413  31.618  1.00  0.00     0.037 A 
ATOM     26  C   UNL A   1      42.364  30.416  35.714  1.00  0.00     0.049 A 
ATOM     27  C   UNL A   1      38.167  32.898  32.962  1.00  0.00     0.074 A 
ATOM     28  C   UNL A   1      42.738  30.985  36.921  1.00  0.00     0.029 A 
ATOM     29  N   UNL A   1      41.313  31.178  35.226  1.00  0.00    -0.354 N 
ATOM     30  N   UNL A   1      39.134  32.434  33.716  1.00  0.00    -0.248 NA
ATOM     31  C   UNL A   1      37.455  34.049  33.532  1.00  0.00     0.031 C 
ATOM     32  C   UNL A   1      41.887  32.065  37.180  1.00  0.00     0.029 A 
ATOM     33  C   UNL A   1      41.010  32.198  36.115  1.00  0.00     0.049 A 
ATOM     34  H   UNL A   1      40.849  31.018  34.373  1.00  0.00     0.167 HD
ATOM     35  C   UNL A   1      39.161  33.249  34.842  1.00  0.00     0.074 A 
ATOM     36  C   UNL A   1      38.122  34.243  34.662  1.00  0.00     0.031 C 
ATOM     37  C   UNL A   1      39.973  33.180  35.925  1.00  0.00     0.037 A 
BRANCH  24  38
ATOM     38  C   UNL A   1      44.005  28.496  35.766  1.00  0.00     0.058 A 
ATOM     39  C   UNL A   1      43.714  27.448  36.654  1.00  0.00     0.135 A 
ATOM     40  C   UNL A   1      45.357  28.794  35.528  1.00  0.00     0.135 A 
ATOM     41  F   UNL A   1      42.440  27.129  36.928  1.00  0.00    -0.206 F 
ATOM     42  C   UNL A   1      44.724  26.745  37.306  1.00  0.00     0.059 A 
ATOM     43  C   UNL A   1      46.384  28.088  36.151  1.00  0.00     0.059 A 
ATOM     44  F   UNL A   1      45.693  29.784  34.686  1.00  0.00    -0.206 F 
ATOM     45  C   UNL A   1      46.055  27.077  37.052  1.00  0.00     0.060 A 
BRANCH  45  46
ATOM     46  S   UNL A   1      47.355  26.166  37.915  1.00  0.00     0.124 S 
ATOM     47  O   UNL A   1      46.572  25.186  38.663  1.00  0.00    -0.237 OA
ATOM     48  O   UNL A   1      48.149  25.632  36.814  1.00  0.00    -0.237 OA
ATOM     49  O   UNL A   1      48.012  27.191  38.720  1.00  0.00    -0.744 OA
ENDBRANCH  45  46
ENDBRANCH  24  38
BRANCH  25  50
ATOM     50  C   UNL A   1      36.614  33.111  30.887  1.00  0.00     0.058 A 
ATOM     51  C   UNL A   1      35.272  32.936  31.254  1.00  0.00     0.135 A 
ATOM     52  C   UNL A   1      36.895  33.990  29.829  1.00  0.00     0.135 A 
ATOM     53  F   UNL A   1      34.955  32.102  32.257  1.00  0.00    -0.206 F 
ATOM     54  C   UNL A   1      34.244  33.598  30.593  1.00  0.00     0.059 A 
ATOM     55  C   UNL A   1      35.886  34.684  29.169  1.00  0.00     0.059 A 
ATOM     56  F   UNL A   1      38.165  34.204  29.452  1.00  0.00    -0.206 F 
ATOM     57  C   UNL A   1      34.563  34.474  29.553  1.00  0.00     0.060 A 
BRANCH  57  58
ATOM     58  S   UNL A   1      33.227  35.377  28.739  1.00  0.00     0.124 S 
ATOM     59  O   UNL A   1      33.973  36.329  27.926  1.00  0.00    -0.237 OA
ATOM     60  O   UNL A   1      32.537  34.316  28.010  1.00  0.00    -0.237 OA
ATOM     61  O   UNL A   1      32.480  35.947  29.856  1.00  0.00    -0.744 OA
ENDBRANCH  57  58
ENDBRANCH  25  50
BRANCH  37  62
ATOM     62  C   UNL A   1      39.786  34.226  36.986  1.00  0.00     0.058 A 
ATOM     63  C   UNL A   1      38.994  33.992  38.121  1.00  0.00     0.135 A 
ATOM     64  C   UNL A   1      40.427  35.470  36.879  1.00  0.00     0.135 A 
ATOM     65  F   UNL A   1      38.354  32.821  38.268  1.00  0.00    -0.206 F 
ATOM     66  C   UNL A   1      38.818  34.966  39.098  1.00  0.00     0.059 A 
ATOM     67  C   UNL A   1      40.286  36.451  37.855  1.00  0.00     0.059 A 
ATOM     68  F   UNL A   1      41.203  35.742  35.818  1.00  0.00    -0.206 F 
ATOM     69  C   UNL A   1      39.466  36.195  38.954  1.00  0.00     0.060 A 
BRANCH  69  70
ATOM     70  S   UNL A   1      39.245  37.449  40.235  1.00  0.00     0.124 S 
ATOM     71  O   UNL A   1      40.583  38.029  40.310  1.00  0.00    -0.237 OA
ATOM     72  O   UNL A   1      38.214  38.308  39.660  1.00  0.00    -0.237 OA
ATOM     73  O   UNL A   1      38.830  36.674  41.399  1.00  0.00    -0.744 OA
ENDBRANCH  69  70
ENDBRANCH  37  62
ENDBRANCH  11  12
ENDBRANCH   4   6
ENDBRANCH   1   2
BRANCH   1  74
ATOM     74  C   UNL A   1      39.238  22.191  26.489  1.00  0.00     0.042 C 
BRANCH  74  75
ATOM     75  C   UNL A   1      37.977  22.940  26.072  1.00  0.00     0.117 C 
BRANCH  75  76
ATOM     76  N   UNL A   1      37.751  22.888  24.640  1.00  0.00    -0.356 N 
ATOM     77  C   UNL A   1      36.642  23.236  23.920  1.00  0.00     0.223 C 
ATOM     78  H   UNL A   1      38.508  22.552  24.108  1.00  0.00     0.163 HD
ATOM     79  O   UNL A   1      36.565  22.910  22.739  1.00  0.00    -0.275 OA
BRANCH  77  80
ATOM     80  C   UNL A   1      35.509  23.903  24.600  1.00  0.00     0.086 C 
ATOM     81  C   UNL A   1      34.197  24.167  23.912  1.00  0.00     0.023 C 
ATOM     82  C   UNL A   1      34.251  23.164  25.037  1.00  0.00     0.032 C 
BRANCH  82  83
ATOM     83  C   UNL A   1      33.915  21.724  24.720  1.00  0.00    -0.044 A 
ATOM     84  C   UNL A   1      34.775  20.679  25.090  1.00  0.00     0.004 A 
ATOM     85  C   UNL A   1      32.788  21.365  23.973  1.00  0.00     0.004 A 
ATOM     86  C   UNL A   1      34.510  19.347  24.746  1.00  0.00     0.004 A 
ATOM     87  C   UNL A   1      32.514  20.029  23.640  1.00  0.00     0.004 A 
ATOM     88  C   UNL A   1      33.369  18.982  24.013  1.00  0.00    -0.045 A 
BRANCH  88  89
ATOM     89  C   UNL A   1      33.139  17.526  23.652  1.00  0.00     0.019 C 
ATOM     90  C   UNL A   1      34.161  16.440  23.881  1.00  0.00     0.009 C 
ATOM     91  C   UNL A   1      32.947  16.519  24.761  1.00  0.00     0.009 C 
ENDBRANCH  88  89
ENDBRANCH  82  83
ENDBRANCH  77  80
ENDBRANCH  75  76
ENDBRANCH  74  75
ENDBRANCH   1  74
TORSDOF 15
ENDMDL
MODEL 2
REMARK VINA RESULT:     -12.3      7.174     12.742
REMARK SMILES O=C(NCCCNC(=O)[C@H]1C[C@H]1c1ccc(C2CC2)cc1)c1ccc(-c2c3nc(c(-c4c(F)cc(S(=O)(=O)[O-])cc4F)c4ccc([nH]4)c(-c4c(F)cc(S(=O)(=O)[O-])cc4F)c4nc(c(-c5c(F)cc(S(=O)(=O)[O-])cc5F)c5ccc2[nH]5)C=C4)C=C3)cc1
REMARK SMILES IDX 4 1 3 2 1 3 2 4 22 6 23 7 87 8 24 9 86 10 25 11 26 12 27 13
REMARK SMILES IDX 80 14 28 15 85 16 79 17 81 18 29 19 84 20 78 21 77 22 30 24
REMARK SMILES IDX 64 25 43 26 63 27 44 28 47 29 62 30 82 31 45 32 46 33 61 35
REMARK SMILES IDX 83 36 48 37 31 38 32 39 41 40 33 41 34 42 40 43 42 44 35 45
REMARK SMILES IDX 36 46 37 47 38 48 39 49 65 50 66 51 75 52 67 53 68 54 74 55
REMARK SMILES IDX 76 56 69 57 70 58 71 59 72 60 73 61 49 62 50 63 59 64 51 65
REMARK SMILES IDX 52 66 58 67 60 68 53 69 54 70 55 71 56 72 57 73 5 74 6 75
REMARK SMILES IDX 7 76 8 77 9 79 10 80 11 81 12 82 13 83 14 84 21 85 15 86
REMARK SMILES IDX 20 87 16 88 17 89 18 90 19 91
REMARK H PARENT 3 5 81 23 47 34 7 78
REMARK Flexibility Score: inf
ROOT
ATOM      1  C   UNL A   1      35.607  31.553  28.455  1.00  0.00     0.118 C 
ENDROOT
BRANCH   1   2
ATOM      2  N   UNL A   1      35.533  31.016  29.807  1.00  0.00    -0.352 N 
ATOM      3  O   UNL A   1      36.088  29.810  31.617  1.00  0.00    -0.269 OA
ATOM      4  C   UNL A   1      36.437  30.280  30.536  1.00  0.00     0.251 C 
ATOM      5  H   UNL A   1      34.693  31.214  30.280  1.00  0.00     0.163 HD
BRANCH   4   6
ATOM      6  C   UNL A   1      37.804  30.020  30.028  1.00  0.00     0.039 A 
ATOM      7  C   UNL A   1      38.078  29.981  28.661  1.00  0.00     0.014 A 
ATOM      8  C   UNL A   1      38.846  29.846  30.945  1.00  0.00     0.014 A 
ATOM      9  C   UNL A   1      39.343  29.603  28.215  1.00  0.00     0.010 A 
ATOM     10  C   UNL A   1      40.139  29.557  30.494  1.00  0.00     0.010 A 
ATOM     11  C   UNL A   1      40.390  29.388  29.125  1.00  0.00    -0.014 A 
BRANCH  11  12
ATOM     12  C   UNL A   1      41.737  29.014  28.613  1.00  0.00     0.031 A 
ATOM     13  C   UNL A   1      42.867  30.010  28.600  1.00  0.00     0.074 A 
ATOM     14  C   UNL A   1      41.950  27.751  28.198  1.00  0.00     0.049 A 
ATOM     15  N   UNL A   1      44.118  29.830  28.255  1.00  0.00    -0.248 NA
ATOM     16  C   UNL A   1      42.557  31.386  29.017  1.00  0.00     0.031 C 
ATOM     17  C   UNL A   1      40.931  26.699  28.143  1.00  0.00     0.029 A 
ATOM     18  N   UNL A   1      43.095  27.124  27.772  1.00  0.00    -0.354 N 
ATOM     19  C   UNL A   1      44.737  31.069  28.392  1.00  0.00     0.074 A 
ATOM     20  C   UNL A   1      43.716  31.998  28.827  1.00  0.00     0.031 C 
ATOM     21  C   UNL A   1      41.508  25.547  27.766  1.00  0.00     0.029 A 
ATOM     22  C   UNL A   1      42.922  25.786  27.503  1.00  0.00     0.049 A 
ATOM     23  H   UNL A   1      43.956  27.588  27.669  1.00  0.00     0.167 HD
ATOM     24  C   UNL A   1      46.036  31.397  28.184  1.00  0.00     0.037 A 
ATOM     25  C   UNL A   1      43.801  24.855  27.092  1.00  0.00     0.037 A 
ATOM     26  C   UNL A   1      47.053  30.463  27.777  1.00  0.00     0.049 A 
ATOM     27  C   UNL A   1      45.235  25.244  26.872  1.00  0.00     0.074 A 
ATOM     28  C   UNL A   1      48.407  30.690  27.591  1.00  0.00     0.029 A 
ATOM     29  N   UNL A   1      46.833  29.124  27.486  1.00  0.00    -0.354 N 
ATOM     30  N   UNL A   1      45.808  26.409  27.051  1.00  0.00    -0.248 NA
ATOM     31  C   UNL A   1      46.141  24.193  26.392  1.00  0.00     0.031 C 
ATOM     32  C   UNL A   1      48.997  29.499  27.150  1.00  0.00     0.029 A 
ATOM     33  C   UNL A   1      48.019  28.518  27.103  1.00  0.00     0.049 A 
ATOM     34  H   UNL A   1      45.961  28.671  27.544  1.00  0.00     0.167 HD
ATOM     35  C   UNL A   1      47.147  26.228  26.724  1.00  0.00     0.074 A 
ATOM     36  C   UNL A   1      47.300  24.836  26.351  1.00  0.00     0.031 C 
ATOM     37  C   UNL A   1      48.157  27.132  26.733  1.00  0.00     0.037 A 
BRANCH  24  38
ATOM     38  C   UNL A   1      46.430  32.836  28.378  1.00  0.00     0.058 A 
ATOM     39  C   UNL A   1      46.882  33.321  29.615  1.00  0.00     0.135 A 
ATOM     40  C   UNL A   1      46.384  33.736  27.300  1.00  0.00     0.135 A 
ATOM     41  F   UNL A   1      46.933  32.509  30.681  1.00  0.00    -0.206 F 
ATOM     42  C   UNL A   1      47.245  34.655  29.785  1.00  0.00     0.059 A 
ATOM     43  C   UNL A   1      46.764  35.069  27.442  1.00  0.00     0.059 A 
ATOM     44  F   UNL A   1      45.963  33.325  26.094  1.00  0.00    -0.206 F 
ATOM     45  C   UNL A   1      47.176  35.522  28.694  1.00  0.00     0.060 A 
BRANCH  45  46
ATOM     46  S   UNL A   1      47.636  37.253  28.932  1.00  0.00     0.124 S 
ATOM     47  O   UNL A   1      48.372  37.527  27.701  1.00  0.00    -0.237 OA
ATOM     48  O   UNL A   1      46.339  37.910  29.052  1.00  0.00    -0.237 OA
ATOM     49  O   UNL A   1      48.439  37.227  30.151  1.00  0.00    -0.744 OA
ENDBRANCH  45  46
ENDBRANCH  24  38
BRANCH  25  50
ATOM     50  C   UNL A   1      43.349  23.455  26.884  1.00  0.00     0.058 A 
ATOM     51  C   UNL A   1      43.153  22.945  25.592  1.00  0.00     0.135 A 
ATOM     52  C   UNL A   1      43.133  22.591  27.969  1.00  0.00     0.135 A 
ATOM     53  F   UNL A   1      43.343  23.735  24.525  1.00  0.00    -0.206 F 
ATOM     54  C   UNL A   1      42.751  21.630  25.382  1.00  0.00     0.059 A 
ATOM     55  C   UNL A   1      42.755  21.266  27.785  1.00  0.00     0.059 A 
ATOM     56  F   UNL A   1      43.323  23.028  29.224  1.00  0.00    -0.206 F 
ATOM     57  C   UNL A   1      42.557  20.798  26.486  1.00  0.00     0.060 A 
BRANCH  57  58
ATOM     58  S   UNL A   1      42.093  19.075  26.203  1.00  0.00     0.124 S 
ATOM     59  O   UNL A   1      42.280  18.501  27.530  1.00  0.00    -0.237 OA
ATOM     60  O   UNL A   1      40.710  19.200  25.749  1.00  0.00    -0.237 OA
ATOM     61  O   UNL A   1      43.041  18.637  25.184  1.00  0.00    -0.744 OA
ENDBRANCH  57  58
ENDBRANCH  25  50
BRANCH  37  62
ATOM     62  C   UNL A   1      49.523  26.634  26.353  1.00  0.00     0.058 A 
ATOM     63  C   UNL A   1      50.377  26.037  27.292  1.00  0.00     0.135 A 
ATOM     64  C   UNL A   1      49.973  26.736  25.027  1.00  0.00     0.135 A 
ATOM     65  F   UNL A   1      49.997  25.922  28.574  1.00  0.00    -0.206 F 
ATOM     66  C   UNL A   1      51.643  25.584  26.937  1.00  0.00     0.059 A 
ATOM     67  C   UNL A   1      51.225  26.268  24.643  1.00  0.00     0.059 A 
ATOM     68  F   UNL A   1      49.191  27.291  24.087  1.00  0.00    -0.206 F 
ATOM     69  C   UNL A   1      52.060  25.707  25.609  1.00  0.00     0.060 A 
BRANCH  69  70
ATOM     70  S   UNL A   1      53.700  25.103  25.153  1.00  0.00     0.124 S 
ATOM     71  O   UNL A   1      53.473  23.663  25.086  1.00  0.00    -0.237 OA
ATOM     72  O   UNL A   1      53.937  25.768  23.875  1.00  0.00    -0.237 OA
ATOM     73  O   UNL A   1      54.544  25.555  26.254  1.00  0.00    -0.744 OA
ENDBRANCH  69  70
ENDBRANCH  37  62
ENDBRANCH  11  12
ENDBRANCH   4   6
ENDBRANCH   1   2
BRANCH   1  74
ATOM     74  C   UNL A   1      34.357  31.272  27.625  1.00  0.00     0.042 C 
BRANCH  74  75
ATOM     75  C   UNL A   1      34.187  29.815  27.213  1.00  0.00     0.117 C 
BRANCH  75  76
ATOM     76  N   UNL A   1      32.978  29.225  27.757  1.00  0.00    -0.356 N 
ATOM     77  C   UNL A   1      32.363  28.046  27.435  1.00  0.00     0.223 C 
ATOM     78  H   UNL A   1      32.535  29.750  28.461  1.00  0.00     0.163 HD
ATOM     79  O   UNL A   1      31.228  27.827  27.849  1.00  0.00    -0.275 OA
BRANCH  77  80
ATOM     80  C   UNL A   1      33.028  27.104  26.508  1.00  0.00     0.086 C 
ATOM     81  C   UNL A   1      32.374  25.832  26.043  1.00  0.00     0.023 C 
ATOM     82  C   UNL A   1      32.616  26.942  25.051  1.00  0.00     0.032 C 
BRANCH  82  83
ATOM     83  C   UNL A   1      31.412  27.582  24.395  1.00  0.00    -0.044 A 
ATOM     84  C   UNL A   1      31.358  28.965  24.170  1.00  0.00     0.004 A 
ATOM     85  C   UNL A   1      30.265  26.854  24.061  1.00  0.00     0.004 A 
ATOM     86  C   UNL A   1      30.224  29.581  23.623  1.00  0.00     0.004 A 
ATOM     87  C   UNL A   1      29.133  27.467  23.501  1.00  0.00     0.004 A 
ATOM     88  C   UNL A   1      29.079  28.849  23.270  1.00  0.00    -0.045 A 
BRANCH  88  89
ATOM     89  C   UNL A   1      27.871  29.569  22.699  1.00  0.00     0.019 C 
ATOM     90  C   UNL A   1      27.631  31.050  22.859  1.00  0.00     0.009 C 
ATOM     91  C   UNL A   1      28.064  30.505  21.528  1.00  0.00     0.009 C 
ENDBRANCH  88  89
ENDBRANCH  82  83
ENDBRANCH  77  80
ENDBRANCH  75  76
ENDBRANCH  74  75
ENDBRANCH   1  74
TORSDOF 15
ENDMDL
MODEL 3
REMARK VINA RESULT:     -12.1      1.481      3.118
REMARK SMILES O=C(NCCCNC(=O)[C@H]1C[C@H]1c1ccc(C2CC2)cc1)c1ccc(-c2c3nc(c(-c4c(F)cc(S(=O)(=O)[O-])cc4F)c4ccc([nH]4)c(-c4c(F)cc(S(=O)(=O)[O-])cc4F)c4nc(c(-c5c(F)cc(S(=O)(=O)[O-])cc5F)c5ccc2[nH]5)C=C4)C=C3)cc1
REMARK SMILES IDX 4 1 3 2 1 3 2 4 22 6 23 7 87 8 24 9 86 10 25 11 26 12 27 13
REMARK SMILES IDX 80 14 28 15 85 16 79 17 81 18 29 19 84 20 78 21 77 22 30 24
REMARK SMILES IDX 64 25 43 26 63 27 44 28 47 29 62 30 82 31 45 32 46 33 61 35
REMARK SMILES IDX 83 36 48 37 31 38 32 39 41 40 33 41 34 42 40 43 42 44 35 45
REMARK SMILES IDX 36 46 37 47 38 48 39 49 65 50 66 51 75 52 67 53 68 54 74 55
REMARK SMILES IDX 76 56 69 57 70 58 71 59 72 60 73 61 49 62 50 63 59 64 51 65
REMARK SMILES IDX 52 66 58 67 60 68 53 69 54 70 55 71 56 72 57 73 5 74 6 75
REMARK SMILES IDX 7 76 8 77 9 79 10 80 11 81 12 82 13 83 14 84 21 85 15 86
REMARK SMILES IDX 20 87 16 88 17 89 18 90 19 91
REMARK H PARENT 3 5 81 23 47 34 7 78
REMARK Flexibility Score: inf
ROOT
ATOM      1  C   UNL A   1      38.407  24.055  26.544  1.00  0.00     0.118 C 
ENDROOT
BRANCH   1   2
ATOM      2  N   UNL A   1      39.803  24.135  26.136  1.00  0.00    -0.352 N 
ATOM      3  O   UNL A   1      41.880  24.959  25.920  1.00  0.00    -0.269 OA
ATOM      4  C   UNL A   1      40.806  24.994  26.517  1.00  0.00     0.251 C 
ATOM      5  H   UNL A   1      40.075  23.459  25.474  1.00  0.00     0.163 HD
BRANCH   4   6
ATOM      6  C   UNL A   1      40.604  25.976  27.609  1.00  0.00     0.039 A 
ATOM      7  C   UNL A   1      41.342  27.157  27.673  1.00  0.00     0.014 A 
ATOM      8  C   UNL A   1      39.623  25.722  28.575  1.00  0.00     0.014 A 
ATOM      9  C   UNL A   1      41.222  27.993  28.781  1.00  0.00     0.010 A 
ATOM     10  C   UNL A   1      39.439  26.610  29.640  1.00  0.00     0.010 A 
ATOM     11  C   UNL A   1      40.269  27.732  29.778  1.00  0.00    -0.014 A 
BRANCH  11  12
ATOM     12  C   UNL A   1      40.148  28.662  30.933  1.00  0.00     0.031 A 
ATOM     13  C   UNL A   1      41.073  28.557  32.117  1.00  0.00     0.074 A 
ATOM     14  C   UNL A   1      39.222  29.640  30.890  1.00  0.00     0.049 A 
ATOM     15  N   UNL A   1      41.151  29.330  33.172  1.00  0.00    -0.248 NA
ATOM     16  C   UNL A   1      42.029  27.439  32.127  1.00  0.00     0.031 C 
ATOM     17  C   UNL A   1      38.253  29.834  29.808  1.00  0.00     0.029 A 
ATOM     18  N   UNL A   1      38.958  30.669  31.758  1.00  0.00    -0.354 N 
ATOM     19  C   UNL A   1      42.143  28.781  33.978  1.00  0.00     0.074 A 
ATOM     20  C   UNL A   1      42.622  27.595  33.302  1.00  0.00     0.031 C 
ATOM     21  C   UNL A   1      37.543  30.947  30.047  1.00  0.00     0.029 A 
ATOM     22  C   UNL A   1      37.968  31.517  31.321  1.00  0.00     0.049 A 
ATOM     23  H   UNL A   1      39.433  30.789  32.612  1.00  0.00     0.167 HD
ATOM     24  C   UNL A   1      42.618  29.231  35.167  1.00  0.00     0.037 A 
ATOM     25  C   UNL A   1      37.457  32.630  31.879  1.00  0.00     0.037 A 
ATOM     26  C   UNL A   1      42.157  30.427  35.823  1.00  0.00     0.049 A 
ATOM     27  C   UNL A   1      38.003  33.109  33.195  1.00  0.00     0.074 A 
ATOM     28  C   UNL A   1      42.613  30.993  37.003  1.00  0.00     0.029 A 
ATOM     29  N   UNL A   1      41.133  31.242  35.363  1.00  0.00    -0.354 N 
ATOM     30  N   UNL A   1      38.971  32.601  33.918  1.00  0.00    -0.248 NA
ATOM     31  C   UNL A   1      37.384  34.309  33.771  1.00  0.00     0.031 C 
ATOM     32  C   UNL A   1      41.838  32.126  37.276  1.00  0.00     0.029 A 
ATOM     33  C   UNL A   1      40.927  32.293  36.244  1.00  0.00     0.049 A 
ATOM     34  H   UNL A   1      40.626  31.096  34.532  1.00  0.00     0.167 HD
ATOM     35  C   UNL A   1      39.092  33.431  35.026  1.00  0.00     0.074 A 
ATOM     36  C   UNL A   1      38.107  34.482  34.869  1.00  0.00     0.031 C 
ATOM     37  C   UNL A   1      39.942  33.331  36.077  1.00  0.00     0.037 A 
BRANCH  24  38
ATOM     38  C   UNL A   1      43.683  28.414  35.846  1.00  0.00     0.058 A 
ATOM     39  C   UNL A   1      43.367  27.376  36.736  1.00  0.00     0.135 A 
ATOM     40  C   UNL A   1      45.041  28.653  35.576  1.00  0.00     0.135 A 
ATOM     41  F   UNL A   1      42.087  27.112  37.039  1.00  0.00    -0.206 F 
ATOM     42  C   UNL A   1      44.360  26.625  37.360  1.00  0.00     0.059 A 
ATOM     43  C   UNL A   1      46.050  27.899  36.171  1.00  0.00     0.059 A 
ATOM     44  F   UNL A   1      45.400  29.631  34.730  1.00  0.00    -0.206 F 
ATOM     45  C   UNL A   1      45.698  26.899  37.076  1.00  0.00     0.060 A 
BRANCH  45  46
ATOM     46  S   UNL A   1      46.976  25.926  37.903  1.00  0.00     0.124 S 
ATOM     47  O   UNL A   1      46.996  24.719  37.082  1.00  0.00    -0.237 OA
ATOM     48  O   UNL A   1      48.149  26.786  37.790  1.00  0.00    -0.237 OA
ATOM     49  O   UNL A   1      46.453  25.757  39.255  1.00  0.00    -0.744 OA
ENDBRANCH  45  46
ENDBRANCH  24  38
BRANCH  25  50
ATOM     50  C   UNL A   1      36.381  33.379  31.180  1.00  0.00     0.058 A 
ATOM     51  C   UNL A   1      36.651  34.106  30.011  1.00  0.00     0.135 A 
ATOM     52  C   UNL A   1      35.058  33.357  31.647  1.00  0.00     0.135 A 
ATOM     53  F   UNL A   1      37.902  34.159  29.529  1.00  0.00    -0.206 F 
ATOM     54  C   UNL A   1      35.650  34.794  29.334  1.00  0.00     0.059 A 
ATOM     55  C   UNL A   1      34.035  34.016  30.975  1.00  0.00     0.059 A 
ATOM     56  F   UNL A   1      34.747  32.662  32.752  1.00  0.00    -0.206 F 
ATOM     57  C   UNL A   1      34.343  34.739  29.823  1.00  0.00     0.060 A 
BRANCH  57  58
ATOM     58  S   UNL A   1      33.037  35.585  28.906  1.00  0.00     0.124 S 
ATOM     59  O   UNL A   1      32.433  34.480  28.173  1.00  0.00    -0.237 OA
ATOM     60  O   UNL A   1      32.229  36.159  29.979  1.00  0.00    -0.237 OA
ATOM     61  O   UNL A   1      33.771  36.555  28.099  1.00  0.00    -0.744 OA
ENDBRANCH  57  58
ENDBRANCH  25  50
BRANCH  37  62
ATOM     62  C   UNL A   1      39.861  34.404  37.125  1.00  0.00     0.058 A 
ATOM     63  C   UNL A   1      39.069  34.254  38.274  1.00  0.00     0.135 A 
ATOM     64  C   UNL A   1      40.604  35.588  36.990  1.00  0.00     0.135 A 
ATOM     65  F   UNL A   1      38.334  33.145  38.447  1.00  0.00    -0.206 F 
ATOM     66  C   UNL A   1      38.991  35.253  39.239  1.00  0.00     0.059 A 
ATOM     67  C   UNL A   1      40.561  36.590  37.954  1.00  0.00     0.059 A 
ATOM     68  F   UNL A   1      41.385  35.778  35.915  1.00  0.00    -0.206 F 
ATOM     69  C   UNL A   1      39.740  36.420  39.068  1.00  0.00     0.060 A 
BRANCH  69  70
ATOM     70  S   UNL A   1      39.645  37.706  40.332  1.00  0.00     0.124 S 
ATOM     71  O   UNL A   1      39.050  36.977  41.447  1.00  0.00    -0.237 OA
ATOM     72  O   UNL A   1      41.045  38.087  40.499  1.00  0.00    -0.237 OA
ATOM     73  O   UNL A   1      38.795  38.721  39.719  1.00  0.00    -0.744 OA
ENDBRANCH  69  70
ENDBRANCH  37  62
ENDBRANCH  11  12
ENDBRANCH   4   6
ENDBRANCH   1   2
BRANCH   1  74
ATOM     74  C   UNL A   1      37.468  23.661  25.406  1.00  0.00     0.042 C 
BRANCH  74  75
ATOM     75  C   UNL A   1      37.109  22.181  25.367  1.00  0.00     0.117 C 
BRANCH  75  76
ATOM     76  N   UNL A   1      36.166  21.813  26.406  1.00  0.00    -0.356 N 
ATOM     77  C   UNL A   1      34.840  21.493  26.306  1.00  0.00     0.223 C 
ATOM     78  H   UNL A   1      36.534  21.792  27.318  1.00  0.00     0.163 HD
ATOM     79  O   UNL A   1      34.158  21.428  27.324  1.00  0.00    -0.275 OA
BRANCH  77  80
ATOM     80  C   UNL A   1      34.225  21.336  24.969  1.00  0.00     0.086 C 
ATOM     81  C   UNL A   1      32.735  21.343  24.759  1.00  0.00     0.023 C 
ATOM     82  C   UNL A   1      33.560  22.484  24.220  1.00  0.00     0.032 C 
BRANCH  82  83
ATOM     83  C   UNL A   1      33.302  23.869  24.772  1.00  0.00    -0.044 A 
ATOM     84  C   UNL A   1      32.133  24.157  25.492  1.00  0.00     0.004 A 
ATOM     85  C   UNL A   1      34.158  24.946  24.522  1.00  0.00     0.004 A 
ATOM     86  C   UNL A   1      31.849  25.449  25.953  1.00  0.00     0.004 A 
ATOM     87  C   UNL A   1      33.880  26.239  24.994  1.00  0.00     0.004 A 
ATOM     88  C   UNL A   1      32.716  26.528  25.720  1.00  0.00    -0.045 A 
BRANCH  88  89
ATOM     89  C   UNL A   1      32.350  27.911  26.225  1.00  0.00     0.019 C 
ATOM     90  C   UNL A   1      31.671  28.162  27.548  1.00  0.00     0.009 C 
ATOM     91  C   UNL A   1      33.125  28.496  27.383  1.00  0.00     0.009 C 
ENDBRANCH  88  89
ENDBRANCH  82  83
ENDBRANCH  77  80
ENDBRANCH  75  76
ENDBRANCH  74  75
ENDBRANCH   1  74
TORSDOF 15
ENDMDL
