MODEL 1
REMARK VINA RESULT:     -10.7      0.000      0.000
REMARK SMILES Cc1oc(C[N@H+]2C[C@@H](C)[C@@H](C)C2)cc1C(=O)NCCCNC(=O)c1ccc(-c2c3nc(c(-c4c(F)cc(S(=O)(=O)[O-])cc4F)c4ccc([nH]4)c(-c4c(F)cc(S(=O)(=O)[O-])cc4F)c4nc(c(-c5c(F)cc(S(=O)(=O)[O-])cc5F)c5ccc2[nH]5)C=C4)C=C3)cc1
REMARK SMILES IDX 19 1 18 2 17 3 15 4 16 5 14 7 1 8 2 9 3 10 4 11 13 12 5 13
REMARK SMILES IDX 6 14 7 15 12 16 8 18 10 19 9 20 11 21 20 22 21 23 22 24
REMARK SMILES IDX 23 26 24 27 25 28 89 29 26 30 88 31 27 32 28 33 29 34 82 35
REMARK SMILES IDX 30 36 87 37 81 38 83 39 31 40 86 41 80 42 79 43 32 45 66 46
REMARK SMILES IDX 45 47 65 48 46 49 49 50 64 51 84 52 47 53 48 54 63 56 85 57
REMARK SMILES IDX 50 58 33 59 34 60 43 61 35 62 36 63 42 64 44 65 37 66 38 67
REMARK SMILES IDX 39 68 40 69 41 70 67 71 68 72 77 73 69 74 70 75 76 76 78 77
REMARK SMILES IDX 71 78 72 79 73 80 74 81 75 82 51 83 52 84 61 85 53 86 54 87
REMARK SMILES IDX 60 88 62 89 55 90 56 91 57 92 58 93 59 94
REMARK H PARENT 17 6 6 17 21 25 83 44 49 55
REMARK Flexibility Score: inf
ROOT
ATOM      1  C   UNL A   1      34.800  33.402  28.025  1.00  0.00     0.042 C 
ENDROOT
BRANCH   1   2
ATOM      2  C   UNL A   1      34.956  34.798  28.630  1.00  0.00     0.118 C 
BRANCH   2   3
ATOM      3  N   UNL A   1      33.677  35.342  29.001  1.00  0.00    -0.352 N 
ATOM      4  C   UNL A   1      33.151  35.768  30.183  1.00  0.00     0.254 C 
ATOM      5  O   UNL A   1      32.008  36.237  30.093  1.00  0.00    -0.269 OA
ATOM      6  H   UNL A   1      33.053  35.425  28.244  1.00  0.00     0.163 HD
BRANCH   4   7
ATOM      7  C   UNL A   1      33.821  35.745  31.484  1.00  0.00     0.081 A 
ATOM      8  C   UNL A   1      33.895  38.091  32.823  1.00  0.00     0.088 C 
ATOM      9  C   UNL A   1      34.084  36.662  32.500  1.00  0.00     0.114 A 
ATOM     10  O   UNL A   1      34.801  36.063  33.493  1.00  0.00    -0.460 OA
ATOM     11  C   UNL A   1      35.136  34.817  33.098  1.00  0.00     0.159 A 
ATOM     12  C   UNL A   1      34.501  34.542  31.916  1.00  0.00     0.066 A 
BRANCH  11  13
ATOM     13  C   UNL A   1      36.145  34.097  33.927  1.00  0.00     0.338 C 
BRANCH  13  14
ATOM     14  N   UNL A   1      37.543  34.439  33.626  1.00  0.00    -0.328 N 
ATOM     15  C   UNL A   1      38.415  34.526  34.798  1.00  0.00     0.266 C 
ATOM     16  C   UNL A   1      38.191  33.572  32.633  1.00  0.00     0.266 C 
ATOM     17  H   UNL A   1      37.439  35.372  33.223  1.00  0.00     0.348 HD
ATOM     18  C   UNL A   1      39.813  34.430  34.196  1.00  0.00     0.049 C 
ATOM     19  C   UNL A   1      39.644  33.374  33.095  1.00  0.00     0.049 C 
ATOM     20  C   UNL A   1      40.880  34.147  35.245  1.00  0.00     0.014 C 
ATOM     21  C   UNL A   1      39.894  31.937  33.554  1.00  0.00     0.014 C 
ENDBRANCH  13  14
ENDBRANCH  11  13
ENDBRANCH   4   7
ENDBRANCH   2   3
ENDBRANCH   1   2
BRANCH   1  22
ATOM     22  C   UNL A   1      34.604  32.309  29.067  1.00  0.00     0.118 C 
BRANCH  22  23
ATOM     23  N   UNL A   1      34.021  31.114  28.468  1.00  0.00    -0.352 N 
ATOM     24  C   UNL A   1      34.630  30.010  27.939  1.00  0.00     0.251 C 
ATOM     25  H   UNL A   1      33.037  31.101  28.440  1.00  0.00     0.163 HD
ATOM     26  O   UNL A   1      33.967  29.244  27.233  1.00  0.00    -0.269 OA
BRANCH  24  27
ATOM     27  C   UNL A   1      36.054  29.729  28.202  1.00  0.00     0.039 A 
ATOM     28  C   UNL A   1      36.429  29.267  29.467  1.00  0.00     0.014 A 
ATOM     29  C   UNL A   1      37.028  29.965  27.226  1.00  0.00     0.014 A 
ATOM     30  C   UNL A   1      37.772  29.005  29.738  1.00  0.00     0.010 A 
ATOM     31  C   UNL A   1      38.354  29.626  27.472  1.00  0.00     0.010 A 
ATOM     32  C   UNL A   1      38.742  29.155  28.733  1.00  0.00    -0.014 A 
BRANCH  32  33
ATOM     33  C   UNL A   1      40.169  28.837  28.988  1.00  0.00     0.031 A 
ATOM     34  C   UNL A   1      41.086  29.887  29.554  1.00  0.00     0.074 A 
ATOM     35  C   UNL A   1      40.644  27.623  28.651  1.00  0.00     0.049 A 
ATOM     36  N   UNL A   1      42.372  29.821  29.782  1.00  0.00    -0.248 NA
ATOM     37  C   UNL A   1      40.486  31.191  29.878  1.00  0.00     0.031 C 
ATOM     38  C   UNL A   1      39.857  26.544  28.047  1.00  0.00     0.029 A 
ATOM     39  N   UNL A   1      41.905  27.093  28.758  1.00  0.00    -0.354 N 
ATOM     40  C   UNL A   1      42.737  31.075  30.262  1.00  0.00     0.074 A 
ATOM     41  C   UNL A   1      41.548  31.898  30.237  1.00  0.00     0.031 C 
ATOM     42  C   UNL A   1      40.647  25.474  27.860  1.00  0.00     0.029 A 
ATOM     43  C   UNL A   1      42.002  25.803  28.290  1.00  0.00     0.049 A 
ATOM     44  H   UNL A   1      42.668  27.588  29.133  1.00  0.00     0.167 HD
ATOM     45  C   UNL A   1      43.946  31.492  30.704  1.00  0.00     0.037 A 
ATOM     46  C   UNL A   1      43.066  24.982  28.209  1.00  0.00     0.037 A 
ATOM     47  C   UNL A   1      45.116  30.654  30.746  1.00  0.00     0.049 A 
ATOM     48  C   UNL A   1      44.398  25.467  28.710  1.00  0.00     0.074 A 
ATOM     49  C   UNL A   1      46.376  30.959  31.230  1.00  0.00     0.029 A 
ATOM     50  N   UNL A   1      45.171  29.345  30.287  1.00  0.00    -0.354 N 
ATOM     51  N   UNL A   1      44.712  26.634  29.221  1.00  0.00    -0.248 NA
ATOM     52  C   UNL A   1      45.521  24.522  28.635  1.00  0.00     0.031 C 
ATOM     53  C   UNL A   1      47.205  29.851  31.019  1.00  0.00     0.029 A 
ATOM     54  C   UNL A   1      46.447  28.837  30.455  1.00  0.00     0.049 A 
ATOM     55  H   UNL A   1      44.412  28.852  29.898  1.00  0.00     0.167 HD
ATOM     56  C   UNL A   1      46.060  26.556  29.551  1.00  0.00     0.074 A 
ATOM     57  C   UNL A   1      46.498  25.221  29.196  1.00  0.00     0.031 C 
ATOM     58  C   UNL A   1      46.862  27.501  30.100  1.00  0.00     0.037 A 
BRANCH  45  59
ATOM     59  C   UNL A   1      44.065  32.915  31.181  1.00  0.00     0.058 A 
ATOM     60  C   UNL A   1      44.547  33.936  30.346  1.00  0.00     0.135 A 
ATOM     61  C   UNL A   1      43.661  33.270  32.478  1.00  0.00     0.135 A 
ATOM     62  F   UNL A   1      44.961  33.652  29.101  1.00  0.00    -0.206 F 
ATOM     63  C   UNL A   1      44.655  35.250  30.789  1.00  0.00     0.059 A 
ATOM     64  C   UNL A   1      43.732  34.585  32.933  1.00  0.00     0.059 A 
ATOM     65  F   UNL A   1      43.194  32.337  33.321  1.00  0.00    -0.206 F 
ATOM     66  C   UNL A   1      44.244  35.565  32.084  1.00  0.00     0.060 A 
BRANCH  66  67
ATOM     67  S   UNL A   1      44.386  37.277  32.641  1.00  0.00     0.124 S 
ATOM     68  O   UNL A   1      45.824  37.393  32.859  1.00  0.00    -0.237 OA
ATOM     69  O   UNL A   1      43.857  38.020  31.501  1.00  0.00    -0.237 OA
ATOM     70  O   UNL A   1      43.564  37.312  33.846  1.00  0.00    -0.744 OA
ENDBRANCH  66  67
ENDBRANCH  45  59
BRANCH  46  71
ATOM     71  C   UNL A   1      42.905  23.612  27.652  1.00  0.00     0.058 A 
ATOM     72  C   UNL A   1      42.546  22.535  28.477  1.00  0.00     0.135 A 
ATOM     73  C   UNL A   1      43.086  23.354  26.285  1.00  0.00     0.135 A 
ATOM     74  F   UNL A   1      42.365  22.730  29.792  1.00  0.00    -0.206 F 
ATOM     75  C   UNL A   1      42.389  21.250  27.970  1.00  0.00     0.059 A 
ATOM     76  C   UNL A   1      42.908  22.083  25.749  1.00  0.00     0.059 A 
ATOM     77  F   UNL A   1      43.411  24.354  25.449  1.00  0.00    -0.206 F 
ATOM     78  C   UNL A   1      42.570  21.034  26.603  1.00  0.00     0.060 A 
BRANCH  78  79
ATOM     79  S   UNL A   1      42.317  19.370  25.948  1.00  0.00     0.124 S 
ATOM     80  O   UNL A   1      43.108  19.412  24.724  1.00  0.00    -0.237 OA
ATOM     81  O   UNL A   1      42.845  18.535  27.023  1.00  0.00    -0.237 OA
ATOM     82  O   UNL A   1      40.870  19.299  25.764  1.00  0.00    -0.744 OA
ENDBRANCH  78  79
ENDBRANCH  46  71
BRANCH  58  83
ATOM     83  C   UNL A   1      48.288  27.116  30.384  1.00  0.00     0.058 A 
ATOM     84  C   UNL A   1      49.337  27.488  29.530  1.00  0.00     0.135 A 
ATOM     85  C   UNL A   1      48.612  26.408  31.553  1.00  0.00     0.135 A 
ATOM     86  F   UNL A   1      49.082  28.161  28.396  1.00  0.00    -0.206 F 
ATOM     87  C   UNL A   1      50.657  27.150  29.812  1.00  0.00     0.059 A 
ATOM     88  C   UNL A   1      49.927  26.084  31.870  1.00  0.00     0.059 A 
ATOM     89  F   UNL A   1      47.647  26.038  32.408  1.00  0.00    -0.206 F 
ATOM     90  C   UNL A   1      50.941  26.449  30.985  1.00  0.00     0.060 A 
BRANCH  90  91
ATOM     91  S   UNL A   1      52.661  26.042  31.354  1.00  0.00     0.124 S 
ATOM     92  O   UNL A   1      53.046  27.154  32.217  1.00  0.00    -0.237 OA
ATOM     93  O   UNL A   1      52.542  24.743  32.009  1.00  0.00    -0.237 OA
ATOM     94  O   UNL A   1      53.295  26.020  30.039  1.00  0.00    -0.744 OA
ENDBRANCH  90  91
ENDBRANCH  58  83
ENDBRANCH  32  33
ENDBRANCH  24  27
ENDBRANCH  22  23
ENDBRANCH   1  22
TORSDOF 15
ENDMDL
MODEL 2
REMARK VINA RESULT:     -10.6      4.007     10.750
REMARK SMILES Cc1oc(C[N@H+]2C[C@@H](C)[C@@H](C)C2)cc1C(=O)NCCCNC(=O)c1ccc(-c2c3nc(c(-c4c(F)cc(S(=O)(=O)[O-])cc4F)c4ccc([nH]4)c(-c4c(F)cc(S(=O)(=O)[O-])cc4F)c4nc(c(-c5c(F)cc(S(=O)(=O)[O-])cc5F)c5ccc2[nH]5)C=C4)C=C3)cc1
REMARK SMILES IDX 19 1 18 2 17 3 15 4 16 5 14 7 1 8 2 9 3 10 4 11 13 12 5 13
REMARK SMILES IDX 6 14 7 15 12 16 8 18 10 19 9 20 11 21 20 22 21 23 22 24
REMARK SMILES IDX 23 26 24 27 25 28 89 29 26 30 88 31 27 32 28 33 29 34 82 35
REMARK SMILES IDX 30 36 87 37 81 38 83 39 31 40 86 41 80 42 79 43 32 45 66 46
REMARK SMILES IDX 45 47 65 48 46 49 49 50 64 51 84 52 47 53 48 54 63 56 85 57
REMARK SMILES IDX 50 58 33 59 34 60 43 61 35 62 36 63 42 64 44 65 37 66 38 67
REMARK SMILES IDX 39 68 40 69 41 70 67 71 68 72 77 73 69 74 70 75 76 76 78 77
REMARK SMILES IDX 71 78 72 79 73 80 74 81 75 82 51 83 52 84 61 85 53 86 54 87
REMARK SMILES IDX 60 88 62 89 55 90 56 91 57 92 58 93 59 94
REMARK H PARENT 17 6 6 17 21 25 83 44 49 55
REMARK Flexibility Score: inf
ROOT
ATOM      1  C   UNL A   1      34.625  30.928  27.788  1.00  0.00     0.042 C 
ENDROOT
BRANCH   1   2
ATOM      2  C   UNL A   1      34.581  29.427  27.499  1.00  0.00     0.118 C 
BRANCH   2   3
ATOM      3  N   UNL A   1      33.330  28.859  27.926  1.00  0.00    -0.352 N 
ATOM      4  C   UNL A   1      32.302  28.258  27.264  1.00  0.00     0.254 C 
ATOM      5  O   UNL A   1      31.399  27.837  27.998  1.00  0.00    -0.269 OA
ATOM      6  H   UNL A   1      33.186  28.916  28.899  1.00  0.00     0.163 HD
BRANCH   4   7
ATOM      7  C   UNL A   1      32.211  28.053  25.817  1.00  0.00     0.081 A 
ATOM      8  C   UNL A   1      33.629  25.980  24.821  1.00  0.00     0.088 C 
ATOM      9  C   UNL A   1      32.728  27.148  24.893  1.00  0.00     0.114 A 
ATOM     10  O   UNL A   1      32.318  27.481  23.635  1.00  0.00    -0.460 OA
ATOM     11  C   UNL A   1      31.660  28.658  23.690  1.00  0.00     0.159 A 
ATOM     12  C   UNL A   1      31.499  29.014  25.003  1.00  0.00     0.066 A 
BRANCH  11  13
ATOM     13  C   UNL A   1      31.366  29.326  22.389  1.00  0.00     0.338 C 
BRANCH  13  14
ATOM     14  N   UNL A   1      29.954  29.276  21.980  1.00  0.00    -0.328 N 
ATOM     15  C   UNL A   1      29.099  28.458  22.841  1.00  0.00     0.266 C 
ATOM     16  C   UNL A   1      29.315  30.587  21.806  1.00  0.00     0.266 C 
ATOM     17  H   UNL A   1      30.027  28.827  21.065  1.00  0.00     0.348 HD
ATOM     18  C   UNL A   1      27.695  28.937  22.488  1.00  0.00     0.049 C 
ATOM     19  C   UNL A   1      27.876  30.452  22.331  1.00  0.00     0.049 C 
ATOM     20  C   UNL A   1      26.654  28.483  23.501  1.00  0.00     0.014 C 
ATOM     21  C   UNL A   1      27.673  31.250  23.619  1.00  0.00     0.014 C 
ENDBRANCH  13  14
ENDBRANCH  11  13
ENDBRANCH   4   7
ENDBRANCH   2   3
ENDBRANCH   1   2
BRANCH   1  22
ATOM     22  C   UNL A   1      35.870  31.362  28.551  1.00  0.00     0.118 C 
BRANCH  22  23
ATOM     23  N   UNL A   1      35.814  30.919  29.939  1.00  0.00    -0.352 N 
ATOM     24  C   UNL A   1      36.657  30.095  30.633  1.00  0.00     0.251 C 
ATOM     25  H   UNL A   1      35.051  31.265  30.456  1.00  0.00     0.163 HD
ATOM     26  O   UNL A   1      36.278  29.623  31.710  1.00  0.00    -0.269 OA
BRANCH  24  27
ATOM     27  C   UNL A   1      37.999  29.769  30.112  1.00  0.00     0.039 A 
ATOM     28  C   UNL A   1      38.217  29.813  28.733  1.00  0.00     0.014 A 
ATOM     29  C   UNL A   1      39.028  29.371  30.972  1.00  0.00     0.014 A 
ATOM     30  C   UNL A   1      39.476  29.499  28.221  1.00  0.00     0.010 A 
ATOM     31  C   UNL A   1      40.303  29.138  30.467  1.00  0.00     0.010 A 
ATOM     32  C   UNL A   1      40.537  29.186  29.086  1.00  0.00    -0.014 A 
BRANCH  32  33
ATOM     33  C   UNL A   1      41.894  28.894  28.564  1.00  0.00     0.031 A 
ATOM     34  C   UNL A   1      42.249  27.500  28.122  1.00  0.00     0.074 A 
ATOM     35  C   UNL A   1      42.820  29.873  28.548  1.00  0.00     0.049 A 
ATOM     36  N   UNL A   1      43.397  27.036  27.702  1.00  0.00    -0.248 NA
ATOM     37  C   UNL A   1      41.182  26.489  28.189  1.00  0.00     0.031 C 
ATOM     38  C   UNL A   1      42.603  31.250  29.001  1.00  0.00     0.029 A 
ATOM     39  N   UNL A   1      44.131  29.860  28.145  1.00  0.00    -0.354 N 
ATOM     40  C   UNL A   1      43.196  25.680  27.469  1.00  0.00     0.074 A 
ATOM     41  C   UNL A   1      41.831  25.385  27.849  1.00  0.00     0.031 C 
ATOM     42  C   UNL A   1      43.732  31.954  28.827  1.00  0.00     0.029 A 
ATOM     43  C   UNL A   1      44.764  31.073  28.293  1.00  0.00     0.049 A 
ATOM     44  H   UNL A   1      44.576  29.060  27.784  1.00  0.00     0.167 HD
ATOM     45  C   UNL A   1      44.061  24.770  26.963  1.00  0.00     0.037 A 
ATOM     46  C   UNL A   1      46.037  31.429  28.033  1.00  0.00     0.037 A 
ATOM     47  C   UNL A   1      45.410  25.084  26.566  1.00  0.00     0.049 A 
ATOM     48  C   UNL A   1      46.979  30.403  27.467  1.00  0.00     0.074 A 
ATOM     49  C   UNL A   1      46.352  24.251  25.987  1.00  0.00     0.029 A 
ATOM     50  N   UNL A   1      46.009  26.327  26.707  1.00  0.00    -0.354 N 
ATOM     51  N   UNL A   1      46.753  29.139  27.192  1.00  0.00    -0.248 NA
ATOM     52  C   UNL A   1      48.345  30.849  27.166  1.00  0.00     0.031 C 
ATOM     53  C   UNL A   1      47.535  24.979  25.822  1.00  0.00     0.029 A 
ATOM     54  C   UNL A   1      47.314  26.280  26.247  1.00  0.00     0.049 A 
ATOM     55  H   UNL A   1      45.570  27.126  27.080  1.00  0.00     0.167 HD
ATOM     56  C   UNL A   1      47.940  28.647  26.662  1.00  0.00     0.074 A 
ATOM     57  C   UNL A   1      48.876  29.753  26.642  1.00  0.00     0.031 C 
ATOM     58  C   UNL A   1      48.229  27.395  26.230  1.00  0.00     0.037 A 
BRANCH  45  59
ATOM     59  C   UNL A   1      43.577  23.354  26.805  1.00  0.00     0.058 A 
ATOM     60  C   UNL A   1      43.389  22.510  27.913  1.00  0.00     0.135 A 
ATOM     61  C   UNL A   1      43.265  22.842  25.536  1.00  0.00     0.135 A 
ATOM     62  F   UNL A   1      43.686  22.941  29.149  1.00  0.00    -0.206 F 
ATOM     63  C   UNL A   1      42.941  21.202  27.764  1.00  0.00     0.059 A 
ATOM     64  C   UNL A   1      42.786  21.545  25.366  1.00  0.00     0.059 A 
ATOM     65  F   UNL A   1      43.426  23.602  24.441  1.00  0.00    -0.206 F 
ATOM     66  C   UNL A   1      42.641  20.728  26.487  1.00  0.00     0.060 A 
BRANCH  66  67
ATOM     67  S   UNL A   1      42.055  19.029  26.313  1.00  0.00     0.124 S 
ATOM     68  O   UNL A   1      42.148  18.548  27.687  1.00  0.00    -0.237 OA
ATOM     69  O   UNL A   1      40.702  19.218  25.798  1.00  0.00    -0.237 OA
ATOM     70  O   UNL A   1      43.003  18.437  25.376  1.00  0.00    -0.744 OA
ENDBRANCH  66  67
ENDBRANCH  45  59
BRANCH  46  71
ATOM     71  C   UNL A   1      46.481  32.826  28.285  1.00  0.00     0.058 A 
ATOM     72  C   UNL A   1      46.384  33.806  27.285  1.00  0.00     0.135 A 
ATOM     73  C   UNL A   1      46.992  33.215  29.533  1.00  0.00     0.135 A 
ATOM     74  F   UNL A   1      45.906  33.483  26.074  1.00  0.00    -0.206 F 
ATOM     75  C   UNL A   1      46.793  35.117  27.508  1.00  0.00     0.059 A 
ATOM     76  C   UNL A   1      47.382  34.525  29.788  1.00  0.00     0.059 A 
ATOM     77  F   UNL A   1      47.087  32.320  30.529  1.00  0.00    -0.206 F 
ATOM     78  C   UNL A   1      47.289  35.468  28.765  1.00  0.00     0.060 A 
BRANCH  78  79
ATOM     79  S   UNL A   1      47.772  37.183  29.056  1.00  0.00     0.124 S 
ATOM     80  O   UNL A   1      46.486  37.866  28.991  1.00  0.00    -0.237 OA
ATOM     81  O   UNL A   1      48.390  37.106  30.377  1.00  0.00    -0.237 OA
ATOM     82  O   UNL A   1      48.693  37.462  27.958  1.00  0.00    -0.744 OA
ENDBRANCH  78  79
ENDBRANCH  46  71
BRANCH  58  83
ATOM     83  C   UNL A   1      49.604  27.160  25.665  1.00  0.00     0.058 A 
ATOM     84  C   UNL A   1      50.659  26.691  26.461  1.00  0.00     0.135 A 
ATOM     85  C   UNL A   1      49.851  27.360  24.297  1.00  0.00     0.135 A 
ATOM     86  F   UNL A   1      50.477  26.489  27.776  1.00  0.00    -0.206 F 
ATOM     87  C   UNL A   1      51.920  26.452  25.926  1.00  0.00     0.059 A 
ATOM     88  C   UNL A   1      51.096  27.100  23.734  1.00  0.00     0.059 A 
ATOM     89  F   UNL A   1      48.872  27.798  23.490  1.00  0.00    -0.206 F 
ATOM     90  C   UNL A   1      52.128  26.659  24.561  1.00  0.00     0.060 A 
BRANCH  90  91
ATOM     91  S   UNL A   1      53.762  26.315  23.874  1.00  0.00     0.124 S 
ATOM     92  O   UNL A   1      54.437  27.594  24.069  1.00  0.00    -0.237 OA
ATOM     93  O   UNL A   1      54.229  25.216  24.713  1.00  0.00    -0.237 OA
ATOM     94  O   UNL A   1      53.480  25.961  22.486  1.00  0.00    -0.744 OA
ENDBRANCH  90  91
ENDBRANCH  58  83
ENDBRANCH  32  33
ENDBRANCH  24  27
ENDBRANCH  22  23
ENDBRANCH   1  22
TORSDOF 15
ENDMDL
MODEL 3
REMARK VINA RESULT:     -10.6      5.047     11.992
REMARK SMILES Cc1oc(C[N@H+]2C[C@@H](C)[C@@H](C)C2)cc1C(=O)NCCCNC(=O)c1ccc(-c2c3nc(c(-c4c(F)cc(S(=O)(=O)[O-])cc4F)c4ccc([nH]4)c(-c4c(F)cc(S(=O)(=O)[O-])cc4F)c4nc(c(-c5c(F)cc(S(=O)(=O)[O-])cc5F)c5ccc2[nH]5)C=C4)C=C3)cc1
REMARK SMILES IDX 19 1 18 2 17 3 15 4 16 5 14 7 1 8 2 9 3 10 4 11 13 12 5 13
REMARK SMILES IDX 6 14 7 15 12 16 8 18 10 19 9 20 11 21 20 22 21 23 22 24
REMARK SMILES IDX 23 26 24 27 25 28 89 29 26 30 88 31 27 32 28 33 29 34 82 35
REMARK SMILES IDX 30 36 87 37 81 38 83 39 31 40 86 41 80 42 79 43 32 45 66 46
REMARK SMILES IDX 45 47 65 48 46 49 49 50 64 51 84 52 47 53 48 54 63 56 85 57
REMARK SMILES IDX 50 58 33 59 34 60 43 61 35 62 36 63 42 64 44 65 37 66 38 67
REMARK SMILES IDX 39 68 40 69 41 70 67 71 68 72 77 73 69 74 70 75 76 76 78 77
REMARK SMILES IDX 71 78 72 79 73 80 74 81 75 82 51 83 52 84 61 85 53 86 54 87
REMARK SMILES IDX 60 88 62 89 55 90 56 91 57 92 58 93 59 94
REMARK H PARENT 17 6 6 17 21 25 83 44 49 55
REMARK Flexibility Score: inf
ROOT
ATOM      1  C   UNL A   1      38.016  23.853  25.997  1.00  0.00     0.042 C 
ENDROOT
BRANCH   1   2
ATOM      2  C   UNL A   1      37.357  22.589  25.445  1.00  0.00     0.118 C 
BRANCH   2   3
ATOM      3  N   UNL A   1      36.322  22.122  26.330  1.00  0.00    -0.352 N 
ATOM      4  C   UNL A   1      34.970  22.285  26.354  1.00  0.00     0.254 C 
ATOM      5  O   UNL A   1      34.397  21.669  27.262  1.00  0.00    -0.269 OA
ATOM      6  H   UNL A   1      36.662  21.570  27.072  1.00  0.00     0.163 HD
BRANCH   4   7
ATOM      7  C   UNL A   1      34.180  23.073  25.406  1.00  0.00     0.081 A 
ATOM      8  C   UNL A   1      32.483  21.679  23.831  1.00  0.00     0.088 C 
ATOM      9  C   UNL A   1      33.206  22.812  24.444  1.00  0.00     0.114 A 
ATOM     10  O   UNL A   1      32.844  23.971  23.822  1.00  0.00    -0.460 OA
ATOM     11  C   UNL A   1      33.649  24.965  24.251  1.00  0.00     0.159 A 
ATOM     12  C   UNL A   1      34.430  24.492  25.272  1.00  0.00     0.066 A 
BRANCH  11  13
ATOM     13  C   UNL A   1      33.593  26.250  23.496  1.00  0.00     0.338 C 
BRANCH  13  14
ATOM     14  N   UNL A   1      32.921  27.349  24.206  1.00  0.00    -0.328 N 
ATOM     15  C   UNL A   1      32.212  26.945  25.421  1.00  0.00     0.266 C 
ATOM     16  C   UNL A   1      33.784  28.491  24.534  1.00  0.00     0.266 C 
ATOM     17  H   UNL A   1      32.237  27.649  23.509  1.00  0.00     0.348 HD
ATOM     18  C   UNL A   1      32.023  28.264  26.164  1.00  0.00     0.049 C 
ATOM     19  C   UNL A   1      33.353  28.990  25.923  1.00  0.00     0.049 C 
ATOM     20  C   UNL A   1      31.620  28.059  27.618  1.00  0.00     0.014 C 
ATOM     21  C   UNL A   1      34.426  28.710  26.976  1.00  0.00     0.014 C 
ENDBRANCH  13  14
ENDBRANCH  11  13
ENDBRANCH   4   7
ENDBRANCH   2   3
ENDBRANCH   1   2
BRANCH   1  22
ATOM     22  C   UNL A   1      39.240  23.572  26.859  1.00  0.00     0.118 C 
BRANCH  22  23
ATOM     23  N   UNL A   1      40.469  23.899  26.146  1.00  0.00    -0.352 N 
ATOM     24  C   UNL A   1      41.264  25.008  26.231  1.00  0.00     0.251 C 
ATOM     25  H   UNL A   1      40.772  23.217  25.504  1.00  0.00     0.163 HD
ATOM     26  O   UNL A   1      42.098  25.214  25.343  1.00  0.00    -0.269 OA
BRANCH  24  27
ATOM     27  C   UNL A   1      41.137  25.949  27.360  1.00  0.00     0.039 A 
ATOM     28  C   UNL A   1      41.978  27.065  27.408  1.00  0.00     0.014 A 
ATOM     29  C   UNL A   1      40.229  25.712  28.397  1.00  0.00     0.014 A 
ATOM     30  C   UNL A   1      41.879  27.961  28.472  1.00  0.00     0.010 A 
ATOM     31  C   UNL A   1      40.077  26.649  29.414  1.00  0.00     0.010 A 
ATOM     32  C   UNL A   1      40.908  27.775  29.470  1.00  0.00    -0.014 A 
BRANCH  32  33
ATOM     33  C   UNL A   1      40.758  28.742  30.584  1.00  0.00     0.031 A 
ATOM     34  C   UNL A   1      41.615  28.616  31.814  1.00  0.00     0.074 A 
ATOM     35  C   UNL A   1      39.806  29.693  30.509  1.00  0.00     0.049 A 
ATOM     36  N   UNL A   1      41.585  29.319  32.916  1.00  0.00    -0.248 NA
ATOM     37  C   UNL A   1      42.618  27.539  31.818  1.00  0.00     0.031 C 
ATOM     38  C   UNL A   1      38.882  29.878  29.387  1.00  0.00     0.029 A 
ATOM     39  N   UNL A   1      39.449  30.676  31.396  1.00  0.00    -0.354 N 
ATOM     40  C   UNL A   1      42.551  28.763  33.748  1.00  0.00     0.074 A 
ATOM     41  C   UNL A   1      43.109  27.628  33.046  1.00  0.00     0.031 C 
ATOM     42  C   UNL A   1      38.082  30.925  29.643  1.00  0.00     0.029 A 
ATOM     43  C   UNL A   1      38.406  31.459  30.961  1.00  0.00     0.049 A 
ATOM     44  H   UNL A   1      39.898  30.809  32.262  1.00  0.00     0.167 HD
ATOM     45  C   UNL A   1      42.951  29.175  34.974  1.00  0.00     0.037 A 
ATOM     46  C   UNL A   1      37.776  32.487  31.561  1.00  0.00     0.037 A 
ATOM     47  C   UNL A   1      42.402  30.322  35.650  1.00  0.00     0.049 A 
ATOM     48  C   UNL A   1      38.242  32.930  32.921  1.00  0.00     0.074 A 
ATOM     49  C   UNL A   1      42.776  30.862  36.869  1.00  0.00     0.029 A 
ATOM     50  N   UNL A   1      41.364  31.106  35.168  1.00  0.00    -0.354 N 
ATOM     51  N   UNL A   1      39.200  32.433  33.667  1.00  0.00    -0.248 NA
ATOM     52  C   UNL A   1      37.548  34.078  33.519  1.00  0.00     0.031 C 
ATOM     53  C   UNL A   1      41.931  31.943  37.145  1.00  0.00     0.029 A 
ATOM     54  C   UNL A   1      41.069  32.111  36.073  1.00  0.00     0.049 A 
ATOM     55  H   UNL A   1      40.905  30.967  34.308  1.00  0.00     0.167 HD
ATOM     56  C   UNL A   1      39.242  33.223  34.809  1.00  0.00     0.074 A 
ATOM     57  C   UNL A   1      38.222  34.240  34.650  1.00  0.00     0.031 C 
ATOM     58  C   UNL A   1      40.052  33.119  35.892  1.00  0.00     0.037 A 
BRANCH  45  59
ATOM     59  C   UNL A   1      44.034  28.387  35.660  1.00  0.00     0.058 A 
ATOM     60  C   UNL A   1      43.735  27.337  36.544  1.00  0.00     0.135 A 
ATOM     61  C   UNL A   1      45.388  28.661  35.406  1.00  0.00     0.135 A 
ATOM     62  F   UNL A   1      42.459  27.041  36.836  1.00  0.00    -0.206 F 
ATOM     63  C   UNL A   1      44.739  26.609  37.176  1.00  0.00     0.059 A 
ATOM     64  C   UNL A   1      46.408  27.925  36.004  1.00  0.00     0.059 A 
ATOM     65  F   UNL A   1      45.732  29.653  34.571  1.00  0.00    -0.206 F 
ATOM     66  C   UNL A   1      46.072  26.910  36.898  1.00  0.00     0.060 A 
BRANCH  66  67
ATOM     67  S   UNL A   1      47.361  25.952  37.724  1.00  0.00     0.124 S 
ATOM     68  O   UNL A   1      46.903  24.587  37.491  1.00  0.00    -0.237 OA
ATOM     69  O   UNL A   1      48.561  26.350  36.993  1.00  0.00    -0.237 OA
ATOM     70  O   UNL A   1      47.292  26.409  39.107  1.00  0.00    -0.744 OA
ENDBRANCH  66  67
ENDBRANCH  45  59
BRANCH  46  71
ATOM     71  C   UNL A   1      36.657  33.178  30.868  1.00  0.00     0.058 A 
ATOM     72  C   UNL A   1      35.330  33.005  31.290  1.00  0.00     0.135 A 
ATOM     73  C   UNL A   1      36.890  34.040  29.785  1.00  0.00     0.135 A 
ATOM     74  F   UNL A   1      35.054  32.189  32.317  1.00  0.00    -0.206 F 
ATOM     75  C   UNL A   1      34.273  33.648  30.652  1.00  0.00     0.059 A 
ATOM     76  C   UNL A   1      35.854  34.715  29.150  1.00  0.00     0.059 A 
ATOM     77  F   UNL A   1      38.144  34.256  29.356  1.00  0.00    -0.206 F 
ATOM     78  C   UNL A   1      34.546  34.503  29.584  1.00  0.00     0.060 A 
BRANCH  78  79
ATOM     79  S   UNL A   1      33.170  35.368  28.795  1.00  0.00     0.124 S 
ATOM     80  O   UNL A   1      33.871  36.365  27.994  1.00  0.00    -0.237 OA
ATOM     81  O   UNL A   1      32.519  34.294  28.052  1.00  0.00    -0.237 OA
ATOM     82  O   UNL A   1      32.409  35.888  29.927  1.00  0.00    -0.744 OA
ENDBRANCH  78  79
ENDBRANCH  46  71
BRANCH  58  83
ATOM     83  C   UNL A   1      39.893  34.151  36.975  1.00  0.00     0.058 A 
ATOM     84  C   UNL A   1      40.452  35.432  36.862  1.00  0.00     0.135 A 
ATOM     85  C   UNL A   1      39.127  33.867  38.118  1.00  0.00     0.135 A 
ATOM     86  F   UNL A   1      41.198  35.753  35.793  1.00  0.00    -0.206 F 
ATOM     87  C   UNL A   1      40.280  36.389  37.857  1.00  0.00     0.059 A 
ATOM     88  C   UNL A   1      38.917  34.817  39.111  1.00  0.00     0.059 A 
ATOM     89  F   UNL A   1      38.561  32.659  38.269  1.00  0.00    -0.206 F 
ATOM     90  C   UNL A   1      39.509  36.072  38.977  1.00  0.00     0.060 A 
BRANCH  90  91
ATOM     91  S   UNL A   1      39.268  37.334  40.246  1.00  0.00     0.124 S 
ATOM     92  O   UNL A   1      38.554  36.583  41.273  1.00  0.00    -0.237 OA
ATOM     93  O   UNL A   1      40.639  37.713  40.573  1.00  0.00    -0.237 OA
ATOM     94  O   UNL A   1      38.486  38.359  39.561  1.00  0.00    -0.744 OA
ENDBRANCH  90  91
ENDBRANCH  58  83
ENDBRANCH  32  33
ENDBRANCH  24  27
ENDBRANCH  22  23
ENDBRANCH   1  22
TORSDOF 15
ENDMDL
