MODEL 1
REMARK VINA RESULT:     -13.7      0.000      0.000
REMARK SMILES Cc1ccc(OCC(=O)NC(=S)Nc2ccc(C(=O)NCCCNC(=O)c3ccc(-c4c5nc(c(-c6c(F)cc(S(=O)(=O)[O-])cc6F)c6ccc([nH]6)c(-c6c(F)cc(S(=O)(=O)[O-])cc6F)c6nc(c(-c7c(F)cc(S(=O)(=O)[O-])cc7F)c7ccc4[nH]7)C=C6)C=C5)cc3)cc2)cc1
REMARK SMILES IDX 18 1 19 2 20 3 17 5 14 6 15 7 94 8 16 9 93 10 13 11 11 13
REMARK SMILES IDX 12 14 10 15 8 16 9 17 7 19 6 20 5 21 1 22 2 23 3 24 96 25
REMARK SMILES IDX 4 26 95 27 21 28 22 29 23 30 24 31 25 32 26 34 27 35 28 36
REMARK SMILES IDX 92 37 29 38 91 39 30 40 31 41 32 42 85 43 33 44 90 45 84 46
REMARK SMILES IDX 86 47 34 48 89 49 83 50 82 51 35 53 69 54 48 55 68 56 49 57
REMARK SMILES IDX 52 58 67 59 87 60 50 61 51 62 66 64 88 65 53 66 36 67 37 68
REMARK SMILES IDX 46 69 38 70 39 71 45 72 47 73 40 74 41 75 42 76 43 77 44 78
REMARK SMILES IDX 70 79 71 80 80 81 72 82 73 83 79 84 81 85 74 86 75 87 76 88
REMARK SMILES IDX 77 89 78 90 54 91 55 92 64 93 56 94 57 95 63 96 65 97 58 98
REMARK SMILES IDX 59 99 60 100 61 101 62 102
REMARK H PARENT 20 4 13 12 10 18 24 33 86 52 52 63
REMARK Flexibility Score: inf
ROOT
ATOM      1  C   UNL A   1      33.444  28.658  24.494  1.00  0.00     0.251 C 
ATOM      2  O   UNL A   1      34.005  28.567  23.408  1.00  0.00    -0.269 OA
ATOM      3  N   UNL A   1      33.108  29.879  25.030  1.00  0.00    -0.352 N 
ATOM      4  H   UNL A   1      33.482  30.663  24.567  1.00  0.00     0.163 HD
ENDROOT
BRANCH   1   5
ATOM      5  C   UNL A   1      33.095  27.423  25.222  1.00  0.00     0.039 A 
ATOM      6  C   UNL A   1      32.375  25.015  26.405  1.00  0.00     0.040 A 
ATOM      7  C   UNL A   1      31.524  26.117  26.502  1.00  0.00     0.027 A 
ATOM      8  C   UNL A   1      33.642  25.148  25.830  1.00  0.00     0.027 A 
ATOM      9  C   UNL A   1      31.868  27.314  25.878  1.00  0.00     0.016 A 
ATOM     10  C   UNL A   1      34.015  26.369  25.259  1.00  0.00     0.016 A 
BRANCH   6  11
ATOM     11  N   UNL A   1      31.895  23.798  26.902  1.00  0.00    -0.332 N 
ATOM     12  H   UNL A   1      30.982  23.825  27.266  1.00  0.00     0.169 HD
BRANCH  11  13
ATOM     13  C   UNL A   1      32.500  22.596  26.952  1.00  0.00     0.177 C 
ATOM     14  S   UNL A   1      33.708  22.347  28.086  1.00  0.00    -0.040 S 
BRANCH  13  15
ATOM     15  N   UNL A   1      32.136  21.537  26.160  1.00  0.00    -0.300 N 
ATOM     16  C   UNL A   1      32.472  20.940  24.953  1.00  0.00     0.264 C 
ATOM     17  O   UNL A   1      31.929  19.853  24.709  1.00  0.00    -0.271 OA
ATOM     18  H   UNL A   1      31.398  21.042  26.585  1.00  0.00     0.172 HD
BRANCH  16  19
ATOM     19  C   UNL A   1      33.421  21.575  23.938  1.00  0.00     0.329 C 
BRANCH  19  20
ATOM     20  O   UNL A   1      32.751  21.993  22.759  1.00  0.00    -0.484 OA
BRANCH  20  21
ATOM     21  C   UNL A   1      32.361  23.302  22.672  1.00  0.00     0.120 A 
ATOM     22  C   UNL A   1      30.642  27.266  22.462  1.00  0.00     0.044 C 
ATOM     23  C   UNL A   1      31.239  25.891  22.534  1.00  0.00    -0.051 A 
ATOM     24  C   UNL A   1      30.567  24.861  23.196  1.00  0.00     0.007 A 
ATOM     25  C   UNL A   1      32.481  25.618  21.953  1.00  0.00     0.007 A 
ATOM     26  C   UNL A   1      31.120  23.578  23.252  1.00  0.00     0.047 A 
ATOM     27  C   UNL A   1      33.043  24.333  22.027  1.00  0.00     0.047 A 
ENDBRANCH  20  21
ENDBRANCH  19  20
ENDBRANCH  16  19
ENDBRANCH  13  15
ENDBRANCH  11  13
ENDBRANCH   6  11
ENDBRANCH   1   5
BRANCH   3  28
ATOM     28  C   UNL A   1      32.271  30.175  26.192  1.00  0.00     0.118 C 
BRANCH  28  29
ATOM     29  C   UNL A   1      32.986  31.049  27.216  1.00  0.00     0.042 C 
BRANCH  29  30
ATOM     30  C   UNL A   1      34.321  30.481  27.685  1.00  0.00     0.118 C 
BRANCH  30  31
ATOM     31  N   UNL A   1      35.030  31.373  28.609  1.00  0.00    -0.352 N 
ATOM     32  C   UNL A   1      36.133  31.096  29.394  1.00  0.00     0.251 C 
ATOM     33  H   UNL A   1      34.673  32.288  28.679  1.00  0.00     0.163 HD
ATOM     34  O   UNL A   1      36.590  31.883  30.217  1.00  0.00    -0.269 OA
BRANCH  32  35
ATOM     35  C   UNL A   1      36.835  29.832  29.113  1.00  0.00     0.039 A 
ATOM     36  C   UNL A   1      37.111  29.014  30.214  1.00  0.00     0.014 A 
ATOM     37  C   UNL A   1      37.536  29.712  27.917  1.00  0.00     0.014 A 
ATOM     38  C   UNL A   1      38.263  28.237  30.196  1.00  0.00     0.010 A 
ATOM     39  C   UNL A   1      38.730  29.018  27.941  1.00  0.00     0.010 A 
ATOM     40  C   UNL A   1      39.126  28.345  29.106  1.00  0.00    -0.014 A 
BRANCH  40  41
ATOM     41  C   UNL A   1      40.506  27.871  29.147  1.00  0.00     0.031 A 
ATOM     42  C   UNL A   1      40.817  26.497  28.706  1.00  0.00     0.074 A 
ATOM     43  C   UNL A   1      41.497  28.694  29.562  1.00  0.00     0.049 A 
ATOM     44  N   UNL A   1      41.894  25.856  29.007  1.00  0.00    -0.248 NA
ATOM     45  C   UNL A   1      39.881  25.709  27.914  1.00  0.00     0.031 C 
ATOM     46  C   UNL A   1      42.935  28.467  29.463  1.00  0.00     0.029 A 
ATOM     47  N   UNL A   1      41.377  29.820  30.389  1.00  0.00    -0.354 N 
ATOM     48  C   UNL A   1      41.907  24.681  28.292  1.00  0.00     0.074 A 
ATOM     49  C   UNL A   1      40.616  24.628  27.643  1.00  0.00     0.031 C 
ATOM     50  C   UNL A   1      43.551  29.202  30.402  1.00  0.00     0.029 A 
ATOM     51  C   UNL A   1      42.524  29.832  31.213  1.00  0.00     0.049 A 
ATOM     52  H   UNL A   1      40.640  30.472  30.394  1.00  0.00     0.167 HD
ATOM     53  C   UNL A   1      43.046  23.930  28.257  1.00  0.00     0.037 A 
ATOM     54  C   UNL A   1      42.399  29.689  32.565  1.00  0.00     0.037 A 
ATOM     55  C   UNL A   1      44.055  24.455  29.176  1.00  0.00     0.049 A 
ATOM     56  C   UNL A   1      42.977  28.401  33.118  1.00  0.00     0.074 A 
ATOM     57  C   UNL A   1      45.168  25.271  29.051  1.00  0.00     0.029 A 
ATOM     58  N   UNL A   1      43.792  24.387  30.532  1.00  0.00    -0.354 N 
ATOM     59  N   UNL A   1      43.568  27.485  32.396  1.00  0.00    -0.248 NA
ATOM     60  C   UNL A   1      42.886  28.013  34.527  1.00  0.00     0.031 C 
ATOM     61  C   UNL A   1      45.536  25.727  30.353  1.00  0.00     0.029 A 
ATOM     62  C   UNL A   1      44.657  25.176  31.266  1.00  0.00     0.049 A 
ATOM     63  H   UNL A   1      43.074  23.842  30.927  1.00  0.00     0.167 HD
ATOM     64  C   UNL A   1      43.891  26.412  33.186  1.00  0.00     0.074 A 
ATOM     65  C   UNL A   1      43.458  26.797  34.517  1.00  0.00     0.031 C 
ATOM     66  C   UNL A   1      44.457  25.268  32.704  1.00  0.00     0.037 A 
BRANCH  53  67
ATOM     67  C   UNL A   1      43.297  22.858  27.221  1.00  0.00     0.058 A 
ATOM     68  C   UNL A   1      42.549  21.662  27.228  1.00  0.00     0.135 A 
ATOM     69  C   UNL A   1      44.312  22.910  26.245  1.00  0.00     0.135 A 
ATOM     70  F   UNL A   1      41.483  21.509  28.026  1.00  0.00    -0.206 F 
ATOM     71  C   UNL A   1      42.872  20.560  26.430  1.00  0.00     0.059 A 
ATOM     72  C   UNL A   1      44.701  21.800  25.487  1.00  0.00     0.059 A 
ATOM     73  F   UNL A   1      44.938  24.058  25.953  1.00  0.00    -0.206 F 
ATOM     74  C   UNL A   1      43.980  20.621  25.596  1.00  0.00     0.060 A 
BRANCH  74  75
ATOM     75  S   UNL A   1      44.464  19.151  24.671  1.00  0.00     0.124 S 
ATOM     76  O   UNL A   1      43.430  18.192  25.051  1.00  0.00    -0.237 OA
ATOM     77  O   UNL A   1      44.413  19.630  23.295  1.00  0.00    -0.237 OA
ATOM     78  O   UNL A   1      45.798  18.852  25.183  1.00  0.00    -0.744 OA
ENDBRANCH  74  75
ENDBRANCH  53  67
BRANCH  54  79
ATOM     79  C   UNL A   1      41.268  30.486  33.116  1.00  0.00     0.058 A 
ATOM     80  C   UNL A   1      40.091  29.785  33.450  1.00  0.00     0.135 A 
ATOM     81  C   UNL A   1      41.451  31.745  33.699  1.00  0.00     0.135 A 
ATOM     82  F   UNL A   1      39.847  28.584  32.898  1.00  0.00    -0.206 F 
ATOM     83  C   UNL A   1      39.221  30.231  34.440  1.00  0.00     0.059 A 
ATOM     84  C   UNL A   1      40.590  32.214  34.697  1.00  0.00     0.059 A 
ATOM     85  F   UNL A   1      42.536  32.474  33.399  1.00  0.00    -0.206 F 
ATOM     86  C   UNL A   1      39.522  31.414  35.110  1.00  0.00     0.060 A 
BRANCH  86  87
ATOM     87  S   UNL A   1      38.552  31.828  36.581  1.00  0.00     0.124 S 
ATOM     88  O   UNL A   1      37.854  30.576  36.856  1.00  0.00    -0.237 OA
ATOM     89  O   UNL A   1      39.594  32.183  37.544  1.00  0.00    -0.237 OA
ATOM     90  O   UNL A   1      37.712  32.929  36.125  1.00  0.00    -0.744 OA
ENDBRANCH  86  87
ENDBRANCH  54  79
BRANCH  66  91
ATOM     91  C   UNL A   1      44.862  24.117  33.579  1.00  0.00     0.058 A 
ATOM     92  C   UNL A   1      46.206  23.849  33.887  1.00  0.00     0.135 A 
ATOM     93  C   UNL A   1      43.918  23.164  34.021  1.00  0.00     0.135 A 
ATOM     94  F   UNL A   1      47.178  24.675  33.472  1.00  0.00    -0.206 F 
ATOM     95  C   UNL A   1      46.588  22.723  34.618  1.00  0.00     0.059 A 
ATOM     96  C   UNL A   1      44.281  22.011  34.709  1.00  0.00     0.059 A 
ATOM     97  F   UNL A   1      42.604  23.345  33.824  1.00  0.00    -0.206 F 
ATOM     98  C   UNL A   1      45.618  21.808  35.023  1.00  0.00     0.060 A 
BRANCH  98  99
ATOM     99  S   UNL A   1      46.103  20.340  35.951  1.00  0.00     0.124 S 
ATOM    100  O   UNL A   1      45.304  19.287  35.330  1.00  0.00    -0.237 OA
ATOM    101  O   UNL A   1      47.535  20.289  35.680  1.00  0.00    -0.237 OA
ATOM    102  O   UNL A   1      45.731  20.672  37.323  1.00  0.00    -0.744 OA
ENDBRANCH  98  99
ENDBRANCH  66  91
ENDBRANCH  40  41
ENDBRANCH  32  35
ENDBRANCH  30  31
ENDBRANCH  29  30
ENDBRANCH  28  29
ENDBRANCH   3  28
TORSDOF 19
ENDMDL
MODEL 2
REMARK VINA RESULT:     -13.5      1.056      2.293
REMARK SMILES Cc1ccc(OCC(=O)NC(=S)Nc2ccc(C(=O)NCCCNC(=O)c3ccc(-c4c5nc(c(-c6c(F)cc(S(=O)(=O)[O-])cc6F)c6ccc([nH]6)c(-c6c(F)cc(S(=O)(=O)[O-])cc6F)c6nc(c(-c7c(F)cc(S(=O)(=O)[O-])cc7F)c7ccc4[nH]7)C=C6)C=C5)cc3)cc2)cc1
REMARK SMILES IDX 18 1 19 2 20 3 17 5 14 6 15 7 94 8 16 9 93 10 13 11 11 13
REMARK SMILES IDX 12 14 10 15 8 16 9 17 7 19 6 20 5 21 1 22 2 23 3 24 96 25
REMARK SMILES IDX 4 26 95 27 21 28 22 29 23 30 24 31 25 32 26 34 27 35 28 36
REMARK SMILES IDX 92 37 29 38 91 39 30 40 31 41 32 42 85 43 33 44 90 45 84 46
REMARK SMILES IDX 86 47 34 48 89 49 83 50 82 51 35 53 69 54 48 55 68 56 49 57
REMARK SMILES IDX 52 58 67 59 87 60 50 61 51 62 66 64 88 65 53 66 36 67 37 68
REMARK SMILES IDX 46 69 38 70 39 71 45 72 47 73 40 74 41 75 42 76 43 77 44 78
REMARK SMILES IDX 70 79 71 80 80 81 72 82 73 83 79 84 81 85 74 86 75 87 76 88
REMARK SMILES IDX 77 89 78 90 54 91 55 92 64 93 56 94 57 95 63 96 65 97 58 98
REMARK SMILES IDX 59 99 60 100 61 101 62 102
REMARK H PARENT 20 4 13 12 10 18 24 33 86 52 52 63
REMARK Flexibility Score: inf
ROOT
ATOM      1  C   UNL A   1      32.266  28.670  24.302  1.00  0.00     0.251 C 
ATOM      2  O   UNL A   1      32.313  28.642  23.077  1.00  0.00    -0.269 OA
ATOM      3  N   UNL A   1      32.419  29.844  25.001  1.00  0.00    -0.352 N 
ATOM      4  H   UNL A   1      32.720  30.618  24.470  1.00  0.00     0.163 HD
ENDROOT
BRANCH   1   5
ATOM      5  C   UNL A   1      32.006  27.415  25.035  1.00  0.00     0.039 A 
ATOM      6  C   UNL A   1      31.554  24.949  26.230  1.00  0.00     0.040 A 
ATOM      7  C   UNL A   1      30.472  25.751  25.862  1.00  0.00     0.027 A 
ATOM      8  C   UNL A   1      32.861  25.432  26.121  1.00  0.00     0.027 A 
ATOM      9  C   UNL A   1      30.698  26.971  25.229  1.00  0.00     0.016 A 
ATOM     10  C   UNL A   1      33.086  26.686  25.545  1.00  0.00     0.016 A 
BRANCH   6  11
ATOM     11  N   UNL A   1      31.260  23.665  26.700  1.00  0.00    -0.332 N 
ATOM     12  H   UNL A   1      30.333  23.530  27.000  1.00  0.00     0.169 HD
BRANCH  11  13
ATOM     13  C   UNL A   1      32.060  22.586  26.801  1.00  0.00     0.177 C 
ATOM     14  S   UNL A   1      33.239  22.563  27.991  1.00  0.00    -0.040 S 
BRANCH  13  15
ATOM     15  N   UNL A   1      31.921  21.471  26.014  1.00  0.00    -0.300 N 
ATOM     16  C   UNL A   1      32.349  20.962  24.795  1.00  0.00     0.264 C 
ATOM     17  O   UNL A   1      32.058  19.781  24.561  1.00  0.00    -0.271 OA
ATOM     18  H   UNL A   1      31.326  20.823  26.456  1.00  0.00     0.172 HD
BRANCH  16  19
ATOM     19  C   UNL A   1      33.102  21.793  23.758  1.00  0.00     0.329 C 
BRANCH  19  20
ATOM     20  O   UNL A   1      33.928  22.782  24.352  1.00  0.00    -0.484 OA
BRANCH  20  21
ATOM     21  C   UNL A   1      35.181  22.411  24.760  1.00  0.00     0.120 A 
ATOM     22  C   UNL A   1      39.270  21.745  26.004  1.00  0.00     0.044 C 
ATOM     23  C   UNL A   1      37.851  21.975  25.571  1.00  0.00    -0.051 A 
ATOM     24  C   UNL A   1      37.261  23.232  25.721  1.00  0.00     0.007 A 
ATOM     25  C   UNL A   1      37.091  20.937  25.024  1.00  0.00     0.007 A 
ATOM     26  C   UNL A   1      35.942  23.447  25.308  1.00  0.00     0.047 A 
ATOM     27  C   UNL A   1      35.762  21.150  24.626  1.00  0.00     0.047 A 
ENDBRANCH  20  21
ENDBRANCH  19  20
ENDBRANCH  16  19
ENDBRANCH  13  15
ENDBRANCH  11  13
ENDBRANCH   6  11
ENDBRANCH   1   5
BRANCH   3  28
ATOM     28  C   UNL A   1      32.197  30.105  26.423  1.00  0.00     0.118 C 
BRANCH  28  29
ATOM     29  C   UNL A   1      33.231  31.058  27.009  1.00  0.00     0.042 C 
BRANCH  29  30
ATOM     30  C   UNL A   1      34.353  30.357  27.769  1.00  0.00     0.118 C 
BRANCH  30  31
ATOM     31  N   UNL A   1      35.083  31.255  28.669  1.00  0.00    -0.352 N 
ATOM     32  C   UNL A   1      36.241  31.003  29.380  1.00  0.00     0.251 C 
ATOM     33  H   UNL A   1      34.699  32.154  28.781  1.00  0.00     0.163 HD
ATOM     34  O   UNL A   1      36.718  31.790  30.192  1.00  0.00    -0.269 OA
BRANCH  32  35
ATOM     35  C   UNL A   1      36.970  29.772  29.029  1.00  0.00     0.039 A 
ATOM     36  C   UNL A   1      37.228  28.880  30.075  1.00  0.00     0.014 A 
ATOM     37  C   UNL A   1      37.706  29.749  27.848  1.00  0.00     0.014 A 
ATOM     38  C   UNL A   1      38.391  28.122  30.035  1.00  0.00     0.010 A 
ATOM     39  C   UNL A   1      38.909  29.071  27.857  1.00  0.00     0.010 A 
ATOM     40  C   UNL A   1      39.283  28.321  28.981  1.00  0.00    -0.014 A 
BRANCH  40  41
ATOM     41  C   UNL A   1      40.669  27.863  29.027  1.00  0.00     0.031 A 
ATOM     42  C   UNL A   1      41.004  26.509  28.545  1.00  0.00     0.074 A 
ATOM     43  C   UNL A   1      41.641  28.684  29.485  1.00  0.00     0.049 A 
ATOM     44  N   UNL A   1      42.085  25.872  28.842  1.00  0.00    -0.248 NA
ATOM     45  C   UNL A   1      40.091  25.736  27.713  1.00  0.00     0.031 C 
ATOM     46  C   UNL A   1      43.084  28.480  29.401  1.00  0.00     0.029 A 
ATOM     47  N   UNL A   1      41.494  29.780  30.347  1.00  0.00    -0.354 N 
ATOM     48  C   UNL A   1      42.124  24.722  28.088  1.00  0.00     0.074 A 
ATOM     49  C   UNL A   1      40.845  24.674  27.418  1.00  0.00     0.031 C 
ATOM     50  C   UNL A   1      43.676  29.190  30.373  1.00  0.00     0.029 A 
ATOM     51  C   UNL A   1      42.629  29.779  31.189  1.00  0.00     0.049 A 
ATOM     52  H   UNL A   1      40.748  30.423  30.363  1.00  0.00     0.167 HD
ATOM     53  C   UNL A   1      43.273  23.988  28.046  1.00  0.00     0.037 A 
ATOM     54  C   UNL A   1      42.485  29.590  32.533  1.00  0.00     0.037 A 
ATOM     55  C   UNL A   1      44.262  24.494  28.997  1.00  0.00     0.049 A 
ATOM     56  C   UNL A   1      43.071  28.291  33.052  1.00  0.00     0.074 A 
ATOM     57  C   UNL A   1      45.365  25.327  28.917  1.00  0.00     0.029 A 
ATOM     58  N   UNL A   1      43.980  24.377  30.346  1.00  0.00    -0.354 N 
ATOM     59  N   UNL A   1      43.686  27.407  32.309  1.00  0.00    -0.248 NA
ATOM     60  C   UNL A   1      42.964  27.855  34.446  1.00  0.00     0.031 C 
ATOM     61  C   UNL A   1      45.707  25.744  30.240  1.00  0.00     0.029 A 
ATOM     62  C   UNL A   1      44.822  25.152  31.120  1.00  0.00     0.049 A 
ATOM     63  H   UNL A   1      43.262  23.810  30.712  1.00  0.00     0.167 HD
ATOM     64  C   UNL A   1      44.011  26.313  33.068  1.00  0.00     0.074 A 
ATOM     65  C   UNL A   1      43.553  26.647  34.404  1.00  0.00     0.031 C 
ATOM     66  C   UNL A   1      44.600  25.193  32.556  1.00  0.00     0.037 A 
BRANCH  53  67
ATOM     67  C   UNL A   1      43.555  22.954  26.979  1.00  0.00     0.058 A 
ATOM     68  C   UNL A   1      42.897  21.706  26.995  1.00  0.00     0.135 A 
ATOM     69  C   UNL A   1      44.518  23.096  25.960  1.00  0.00     0.135 A 
ATOM     70  F   UNL A   1      41.882  21.462  27.837  1.00  0.00    -0.206 F 
ATOM     71  C   UNL A   1      43.262  20.645  26.162  1.00  0.00     0.059 A 
ATOM     72  C   UNL A   1      44.951  22.031  25.164  1.00  0.00     0.059 A 
ATOM     73  F   UNL A   1      45.045  24.292  25.664  1.00  0.00    -0.206 F 
ATOM     74  C   UNL A   1      44.324  20.800  25.282  1.00  0.00     0.060 A 
BRANCH  74  75
ATOM     75  S   UNL A   1      44.870  19.386  24.307  1.00  0.00     0.124 S 
ATOM     76  O   UNL A   1      46.319  19.423  24.492  1.00  0.00    -0.237 OA
ATOM     77  O   UNL A   1      44.174  18.283  24.957  1.00  0.00    -0.237 OA
ATOM     78  O   UNL A   1      44.415  19.708  22.958  1.00  0.00    -0.744 OA
ENDBRANCH  74  75
ENDBRANCH  53  67
BRANCH  54  79
ATOM     79  C   UNL A   1      41.335  30.353  33.093  1.00  0.00     0.058 A 
ATOM     80  C   UNL A   1      40.155  29.630  33.363  1.00  0.00     0.135 A 
ATOM     81  C   UNL A   1      41.495  31.584  33.739  1.00  0.00     0.135 A 
ATOM     82  F   UNL A   1      39.933  28.456  32.750  1.00  0.00    -0.206 F 
ATOM     83  C   UNL A   1      39.258  30.024  34.352  1.00  0.00     0.059 A 
ATOM     84  C   UNL A   1      40.606  32.000  34.737  1.00  0.00     0.059 A 
ATOM     85  F   UNL A   1      42.582  32.333  33.502  1.00  0.00    -0.206 F 
ATOM     86  C   UNL A   1      39.533  31.175  35.084  1.00  0.00     0.060 A 
BRANCH  86  87
ATOM     87  S   UNL A   1      38.525  31.513  36.549  1.00  0.00     0.124 S 
ATOM     88  O   UNL A   1      37.483  32.383  36.014  1.00  0.00    -0.237 OA
ATOM     89  O   UNL A   1      38.081  30.173  36.931  1.00  0.00    -0.237 OA
ATOM     90  O   UNL A   1      39.469  32.149  37.461  1.00  0.00    -0.744 OA
ENDBRANCH  86  87
ENDBRANCH  54  79
BRANCH  66  91
ATOM     91  C   UNL A   1      45.006  24.018  33.399  1.00  0.00     0.058 A 
ATOM     92  C   UNL A   1      44.066  23.123  33.934  1.00  0.00     0.135 A 
ATOM     93  C   UNL A   1      46.344  23.838  33.810  1.00  0.00     0.135 A 
ATOM     94  F   UNL A   1      42.763  23.241  33.634  1.00  0.00    -0.206 F 
ATOM     95  C   UNL A   1      44.435  22.090  34.797  1.00  0.00     0.059 A 
ATOM     96  C   UNL A   1      46.728  22.847  34.707  1.00  0.00     0.059 A 
ATOM     97  F   UNL A   1      47.331  24.607  33.324  1.00  0.00    -0.206 F 
ATOM     98  C   UNL A   1      45.769  21.961  35.179  1.00  0.00     0.060 A 
BRANCH  98  99
ATOM     99  S   UNL A   1      46.253  20.642  36.310  1.00  0.00     0.124 S 
ATOM    100  O   UNL A   1      45.644  21.058  37.571  1.00  0.00    -0.237 OA
ATOM    101  O   UNL A   1      45.649  19.478  35.671  1.00  0.00    -0.237 OA
ATOM    102  O   UNL A   1      47.711  20.693  36.280  1.00  0.00    -0.744 OA
ENDBRANCH  98  99
ENDBRANCH  66  91
ENDBRANCH  40  41
ENDBRANCH  32  35
ENDBRANCH  30  31
ENDBRANCH  29  30
ENDBRANCH  28  29
ENDBRANCH   3  28
TORSDOF 19
ENDMDL
MODEL 3
REMARK VINA RESULT:     -13.2      4.904     11.251
REMARK SMILES Cc1ccc(OCC(=O)NC(=S)Nc2ccc(C(=O)NCCCNC(=O)c3ccc(-c4c5nc(c(-c6c(F)cc(S(=O)(=O)[O-])cc6F)c6ccc([nH]6)c(-c6c(F)cc(S(=O)(=O)[O-])cc6F)c6nc(c(-c7c(F)cc(S(=O)(=O)[O-])cc7F)c7ccc4[nH]7)C=C6)C=C5)cc3)cc2)cc1
REMARK SMILES IDX 18 1 19 2 20 3 17 5 14 6 15 7 94 8 16 9 93 10 13 11 11 13
REMARK SMILES IDX 12 14 10 15 8 16 9 17 7 19 6 20 5 21 1 22 2 23 3 24 96 25
REMARK SMILES IDX 4 26 95 27 21 28 22 29 23 30 24 31 25 32 26 34 27 35 28 36
REMARK SMILES IDX 92 37 29 38 91 39 30 40 31 41 32 42 85 43 33 44 90 45 84 46
REMARK SMILES IDX 86 47 34 48 89 49 83 50 82 51 35 53 69 54 48 55 68 56 49 57
REMARK SMILES IDX 52 58 67 59 87 60 50 61 51 62 66 64 88 65 53 66 36 67 37 68
REMARK SMILES IDX 46 69 38 70 39 71 45 72 47 73 40 74 41 75 42 76 43 77 44 78
REMARK SMILES IDX 70 79 71 80 80 81 72 82 73 83 79 84 81 85 74 86 75 87 76 88
REMARK SMILES IDX 77 89 78 90 54 91 55 92 64 93 56 94 57 95 63 96 65 97 58 98
REMARK SMILES IDX 59 99 60 100 61 101 62 102
REMARK H PARENT 20 4 13 12 10 18 24 33 86 52 52 63
REMARK Flexibility Score: inf
ROOT
ATOM      1  C   UNL A   1      34.431  21.764  26.806  1.00  0.00     0.251 C 
ATOM      2  O   UNL A   1      33.766  21.046  27.545  1.00  0.00    -0.269 OA
ATOM      3  N   UNL A   1      35.611  21.328  26.250  1.00  0.00    -0.352 N 
ATOM      4  H   UNL A   1      35.958  20.478  26.605  1.00  0.00     0.163 HD
ENDROOT
BRANCH   1   5
ATOM      5  C   UNL A   1      33.929  23.114  26.485  1.00  0.00     0.039 A 
ATOM      6  C   UNL A   1      33.077  25.724  26.062  1.00  0.00     0.040 A 
ATOM      7  C   UNL A   1      32.184  24.775  26.561  1.00  0.00     0.027 A 
ATOM      8  C   UNL A   1      34.358  25.343  25.651  1.00  0.00     0.027 A 
ATOM      9  C   UNL A   1      32.621  23.475  26.808  1.00  0.00     0.016 A 
ATOM     10  C   UNL A   1      34.776  24.022  25.838  1.00  0.00     0.016 A 
BRANCH   6  11
ATOM     11  N   UNL A   1      32.627  27.047  26.000  1.00  0.00    -0.332 N 
ATOM     12  H   UNL A   1      31.679  27.179  26.230  1.00  0.00     0.169 HD
BRANCH  11  13
ATOM     13  C   UNL A   1      33.301  28.167  25.674  1.00  0.00     0.177 C 
ATOM     14  S   UNL A   1      34.013  29.065  26.897  1.00  0.00    -0.040 S 
BRANCH  13  15
ATOM     15  N   UNL A   1      33.489  28.582  24.381  1.00  0.00    -0.300 N 
ATOM     16  C   UNL A   1      32.869  28.527  23.140  1.00  0.00     0.264 C 
ATOM     17  O   UNL A   1      33.378  29.214  22.242  1.00  0.00    -0.271 OA
ATOM     18  H   UNL A   1      34.336  29.079  24.310  1.00  0.00     0.172 HD
BRANCH  16  19
ATOM     19  C   UNL A   1      31.654  27.649  22.847  1.00  0.00     0.329 C 
BRANCH  19  20
ATOM     20  O   UNL A   1      31.950  26.602  21.938  1.00  0.00    -0.484 OA
BRANCH  20  21
ATOM     21  C   UNL A   1      31.982  25.322  22.422  1.00  0.00     0.120 A 
ATOM     22  C   UNL A   1      32.451  21.184  23.592  1.00  0.00     0.044 C 
ATOM     23  C   UNL A   1      32.287  22.619  23.186  1.00  0.00    -0.051 A 
ATOM     24  C   UNL A   1      33.326  23.296  22.543  1.00  0.00     0.007 A 
ATOM     25  C   UNL A   1      31.101  23.309  23.454  1.00  0.00     0.007 A 
ATOM     26  C   UNL A   1      33.167  24.630  22.156  1.00  0.00     0.047 A 
ATOM     27  C   UNL A   1      30.950  24.654  23.081  1.00  0.00     0.047 A 
ENDBRANCH  20  21
ENDBRANCH  19  20
ENDBRANCH  16  19
ENDBRANCH  13  15
ENDBRANCH  11  13
ENDBRANCH   6  11
ENDBRANCH   1   5
BRANCH   3  28
ATOM     28  C   UNL A   1      36.422  21.954  25.206  1.00  0.00     0.118 C 
BRANCH  28  29
ATOM     29  C   UNL A   1      37.911  21.930  25.533  1.00  0.00     0.042 C 
BRANCH  29  30
ATOM     30  C   UNL A   1      38.488  23.300  25.873  1.00  0.00     0.118 C 
BRANCH  30  31
ATOM     31  N   UNL A   1      39.848  23.230  26.416  1.00  0.00    -0.352 N 
ATOM     32  C   UNL A   1      40.628  24.257  26.914  1.00  0.00     0.251 C 
ATOM     33  H   UNL A   1      40.259  22.336  26.428  1.00  0.00     0.163 HD
ATOM     34  O   UNL A   1      41.799  24.111  27.250  1.00  0.00    -0.269 OA
BRANCH  32  35
ATOM     35  C   UNL A   1      39.947  25.542  27.149  1.00  0.00     0.039 A 
ATOM     36  C   UNL A   1      40.478  26.658  26.493  1.00  0.00     0.014 A 
ATOM     37  C   UNL A   1      39.136  25.669  28.273  1.00  0.00     0.014 A 
ATOM     38  C   UNL A   1      40.395  27.898  27.112  1.00  0.00     0.010 A 
ATOM     39  C   UNL A   1      39.143  26.882  28.933  1.00  0.00     0.010 A 
ATOM     40  C   UNL A   1      39.836  27.973  28.388  1.00  0.00    -0.014 A 
BRANCH  40  41
ATOM     41  C   UNL A   1      40.027  29.126  29.263  1.00  0.00     0.031 A 
ATOM     42  C   UNL A   1      38.980  30.165  29.337  1.00  0.00     0.074 A 
ATOM     43  C   UNL A   1      41.144  29.229  30.020  1.00  0.00     0.049 A 
ATOM     44  N   UNL A   1      39.164  31.360  29.780  1.00  0.00    -0.248 NA
ATOM     45  C   UNL A   1      37.626  29.933  28.850  1.00  0.00     0.031 C 
ATOM     46  C   UNL A   1      41.399  30.182  31.094  1.00  0.00     0.029 A 
ATOM     47  N   UNL A   1      42.386  28.620  29.791  1.00  0.00    -0.354 N 
ATOM     48  C   UNL A   1      37.940  31.984  29.849  1.00  0.00     0.074 A 
ATOM     49  C   UNL A   1      37.017  31.057  29.234  1.00  0.00     0.031 C 
ATOM     50  C   UNL A   1      42.726  30.323  31.237  1.00  0.00     0.029 A 
ATOM     51  C   UNL A   1      43.367  29.558  30.183  1.00  0.00     0.049 A 
ATOM     52  H   UNL A   1      42.543  27.718  29.429  1.00  0.00     0.167 HD
ATOM     53  C   UNL A   1      37.831  33.177  30.501  1.00  0.00     0.037 A 
ATOM     54  C   UNL A   1      44.232  30.072  29.259  1.00  0.00     0.037 A 
ATOM     55  C   UNL A   1      39.145  33.691  30.889  1.00  0.00     0.049 A 
ATOM     56  C   UNL A   1      44.050  31.553  28.983  1.00  0.00     0.074 A 
ATOM     57  C   UNL A   1      39.901  33.678  32.050  1.00  0.00     0.029 A 
ATOM     58  N   UNL A   1      40.013  34.073  29.882  1.00  0.00    -0.354 N 
ATOM     59  N   UNL A   1      43.163  32.313  29.571  1.00  0.00    -0.248 NA
ATOM     60  C   UNL A   1      44.821  32.288  27.978  1.00  0.00     0.031 C 
ATOM     61  C   UNL A   1      41.247  34.012  31.710  1.00  0.00     0.029 A 
ATOM     62  C   UNL A   1      41.302  34.242  30.348  1.00  0.00     0.049 A 
ATOM     63  H   UNL A   1      39.744  34.206  28.945  1.00  0.00     0.167 HD
ATOM     64  C   UNL A   1      43.203  33.571  29.030  1.00  0.00     0.074 A 
ATOM     65  C   UNL A   1      44.269  33.512  28.047  1.00  0.00     0.031 C 
ATOM     66  C   UNL A   1      42.347  34.570  29.391  1.00  0.00     0.037 A 
BRANCH  53  67
ATOM     67  C   UNL A   1      36.511  33.748  30.967  1.00  0.00     0.058 A 
ATOM     68  C   UNL A   1      35.546  34.182  30.034  1.00  0.00     0.135 A 
ATOM     69  C   UNL A   1      36.165  33.969  32.315  1.00  0.00     0.135 A 
ATOM     70  F   UNL A   1      35.685  33.943  28.722  1.00  0.00    -0.206 F 
ATOM     71  C   UNL A   1      34.403  34.898  30.402  1.00  0.00     0.059 A 
ATOM     72  C   UNL A   1      35.068  34.743  32.705  1.00  0.00     0.059 A 
ATOM     73  F   UNL A   1      36.855  33.398  33.312  1.00  0.00    -0.206 F 
ATOM     74  C   UNL A   1      34.196  35.217  31.737  1.00  0.00     0.060 A 
BRANCH  74  75
ATOM     75  S   UNL A   1      32.789  36.252  32.184  1.00  0.00     0.124 S 
ATOM     76  O   UNL A   1      32.577  37.028  30.966  1.00  0.00    -0.237 OA
ATOM     77  O   UNL A   1      31.769  35.258  32.493  1.00  0.00    -0.237 OA
ATOM     78  O   UNL A   1      33.283  37.020  33.324  1.00  0.00    -0.744 OA
ENDBRANCH  74  75
ENDBRANCH  53  67
BRANCH  54  79
ATOM     79  C   UNL A   1      44.748  29.032  28.327  1.00  0.00     0.058 A 
ATOM     80  C   UNL A   1      44.231  29.032  27.015  1.00  0.00     0.135 A 
ATOM     81  C   UNL A   1      45.966  28.376  28.536  1.00  0.00     0.135 A 
ATOM     82  F   UNL A   1      43.051  29.621  26.760  1.00  0.00    -0.206 F 
ATOM     83  C   UNL A   1      44.963  28.554  25.933  1.00  0.00     0.059 A 
ATOM     84  C   UNL A   1      46.720  27.888  27.463  1.00  0.00     0.059 A 
ATOM     85  F   UNL A   1      46.496  28.316  29.766  1.00  0.00    -0.206 F 
ATOM     86  C   UNL A   1      46.240  28.049  26.161  1.00  0.00     0.060 A 
BRANCH  86  87
ATOM     87  S   UNL A   1      47.288  27.706  24.725  1.00  0.00     0.124 S 
ATOM     88  O   UNL A   1      46.699  28.561  23.699  1.00  0.00    -0.237 OA
ATOM     89  O   UNL A   1      48.606  28.123  25.201  1.00  0.00    -0.237 OA
ATOM     90  O   UNL A   1      47.115  26.272  24.524  1.00  0.00    -0.744 OA
ENDBRANCH  86  87
ENDBRANCH  54  79
BRANCH  66  91
ATOM     91  C   UNL A   1      42.428  35.965  28.838  1.00  0.00     0.058 A 
ATOM     92  C   UNL A   1      41.859  36.312  27.602  1.00  0.00     0.135 A 
ATOM     93  C   UNL A   1      43.202  36.960  29.471  1.00  0.00     0.135 A 
ATOM     94  F   UNL A   1      41.142  35.416  26.905  1.00  0.00    -0.206 F 
ATOM     95  C   UNL A   1      42.021  37.581  27.043  1.00  0.00     0.059 A 
ATOM     96  C   UNL A   1      43.416  38.215  28.911  1.00  0.00     0.059 A 
ATOM     97  F   UNL A   1      43.751  36.753  30.678  1.00  0.00    -0.206 F 
ATOM     98  C   UNL A   1      42.802  38.526  27.705  1.00  0.00     0.060 A 
BRANCH  98  99
ATOM     99  S   UNL A   1      43.033  40.162  26.982  1.00  0.00     0.124 S 
ATOM    100  O   UNL A   1      41.775  40.381  26.272  1.00  0.00    -0.237 OA
ATOM    101  O   UNL A   1      43.234  40.978  28.174  1.00  0.00    -0.237 OA
ATOM    102  O   UNL A   1      44.204  39.990  26.129  1.00  0.00    -0.744 OA
ENDBRANCH  98  99
ENDBRANCH  66  91
ENDBRANCH  40  41
ENDBRANCH  32  35
ENDBRANCH  30  31
ENDBRANCH  29  30
ENDBRANCH  28  29
ENDBRANCH   3  28
TORSDOF 19
ENDMDL
