MODEL 1
REMARK VINA RESULT:     -10.9      0.000      0.000
REMARK SMILES CC1(C)S[C@@H](c2ccsc2)[NH2+][C@@H]1C(=O)NCCCNC(=O)c1ccc(-c2c3nc(c(-c4c(F)cc(S(=O)(=O)[O-])cc4F)c4ccc([nH]4)c(-c4c(F)cc(S(=O)(=O)[O-])cc4F)c4nc(c(-c5c(F)cc(S(=O)(=O)[O-])cc5F)c5ccc2[nH]5)C=C4)C=C3)cc1
REMARK SMILES IDX 18 1 17 2 16 3 15 4 13 5 14 6 12 8 1 9 2 10 3 11 4 12 5 13
REMARK SMILES IDX 11 14 6 17 7 18 10 19 8 20 9 21 19 22 20 23 21 25 22 26
REMARK SMILES IDX 23 27 87 28 24 29 86 30 25 31 26 32 27 33 80 34 28 35 85 36
REMARK SMILES IDX 79 37 81 38 29 39 84 40 78 41 77 42 30 44 64 45 43 46 63 47
REMARK SMILES IDX 44 48 47 49 62 50 82 51 45 52 46 53 61 55 83 56 48 57 31 58
REMARK SMILES IDX 32 59 41 60 33 61 34 62 40 63 42 64 35 65 36 66 37 67 38 68
REMARK SMILES IDX 39 69 65 70 66 71 75 72 67 73 68 74 74 75 76 76 69 77 70 78
REMARK SMILES IDX 71 79 72 80 73 81 49 82 50 83 59 84 51 85 52 86 58 87 60 88
REMARK SMILES IDX 53 89 54 90 55 91 56 92 57 93
REMARK H PARENT 15 7 11 15 11 16 19 24 81 43 47 54
REMARK Flexibility Score: inf
ROOT
ATOM      1  C   UNL A   1      33.658  28.319  26.980  1.00  0.00     0.118 C 
ENDROOT
BRANCH   1   2
ATOM      2  C   UNL A   1      33.480  28.131  25.484  1.00  0.00     0.042 C 
BRANCH   2   3
ATOM      3  C   UNL A   1      32.266  27.305  25.094  1.00  0.00     0.118 C 
BRANCH   3   4
ATOM      4  N   UNL A   1      31.854  26.395  26.153  1.00  0.00    -0.351 N 
ATOM      5  C   UNL A   1      31.898  25.038  26.275  1.00  0.00     0.279 C 
ATOM      6  O   UNL A   1      31.347  24.590  27.285  1.00  0.00    -0.268 OA
ATOM      7  H   UNL A   1      31.468  26.849  26.936  1.00  0.00     0.163 HD
BRANCH   5   8
ATOM      8  C   UNL A   1      32.484  24.105  25.175  1.00  0.00     0.289 C 
ATOM      9  C   UNL A   1      32.292  21.901  23.903  1.00  0.00     0.030 C 
ATOM     10  C   UNL A   1      32.110  22.595  25.269  1.00  0.00     0.077 C 
ATOM     11  C   UNL A   1      30.715  22.252  25.792  1.00  0.00     0.030 C 
ATOM     12  S   UNL A   1      33.389  21.901  26.391  1.00  0.00    -0.081 SA
ATOM     13  C   UNL A   1      34.450  23.354  26.263  1.00  0.00     0.275 C 
ATOM     14  N   UNL A   1      33.968  24.149  25.137  1.00  0.00    -0.320 N 
ATOM     15  H   UNL A   1      34.307  23.755  24.260  1.00  0.00     0.348 HD
ATOM     16  H   UNL A   1      34.304  25.110  25.200  1.00  0.00     0.348 HD
BRANCH  13  17
ATOM     17  C   UNL A   1      35.898  23.042  26.024  1.00  0.00     0.031 A 
ATOM     18  C   UNL A   1      37.003  23.948  26.212  1.00  0.00     0.022 A 
ATOM     19  C   UNL A   1      36.367  21.797  25.636  1.00  0.00     0.075 A 
ATOM     20  C   UNL A   1      38.226  23.361  25.977  1.00  0.00     0.065 A 
ATOM     21  S   UNL A   1      38.070  21.729  25.505  1.00  0.00    -0.152 S 
ENDBRANCH  13  17
ENDBRANCH   5   8
ENDBRANCH   3   4
ENDBRANCH   2   3
ENDBRANCH   1   2
BRANCH   1  22
ATOM     22  N   UNL A   1      33.583  29.714  27.392  1.00  0.00    -0.352 N 
ATOM     23  C   UNL A   1      34.505  30.488  28.056  1.00  0.00     0.251 C 
ATOM     24  H   UNL A   1      32.744  30.173  27.160  1.00  0.00     0.163 HD
ATOM     25  O   UNL A   1      34.177  31.595  28.476  1.00  0.00    -0.269 OA
BRANCH  23  26
ATOM     26  C   UNL A   1      35.875  29.980  28.284  1.00  0.00     0.039 A 
ATOM     27  C   UNL A   1      36.823  30.099  27.266  1.00  0.00     0.014 A 
ATOM     28  C   UNL A   1      36.230  29.396  29.503  1.00  0.00     0.014 A 
ATOM     29  C   UNL A   1      38.143  29.704  27.501  1.00  0.00     0.010 A 
ATOM     30  C   UNL A   1      37.562  29.104  29.770  1.00  0.00     0.010 A 
ATOM     31  C   UNL A   1      38.533  29.247  28.770  1.00  0.00    -0.014 A 
BRANCH  31  32
ATOM     32  C   UNL A   1      39.948  28.908  29.071  1.00  0.00     0.031 A 
ATOM     33  C   UNL A   1      40.852  29.931  29.705  1.00  0.00     0.074 A 
ATOM     34  C   UNL A   1      40.435  27.700  28.717  1.00  0.00     0.049 A 
ATOM     35  N   UNL A   1      42.128  29.846  29.984  1.00  0.00    -0.248 NA
ATOM     36  C   UNL A   1      40.252  31.232  30.044  1.00  0.00     0.031 C 
ATOM     37  C   UNL A   1      39.671  26.643  28.048  1.00  0.00     0.029 A 
ATOM     38  N   UNL A   1      41.688  27.160  28.862  1.00  0.00    -0.354 N 
ATOM     39  C   UNL A   1      42.482  31.080  30.519  1.00  0.00     0.074 A 
ATOM     40  C   UNL A   1      41.306  31.918  30.464  1.00  0.00     0.031 C 
ATOM     41  C   UNL A   1      40.462  25.572  27.873  1.00  0.00     0.029 A 
ATOM     42  C   UNL A   1      41.799  25.879  28.372  1.00  0.00     0.049 A 
ATOM     43  H   UNL A   1      42.438  27.644  29.278  1.00  0.00     0.167 HD
ATOM     44  C   UNL A   1      43.672  31.470  31.036  1.00  0.00     0.037 A 
ATOM     45  C   UNL A   1      42.858  25.049  28.324  1.00  0.00     0.037 A 
ATOM     46  C   UNL A   1      44.834  30.622  31.107  1.00  0.00     0.049 A 
ATOM     47  C   UNL A   1      44.173  25.510  28.892  1.00  0.00     0.074 A 
ATOM     48  C   UNL A   1      46.071  30.904  31.657  1.00  0.00     0.029 A 
ATOM     49  N   UNL A   1      44.902  29.328  30.610  1.00  0.00    -0.354 N 
ATOM     50  N   UNL A   1      44.474  26.659  29.449  1.00  0.00    -0.248 NA
ATOM     51  C   UNL A   1      45.293  24.561  28.829  1.00  0.00     0.031 C 
ATOM     52  C   UNL A   1      46.905  29.800  31.447  1.00  0.00     0.029 A 
ATOM     53  C   UNL A   1      46.168  28.807  30.820  1.00  0.00     0.049 A 
ATOM     54  H   UNL A   1      44.161  28.851  30.173  1.00  0.00     0.167 HD
ATOM     55  C   UNL A   1      45.807  26.559  29.832  1.00  0.00     0.074 A 
ATOM     56  C   UNL A   1      46.250  25.233  29.454  1.00  0.00     0.031 C 
ATOM     57  C   UNL A   1      46.593  27.481  30.443  1.00  0.00     0.037 A 
BRANCH  44  58
ATOM     58  C   UNL A   1      43.774  32.872  31.573  1.00  0.00     0.058 A 
ATOM     59  C   UNL A   1      43.997  33.972  30.726  1.00  0.00     0.135 A 
ATOM     60  C   UNL A   1      43.611  33.129  32.944  1.00  0.00     0.135 A 
ATOM     61  F   UNL A   1      44.175  33.786  29.409  1.00  0.00    -0.206 F 
ATOM     62  C   UNL A   1      44.085  35.268  31.222  1.00  0.00     0.059 A 
ATOM     63  C   UNL A   1      43.663  34.421  33.459  1.00  0.00     0.059 A 
ATOM     64  F   UNL A   1      43.398  32.117  33.800  1.00  0.00    -0.206 F 
ATOM     65  C   UNL A   1      43.915  35.483  32.592  1.00  0.00     0.060 A 
BRANCH  65  66
ATOM     66  S   UNL A   1      44.023  37.173  33.216  1.00  0.00     0.124 S 
ATOM     67  O   UNL A   1      45.199  37.091  34.077  1.00  0.00    -0.237 OA
ATOM     68  O   UNL A   1      44.189  37.948  31.990  1.00  0.00    -0.237 OA
ATOM     69  O   UNL A   1      42.751  37.363  33.907  1.00  0.00    -0.744 OA
ENDBRANCH  65  66
ENDBRANCH  44  58
BRANCH  45  70
ATOM     70  C   UNL A   1      42.713  23.689  27.738  1.00  0.00     0.058 A 
ATOM     71  C   UNL A   1      42.480  22.572  28.555  1.00  0.00     0.135 A 
ATOM     72  C   UNL A   1      42.793  23.477  26.353  1.00  0.00     0.135 A 
ATOM     73  F   UNL A   1      42.402  22.721  29.886  1.00  0.00    -0.206 F 
ATOM     74  C   UNL A   1      42.352  21.293  28.025  1.00  0.00     0.059 A 
ATOM     75  C   UNL A   1      42.638  22.211  25.795  1.00  0.00     0.059 A 
ATOM     76  F   UNL A   1      42.996  24.513  25.524  1.00  0.00    -0.206 F 
ATOM     77  C   UNL A   1      42.429  21.123  26.641  1.00  0.00     0.060 A 
BRANCH  77  78
ATOM     78  S   UNL A   1      42.215  19.464  25.960  1.00  0.00     0.124 S 
ATOM     79  O   UNL A   1      40.772  19.408  25.767  1.00  0.00    -0.237 OA
ATOM     80  O   UNL A   1      43.021  19.528  24.744  1.00  0.00    -0.237 OA
ATOM     81  O   UNL A   1      42.747  18.599  27.009  1.00  0.00    -0.744 OA
ENDBRANCH  77  78
ENDBRANCH  45  70
BRANCH  57  82
ATOM     82  C   UNL A   1      48.004  27.077  30.776  1.00  0.00     0.058 A 
ATOM     83  C   UNL A   1      48.313  26.356  31.940  1.00  0.00     0.135 A 
ATOM     84  C   UNL A   1      49.054  27.374  29.892  1.00  0.00     0.135 A 
ATOM     85  F   UNL A   1      47.348  26.051  32.822  1.00  0.00    -0.206 F 
ATOM     86  C   UNL A   1      49.617  25.969  32.229  1.00  0.00     0.059 A 
ATOM     87  C   UNL A   1      50.360  26.969  30.145  1.00  0.00     0.059 A 
ATOM     88  F   UNL A   1      48.812  28.052  28.758  1.00  0.00    -0.206 F 
ATOM     89  C   UNL A   1      50.634  26.277  31.324  1.00  0.00     0.060 A 
BRANCH  89  90
ATOM     90  S   UNL A   1      52.317  25.743  31.698  1.00  0.00     0.124 S 
ATOM     91  O   UNL A   1      52.991  25.984  30.427  1.00  0.00    -0.237 OA
ATOM     92  O   UNL A   1      52.690  26.634  32.792  1.00  0.00    -0.237 OA
ATOM     93  O   UNL A   1      52.155  24.340  32.068  1.00  0.00    -0.744 OA
ENDBRANCH  89  90
ENDBRANCH  57  82
ENDBRANCH  31  32
ENDBRANCH  23  26
ENDBRANCH   1  22
TORSDOF 14
ENDMDL
MODEL 2
REMARK VINA RESULT:     -10.8      4.778     10.445
REMARK SMILES CC1(C)S[C@@H](c2ccsc2)[NH2+][C@@H]1C(=O)NCCCNC(=O)c1ccc(-c2c3nc(c(-c4c(F)cc(S(=O)(=O)[O-])cc4F)c4ccc([nH]4)c(-c4c(F)cc(S(=O)(=O)[O-])cc4F)c4nc(c(-c5c(F)cc(S(=O)(=O)[O-])cc5F)c5ccc2[nH]5)C=C4)C=C3)cc1
REMARK SMILES IDX 18 1 17 2 16 3 15 4 13 5 14 6 12 8 1 9 2 10 3 11 4 12 5 13
REMARK SMILES IDX 11 14 6 17 7 18 10 19 8 20 9 21 19 22 20 23 21 25 22 26
REMARK SMILES IDX 23 27 87 28 24 29 86 30 25 31 26 32 27 33 80 34 28 35 85 36
REMARK SMILES IDX 79 37 81 38 29 39 84 40 78 41 77 42 30 44 64 45 43 46 63 47
REMARK SMILES IDX 44 48 47 49 62 50 82 51 45 52 46 53 61 55 83 56 48 57 31 58
REMARK SMILES IDX 32 59 41 60 33 61 34 62 40 63 42 64 35 65 36 66 37 67 38 68
REMARK SMILES IDX 39 69 65 70 66 71 75 72 67 73 68 74 74 75 76 76 69 77 70 78
REMARK SMILES IDX 71 79 72 80 73 81 49 82 50 83 59 84 51 85 52 86 58 87 60 88
REMARK SMILES IDX 53 89 54 90 55 91 56 92 57 93
REMARK H PARENT 15 7 11 15 11 16 19 24 81 43 47 54
REMARK Flexibility Score: inf
ROOT
ATOM      1  C   UNL A   1      39.564  23.375  26.934  1.00  0.00     0.118 C 
ENDROOT
BRANCH   1   2
ATOM      2  C   UNL A   1      38.589  22.518  26.146  1.00  0.00     0.042 C 
BRANCH   2   3
ATOM      3  C   UNL A   1      37.388  23.272  25.600  1.00  0.00     0.118 C 
BRANCH   3   4
ATOM      4  N   UNL A   1      36.205  23.103  26.431  1.00  0.00    -0.351 N 
ATOM      5  C   UNL A   1      34.959  22.613  26.176  1.00  0.00     0.279 C 
ATOM      6  O   UNL A   1      34.157  22.726  27.109  1.00  0.00    -0.268 OA
ATOM      7  H   UNL A   1      36.330  23.400  27.361  1.00  0.00     0.163 HD
BRANCH   5   8
ATOM      8  C   UNL A   1      34.531  22.064  24.785  1.00  0.00     0.289 C 
ATOM      9  C   UNL A   1      32.950  22.266  22.790  1.00  0.00     0.030 C 
ATOM     10  C   UNL A   1      33.078  22.390  24.323  1.00  0.00     0.077 C 
ATOM     11  C   UNL A   1      32.499  23.744  24.738  1.00  0.00     0.030 C 
ATOM     12  S   UNL A   1      32.078  21.031  25.049  1.00  0.00    -0.081 SA
ATOM     13  C   UNL A   1      33.523  20.020  25.429  1.00  0.00     0.275 C 
ATOM     14  N   UNL A   1      34.656  20.587  24.703  1.00  0.00    -0.320 N 
ATOM     15  H   UNL A   1      34.632  20.288  23.729  1.00  0.00     0.348 HD
ATOM     16  H   UNL A   1      35.539  20.275  25.106  1.00  0.00     0.348 HD
BRANCH  13  17
ATOM     17  C   UNL A   1      33.391  18.579  25.030  1.00  0.00     0.031 A 
ATOM     18  C   UNL A   1      33.957  17.971  23.853  1.00  0.00     0.022 A 
ATOM     19  C   UNL A   1      32.737  17.623  25.791  1.00  0.00     0.075 A 
ATOM     20  C   UNL A   1      33.725  16.616  23.784  1.00  0.00     0.065 A 
ATOM     21  S   UNL A   1      32.807  16.056  25.110  1.00  0.00    -0.152 S 
ENDBRANCH  13  17
ENDBRANCH   5   8
ENDBRANCH   3   4
ENDBRANCH   2   3
ENDBRANCH   1   2
BRANCH   1  22
ATOM     22  N   UNL A   1      40.730  23.773  26.156  1.00  0.00    -0.352 N 
ATOM     23  C   UNL A   1      41.432  24.954  26.161  1.00  0.00     0.251 C 
ATOM     24  H   UNL A   1      41.066  23.091  25.530  1.00  0.00     0.163 HD
ATOM     25  O   UNL A   1      42.277  25.162  25.293  1.00  0.00    -0.269 OA
BRANCH  23  26
ATOM     26  C   UNL A   1      41.154  25.979  27.190  1.00  0.00     0.039 A 
ATOM     27  C   UNL A   1      40.192  25.718  28.168  1.00  0.00     0.014 A 
ATOM     28  C   UNL A   1      41.847  27.193  27.199  1.00  0.00     0.014 A 
ATOM     29  C   UNL A   1      39.983  26.641  29.196  1.00  0.00     0.010 A 
ATOM     30  C   UNL A   1      41.714  28.059  28.279  1.00  0.00     0.010 A 
ATOM     31  C   UNL A   1      40.776  27.797  29.286  1.00  0.00    -0.014 A 
BRANCH  31  32
ATOM     32  C   UNL A   1      40.636  28.748  30.420  1.00  0.00     0.031 A 
ATOM     33  C   UNL A   1      41.509  28.605  31.638  1.00  0.00     0.074 A 
ATOM     34  C   UNL A   1      39.681  29.699  30.378  1.00  0.00     0.049 A 
ATOM     35  N   UNL A   1      41.493  29.293  32.751  1.00  0.00    -0.248 NA
ATOM     36  C   UNL A   1      42.514  27.529  31.616  1.00  0.00     0.031 C 
ATOM     37  C   UNL A   1      38.737  29.904  29.276  1.00  0.00     0.029 A 
ATOM     38  N   UNL A   1      39.339  30.668  31.289  1.00  0.00    -0.354 N 
ATOM     39  C   UNL A   1      42.473  28.728  33.560  1.00  0.00     0.074 A 
ATOM     40  C   UNL A   1      43.018  27.601  32.839  1.00  0.00     0.031 C 
ATOM     41  C   UNL A   1      37.949  30.954  29.560  1.00  0.00     0.029 A 
ATOM     42  C   UNL A   1      38.297  31.468  30.881  1.00  0.00     0.049 A 
ATOM     43  H   UNL A   1      39.798  30.780  32.153  1.00  0.00     0.167 HD
ATOM     44  C   UNL A   1      42.900  29.131  34.781  1.00  0.00     0.037 A 
ATOM     45  C   UNL A   1      37.685  32.493  31.503  1.00  0.00     0.037 A 
ATOM     46  C   UNL A   1      42.366  30.268  35.484  1.00  0.00     0.049 A 
ATOM     47  C   UNL A   1      38.168  32.913  32.865  1.00  0.00     0.074 A 
ATOM     48  C   UNL A   1      42.763  30.790  36.702  1.00  0.00     0.029 A 
ATOM     49  N   UNL A   1      41.318  31.059  35.033  1.00  0.00    -0.354 N 
ATOM     50  N   UNL A   1      39.137  32.406  33.590  1.00  0.00    -0.248 NA
ATOM     51  C   UNL A   1      37.478  34.048  33.494  1.00  0.00     0.031 C 
ATOM     52  C   UNL A   1      41.922  31.864  37.013  1.00  0.00     0.029 A 
ATOM     53  C   UNL A   1      41.040  32.049  35.960  1.00  0.00     0.049 A 
ATOM     54  H   UNL A   1      40.843  30.934  34.180  1.00  0.00     0.167 HD
ATOM     55  C   UNL A   1      39.194  33.179  34.745  1.00  0.00     0.074 A 
ATOM     56  C   UNL A   1      38.171  34.195  34.615  1.00  0.00     0.031 C 
ATOM     57  C   UNL A   1      40.020  33.059  35.814  1.00  0.00     0.037 A 
BRANCH  44  58
ATOM     58  C   UNL A   1      44.003  28.340  35.430  1.00  0.00     0.058 A 
ATOM     59  C   UNL A   1      45.358  28.609  35.167  1.00  0.00     0.135 A 
ATOM     60  C   UNL A   1      43.709  27.325  36.356  1.00  0.00     0.135 A 
ATOM     61  F   UNL A   1      45.699  29.556  34.281  1.00  0.00    -0.206 F 
ATOM     62  C   UNL A   1      46.377  27.881  35.772  1.00  0.00     0.059 A 
ATOM     63  C   UNL A   1      44.713  26.605  36.998  1.00  0.00     0.059 A 
ATOM     64  F   UNL A   1      42.433  27.024  36.644  1.00  0.00    -0.206 F 
ATOM     65  C   UNL A   1      46.044  26.881  36.688  1.00  0.00     0.060 A 
BRANCH  65  66
ATOM     66  S   UNL A   1      47.379  25.954  37.471  1.00  0.00     0.124 S 
ATOM     67  O   UNL A   1      46.677  25.308  38.576  1.00  0.00    -0.237 OA
ATOM     68  O   UNL A   1      47.817  25.069  36.396  1.00  0.00    -0.237 OA
ATOM     69  O   UNL A   1      48.334  26.989  37.855  1.00  0.00    -0.744 OA
ENDBRANCH  65  66
ENDBRANCH  44  58
BRANCH  45  70
ATOM     70  C   UNL A   1      36.566  33.211  30.834  1.00  0.00     0.058 A 
ATOM     71  C   UNL A   1      35.241  33.042  31.265  1.00  0.00     0.135 A 
ATOM     72  C   UNL A   1      36.796  34.085  29.760  1.00  0.00     0.135 A 
ATOM     73  F   UNL A   1      34.968  32.212  32.283  1.00  0.00    -0.206 F 
ATOM     74  C   UNL A   1      34.182  33.697  30.645  1.00  0.00     0.059 A 
ATOM     75  C   UNL A   1      35.756  34.775  29.143  1.00  0.00     0.059 A 
ATOM     76  F   UNL A   1      38.046  34.296  29.320  1.00  0.00    -0.206 F 
ATOM     77  C   UNL A   1      34.451  34.566  29.585  1.00  0.00     0.060 A 
BRANCH  77  78
ATOM     78  S   UNL A   1      33.074  35.446  28.817  1.00  0.00     0.124 S 
ATOM     79  O   UNL A   1      32.339  35.919  29.984  1.00  0.00    -0.237 OA
ATOM     80  O   UNL A   1      33.764  36.470  28.037  1.00  0.00    -0.237 OA
ATOM     81  O   UNL A   1      32.412  34.411  28.029  1.00  0.00    -0.744 OA
ENDBRANCH  77  78
ENDBRANCH  45  70
BRANCH  57  82
ATOM     82  C   UNL A   1      39.879  34.075  36.916  1.00  0.00     0.058 A 
ATOM     83  C   UNL A   1      40.504  35.329  36.852  1.00  0.00     0.135 A 
ATOM     84  C   UNL A   1      39.065  33.805  38.028  1.00  0.00     0.135 A 
ATOM     85  F   UNL A   1      41.297  35.638  35.813  1.00  0.00    -0.206 F 
ATOM     86  C   UNL A   1      40.350  36.270  37.865  1.00  0.00     0.059 A 
ATOM     87  C   UNL A   1      38.871  34.742  39.037  1.00  0.00     0.059 A 
ATOM     88  F   UNL A   1      38.434  32.624  38.135  1.00  0.00    -0.206 F 
ATOM     89  C   UNL A   1      39.530  35.968  38.953  1.00  0.00     0.060 A 
BRANCH  89  90
ATOM     90  S   UNL A   1      39.316  37.209  40.246  1.00  0.00     0.124 S 
ATOM     91  O   UNL A   1      38.588  36.453  41.261  1.00  0.00    -0.237 OA
ATOM     92  O   UNL A   1      40.695  37.552  40.579  1.00  0.00    -0.237 OA
ATOM     93  O   UNL A   1      38.556  38.265  39.584  1.00  0.00    -0.744 OA
ENDBRANCH  89  90
ENDBRANCH  57  82
ENDBRANCH  31  32
ENDBRANCH  23  26
ENDBRANCH   1  22
TORSDOF 14
ENDMDL
MODEL 3
REMARK VINA RESULT:     -10.8      1.052      2.334
REMARK SMILES CC1(C)S[C@@H](c2ccsc2)[NH2+][C@@H]1C(=O)NCCCNC(=O)c1ccc(-c2c3nc(c(-c4c(F)cc(S(=O)(=O)[O-])cc4F)c4ccc([nH]4)c(-c4c(F)cc(S(=O)(=O)[O-])cc4F)c4nc(c(-c5c(F)cc(S(=O)(=O)[O-])cc5F)c5ccc2[nH]5)C=C4)C=C3)cc1
REMARK SMILES IDX 18 1 17 2 16 3 15 4 13 5 14 6 12 8 1 9 2 10 3 11 4 12 5 13
REMARK SMILES IDX 11 14 6 17 7 18 10 19 8 20 9 21 19 22 20 23 21 25 22 26
REMARK SMILES IDX 23 27 87 28 24 29 86 30 25 31 26 32 27 33 80 34 28 35 85 36
REMARK SMILES IDX 79 37 81 38 29 39 84 40 78 41 77 42 30 44 64 45 43 46 63 47
REMARK SMILES IDX 44 48 47 49 62 50 82 51 45 52 46 53 61 55 83 56 48 57 31 58
REMARK SMILES IDX 32 59 41 60 33 61 34 62 40 63 42 64 35 65 36 66 37 67 38 68
REMARK SMILES IDX 39 69 65 70 66 71 75 72 67 73 68 74 74 75 76 76 69 77 70 78
REMARK SMILES IDX 71 79 72 80 73 81 49 82 50 83 59 84 51 85 52 86 58 87 60 88
REMARK SMILES IDX 53 89 54 90 55 91 56 92 57 93
REMARK H PARENT 15 7 11 15 11 16 19 24 81 43 47 54
REMARK Flexibility Score: inf
ROOT
ATOM      1  C   UNL A   1      33.549  28.331  27.088  1.00  0.00     0.118 C 
ENDROOT
BRANCH   1   2
ATOM      2  C   UNL A   1      32.409  27.914  26.175  1.00  0.00     0.042 C 
BRANCH   2   3
ATOM      3  C   UNL A   1      31.802  26.561  26.508  1.00  0.00     0.118 C 
BRANCH   3   4
ATOM      4  N   UNL A   1      31.467  25.797  25.315  1.00  0.00    -0.351 N 
ATOM      5  C   UNL A   1      31.738  24.519  24.930  1.00  0.00     0.279 C 
ATOM      6  O   UNL A   1      31.384  24.237  23.781  1.00  0.00    -0.268 OA
ATOM      7  H   UNL A   1      30.939  26.304  24.657  1.00  0.00     0.163 HD
BRANCH   5   8
ATOM      8  C   UNL A   1      32.540  23.518  25.812  1.00  0.00     0.289 C 
ATOM      9  C   UNL A   1      34.784  22.901  26.861  1.00  0.00     0.030 C 
ATOM     10  C   UNL A   1      34.088  23.508  25.625  1.00  0.00     0.077 C 
ATOM     11  C   UNL A   1      34.763  24.843  25.311  1.00  0.00     0.030 C 
ATOM     12  S   UNL A   1      34.348  22.331  24.239  1.00  0.00    -0.081 SA
ATOM     13  C   UNL A   1      32.673  21.669  24.338  1.00  0.00     0.275 C 
ATOM     14  N   UNL A   1      32.102  22.115  25.606  1.00  0.00    -0.320 N 
ATOM     15  H   UNL A   1      32.440  21.527  26.367  1.00  0.00     0.348 HD
ATOM     16  H   UNL A   1      31.084  22.051  25.588  1.00  0.00     0.348 HD
BRANCH  13  17
ATOM     17  C   UNL A   1      32.599  20.170  24.297  1.00  0.00     0.031 A 
ATOM     18  C   UNL A   1      32.342  19.366  23.129  1.00  0.00     0.022 A 
ATOM     19  C   UNL A   1      32.827  19.354  25.394  1.00  0.00     0.075 A 
ATOM     20  C   UNL A   1      32.398  18.015  23.385  1.00  0.00     0.065 A 
ATOM     21  S   UNL A   1      32.734  17.688  25.025  1.00  0.00    -0.152 S 
ENDBRANCH  13  17
ENDBRANCH   5   8
ENDBRANCH   3   4
ENDBRANCH   2   3
ENDBRANCH   1   2
BRANCH   1  22
ATOM     22  N   UNL A   1      33.489  29.736  27.469  1.00  0.00    -0.352 N 
ATOM     23  C   UNL A   1      34.429  30.522  28.091  1.00  0.00     0.251 C 
ATOM     24  H   UNL A   1      32.645  30.192  27.248  1.00  0.00     0.163 HD
ATOM     25  O   UNL A   1      34.115  31.639  28.494  1.00  0.00    -0.269 OA
BRANCH  23  26
ATOM     26  C   UNL A   1      35.803  30.015  28.297  1.00  0.00     0.039 A 
ATOM     27  C   UNL A   1      36.723  30.099  27.250  1.00  0.00     0.014 A 
ATOM     28  C   UNL A   1      36.190  29.466  29.522  1.00  0.00     0.014 A 
ATOM     29  C   UNL A   1      38.047  29.706  27.459  1.00  0.00     0.010 A 
ATOM     30  C   UNL A   1      37.528  29.176  29.761  1.00  0.00     0.010 A 
ATOM     31  C   UNL A   1      38.471  29.285  28.730  1.00  0.00    -0.014 A 
BRANCH  31  32
ATOM     32  C   UNL A   1      39.893  28.948  29.002  1.00  0.00     0.031 A 
ATOM     33  C   UNL A   1      40.816  29.983  29.589  1.00  0.00     0.074 A 
ATOM     34  C   UNL A   1      40.367  27.732  28.663  1.00  0.00     0.049 A 
ATOM     35  N   UNL A   1      42.099  29.901  29.836  1.00  0.00    -0.248 NA
ATOM     36  C   UNL A   1      40.228  31.294  29.912  1.00  0.00     0.031 C 
ATOM     37  C   UNL A   1      39.584  26.662  28.039  1.00  0.00     0.029 A 
ATOM     38  N   UNL A   1      41.622  27.191  28.787  1.00  0.00    -0.354 N 
ATOM     39  C   UNL A   1      42.469  31.146  30.332  1.00  0.00     0.074 A 
ATOM     40  C   UNL A   1      41.294  31.985  30.289  1.00  0.00     0.031 C 
ATOM     41  C   UNL A   1      40.367  25.585  27.868  1.00  0.00     0.029 A 
ATOM     42  C   UNL A   1      41.717  25.899  28.325  1.00  0.00     0.049 A 
ATOM     43  H   UNL A   1      42.384  27.683  29.172  1.00  0.00     0.167 HD
ATOM     44  C   UNL A   1      43.673  31.544  30.809  1.00  0.00     0.037 A 
ATOM     45  C   UNL A   1      42.773  25.065  28.268  1.00  0.00     0.037 A 
ATOM     46  C   UNL A   1      44.834  30.694  30.869  1.00  0.00     0.049 A 
ATOM     47  C   UNL A   1      44.104  25.535  28.790  1.00  0.00     0.074 A 
ATOM     48  C   UNL A   1      46.086  30.985  31.380  1.00  0.00     0.029 A 
ATOM     49  N   UNL A   1      44.887  29.389  30.400  1.00  0.00    -0.354 N 
ATOM     50  N   UNL A   1      44.422  26.695  29.313  1.00  0.00    -0.248 NA
ATOM     51  C   UNL A   1      45.219  24.581  28.720  1.00  0.00     0.031 C 
ATOM     52  C   UNL A   1      46.911  29.875  31.174  1.00  0.00     0.029 A 
ATOM     53  C   UNL A   1      46.156  28.870  30.589  1.00  0.00     0.049 A 
ATOM     54  H   UNL A   1      44.133  28.904  29.994  1.00  0.00     0.167 HD
ATOM     55  C   UNL A   1      45.764  26.601  29.663  1.00  0.00     0.074 A 
ATOM     56  C   UNL A   1      46.193  25.265  29.305  1.00  0.00     0.031 C 
ATOM     57  C   UNL A   1      46.568  27.534  30.232  1.00  0.00     0.037 A 
BRANCH  44  58
ATOM     58  C   UNL A   1      43.792  32.958  31.310  1.00  0.00     0.058 A 
ATOM     59  C   UNL A   1      44.161  34.014  30.459  1.00  0.00     0.135 A 
ATOM     60  C   UNL A   1      43.500  33.271  32.648  1.00  0.00     0.135 A 
ATOM     61  F   UNL A   1      44.466  33.772  29.175  1.00  0.00    -0.206 F 
ATOM     62  C   UNL A   1      44.265  35.321  30.922  1.00  0.00     0.059 A 
ATOM     63  C   UNL A   1      43.566  34.578  33.126  1.00  0.00     0.059 A 
ATOM     64  F   UNL A   1      43.145  32.302  33.507  1.00  0.00    -0.206 F 
ATOM     65  C   UNL A   1      43.964  35.594  32.258  1.00  0.00     0.060 A 
BRANCH  65  66
ATOM     66  S   UNL A   1      44.095  37.297  32.838  1.00  0.00     0.124 S 
ATOM     67  O   UNL A   1      45.441  37.310  33.402  1.00  0.00    -0.237 OA
ATOM     68  O   UNL A   1      43.917  38.060  31.607  1.00  0.00    -0.237 OA
ATOM     69  O   UNL A   1      43.008  37.413  33.806  1.00  0.00    -0.744 OA
ENDBRANCH  65  66
ENDBRANCH  44  58
BRANCH  45  70
ATOM     70  C   UNL A   1      42.609  23.692  27.718  1.00  0.00     0.058 A 
ATOM     71  C   UNL A   1      42.672  23.456  26.335  1.00  0.00     0.135 A 
ATOM     72  C   UNL A   1      42.397  22.587  28.558  1.00  0.00     0.135 A 
ATOM     73  F   UNL A   1      42.866  24.480  25.490  1.00  0.00    -0.206 F 
ATOM     74  C   UNL A   1      42.512  22.181  25.804  1.00  0.00     0.059 A 
ATOM     75  C   UNL A   1      42.264  21.298  28.052  1.00  0.00     0.059 A 
ATOM     76  F   UNL A   1      42.347  22.754  29.889  1.00  0.00    -0.206 F 
ATOM     77  C   UNL A   1      42.312  21.106  26.672  1.00  0.00     0.060 A 
BRANCH  77  78
ATOM     78  S   UNL A   1      42.150  19.449  25.974  1.00  0.00     0.124 S 
ATOM     79  O   UNL A   1      42.966  19.555  24.771  1.00  0.00    -0.237 OA
ATOM     80  O   UNL A   1      42.691  18.614  27.042  1.00  0.00    -0.237 OA
ATOM     81  O   UNL A   1      40.713  19.316  25.754  1.00  0.00    -0.744 OA
ENDBRANCH  77  78
ENDBRANCH  45  70
BRANCH  57  82
ATOM     82  C   UNL A   1      47.986  27.133  30.538  1.00  0.00     0.058 A 
ATOM     83  C   UNL A   1      49.034  27.370  29.635  1.00  0.00     0.135 A 
ATOM     84  C   UNL A   1      48.306  26.550  31.774  1.00  0.00     0.135 A 
ATOM     85  F   UNL A   1      48.783  27.920  28.436  1.00  0.00    -0.206 F 
ATOM     86  C   UNL A   1      50.345  27.015  29.935  1.00  0.00     0.059 A 
ATOM     87  C   UNL A   1      49.614  26.217  32.109  1.00  0.00     0.059 A 
ATOM     88  F   UNL A   1      47.344  26.312  32.680  1.00  0.00    -0.206 F 
ATOM     89  C   UNL A   1      50.626  26.441  31.175  1.00  0.00     0.060 A 
BRANCH  89  90
ATOM     90  S   UNL A   1      52.336  26.013  31.563  1.00  0.00     0.124 S 
ATOM     91  O   UNL A   1      52.191  24.650  32.064  1.00  0.00    -0.237 OA
ATOM     92  O   UNL A   1      52.992  26.146  30.266  1.00  0.00    -0.237 OA
ATOM     93  O   UNL A   1      52.720  27.011  32.558  1.00  0.00    -0.744 OA
ENDBRANCH  89  90
ENDBRANCH  57  82
ENDBRANCH  31  32
ENDBRANCH  23  26
ENDBRANCH   1  22
TORSDOF 14
ENDMDL
