MODEL 1
REMARK VINA RESULT:     -12.1      0.000      0.000
REMARK SMILES CS(=O)(=O)c1ccc(N2N=C(C(=O)NCCCNC(=O)c3ccc(-c4c5nc(c(-c6c(F)cc(S(=O)(=O)[O-])cc6F)c6ccc([nH]6)c(-c6c(F)cc(S(=O)(=O)[O-])cc6F)c6nc(c(-c7c(F)cc(S(=O)(=O)[O-])cc7F)c7ccc4[nH]7)C=C6)C=C5)cc3)C[C@H]2c2ccco2)cc1
REMARK SMILES IDX 16 1 15 2 14 3 12 4 13 5 11 7 9 8 10 9 88 10 87 11 8 12 5 13
REMARK SMILES IDX 6 14 95 15 7 16 94 17 2 18 1 19 3 20 4 21 89 22 90 23 93 24
REMARK SMILES IDX 91 25 92 26 17 27 18 28 19 29 20 31 21 32 22 33 86 34 23 35
REMARK SMILES IDX 85 36 24 37 25 38 26 39 79 40 27 41 84 42 78 43 80 44 28 45
REMARK SMILES IDX 83 46 77 47 76 48 29 50 63 51 42 52 62 53 43 54 46 55 61 56
REMARK SMILES IDX 81 57 44 58 45 59 60 61 82 62 47 63 30 64 31 65 40 66 32 67
REMARK SMILES IDX 33 68 39 69 41 70 34 71 35 72 36 73 37 74 38 75 64 76 65 77
REMARK SMILES IDX 74 78 66 79 67 80 73 81 75 82 68 83 69 84 70 85 71 86 72 87
REMARK SMILES IDX 48 88 49 89 58 90 50 91 51 92 57 93 59 94 52 95 53 96 54 97
REMARK SMILES IDX 55 98 56 99
REMARK H PARENT 14 6 18 30 80 49 46 60
REMARK Flexibility Score: inf
ROOT
ATOM      1  C   UNL A   1      32.701  27.717  26.034  1.00  0.00     0.042 C 
ENDROOT
BRANCH   1   2
ATOM      2  C   UNL A   1      31.685  26.641  26.399  1.00  0.00     0.118 C 
BRANCH   2   3
ATOM      3  N   UNL A   1      30.943  26.190  25.234  1.00  0.00    -0.351 N 
ATOM      4  C   UNL A   1      31.163  25.268  24.241  1.00  0.00     0.267 C 
ATOM      5  O   UNL A   1      30.335  25.204  23.335  1.00  0.00    -0.268 OA
ATOM      6  H   UNL A   1      30.081  26.655  25.132  1.00  0.00     0.163 HD
BRANCH   4   7
ATOM      7  C   UNL A   1      32.334  24.299  24.218  1.00  0.00     0.128 C 
ATOM      8  N   UNL A   1      33.423  22.487  24.574  1.00  0.00    -0.254 N 
ATOM      9  N   UNL A   1      32.185  23.061  24.587  1.00  0.00    -0.171 NA
ATOM     10  C   UNL A   1      34.441  23.342  23.940  1.00  0.00     0.180 C 
ATOM     11  C   UNL A   1      33.711  24.682  23.810  1.00  0.00     0.099 C 
BRANCH   8  12
ATOM     12  C   UNL A   1      33.526  21.099  24.450  1.00  0.00     0.060 A 
ATOM     13  C   UNL A   1      33.649  18.299  24.289  1.00  0.00     0.067 A 
ATOM     14  C   UNL A   1      34.745  19.012  24.779  1.00  0.00     0.022 A 
ATOM     15  C   UNL A   1      32.500  18.965  23.865  1.00  0.00     0.022 A 
ATOM     16  C   UNL A   1      34.684  20.408  24.840  1.00  0.00     0.029 A 
ATOM     17  C   UNL A   1      32.449  20.358  23.944  1.00  0.00     0.029 A 
BRANCH  13  18
ATOM     18  S   UNL A   1      33.710  16.526  24.230  1.00  0.00     0.175 S 
ATOM     19  C   UNL A   1      35.105  16.097  25.232  1.00  0.00     0.163 C 
ATOM     20  O   UNL A   1      34.026  16.140  22.865  1.00  0.00    -0.224 OA
ATOM     21  O   UNL A   1      32.510  16.037  24.879  1.00  0.00    -0.224 OA
ENDBRANCH  13  18
ENDBRANCH   8  12
BRANCH  10  22
ATOM     22  C   UNL A   1      35.763  23.478  24.644  1.00  0.00     0.128 A 
ATOM     23  C   UNL A   1      37.065  23.220  24.258  1.00  0.00     0.048 A 
ATOM     24  O   UNL A   1      35.765  23.974  25.919  1.00  0.00    -0.467 OA
ATOM     25  C   UNL A   1      37.893  23.569  25.351  1.00  0.00     0.042 A 
ATOM     26  C   UNL A   1      37.054  24.038  26.332  1.00  0.00     0.195 A 
ENDBRANCH  10  22
ENDBRANCH   4   7
ENDBRANCH   2   3
ENDBRANCH   1   2
BRANCH   1  27
ATOM     27  C   UNL A   1      33.540  28.177  27.222  1.00  0.00     0.118 C 
BRANCH  27  28
ATOM     28  N   UNL A   1      33.456  29.617  27.427  1.00  0.00    -0.352 N 
ATOM     29  C   UNL A   1      34.357  30.486  27.991  1.00  0.00     0.251 C 
ATOM     30  H   UNL A   1      32.622  30.033  27.110  1.00  0.00     0.163 HD
ATOM     31  O   UNL A   1      33.994  31.621  28.285  1.00  0.00    -0.269 OA
BRANCH  29  32
ATOM     32  C   UNL A   1      35.750  30.060  28.252  1.00  0.00     0.039 A 
ATOM     33  C   UNL A   1      36.674  30.080  27.203  1.00  0.00     0.014 A 
ATOM     34  C   UNL A   1      36.136  29.606  29.515  1.00  0.00     0.014 A 
ATOM     35  C   UNL A   1      38.000  29.704  27.440  1.00  0.00     0.010 A 
ATOM     36  C   UNL A   1      37.472  29.311  29.769  1.00  0.00     0.010 A 
ATOM     37  C   UNL A   1      38.417  29.349  28.733  1.00  0.00    -0.014 A 
BRANCH  37  38
ATOM     38  C   UNL A   1      39.827  28.993  29.026  1.00  0.00     0.031 A 
ATOM     39  C   UNL A   1      40.753  30.023  29.618  1.00  0.00     0.074 A 
ATOM     40  C   UNL A   1      40.294  27.774  28.690  1.00  0.00     0.049 A 
ATOM     41  N   UNL A   1      42.041  29.951  29.833  1.00  0.00    -0.248 NA
ATOM     42  C   UNL A   1      40.155  31.316  29.987  1.00  0.00     0.031 C 
ATOM     43  C   UNL A   1      39.506  26.704  28.075  1.00  0.00     0.029 A 
ATOM     44  N   UNL A   1      41.550  27.234  28.808  1.00  0.00    -0.354 N 
ATOM     45  C   UNL A   1      42.409  31.191  30.341  1.00  0.00     0.074 A 
ATOM     46  C   UNL A   1      41.219  32.013  30.356  1.00  0.00     0.031 C 
ATOM     47  C   UNL A   1      40.290  25.631  27.887  1.00  0.00     0.029 A 
ATOM     48  C   UNL A   1      41.645  25.948  28.331  1.00  0.00     0.049 A 
ATOM     49  H   UNL A   1      42.312  27.722  29.196  1.00  0.00     0.167 HD
ATOM     50  C   UNL A   1      43.625  31.600  30.780  1.00  0.00     0.037 A 
ATOM     51  C   UNL A   1      42.705  25.122  28.252  1.00  0.00     0.037 A 
ATOM     52  C   UNL A   1      44.796  30.766  30.797  1.00  0.00     0.049 A 
ATOM     53  C   UNL A   1      44.042  25.595  28.752  1.00  0.00     0.074 A 
ATOM     54  C   UNL A   1      46.064  31.069  31.261  1.00  0.00     0.029 A 
ATOM     55  N   UNL A   1      44.843  29.458  30.336  1.00  0.00    -0.354 N 
ATOM     56  N   UNL A   1      44.364  26.759  29.264  1.00  0.00    -0.248 NA
ATOM     57  C   UNL A   1      45.160  24.644  28.668  1.00  0.00     0.031 C 
ATOM     58  C   UNL A   1      46.884  29.954  31.056  1.00  0.00     0.029 A 
ATOM     59  C   UNL A   1      46.118  28.943  30.500  1.00  0.00     0.049 A 
ATOM     60  H   UNL A   1      44.080  28.967  29.951  1.00  0.00     0.167 HD
ATOM     61  C   UNL A   1      45.713  26.669  29.590  1.00  0.00     0.074 A 
ATOM     62  C   UNL A   1      46.144  25.335  29.225  1.00  0.00     0.031 C 
ATOM     63  C   UNL A   1      46.522  27.606  30.145  1.00  0.00     0.037 A 
BRANCH  50  64
ATOM     64  C   UNL A   1      43.740  33.010  31.289  1.00  0.00     0.058 A 
ATOM     65  C   UNL A   1      44.075  34.073  30.435  1.00  0.00     0.135 A 
ATOM     66  C   UNL A   1      43.488  33.309  32.638  1.00  0.00     0.135 A 
ATOM     67  F   UNL A   1      44.342  33.842  29.140  1.00  0.00    -0.206 F 
ATOM     68  C   UNL A   1      44.189  35.376  30.905  1.00  0.00     0.059 A 
ATOM     69  C   UNL A   1      43.569  34.610  33.125  1.00  0.00     0.059 A 
ATOM     70  F   UNL A   1      43.164  32.330  33.498  1.00  0.00    -0.206 F 
ATOM     71  C   UNL A   1      43.936  35.635  32.254  1.00  0.00     0.060 A 
BRANCH  71  72
ATOM     72  S   UNL A   1      44.090  37.332  32.851  1.00  0.00     0.124 S 
ATOM     73  O   UNL A   1      43.903  38.091  31.619  1.00  0.00    -0.237 OA
ATOM     74  O   UNL A   1      43.004  37.422  33.821  1.00  0.00    -0.237 OA
ATOM     75  O   UNL A   1      45.436  37.372  33.415  1.00  0.00    -0.744 OA
ENDBRANCH  71  72
ENDBRANCH  50  64
BRANCH  51  76
ATOM     76  C   UNL A   1      42.542  23.749  27.702  1.00  0.00     0.058 A 
ATOM     77  C   UNL A   1      42.434  22.643  28.557  1.00  0.00     0.135 A 
ATOM     78  C   UNL A   1      42.483  23.517  26.320  1.00  0.00     0.135 A 
ATOM     79  F   UNL A   1      42.489  22.815  29.887  1.00  0.00    -0.206 F 
ATOM     80  C   UNL A   1      42.293  21.351  28.063  1.00  0.00     0.059 A 
ATOM     81  C   UNL A   1      42.320  22.236  25.801  1.00  0.00     0.059 A 
ATOM     82  F   UNL A   1      42.561  24.545  25.460  1.00  0.00    -0.206 F 
ATOM     83  C   UNL A   1      42.238  21.158  26.681  1.00  0.00     0.060 A 
BRANCH  83  84
ATOM     84  S   UNL A   1      42.013  19.481  26.049  1.00  0.00     0.124 S 
ATOM     85  O   UNL A   1      40.574  19.445  25.820  1.00  0.00    -0.237 OA
ATOM     86  O   UNL A   1      42.851  19.487  24.853  1.00  0.00    -0.237 OA
ATOM     87  O   UNL A   1      42.502  18.645  27.141  1.00  0.00    -0.744 OA
ENDBRANCH  83  84
ENDBRANCH  51  76
BRANCH  63  88
ATOM     88  C   UNL A   1      47.942  27.210  30.431  1.00  0.00     0.058 A 
ATOM     89  C   UNL A   1      48.964  27.398  29.488  1.00  0.00     0.135 A 
ATOM     90  C   UNL A   1      48.291  26.686  31.685  1.00  0.00     0.135 A 
ATOM     91  F   UNL A   1      48.678  27.889  28.271  1.00  0.00    -0.206 F 
ATOM     92  C   UNL A   1      50.282  27.063  29.773  1.00  0.00     0.059 A 
ATOM     93  C   UNL A   1      49.608  26.366  32.000  1.00  0.00     0.059 A 
ATOM     94  F   UNL A   1      47.351  26.496  32.625  1.00  0.00    -0.206 F 
ATOM     95  C   UNL A   1      50.595  26.549  31.033  1.00  0.00     0.060 A 
BRANCH  95  96
ATOM     96  S   UNL A   1      52.318  26.155  31.406  1.00  0.00     0.124 S 
ATOM     97  O   UNL A   1      52.930  26.238  30.085  1.00  0.00    -0.237 OA
ATOM     98  O   UNL A   1      52.685  27.212  32.342  1.00  0.00    -0.237 OA
ATOM     99  O   UNL A   1      52.242  24.816  31.982  1.00  0.00    -0.744 OA
ENDBRANCH  95  96
ENDBRANCH  63  88
ENDBRANCH  37  38
ENDBRANCH  29  32
ENDBRANCH  27  28
ENDBRANCH   1  27
TORSDOF 16
ENDMDL
MODEL 2
REMARK VINA RESULT:     -12.1      5.137     10.781
REMARK SMILES CS(=O)(=O)c1ccc(N2N=C(C(=O)NCCCNC(=O)c3ccc(-c4c5nc(c(-c6c(F)cc(S(=O)(=O)[O-])cc6F)c6ccc([nH]6)c(-c6c(F)cc(S(=O)(=O)[O-])cc6F)c6nc(c(-c7c(F)cc(S(=O)(=O)[O-])cc7F)c7ccc4[nH]7)C=C6)C=C5)cc3)C[C@H]2c2ccco2)cc1
REMARK SMILES IDX 16 1 15 2 14 3 12 4 13 5 11 7 9 8 10 9 88 10 87 11 8 12 5 13
REMARK SMILES IDX 6 14 95 15 7 16 94 17 2 18 1 19 3 20 4 21 89 22 90 23 93 24
REMARK SMILES IDX 91 25 92 26 17 27 18 28 19 29 20 31 21 32 22 33 86 34 23 35
REMARK SMILES IDX 85 36 24 37 25 38 26 39 79 40 27 41 84 42 78 43 80 44 28 45
REMARK SMILES IDX 83 46 77 47 76 48 29 50 63 51 42 52 62 53 43 54 46 55 61 56
REMARK SMILES IDX 81 57 44 58 45 59 60 61 82 62 47 63 30 64 31 65 40 66 32 67
REMARK SMILES IDX 33 68 39 69 41 70 34 71 35 72 36 73 37 74 38 75 64 76 65 77
REMARK SMILES IDX 74 78 66 79 67 80 73 81 75 82 68 83 69 84 70 85 71 86 72 87
REMARK SMILES IDX 48 88 49 89 58 90 50 91 51 92 57 93 59 94 52 95 53 96 54 97
REMARK SMILES IDX 55 98 56 99
REMARK H PARENT 14 6 18 30 80 49 46 60
REMARK Flexibility Score: inf
ROOT
ATOM      1  C   UNL A   1      37.677  23.122  26.100  1.00  0.00     0.042 C 
ENDROOT
BRANCH   1   2
ATOM      2  C   UNL A   1      36.192  23.444  25.973  1.00  0.00     0.118 C 
BRANCH   2   3
ATOM      3  N   UNL A   1      35.746  23.372  24.592  1.00  0.00    -0.351 N 
ATOM      4  C   UNL A   1      34.793  24.020  23.847  1.00  0.00     0.267 C 
ATOM      5  O   UNL A   1      34.621  23.636  22.692  1.00  0.00    -0.268 OA
ATOM      6  H   UNL A   1      36.242  22.703  24.069  1.00  0.00     0.163 HD
BRANCH   4   7
ATOM      7  C   UNL A   1      33.976  25.201  24.343  1.00  0.00     0.128 C 
ATOM      8  N   UNL A   1      32.739  26.950  24.237  1.00  0.00    -0.254 N 
ATOM      9  N   UNL A   1      33.244  25.900  23.526  1.00  0.00    -0.171 NA
ATOM     10  C   UNL A   1      32.973  26.822  25.685  1.00  0.00     0.180 C 
ATOM     11  C   UNL A   1      33.966  25.660  25.758  1.00  0.00     0.099 C 
BRANCH   8  12
ATOM     12  C   UNL A   1      31.574  27.576  23.787  1.00  0.00     0.060 A 
ATOM     13  C   UNL A   1      29.243  28.914  22.973  1.00  0.00     0.067 A 
ATOM     14  C   UNL A   1      29.154  27.616  23.482  1.00  0.00     0.022 A 
ATOM     15  C   UNL A   1      30.481  29.544  22.850  1.00  0.00     0.022 A 
ATOM     16  C   UNL A   1      30.321  26.949  23.869  1.00  0.00     0.029 A 
ATOM     17  C   UNL A   1      31.635  28.871  23.253  1.00  0.00     0.029 A 
BRANCH  13  18
ATOM     18  S   UNL A   1      27.766  29.775  22.501  1.00  0.00     0.175 S 
ATOM     19  C   UNL A   1      27.893  31.348  23.307  1.00  0.00     0.163 C 
ATOM     20  O   UNL A   1      26.638  29.079  23.094  1.00  0.00    -0.224 OA
ATOM     21  O   UNL A   1      27.836  29.987  21.068  1.00  0.00    -0.224 OA
ENDBRANCH  13  18
ENDBRANCH   8  12
BRANCH  10  22
ATOM     22  C   UNL A   1      33.466  28.041  26.415  1.00  0.00     0.128 A 
ATOM     23  C   UNL A   1      32.819  29.064  27.082  1.00  0.00     0.048 A 
ATOM     24  O   UNL A   1      34.818  28.236  26.501  1.00  0.00    -0.467 OA
ATOM     25  C   UNL A   1      33.825  29.922  27.590  1.00  0.00     0.042 A 
ATOM     26  C   UNL A   1      35.025  29.364  27.223  1.00  0.00     0.195 A 
ENDBRANCH  10  22
ENDBRANCH   4   7
ENDBRANCH   2   3
ENDBRANCH   1   2
BRANCH   1  27
ATOM     27  C   UNL A   1      38.549  24.365  26.241  1.00  0.00     0.118 C 
BRANCH  27  28
ATOM     28  N   UNL A   1      39.968  24.055  26.113  1.00  0.00    -0.352 N 
ATOM     29  C   UNL A   1      41.066  24.715  26.605  1.00  0.00     0.251 C 
ATOM     30  H   UNL A   1      40.170  23.245  25.592  1.00  0.00     0.163 HD
ATOM     31  O   UNL A   1      42.181  24.423  26.182  1.00  0.00    -0.269 OA
BRANCH  29  32
ATOM     32  C   UNL A   1      40.913  25.773  27.627  1.00  0.00     0.039 A 
ATOM     33  C   UNL A   1      39.897  25.655  28.580  1.00  0.00     0.014 A 
ATOM     34  C   UNL A   1      41.741  26.899  27.624  1.00  0.00     0.014 A 
ATOM     35  C   UNL A   1      39.754  26.634  29.567  1.00  0.00     0.010 A 
ATOM     36  C   UNL A   1      41.650  27.830  28.654  1.00  0.00     0.010 A 
ATOM     37  C   UNL A   1      40.652  27.712  29.632  1.00  0.00    -0.014 A 
BRANCH  37  38
ATOM     38  C   UNL A   1      40.557  28.742  30.697  1.00  0.00     0.031 A 
ATOM     39  C   UNL A   1      41.448  28.652  31.908  1.00  0.00     0.074 A 
ATOM     40  C   UNL A   1      39.622  29.708  30.613  1.00  0.00     0.049 A 
ATOM     41  N   UNL A   1      41.437  29.374  32.998  1.00  0.00    -0.248 NA
ATOM     42  C   UNL A   1      42.464  27.586  31.905  1.00  0.00     0.031 C 
ATOM     43  C   UNL A   1      38.675  29.878  29.509  1.00  0.00     0.029 A 
ATOM     44  N   UNL A   1      39.306  30.725  31.479  1.00  0.00    -0.354 N 
ATOM     45  C   UNL A   1      42.426  28.840  33.815  1.00  0.00     0.074 A 
ATOM     46  C   UNL A   1      42.984  27.702  33.118  1.00  0.00     0.031 C 
ATOM     47  C   UNL A   1      37.897  30.945  29.755  1.00  0.00     0.029 A 
ATOM     48  C   UNL A   1      38.263  31.511  31.050  1.00  0.00     0.049 A 
ATOM     49  H   UNL A   1      39.781  30.876  32.328  1.00  0.00     0.167 HD
ATOM     50  C   UNL A   1      42.850  29.274  35.028  1.00  0.00     0.037 A 
ATOM     51  C   UNL A   1      37.664  32.565  31.638  1.00  0.00     0.037 A 
ATOM     52  C   UNL A   1      42.316  30.428  35.700  1.00  0.00     0.049 A 
ATOM     53  C   UNL A   1      38.157  33.032  32.980  1.00  0.00     0.074 A 
ATOM     54  C   UNL A   1      42.704  30.977  36.910  1.00  0.00     0.029 A 
ATOM     55  N   UNL A   1      41.283  31.218  35.217  1.00  0.00    -0.354 N 
ATOM     56  N   UNL A   1      39.118  32.538  33.722  1.00  0.00    -0.248 NA
ATOM     57  C   UNL A   1      37.486  34.202  33.565  1.00  0.00     0.031 C 
ATOM     58  C   UNL A   1      41.888  32.082  37.171  1.00  0.00     0.029 A 
ATOM     59  C   UNL A   1      41.017  32.246  36.106  1.00  0.00     0.049 A 
ATOM     60  H   UNL A   1      40.810  31.070  34.366  1.00  0.00     0.167 HD
ATOM     61  C   UNL A   1      39.188  33.354  34.846  1.00  0.00     0.074 A 
ATOM     62  C   UNL A   1      38.176  34.378  34.682  1.00  0.00     0.031 C 
ATOM     63  C   UNL A   1      40.017  33.265  35.916  1.00  0.00     0.037 A 
BRANCH  50  64
ATOM     64  C   UNL A   1      43.953  28.500  35.695  1.00  0.00     0.058 A 
ATOM     65  C   UNL A   1      43.679  27.427  36.558  1.00  0.00     0.135 A 
ATOM     66  C   UNL A   1      45.300  28.816  35.450  1.00  0.00     0.135 A 
ATOM     67  F   UNL A   1      42.410  27.094  36.839  1.00  0.00    -0.206 F 
ATOM     68  C   UNL A   1      44.698  26.716  37.181  1.00  0.00     0.059 A 
ATOM     69  C   UNL A   1      46.337  28.099  36.041  1.00  0.00     0.059 A 
ATOM     70  F   UNL A   1      45.618  29.832  34.633  1.00  0.00    -0.206 F 
ATOM     71  C   UNL A   1      46.025  27.061  36.918  1.00  0.00     0.060 A 
BRANCH  71  72
ATOM     72  S   UNL A   1      47.337  26.130  37.736  1.00  0.00     0.124 S 
ATOM     73  O   UNL A   1      46.952  24.756  37.431  1.00  0.00    -0.237 OA
ATOM     74  O   UNL A   1      48.535  26.616  37.058  1.00  0.00    -0.237 OA
ATOM     75  O   UNL A   1      47.210  26.522  39.136  1.00  0.00    -0.744 OA
ENDBRANCH  71  72
ENDBRANCH  50  64
BRANCH  51  76
ATOM     76  C   UNL A   1      36.550  33.269  30.950  1.00  0.00     0.058 A 
ATOM     77  C   UNL A   1      35.237  33.176  31.432  1.00  0.00     0.135 A 
ATOM     78  C   UNL A   1      36.774  34.051  29.807  1.00  0.00     0.135 A 
ATOM     79  F   UNL A   1      34.973  32.437  32.521  1.00  0.00    -0.206 F 
ATOM     80  C   UNL A   1      34.179  33.817  30.797  1.00  0.00     0.059 A 
ATOM     81  C   UNL A   1      35.736  34.720  29.165  1.00  0.00     0.059 A 
ATOM     82  F   UNL A   1      38.016  34.188  29.317  1.00  0.00    -0.206 F 
ATOM     83  C   UNL A   1      34.439  34.587  29.661  1.00  0.00     0.060 A 
BRANCH  83  84
ATOM     84  S   UNL A   1      33.067  35.450  28.866  1.00  0.00     0.124 S 
ATOM     85  O   UNL A   1      32.276  35.866  30.017  1.00  0.00    -0.237 OA
ATOM     86  O   UNL A   1      33.751  36.516  28.140  1.00  0.00    -0.237 OA
ATOM     87  O   UNL A   1      32.467  34.417  28.025  1.00  0.00    -0.744 OA
ENDBRANCH  83  84
ENDBRANCH  51  76
BRANCH  63  88
ATOM     88  C   UNL A   1      39.895  34.326  36.972  1.00  0.00     0.058 A 
ATOM     89  C   UNL A   1      40.634  35.517  36.908  1.00  0.00     0.135 A 
ATOM     90  C   UNL A   1      38.988  34.170  38.032  1.00  0.00     0.135 A 
ATOM     91  F   UNL A   1      41.520  35.710  35.918  1.00  0.00    -0.206 F 
ATOM     92  C   UNL A   1      40.490  36.511  37.869  1.00  0.00     0.059 A 
ATOM     93  C   UNL A   1      38.810  35.161  38.991  1.00  0.00     0.059 A 
ATOM     94  F   UNL A   1      38.251  33.052  38.132  1.00  0.00    -0.206 F 
ATOM     95  C   UNL A   1      39.574  36.324  38.907  1.00  0.00     0.060 A 
BRANCH  95  96
ATOM     96  S   UNL A   1      39.365  37.639  40.127  1.00  0.00     0.124 S 
ATOM     97  O   UNL A   1      40.660  38.308  40.060  1.00  0.00    -0.237 OA
ATOM     98  O   UNL A   1      38.235  38.390  39.589  1.00  0.00    -0.237 OA
ATOM     99  O   UNL A   1      39.095  36.913  41.364  1.00  0.00    -0.744 OA
ENDBRANCH  95  96
ENDBRANCH  63  88
ENDBRANCH  37  38
ENDBRANCH  29  32
ENDBRANCH  27  28
ENDBRANCH   1  27
TORSDOF 16
ENDMDL
MODEL 3
REMARK VINA RESULT:     -11.6      5.365     10.261
REMARK SMILES CS(=O)(=O)c1ccc(N2N=C(C(=O)NCCCNC(=O)c3ccc(-c4c5nc(c(-c6c(F)cc(S(=O)(=O)[O-])cc6F)c6ccc([nH]6)c(-c6c(F)cc(S(=O)(=O)[O-])cc6F)c6nc(c(-c7c(F)cc(S(=O)(=O)[O-])cc7F)c7ccc4[nH]7)C=C6)C=C5)cc3)C[C@H]2c2ccco2)cc1
REMARK SMILES IDX 16 1 15 2 14 3 12 4 13 5 11 7 9 8 10 9 88 10 87 11 8 12 5 13
REMARK SMILES IDX 6 14 95 15 7 16 94 17 2 18 1 19 3 20 4 21 89 22 90 23 93 24
REMARK SMILES IDX 91 25 92 26 17 27 18 28 19 29 20 31 21 32 22 33 86 34 23 35
REMARK SMILES IDX 85 36 24 37 25 38 26 39 79 40 27 41 84 42 78 43 80 44 28 45
REMARK SMILES IDX 83 46 77 47 76 48 29 50 63 51 42 52 62 53 43 54 46 55 61 56
REMARK SMILES IDX 81 57 44 58 45 59 60 61 82 62 47 63 30 64 31 65 40 66 32 67
REMARK SMILES IDX 33 68 39 69 41 70 34 71 35 72 36 73 37 74 38 75 64 76 65 77
REMARK SMILES IDX 74 78 66 79 67 80 73 81 75 82 68 83 69 84 70 85 71 86 72 87
REMARK SMILES IDX 48 88 49 89 58 90 50 91 51 92 57 93 59 94 52 95 53 96 54 97
REMARK SMILES IDX 55 98 56 99
REMARK H PARENT 14 6 18 30 80 49 46 60
REMARK Flexibility Score: inf
ROOT
ATOM      1  C   UNL A   1      37.778  23.227  25.860  1.00  0.00     0.042 C 
ENDROOT
BRANCH   1   2
ATOM      2  C   UNL A   1      36.292  23.560  25.807  1.00  0.00     0.118 C 
BRANCH   2   3
ATOM      3  N   UNL A   1      35.766  23.448  24.456  1.00  0.00    -0.351 N 
ATOM      4  C   UNL A   1      34.760  24.061  23.754  1.00  0.00     0.267 C 
ATOM      5  O   UNL A   1      34.527  23.647  22.620  1.00  0.00    -0.268 OA
ATOM      6  H   UNL A   1      36.243  22.774  23.920  1.00  0.00     0.163 HD
BRANCH   4   7
ATOM      7  C   UNL A   1      33.952  25.241  24.271  1.00  0.00     0.128 C 
ATOM      8  N   UNL A   1      32.742  27.009  24.194  1.00  0.00    -0.254 N 
ATOM      9  N   UNL A   1      33.242  25.971  23.462  1.00  0.00    -0.171 NA
ATOM     10  C   UNL A   1      32.953  26.840  25.641  1.00  0.00     0.180 C 
ATOM     11  C   UNL A   1      33.929  25.662  25.696  1.00  0.00     0.099 C 
BRANCH   8  12
ATOM     12  C   UNL A   1      31.592  27.664  23.745  1.00  0.00     0.060 A 
ATOM     13  C   UNL A   1      29.284  29.047  22.942  1.00  0.00     0.067 A 
ATOM     14  C   UNL A   1      29.197  27.694  23.282  1.00  0.00     0.022 A 
ATOM     15  C   UNL A   1      30.509  29.711  22.982  1.00  0.00     0.022 A 
ATOM     16  C   UNL A   1      30.354  27.007  23.664  1.00  0.00     0.029 A 
ATOM     17  C   UNL A   1      31.652  29.016  23.378  1.00  0.00     0.029 A 
BRANCH  13  18
ATOM     18  S   UNL A   1      27.817  29.932  22.478  1.00  0.00     0.175 S 
ATOM     19  C   UNL A   1      28.043  31.551  23.161  1.00  0.00     0.163 C 
ATOM     20  O   UNL A   1      26.695  29.325  23.174  1.00  0.00    -0.224 OA
ATOM     21  O   UNL A   1      27.824  30.038  21.033  1.00  0.00    -0.224 OA
ENDBRANCH  13  18
ENDBRANCH   8  12
BRANCH  10  22
ATOM     22  C   UNL A   1      33.453  28.032  26.410  1.00  0.00     0.128 A 
ATOM     23  C   UNL A   1      34.720  28.469  26.750  1.00  0.00     0.048 A 
ATOM     24  O   UNL A   1      32.531  28.926  26.882  1.00  0.00    -0.467 OA
ATOM     25  C   UNL A   1      34.557  29.679  27.465  1.00  0.00     0.042 A 
ATOM     26  C   UNL A   1      33.206  29.922  27.504  1.00  0.00     0.195 A 
ENDBRANCH  10  22
ENDBRANCH   4   7
ENDBRANCH   2   3
ENDBRANCH   1   2
BRANCH   1  27
ATOM     27  C   UNL A   1      38.605  24.288  26.577  1.00  0.00     0.118 C 
BRANCH  27  28
ATOM     28  N   UNL A   1      39.945  24.409  26.016  1.00  0.00    -0.352 N 
ATOM     29  C   UNL A   1      40.954  25.292  26.314  1.00  0.00     0.251 C 
ATOM     30  H   UNL A   1      40.162  23.754  25.314  1.00  0.00     0.163 HD
ATOM     31  O   UNL A   1      41.919  25.377  25.560  1.00  0.00    -0.269 OA
BRANCH  29  32
ATOM     32  C   UNL A   1      40.879  26.139  27.524  1.00  0.00     0.039 A 
ATOM     33  C   UNL A   1      41.710  27.259  27.621  1.00  0.00     0.014 A 
ATOM     34  C   UNL A   1      40.022  25.812  28.578  1.00  0.00     0.014 A 
ATOM     35  C   UNL A   1      41.634  28.084  28.747  1.00  0.00     0.010 A 
ATOM     36  C   UNL A   1      39.888  26.678  29.659  1.00  0.00     0.010 A 
ATOM     37  C   UNL A   1      40.698  27.818  29.759  1.00  0.00    -0.014 A 
BRANCH  37  38
ATOM     38  C   UNL A   1      40.559  28.703  30.943  1.00  0.00     0.031 A 
ATOM     39  C   UNL A   1      39.533  29.806  30.939  1.00  0.00     0.074 A 
ATOM     40  C   UNL A   1      41.402  28.565  31.985  1.00  0.00     0.049 A 
ATOM     41  N   UNL A   1      39.336  30.756  31.815  1.00  0.00    -0.248 NA
ATOM     42  C   UNL A   1      38.630  29.865  29.777  1.00  0.00     0.031 C 
ATOM     43  C   UNL A   1      42.462  27.561  32.091  1.00  0.00     0.029 A 
ATOM     44  N   UNL A   1      41.508  29.281  33.151  1.00  0.00    -0.354 N 
ATOM     45  C   UNL A   1      38.305  31.535  31.304  1.00  0.00     0.074 A 
ATOM     46  C   UNL A   1      37.951  30.977  30.017  1.00  0.00     0.031 C 
ATOM     47  C   UNL A   1      43.098  27.712  33.263  1.00  0.00     0.029 A 
ATOM     48  C   UNL A   1      42.518  28.847  33.976  1.00  0.00     0.049 A 
ATOM     49  H   UNL A   1      40.916  30.035  33.375  1.00  0.00     0.167 HD
ATOM     50  C   UNL A   1      37.692  32.604  31.867  1.00  0.00     0.037 A 
ATOM     51  C   UNL A   1      42.935  29.316  35.167  1.00  0.00     0.037 A 
ATOM     52  C   UNL A   1      38.024  33.132  33.163  1.00  0.00     0.049 A 
ATOM     53  C   UNL A   1      42.234  30.499  35.775  1.00  0.00     0.074 A 
ATOM     54  C   UNL A   1      37.434  34.184  33.842  1.00  0.00     0.029 A 
ATOM     55  N   UNL A   1      39.032  32.643  33.982  1.00  0.00    -0.354 N 
ATOM     56  N   UNL A   1      41.236  31.201  35.294  1.00  0.00    -0.248 NA
ATOM     57  C   UNL A   1      42.712  30.953  37.089  1.00  0.00     0.031 C 
ATOM     58  C   UNL A   1      38.103  34.348  35.060  1.00  0.00     0.029 A 
ATOM     59  C   UNL A   1      39.084  33.374  35.156  1.00  0.00     0.049 A 
ATOM     60  H   UNL A   1      39.621  31.886  33.760  1.00  0.00     0.167 HD
ATOM     61  C   UNL A   1      40.947  32.159  36.259  1.00  0.00     0.074 A 
ATOM     62  C   UNL A   1      41.870  31.943  37.354  1.00  0.00     0.031 C 
ATOM     63  C   UNL A   1      40.000  33.131  36.241  1.00  0.00     0.037 A 
BRANCH  50  64
ATOM     64  C   UNL A   1      36.589  33.263  31.084  1.00  0.00     0.058 A 
ATOM     65  C   UNL A   1      36.866  34.144  30.027  1.00  0.00     0.135 A 
ATOM     66  C   UNL A   1      35.242  32.992  31.375  1.00  0.00     0.135 A 
ATOM     67  F   UNL A   1      38.135  34.451  29.717  1.00  0.00    -0.206 F 
ATOM     68  C   UNL A   1      35.848  34.759  29.307  1.00  0.00     0.059 A 
ATOM     69  C   UNL A   1      34.207  33.575  30.649  1.00  0.00     0.059 A 
ATOM     70  F   UNL A   1      34.922  32.156  32.375  1.00  0.00    -0.206 F 
ATOM     71  C   UNL A   1      34.521  34.470  29.627  1.00  0.00     0.060 A 
BRANCH  71  72
ATOM     72  S   UNL A   1      33.210  35.278  28.686  1.00  0.00     0.124 S 
ATOM     73  O   UNL A   1      32.488  35.984  29.739  1.00  0.00    -0.237 OA
ATOM     74  O   UNL A   1      33.962  36.121  27.760  1.00  0.00    -0.237 OA
ATOM     75  O   UNL A   1      32.494  34.163  28.073  1.00  0.00    -0.744 OA
ENDBRANCH  71  72
ENDBRANCH  50  64
BRANCH  51  76
ATOM     76  C   UNL A   1      44.058  28.649  35.880  1.00  0.00     0.058 A 
ATOM     77  C   UNL A   1      45.384  29.043  35.655  1.00  0.00     0.135 A 
ATOM     78  C   UNL A   1      43.829  27.616  36.801  1.00  0.00     0.135 A 
ATOM     79  F   UNL A   1      45.653  30.025  34.781  1.00  0.00    -0.206 F 
ATOM     80  C   UNL A   1      46.448  28.424  36.302  1.00  0.00     0.059 A 
ATOM     81  C   UNL A   1      44.874  26.996  37.478  1.00  0.00     0.059 A 
ATOM     82  F   UNL A   1      42.575  27.215  37.066  1.00  0.00    -0.206 F 
ATOM     83  C   UNL A   1      46.182  27.399  37.213  1.00  0.00     0.060 A 
BRANCH  83  84
ATOM     84  S   UNL A   1      47.567  26.629  38.079  1.00  0.00     0.124 S 
ATOM     85  O   UNL A   1      48.040  25.674  37.086  1.00  0.00    -0.237 OA
ATOM     86  O   UNL A   1      48.442  27.769  38.338  1.00  0.00    -0.237 OA
ATOM     87  O   UNL A   1      46.938  26.052  39.265  1.00  0.00    -0.744 OA
ENDBRANCH  83  84
ENDBRANCH  51  76
BRANCH  63  88
ATOM     88  C   UNL A   1      39.885  34.005  37.457  1.00  0.00     0.058 A 
ATOM     89  C   UNL A   1      40.579  35.221  37.560  1.00  0.00     0.135 A 
ATOM     90  C   UNL A   1      39.028  33.645  38.509  1.00  0.00     0.135 A 
ATOM     91  F   UNL A   1      41.417  35.604  36.583  1.00  0.00    -0.206 F 
ATOM     92  C   UNL A   1      40.439  36.042  38.672  1.00  0.00     0.059 A 
ATOM     93  C   UNL A   1      38.855  34.463  39.620  1.00  0.00     0.059 A 
ATOM     94  F   UNL A   1      38.336  32.496  38.454  1.00  0.00    -0.206 F 
ATOM     95  C   UNL A   1      39.574  35.656  39.697  1.00  0.00     0.060 A 
BRANCH  95  96
ATOM     96  S   UNL A   1      39.370  36.750  41.119  1.00  0.00     0.124 S 
ATOM     97  O   UNL A   1      38.753  37.919  40.503  1.00  0.00    -0.237 OA
ATOM     98  O   UNL A   1      38.506  35.966  41.997  1.00  0.00    -0.237 OA
ATOM     99  O   UNL A   1      40.735  36.939  41.600  1.00  0.00    -0.744 OA
ENDBRANCH  95  96
ENDBRANCH  63  88
ENDBRANCH  37  38
ENDBRANCH  29  32
ENDBRANCH  27  28
ENDBRANCH   1  27
TORSDOF 16
ENDMDL
