MODEL 1
REMARK VINA RESULT:     -11.9      0.000      0.000
REMARK SMILES O=C(NCCCNC(=O)c1cc(=O)[nH]c2c(Br)cccc12)c1ccc(-c2c3nc(c(-c4c(F)cc(S(=O)(=O)[O-])cc4F)c4ccc([nH]4)c(-c4c(F)cc(S(=O)(=O)[O-])cc4F)c4nc(c(-c5c(F)cc(S(=O)(=O)[O-])cc5F)c5ccc2[nH]5)C=C4)C=C3)cc1
REMARK SMILES IDX 1 1 2 2 3 3 22 5 23 6 87 7 24 8 86 9 25 10 26 11 27 12 80 13
REMARK SMILES IDX 28 14 85 15 79 16 81 17 29 18 84 19 78 20 77 21 30 23 64 24
REMARK SMILES IDX 43 25 63 26 44 27 47 28 62 29 82 30 45 31 46 32 61 34 83 35
REMARK SMILES IDX 48 36 31 37 32 38 41 39 33 40 34 41 40 42 42 43 35 44 36 45
REMARK SMILES IDX 37 46 38 47 39 48 65 49 66 50 75 51 67 52 68 53 74 54 76 55
REMARK SMILES IDX 69 56 70 57 71 58 72 59 73 60 49 61 50 62 59 63 51 64 52 65
REMARK SMILES IDX 58 66 60 67 53 68 54 69 55 70 56 71 57 72 4 73 5 74 6 75
REMARK SMILES IDX 7 76 8 77 9 79 10 80 11 81 21 82 12 83 15 84 20 85 13 86
REMARK SMILES IDX 14 87 16 88 19 89 17 91 18 92
REMARK H PARENT 3 4 81 22 47 33 7 78 14 90
REMARK Flexibility Score: inf
ROOT
ATOM      1  O   UNL A   1      34.123  31.766  28.532  1.00  0.00    -0.269 OA
ATOM      2  C   UNL A   1      34.429  30.635  28.162  1.00  0.00     0.251 C 
ATOM      3  N   UNL A   1      33.466  29.843  27.589  1.00  0.00    -0.352 N 
ATOM      4  H   UNL A   1      32.631  30.310  27.356  1.00  0.00     0.163 HD
ENDROOT
BRANCH   2   5
ATOM      5  C   UNL A   1      35.815  30.147  28.338  1.00  0.00     0.039 A 
ATOM      6  C   UNL A   1      36.205  29.666  29.592  1.00  0.00     0.014 A 
ATOM      7  C   UNL A   1      36.753  30.225  27.306  1.00  0.00     0.014 A 
ATOM      8  C   UNL A   1      37.522  29.249  29.801  1.00  0.00     0.010 A 
ATOM      9  C   UNL A   1      38.036  29.716  27.485  1.00  0.00     0.010 A 
ATOM     10  C   UNL A   1      38.447  29.262  28.745  1.00  0.00    -0.014 A 
BRANCH  10  11
ATOM     11  C   UNL A   1      39.874  28.910  28.961  1.00  0.00     0.031 A 
ATOM     12  C   UNL A   1      40.801  29.925  29.581  1.00  0.00     0.074 A 
ATOM     13  C   UNL A   1      40.343  27.702  28.592  1.00  0.00     0.049 A 
ATOM     14  N   UNL A   1      42.089  29.849  29.794  1.00  0.00    -0.248 NA
ATOM     15  C   UNL A   1      40.203  31.206  29.995  1.00  0.00     0.031 C 
ATOM     16  C   UNL A   1      39.548  26.637  27.978  1.00  0.00     0.029 A 
ATOM     17  N   UNL A   1      41.602  27.165  28.688  1.00  0.00    -0.354 N 
ATOM     18  C   UNL A   1      42.451  31.067  30.359  1.00  0.00     0.074 A 
ATOM     19  C   UNL A   1      41.265  31.893  30.383  1.00  0.00     0.031 C 
ATOM     20  C   UNL A   1      40.328  25.561  27.790  1.00  0.00     0.029 A 
ATOM     21  C   UNL A   1      41.688  25.873  28.226  1.00  0.00     0.049 A 
ATOM     22  H   UNL A   1      42.372  27.658  29.052  1.00  0.00     0.167 HD
ATOM     23  C   UNL A   1      43.652  31.451  30.852  1.00  0.00     0.037 A 
ATOM     24  C   UNL A   1      42.742  25.035  28.162  1.00  0.00     0.037 A 
ATOM     25  C   UNL A   1      44.824  30.617  30.851  1.00  0.00     0.049 A 
ATOM     26  C   UNL A   1      44.082  25.505  28.660  1.00  0.00     0.074 A 
ATOM     27  C   UNL A   1      46.086  30.905  31.340  1.00  0.00     0.029 A 
ATOM     28  N   UNL A   1      44.876  29.328  30.342  1.00  0.00    -0.354 N 
ATOM     29  N   UNL A   1      44.404  26.654  29.205  1.00  0.00    -0.248 NA
ATOM     30  C   UNL A   1      45.205  24.565  28.533  1.00  0.00     0.031 C 
ATOM     31  C   UNL A   1      46.912  29.808  31.086  1.00  0.00     0.029 A 
ATOM     32  C   UNL A   1      46.154  28.814  30.486  1.00  0.00     0.049 A 
ATOM     33  H   UNL A   1      44.117  28.849  29.937  1.00  0.00     0.167 HD
ATOM     34  C   UNL A   1      45.758  26.567  29.509  1.00  0.00     0.074 A 
ATOM     35  C   UNL A   1      46.193  25.247  29.099  1.00  0.00     0.031 C 
ATOM     36  C   UNL A   1      46.569  27.495  30.076  1.00  0.00     0.037 A 
BRANCH  23  37
ATOM     37  C   UNL A   1      43.752  32.831  31.448  1.00  0.00     0.058 A 
ATOM     38  C   UNL A   1      43.597  33.047  32.828  1.00  0.00     0.135 A 
ATOM     39  C   UNL A   1      44.034  33.945  30.641  1.00  0.00     0.135 A 
ATOM     40  F   UNL A   1      43.307  32.020  33.645  1.00  0.00    -0.206 F 
ATOM     41  C   UNL A   1      43.689  34.319  33.381  1.00  0.00     0.059 A 
ATOM     42  C   UNL A   1      44.163  35.223  31.178  1.00  0.00     0.059 A 
ATOM     43  F   UNL A   1      44.190  33.798  29.316  1.00  0.00    -0.206 F 
ATOM     44  C   UNL A   1      43.973  35.401  32.548  1.00  0.00     0.060 A 
BRANCH  44  45
ATOM     45  S   UNL A   1      44.092  37.043  33.287  1.00  0.00     0.124 S 
ATOM     46  O   UNL A   1      42.800  37.155  33.957  1.00  0.00    -0.237 OA
ATOM     47  O   UNL A   1      45.250  36.906  34.163  1.00  0.00    -0.237 OA
ATOM     48  O   UNL A   1      44.278  37.922  32.137  1.00  0.00    -0.744 OA
ENDBRANCH  44  45
ENDBRANCH  23  37
BRANCH  24  49
ATOM     49  C   UNL A   1      42.560  23.654  27.639  1.00  0.00     0.058 A 
ATOM     50  C   UNL A   1      42.597  23.400  26.261  1.00  0.00     0.135 A 
ATOM     51  C   UNL A   1      42.379  22.559  28.500  1.00  0.00     0.135 A 
ATOM     52  F   UNL A   1      42.757  24.413  25.396  1.00  0.00    -0.206 F 
ATOM     53  C   UNL A   1      42.459  22.113  25.751  1.00  0.00     0.059 A 
ATOM     54  C   UNL A   1      42.265  21.259  28.016  1.00  0.00     0.059 A 
ATOM     55  F   UNL A   1      42.348  22.746  29.829  1.00  0.00    -0.206 F 
ATOM     56  C   UNL A   1      42.303  21.047  26.639  1.00  0.00     0.060 A 
BRANCH  56  57
ATOM     57  S   UNL A   1      42.191  19.375  25.966  1.00  0.00     0.124 S 
ATOM     58  O   UNL A   1      43.035  19.475  24.781  1.00  0.00    -0.237 OA
ATOM     59  O   UNL A   1      42.722  18.572  27.064  1.00  0.00    -0.237 OA
ATOM     60  O   UNL A   1      40.763  19.209  25.712  1.00  0.00    -0.744 OA
ENDBRANCH  56  57
ENDBRANCH  24  49
BRANCH  36  61
ATOM     61  C   UNL A   1      48.008  27.120  30.306  1.00  0.00     0.058 A 
ATOM     62  C   UNL A   1      49.008  27.438  29.376  1.00  0.00     0.135 A 
ATOM     63  C   UNL A   1      48.400  26.507  31.508  1.00  0.00     0.135 A 
ATOM     64  F   UNL A   1      48.686  28.020  28.209  1.00  0.00    -0.206 F 
ATOM     65  C   UNL A   1      50.346  27.148  29.620  1.00  0.00     0.059 A 
ATOM     66  C   UNL A   1      49.737  26.235  31.787  1.00  0.00     0.059 A 
ATOM     67  F   UNL A   1      47.485  26.193  32.438  1.00  0.00    -0.206 F 
ATOM     68  C   UNL A   1      50.702  26.552  30.833  1.00  0.00     0.060 A 
BRANCH  68  69
ATOM     69  S   UNL A   1      52.447  26.225  31.151  1.00  0.00     0.124 S 
ATOM     70  O   UNL A   1      52.996  26.208  29.800  1.00  0.00    -0.237 OA
ATOM     71  O   UNL A   1      52.830  27.366  31.977  1.00  0.00    -0.237 OA
ATOM     72  O   UNL A   1      52.433  24.937  31.839  1.00  0.00    -0.744 OA
ENDBRANCH  68  69
ENDBRANCH  36  61
ENDBRANCH  10  11
ENDBRANCH   2   5
BRANCH   3  73
ATOM     73  C   UNL A   1      33.479  28.424  27.267  1.00  0.00     0.118 C 
BRANCH  73  74
ATOM     74  C   UNL A   1      32.321  28.017  26.366  1.00  0.00     0.042 C 
BRANCH  74  75
ATOM     75  C   UNL A   1      32.331  28.671  24.994  1.00  0.00     0.118 C 
BRANCH  75  76
ATOM     76  N   UNL A   1      31.000  28.768  24.408  1.00  0.00    -0.352 N 
ATOM     77  C   UNL A   1      30.362  27.945  23.529  1.00  0.00     0.252 C 
ATOM     78  H   UNL A   1      30.480  29.554  24.693  1.00  0.00     0.163 HD
ATOM     79  O   UNL A   1      29.259  28.262  23.092  1.00  0.00    -0.269 OA
BRANCH  77  80
ATOM     80  C   UNL A   1      31.019  26.682  23.102  1.00  0.00     0.054 A 
ATOM     81  C   UNL A   1      31.754  26.741  21.979  1.00  0.00     0.086 A 
ATOM     82  C   UNL A   1      31.009  25.449  23.912  1.00  0.00     0.012 A 
ATOM     83  C   UNL A   1      32.441  25.552  21.449  1.00  0.00     0.249 A 
ATOM     84  C   UNL A   1      31.724  24.334  23.443  1.00  0.00     0.063 A 
ATOM     85  C   UNL A   1      30.323  25.344  25.132  1.00  0.00     0.011 A 
ATOM     86  O   UNL A   1      33.021  25.596  20.369  1.00  0.00    -0.270 OA
ATOM     87  N   UNL A   1      32.396  24.426  22.213  1.00  0.00    -0.321 N 
ATOM     88  C   UNL A   1      31.768  23.150  24.194  1.00  0.00     0.042 A 
ATOM     89  C   UNL A   1      30.368  24.163  25.876  1.00  0.00     0.002 A 
ATOM     90  H   UNL A   1      32.863  23.625  21.882  1.00  0.00     0.170 HD
ATOM     91  Br  UNL A   1      32.751  21.638  23.603  1.00  0.00    -0.049 Br
ATOM     92  C   UNL A   1      31.094  23.067  25.411  1.00  0.00     0.018 A 
ENDBRANCH  77  80
ENDBRANCH  75  76
ENDBRANCH  74  75
ENDBRANCH  73  74
ENDBRANCH   3  73
TORSDOF 13
ENDMDL
MODEL 2
REMARK VINA RESULT:     -11.9      1.005      1.832
REMARK SMILES O=C(NCCCNC(=O)c1cc(=O)[nH]c2c(Br)cccc12)c1ccc(-c2c3nc(c(-c4c(F)cc(S(=O)(=O)[O-])cc4F)c4ccc([nH]4)c(-c4c(F)cc(S(=O)(=O)[O-])cc4F)c4nc(c(-c5c(F)cc(S(=O)(=O)[O-])cc5F)c5ccc2[nH]5)C=C4)C=C3)cc1
REMARK SMILES IDX 1 1 2 2 3 3 22 5 23 6 87 7 24 8 86 9 25 10 26 11 27 12 80 13
REMARK SMILES IDX 28 14 85 15 79 16 81 17 29 18 84 19 78 20 77 21 30 23 64 24
REMARK SMILES IDX 43 25 63 26 44 27 47 28 62 29 82 30 45 31 46 32 61 34 83 35
REMARK SMILES IDX 48 36 31 37 32 38 41 39 33 40 34 41 40 42 42 43 35 44 36 45
REMARK SMILES IDX 37 46 38 47 39 48 65 49 66 50 75 51 67 52 68 53 74 54 76 55
REMARK SMILES IDX 69 56 70 57 71 58 72 59 73 60 49 61 50 62 59 63 51 64 52 65
REMARK SMILES IDX 58 66 60 67 53 68 54 69 55 70 56 71 57 72 4 73 5 74 6 75
REMARK SMILES IDX 7 76 8 77 9 79 10 80 11 81 21 82 12 83 15 84 20 85 13 86
REMARK SMILES IDX 14 87 16 88 19 89 17 91 18 92
REMARK H PARENT 3 4 81 22 47 33 7 78 14 90
REMARK Flexibility Score: inf
ROOT
ATOM      1  O   UNL A   1      34.157  31.801  28.636  1.00  0.00    -0.269 OA
ATOM      2  C   UNL A   1      34.469  30.689  28.216  1.00  0.00     0.251 C 
ATOM      3  N   UNL A   1      33.510  29.915  27.612  1.00  0.00    -0.352 N 
ATOM      4  H   UNL A   1      32.671  30.386  27.403  1.00  0.00     0.163 HD
ENDROOT
BRANCH   2   5
ATOM      5  C   UNL A   1      35.859  30.203  28.367  1.00  0.00     0.039 A 
ATOM      6  C   UNL A   1      36.264  29.695  29.605  1.00  0.00     0.014 A 
ATOM      7  C   UNL A   1      36.786  30.310  27.327  1.00  0.00     0.014 A 
ATOM      8  C   UNL A   1      37.585  29.279  29.790  1.00  0.00     0.010 A 
ATOM      9  C   UNL A   1      38.073  29.803  27.481  1.00  0.00     0.010 A 
ATOM     10  C   UNL A   1      38.499  29.321  28.726  1.00  0.00    -0.014 A 
BRANCH  10  11
ATOM     11  C   UNL A   1      39.930  28.972  28.919  1.00  0.00     0.031 A 
ATOM     12  C   UNL A   1      40.868  29.992  29.514  1.00  0.00     0.074 A 
ATOM     13  C   UNL A   1      40.393  27.760  28.552  1.00  0.00     0.049 A 
ATOM     14  N   UNL A   1      42.160  29.918  29.704  1.00  0.00    -0.248 NA
ATOM     15  C   UNL A   1      40.277  31.277  29.927  1.00  0.00     0.031 C 
ATOM     16  C   UNL A   1      39.587  26.690  27.961  1.00  0.00     0.029 A 
ATOM     17  N   UNL A   1      41.653  27.224  28.629  1.00  0.00    -0.354 N 
ATOM     18  C   UNL A   1      42.531  31.141  30.253  1.00  0.00     0.074 A 
ATOM     19  C   UNL A   1      41.346  31.966  30.291  1.00  0.00     0.031 C 
ATOM     20  C   UNL A   1      40.364  25.613  27.768  1.00  0.00     0.029 A 
ATOM     21  C   UNL A   1      41.731  25.928  28.177  1.00  0.00     0.049 A 
ATOM     22  H   UNL A   1      42.430  27.721  28.975  1.00  0.00     0.167 HD
ATOM     23  C   UNL A   1      43.741  31.529  30.720  1.00  0.00     0.037 A 
ATOM     24  C   UNL A   1      42.784  25.091  28.101  1.00  0.00     0.037 A 
ATOM     25  C   UNL A   1      44.913  30.695  30.705  1.00  0.00     0.049 A 
ATOM     26  C   UNL A   1      44.133  25.564  28.570  1.00  0.00     0.074 A 
ATOM     27  C   UNL A   1      46.183  30.987  31.169  1.00  0.00     0.029 A 
ATOM     28  N   UNL A   1      44.956  29.401  30.206  1.00  0.00    -0.354 N 
ATOM     29  N   UNL A   1      44.464  26.718  29.100  1.00  0.00    -0.248 NA
ATOM     30  C   UNL A   1      45.253  24.624  28.431  1.00  0.00     0.031 C 
ATOM     31  C   UNL A   1      47.005  29.888  30.909  1.00  0.00     0.029 A 
ATOM     32  C   UNL A   1      46.236  28.889  30.332  1.00  0.00     0.049 A 
ATOM     33  H   UNL A   1      44.190  28.919  29.819  1.00  0.00     0.167 HD
ATOM     34  C   UNL A   1      45.823  26.634  29.381  1.00  0.00     0.074 A 
ATOM     35  C   UNL A   1      46.251  25.310  28.974  1.00  0.00     0.031 C 
ATOM     36  C   UNL A   1      46.645  27.566  29.925  1.00  0.00     0.037 A 
BRANCH  23  37
ATOM     37  C   UNL A   1      43.851  32.913  31.303  1.00  0.00     0.058 A 
ATOM     38  C   UNL A   1      44.201  34.018  30.509  1.00  0.00     0.135 A 
ATOM     39  C   UNL A   1      43.576  33.146  32.660  1.00  0.00     0.135 A 
ATOM     40  F   UNL A   1      44.493  33.850  29.208  1.00  0.00    -0.206 F 
ATOM     41  C   UNL A   1      44.303  35.297  31.044  1.00  0.00     0.059 A 
ATOM     42  C   UNL A   1      43.640  34.424  33.210  1.00  0.00     0.059 A 
ATOM     43  F   UNL A   1      43.239  32.128  33.467  1.00  0.00    -0.206 F 
ATOM     44  C   UNL A   1      44.020  35.490  32.397  1.00  0.00     0.060 A 
BRANCH  44  45
ATOM     45  S   UNL A   1      44.155  37.159  33.070  1.00  0.00     0.124 S 
ATOM     46  O   UNL A   1      43.953  37.973  31.874  1.00  0.00    -0.237 OA
ATOM     47  O   UNL A   1      43.072  37.188  34.046  1.00  0.00    -0.237 OA
ATOM     48  O   UNL A   1      45.503  37.193  33.629  1.00  0.00    -0.744 OA
ENDBRANCH  44  45
ENDBRANCH  23  37
BRANCH  24  49
ATOM     49  C   UNL A   1      42.593  23.705  27.593  1.00  0.00     0.058 A 
ATOM     50  C   UNL A   1      42.670  23.429  26.221  1.00  0.00     0.135 A 
ATOM     51  C   UNL A   1      42.365  22.627  28.463  1.00  0.00     0.135 A 
ATOM     52  F   UNL A   1      42.877  24.425  25.347  1.00  0.00    -0.206 F 
ATOM     53  C   UNL A   1      42.524  22.137  25.726  1.00  0.00     0.059 A 
ATOM     54  C   UNL A   1      42.242  21.322  27.996  1.00  0.00     0.059 A 
ATOM     55  F   UNL A   1      42.294  22.835  29.788  1.00  0.00    -0.206 F 
ATOM     56  C   UNL A   1      42.319  21.088  26.624  1.00  0.00     0.060 A 
BRANCH  56  57
ATOM     57  S   UNL A   1      42.198  19.408  25.973  1.00  0.00     0.124 S 
ATOM     58  O   UNL A   1      42.686  18.618  27.097  1.00  0.00    -0.237 OA
ATOM     59  O   UNL A   1      40.771  19.298  25.685  1.00  0.00    -0.237 OA
ATOM     60  O   UNL A   1      43.066  19.438  24.799  1.00  0.00    -0.744 OA
ENDBRANCH  56  57
ENDBRANCH  24  49
BRANCH  36  61
ATOM     61  C   UNL A   1      48.087  27.193  30.132  1.00  0.00     0.058 A 
ATOM     62  C   UNL A   1      49.082  27.566  29.216  1.00  0.00     0.135 A 
ATOM     63  C   UNL A   1      48.489  26.526  31.302  1.00  0.00     0.135 A 
ATOM     64  F   UNL A   1      48.751  28.201  28.080  1.00  0.00    -0.206 F 
ATOM     65  C   UNL A   1      50.423  27.276  29.441  1.00  0.00     0.059 A 
ATOM     66  C   UNL A   1      49.829  26.253  31.563  1.00  0.00     0.059 A 
ATOM     67  F   UNL A   1      47.580  26.158  32.218  1.00  0.00    -0.206 F 
ATOM     68  C   UNL A   1      50.788  26.625  30.623  1.00  0.00     0.060 A 
BRANCH  68  69
ATOM     69  S   UNL A   1      52.537  26.298  30.919  1.00  0.00     0.124 S 
ATOM     70  O   UNL A   1      52.974  27.551  31.524  1.00  0.00    -0.237 OA
ATOM     71  O   UNL A   1      52.489  25.145  31.813  1.00  0.00    -0.237 OA
ATOM     72  O   UNL A   1      53.065  26.028  29.585  1.00  0.00    -0.744 OA
ENDBRANCH  68  69
ENDBRANCH  36  61
ENDBRANCH  10  11
ENDBRANCH   2   5
BRANCH   3  73
ATOM     73  C   UNL A   1      33.532  28.511  27.229  1.00  0.00     0.118 C 
BRANCH  73  74
ATOM     74  C   UNL A   1      34.192  28.282  25.878  1.00  0.00     0.042 C 
BRANCH  74  75
ATOM     75  C   UNL A   1      33.449  28.896  24.701  1.00  0.00     0.118 C 
BRANCH  75  76
ATOM     76  N   UNL A   1      33.684  28.181  23.454  1.00  0.00    -0.352 N 
ATOM     77  C   UNL A   1      33.106  27.047  22.965  1.00  0.00     0.252 C 
ATOM     78  H   UNL A   1      34.370  28.580  22.872  1.00  0.00     0.163 HD
ATOM     79  O   UNL A   1      33.518  26.560  21.916  1.00  0.00    -0.269 OA
BRANCH  77  80
ATOM     80  C   UNL A   1      31.995  26.410  23.719  1.00  0.00     0.054 A 
ATOM     81  C   UNL A   1      30.749  26.744  23.342  1.00  0.00     0.086 A 
ATOM     82  C   UNL A   1      32.202  25.358  24.733  1.00  0.00     0.012 A 
ATOM     83  C   UNL A   1      29.568  26.188  24.023  1.00  0.00     0.249 A 
ATOM     84  C   UNL A   1      31.073  24.775  25.333  1.00  0.00     0.063 A 
ATOM     85  C   UNL A   1      33.475  24.911  25.118  1.00  0.00     0.011 A 
ATOM     86  O   UNL A   1      28.441  26.581  23.738  1.00  0.00    -0.270 OA
ATOM     87  N   UNL A   1      29.796  25.233  24.966  1.00  0.00    -0.321 N 
ATOM     88  C   UNL A   1      31.220  23.751  26.279  1.00  0.00     0.042 A 
ATOM     89  C   UNL A   1      33.617  23.891  26.062  1.00  0.00     0.002 A 
ATOM     90  H   UNL A   1      29.017  24.839  25.422  1.00  0.00     0.170 HD
ATOM     91  Br  UNL A   1      29.713  22.922  27.084  1.00  0.00    -0.049 Br
ATOM     92  C   UNL A   1      32.490  23.307  26.639  1.00  0.00     0.018 A 
ENDBRANCH  77  80
ENDBRANCH  75  76
ENDBRANCH  74  75
ENDBRANCH  73  74
ENDBRANCH   3  73
TORSDOF 13
ENDMDL
MODEL 3
REMARK VINA RESULT:     -11.9      4.749      6.267
REMARK SMILES O=C(NCCCNC(=O)c1cc(=O)[nH]c2c(Br)cccc12)c1ccc(-c2c3nc(c(-c4c(F)cc(S(=O)(=O)[O-])cc4F)c4ccc([nH]4)c(-c4c(F)cc(S(=O)(=O)[O-])cc4F)c4nc(c(-c5c(F)cc(S(=O)(=O)[O-])cc5F)c5ccc2[nH]5)C=C4)C=C3)cc1
REMARK SMILES IDX 1 1 2 2 3 3 22 5 23 6 87 7 24 8 86 9 25 10 26 11 27 12 80 13
REMARK SMILES IDX 28 14 85 15 79 16 81 17 29 18 84 19 78 20 77 21 30 23 64 24
REMARK SMILES IDX 43 25 63 26 44 27 47 28 62 29 82 30 45 31 46 32 61 34 83 35
REMARK SMILES IDX 48 36 31 37 32 38 41 39 33 40 34 41 40 42 42 43 35 44 36 45
REMARK SMILES IDX 37 46 38 47 39 48 65 49 66 50 75 51 67 52 68 53 74 54 76 55
REMARK SMILES IDX 69 56 70 57 71 58 72 59 73 60 49 61 50 62 59 63 51 64 52 65
REMARK SMILES IDX 58 66 60 67 53 68 54 69 55 70 56 71 57 72 4 73 5 74 6 75
REMARK SMILES IDX 7 76 8 77 9 79 10 80 11 81 21 82 12 83 15 84 20 85 13 86
REMARK SMILES IDX 14 87 16 88 19 89 17 91 18 92
REMARK H PARENT 3 4 81 22 47 33 7 78 14 90
REMARK Flexibility Score: inf
ROOT
ATOM      1  O   UNL A   1      36.276  29.995  31.846  1.00  0.00    -0.269 OA
ATOM      2  C   UNL A   1      36.533  29.954  30.645  1.00  0.00     0.251 C 
ATOM      3  N   UNL A   1      35.518  30.157  29.744  1.00  0.00    -0.352 N 
ATOM      4  H   UNL A   1      34.680  30.496  30.134  1.00  0.00     0.163 HD
ENDROOT
BRANCH   2   5
ATOM      5  C   UNL A   1      37.916  29.687  30.192  1.00  0.00     0.039 A 
ATOM      6  C   UNL A   1      38.247  29.934  28.856  1.00  0.00     0.014 A 
ATOM      7  C   UNL A   1      38.869  29.129  31.048  1.00  0.00     0.014 A 
ATOM      8  C   UNL A   1      39.531  29.641  28.389  1.00  0.00     0.010 A 
ATOM      9  C   UNL A   1      40.175  28.932  30.609  1.00  0.00     0.010 A 
ATOM     10  C   UNL A   1      40.509  29.145  29.265  1.00  0.00    -0.014 A 
BRANCH  10  11
ATOM     11  C   UNL A   1      41.853  28.740  28.777  1.00  0.00     0.031 A 
ATOM     12  C   UNL A   1      42.967  29.756  28.747  1.00  0.00     0.074 A 
ATOM     13  C   UNL A   1      42.072  27.481  28.348  1.00  0.00     0.049 A 
ATOM     14  N   UNL A   1      44.189  29.632  28.298  1.00  0.00    -0.248 NA
ATOM     15  C   UNL A   1      42.658  31.097  29.271  1.00  0.00     0.031 C 
ATOM     16  C   UNL A   1      41.075  26.410  28.323  1.00  0.00     0.029 A 
ATOM     17  N   UNL A   1      43.209  26.890  27.859  1.00  0.00    -0.354 N 
ATOM     18  C   UNL A   1      44.786  30.874  28.481  1.00  0.00     0.074 A 
ATOM     19  C   UNL A   1      43.773  31.759  29.007  1.00  0.00     0.031 C 
ATOM     20  C   UNL A   1      41.654  25.283  27.882  1.00  0.00     0.029 A 
ATOM     21  C   UNL A   1      43.050  25.560  27.550  1.00  0.00     0.049 A 
ATOM     22  H   UNL A   1      44.059  27.373  27.739  1.00  0.00     0.167 HD
ATOM     23  C   UNL A   1      46.073  31.236  28.269  1.00  0.00     0.037 A 
ATOM     24  C   UNL A   1      43.930  24.667  27.055  1.00  0.00     0.037 A 
ATOM     25  C   UNL A   1      47.086  30.345  27.769  1.00  0.00     0.049 A 
ATOM     26  C   UNL A   1      45.340  25.107  26.769  1.00  0.00     0.074 A 
ATOM     27  C   UNL A   1      48.424  30.609  27.534  1.00  0.00     0.029 A 
ATOM     28  N   UNL A   1      46.875  29.015  27.435  1.00  0.00    -0.354 N 
ATOM     29  N   UNL A   1      45.893  26.281  26.962  1.00  0.00    -0.248 NA
ATOM     30  C   UNL A   1      46.247  24.103  26.197  1.00  0.00     0.031 C 
ATOM     31  C   UNL A   1      49.011  29.452  27.015  1.00  0.00     0.029 A 
ATOM     32  C   UNL A   1      48.053  28.450  26.977  1.00  0.00     0.049 A 
ATOM     33  H   UNL A   1      46.015  28.543  27.513  1.00  0.00     0.167 HD
ATOM     34  C   UNL A   1      47.218  26.151  26.560  1.00  0.00     0.074 A 
ATOM     35  C   UNL A   1      47.387  24.779  26.124  1.00  0.00     0.031 C 
ATOM     36  C   UNL A   1      48.205  27.081  26.550  1.00  0.00     0.037 A 
BRANCH  23  37
ATOM     37  C   UNL A   1      46.460  32.655  28.593  1.00  0.00     0.058 A 
ATOM     38  C   UNL A   1      46.931  33.015  29.867  1.00  0.00     0.135 A 
ATOM     39  C   UNL A   1      46.390  33.661  27.615  1.00  0.00     0.135 A 
ATOM     40  F   UNL A   1      47.001  32.097  30.846  1.00  0.00    -0.206 F 
ATOM     41  C   UNL A   1      47.288  34.324  30.169  1.00  0.00     0.059 A 
ATOM     42  C   UNL A   1      46.774  34.972  27.886  1.00  0.00     0.059 A 
ATOM     43  F   UNL A   1      45.945  33.376  26.382  1.00  0.00    -0.206 F 
ATOM     44  C   UNL A   1      47.208  35.296  29.171  1.00  0.00     0.060 A 
BRANCH  44  45
ATOM     45  S   UNL A   1      47.681  36.987  29.584  1.00  0.00     0.124 S 
ATOM     46  O   UNL A   1      48.811  36.763  30.481  1.00  0.00    -0.237 OA
ATOM     47  O   UNL A   1      48.010  37.545  28.277  1.00  0.00    -0.237 OA
ATOM     48  O   UNL A   1      46.482  37.533  30.213  1.00  0.00    -0.744 OA
ENDBRANCH  44  45
ENDBRANCH  23  37
BRANCH  24  49
ATOM     49  C   UNL A   1      43.509  23.256  26.835  1.00  0.00     0.058 A 
ATOM     50  C   UNL A   1      43.326  22.758  25.538  1.00  0.00     0.135 A 
ATOM     51  C   UNL A   1      43.314  22.371  27.907  1.00  0.00     0.135 A 
ATOM     52  F   UNL A   1      43.489  23.567  24.479  1.00  0.00    -0.206 F 
ATOM     53  C   UNL A   1      42.961  21.435  25.307  1.00  0.00     0.059 A 
ATOM     54  C   UNL A   1      42.976  21.036  27.702  1.00  0.00     0.059 A 
ATOM     55  F   UNL A   1      43.488  22.793  29.169  1.00  0.00    -0.206 F 
ATOM     56  C   UNL A   1      42.798  20.580  26.397  1.00  0.00     0.060 A 
BRANCH  56  57
ATOM     57  S   UNL A   1      42.389  18.849  26.080  1.00  0.00     0.124 S 
ATOM     58  O   UNL A   1      43.327  18.514  25.015  1.00  0.00    -0.237 OA
ATOM     59  O   UNL A   1      42.650  18.235  27.379  1.00  0.00    -0.237 OA
ATOM     60  O   UNL A   1      40.983  18.901  25.690  1.00  0.00    -0.744 OA
ENDBRANCH  56  57
ENDBRANCH  24  49
BRANCH  36  61
ATOM     61  C   UNL A   1      49.565  26.653  26.071  1.00  0.00     0.058 A 
ATOM     62  C   UNL A   1      50.009  26.935  24.770  1.00  0.00     0.135 A 
ATOM     63  C   UNL A   1      50.465  26.025  26.949  1.00  0.00     0.135 A 
ATOM     64  F   UNL A   1      49.187  27.530  23.890  1.00  0.00    -0.206 F 
ATOM     65  C   UNL A   1      51.290  26.596  24.350  1.00  0.00     0.059 A 
ATOM     66  C   UNL A   1      51.762  25.704  26.560  1.00  0.00     0.059 A 
ATOM     67  F   UNL A   1      50.096  25.743  28.208  1.00  0.00    -0.206 F 
ATOM     68  C   UNL A   1      52.163  25.986  25.255  1.00  0.00     0.060 A 
BRANCH  68  69
ATOM     69  S   UNL A   1      53.836  25.595  24.705  1.00  0.00     0.124 S 
ATOM     70  O   UNL A   1      53.786  25.987  23.301  1.00  0.00    -0.237 OA
ATOM     71  O   UNL A   1      54.652  26.440  25.571  1.00  0.00    -0.237 OA
ATOM     72  O   UNL A   1      53.950  24.160  24.952  1.00  0.00    -0.744 OA
ENDBRANCH  68  69
ENDBRANCH  36  61
ENDBRANCH  10  11
ENDBRANCH   2   5
BRANCH   3  73
ATOM     73  C   UNL A   1      35.479  29.953  28.304  1.00  0.00     0.118 C 
BRANCH  73  74
ATOM     74  C   UNL A   1      35.068  31.206  27.545  1.00  0.00     0.042 C 
BRANCH  74  75
ATOM     75  C   UNL A   1      33.937  31.990  28.191  1.00  0.00     0.118 C 
BRANCH  75  76
ATOM     76  N   UNL A   1      34.073  33.429  28.005  1.00  0.00    -0.352 N 
ATOM     77  C   UNL A   1      34.604  34.377  28.828  1.00  0.00     0.252 C 
ATOM     78  H   UNL A   1      33.726  33.770  27.149  1.00  0.00     0.163 HD
ATOM     79  O   UNL A   1      34.540  35.562  28.508  1.00  0.00    -0.269 OA
BRANCH  77  80
ATOM     80  C   UNL A   1      35.238  33.964  30.106  1.00  0.00     0.054 A 
ATOM     81  C   UNL A   1      34.407  33.715  31.133  1.00  0.00     0.086 A 
ATOM     82  C   UNL A   1      36.682  33.691  30.244  1.00  0.00     0.012 A 
ATOM     83  C   UNL A   1      34.919  33.310  32.453  1.00  0.00     0.249 A 
ATOM     84  C   UNL A   1      37.162  33.235  31.484  1.00  0.00     0.063 A 
ATOM     85  C   UNL A   1      37.592  33.858  29.190  1.00  0.00     0.011 A 
ATOM     86  O   UNL A   1      34.157  33.189  33.406  1.00  0.00    -0.270 OA
ATOM     87  N   UNL A   1      36.258  33.085  32.549  1.00  0.00    -0.321 N 
ATOM     88  C   UNL A   1      38.521  32.934  31.652  1.00  0.00     0.042 A 
ATOM     89  C   UNL A   1      38.946  33.558  29.362  1.00  0.00     0.002 A 
ATOM     90  H   UNL A   1      36.616  32.799  33.420  1.00  0.00     0.170 HD
ATOM     91  Br  UNL A   1      39.195  32.288  33.306  1.00  0.00    -0.049 Br
ATOM     92  C   UNL A   1      39.411  33.091  30.591  1.00  0.00     0.018 A 
ENDBRANCH  77  80
ENDBRANCH  75  76
ENDBRANCH  74  75
ENDBRANCH  73  74
ENDBRANCH   3  73
TORSDOF 13
ENDMDL
