MODEL 1
REMARK VINA RESULT:     -13.9      0.000      0.000
REMARK SMILES O=C(NCCCNC(=O)c1ccc(-c2c3nc(c(-c4c(F)cc(S(=O)(=O)[O-])cc4F)c4ccc([nH]4)c(-c4c(F)cc(S(=O)(=O)[O-])cc4F)c4nc(c(-c5c(F)cc(S(=O)(=O)[O-])cc5F)c5ccc2[nH]5)C=C4)C=C3)cc1)c1ccc(NC(=O)[C@@H]2CC=CC[C@H]2C(=O)Nc2cccc([N+](=O)[O-])c2)cc1
REMARK SMILES IDX 4 1 3 2 1 3 2 4 76 6 77 7 102 8 78 9 101 10 79 11 80 12
REMARK SMILES IDX 81 13 82 15 83 16 84 17 88 18 85 19 87 20 86 21 89 22 90 23
REMARK SMILES IDX 91 24 92 26 93 27 100 28 94 29 96 30 95 31 97 32 98 33 99 34
REMARK SMILES IDX 5 35 6 36 7 37 8 38 9 40 10 41 11 42 75 43 12 44 74 45 13 46
REMARK SMILES IDX 14 47 15 48 68 49 16 50 73 51 67 52 69 53 17 54 72 55 66 56
REMARK SMILES IDX 65 57 18 59 52 60 31 61 51 62 32 63 35 64 50 65 70 66 33 67
REMARK SMILES IDX 34 68 49 70 71 71 36 72 19 73 20 74 29 75 21 76 22 77 28 78
REMARK SMILES IDX 30 79 23 80 24 81 25 82 26 83 27 84 53 85 54 86 63 87 55 88
REMARK SMILES IDX 56 89 62 90 64 91 57 92 58 93 59 94 60 95 61 96 37 97 38 98
REMARK SMILES IDX 47 99 39 100 40 101 46 102 48 103 41 104 42 105 43 106
REMARK SMILES IDX 44 107 45 108
REMARK H PARENT 3 5 80 14 91 25 7 39 69 58 35 69
REMARK Flexibility Score: inf
ROOT
ATOM      1  C   UNL A   1      33.045  29.136  25.014  1.00  0.00     0.118 C 
ENDROOT
BRANCH   1   2
ATOM      2  N   UNL A   1      31.693  29.573  24.691  1.00  0.00    -0.352 N 
ATOM      3  O   UNL A   1      29.750  29.564  23.522  1.00  0.00    -0.269 OA
ATOM      4  C   UNL A   1      30.791  28.996  23.827  1.00  0.00     0.251 C 
ATOM      5  H   UNL A   1      31.385  30.387  25.150  1.00  0.00     0.163 HD
BRANCH   4   6
ATOM      6  C   UNL A   1      31.092  27.661  23.279  1.00  0.00     0.039 A 
ATOM      7  C   UNL A   1      30.460  26.547  23.821  1.00  0.00     0.016 A 
ATOM      8  C   UNL A   1      31.990  27.510  22.223  1.00  0.00     0.016 A 
ATOM      9  C   UNL A   1      30.822  25.274  23.384  1.00  0.00     0.027 A 
ATOM     10  C   UNL A   1      32.381  26.220  21.833  1.00  0.00     0.027 A 
ATOM     11  C   UNL A   1      31.864  25.097  22.490  1.00  0.00     0.041 A 
BRANCH  11  12
ATOM     12  N   UNL A   1      32.312  23.817  22.141  1.00  0.00    -0.326 N 
ATOM     13  C   UNL A   1      32.654  22.747  22.931  1.00  0.00     0.228 C 
ATOM     14  H   UNL A   1      32.396  23.660  21.172  1.00  0.00     0.169 HD
ATOM     15  O   UNL A   1      32.196  21.651  22.587  1.00  0.00    -0.274 OA
BRANCH  13  16
ATOM     16  C   UNL A   1      33.806  22.851  23.988  1.00  0.00     0.095 C 
ATOM     17  C   UNL A   1      34.997  23.463  23.182  1.00  0.00     0.041 C 
ATOM     18  C   UNL A   1      34.250  21.582  24.765  1.00  0.00     0.095 C 
ATOM     19  C   UNL A   1      36.312  23.510  23.881  1.00  0.00    -0.030 C 
ATOM     20  C   UNL A   1      35.723  21.548  25.270  1.00  0.00     0.041 C 
ATOM     21  C   UNL A   1      36.643  22.624  24.819  1.00  0.00    -0.030 C 
BRANCH  18  22
ATOM     22  C   UNL A   1      33.486  20.990  25.970  1.00  0.00     0.228 C 
ATOM     23  O   UNL A   1      33.088  21.791  26.837  1.00  0.00    -0.274 OA
ATOM     24  N   UNL A   1      32.973  19.735  26.112  1.00  0.00    -0.326 N 
ATOM     25  H   UNL A   1      32.406  19.647  26.913  1.00  0.00     0.169 HD
BRANCH  24  26
ATOM     26  C   UNL A   1      33.066  18.546  25.386  1.00  0.00     0.048 A 
ATOM     27  C   UNL A   1      33.590  18.608  24.089  1.00  0.00     0.026 A 
ATOM     28  C   UNL A   1      32.621  17.327  25.857  1.00  0.00     0.111 A 
ATOM     29  C   UNL A   1      33.819  17.438  23.354  1.00  0.00     0.009 A 
ATOM     30  C   UNL A   1      32.936  16.146  25.173  1.00  0.00     0.271 A 
ATOM     31  C   UNL A   1      33.540  16.194  23.917  1.00  0.00     0.086 A 
BRANCH  30  32
ATOM     32  N   UNL A   1      32.681  14.859  25.829  1.00  0.00     0.062 N 
ATOM     33  O   UNL A   1      33.359  13.889  25.474  1.00  0.00    -0.258 OA
ATOM     34  O   UNL A   1      31.835  14.837  26.738  1.00  0.00    -0.258 OA
ENDBRANCH  30  32
ENDBRANCH  24  26
ENDBRANCH  18  22
ENDBRANCH  13  16
ENDBRANCH  11  12
ENDBRANCH   4   6
ENDBRANCH   1   2
BRANCH   1  35
ATOM     35  C   UNL A   1      33.061  27.960  25.984  1.00  0.00     0.042 C 
BRANCH  35  36
ATOM     36  C   UNL A   1      33.344  28.342  27.431  1.00  0.00     0.118 C 
BRANCH  36  37
ATOM     37  N   UNL A   1      33.377  29.784  27.645  1.00  0.00    -0.352 N 
ATOM     38  C   UNL A   1      34.392  30.592  28.107  1.00  0.00     0.251 C 
ATOM     39  H   UNL A   1      32.541  30.256  27.425  1.00  0.00     0.163 HD
ATOM     40  O   UNL A   1      34.146  31.768  28.364  1.00  0.00    -0.269 OA
BRANCH  38  41
ATOM     41  C   UNL A   1      35.755  30.052  28.333  1.00  0.00     0.039 A 
ATOM     42  C   UNL A   1      36.660  30.036  27.266  1.00  0.00     0.014 A 
ATOM     43  C   UNL A   1      36.151  29.561  29.579  1.00  0.00     0.014 A 
ATOM     44  C   UNL A   1      37.979  29.621  27.476  1.00  0.00     0.010 A 
ATOM     45  C   UNL A   1      37.487  29.236  29.808  1.00  0.00     0.010 A 
ATOM     46  C   UNL A   1      38.419  29.268  28.762  1.00  0.00    -0.014 A 
BRANCH  46  47
ATOM     47  C   UNL A   1      39.846  28.946  29.038  1.00  0.00     0.031 A 
ATOM     48  C   UNL A   1      40.769  29.996  29.601  1.00  0.00     0.074 A 
ATOM     49  C   UNL A   1      40.335  27.733  28.707  1.00  0.00     0.049 A 
ATOM     50  N   UNL A   1      42.058  29.934  29.814  1.00  0.00    -0.248 NA
ATOM     51  C   UNL A   1      40.168  31.296  29.941  1.00  0.00     0.031 C 
ATOM     52  C   UNL A   1      39.561  26.643  28.106  1.00  0.00     0.029 A 
ATOM     53  N   UNL A   1      41.602  27.215  28.813  1.00  0.00    -0.354 N 
ATOM     54  C   UNL A   1      42.425  31.186  30.294  1.00  0.00     0.074 A 
ATOM     55  C   UNL A   1      41.231  32.003  30.291  1.00  0.00     0.031 C 
ATOM     56  C   UNL A   1      40.363  25.582  27.918  1.00  0.00     0.029 A 
ATOM     57  C   UNL A   1      41.716  25.927  28.342  1.00  0.00     0.049 A 
ATOM     58  H   UNL A   1      42.359  27.719  29.190  1.00  0.00     0.167 HD
ATOM     59  C   UNL A   1      43.639  31.610  30.720  1.00  0.00     0.037 A 
ATOM     60  C   UNL A   1      42.789  25.117  28.250  1.00  0.00     0.037 A 
ATOM     61  C   UNL A   1      44.819  30.785  30.750  1.00  0.00     0.049 A 
ATOM     62  C   UNL A   1      44.128  25.610  28.729  1.00  0.00     0.074 A 
ATOM     63  C   UNL A   1      46.081  31.106  31.222  1.00  0.00     0.029 A 
ATOM     64  N   UNL A   1      44.886  29.479  30.290  1.00  0.00    -0.354 N 
ATOM     65  N   UNL A   1      44.441  26.778  29.238  1.00  0.00    -0.248 NA
ATOM     66  C   UNL A   1      45.257  24.676  28.629  1.00  0.00     0.031 C 
ATOM     67  C   UNL A   1      46.920  30.008  31.008  1.00  0.00     0.029 A 
ATOM     68  C   UNL A   1      46.171  28.986  30.448  1.00  0.00     0.049 A 
ATOM     69  H   UNL A   1      44.131  28.976  29.907  1.00  0.00     0.167 HD
ATOM     70  C   UNL A   1      45.795  26.708  29.544  1.00  0.00     0.074 A 
ATOM     71  C   UNL A   1      46.239  25.380  29.173  1.00  0.00     0.031 C 
ATOM     72  C   UNL A   1      46.598  27.658  30.084  1.00  0.00     0.037 A 
BRANCH  59  73
ATOM     73  C   UNL A   1      43.752  33.032  31.200  1.00  0.00     0.058 A 
ATOM     74  C   UNL A   1      43.666  33.359  32.563  1.00  0.00     0.135 A 
ATOM     75  C   UNL A   1      43.985  34.077  30.290  1.00  0.00     0.135 A 
ATOM     76  F   UNL A   1      43.430  32.402  33.475  1.00  0.00    -0.206 F 
ATOM     77  C   UNL A   1      43.774  34.674  33.005  1.00  0.00     0.059 A 
ATOM     78  C   UNL A   1      44.126  35.397  30.714  1.00  0.00     0.059 A 
ATOM     79  F   UNL A   1      44.077  33.823  28.976  1.00  0.00    -0.206 F 
ATOM     80  C   UNL A   1      44.003  35.686  32.072  1.00  0.00     0.060 A 
BRANCH  80  81
ATOM     81  S   UNL A   1      44.142  37.386  32.664  1.00  0.00     0.124 S 
ATOM     82  O   UNL A   1      44.007  38.138  31.420  1.00  0.00    -0.237 OA
ATOM     83  O   UNL A   1      43.019  37.486  33.590  1.00  0.00    -0.237 OA
ATOM     84  O   UNL A   1      45.465  37.425  33.279  1.00  0.00    -0.744 OA
ENDBRANCH  80  81
ENDBRANCH  59  73
BRANCH  60  85
ATOM     85  C   UNL A   1      42.639  23.744  27.698  1.00  0.00     0.058 A 
ATOM     86  C   UNL A   1      42.482  22.640  28.548  1.00  0.00     0.135 A 
ATOM     87  C   UNL A   1      42.638  23.508  26.314  1.00  0.00     0.135 A 
ATOM     88  F   UNL A   1      42.484  22.813  29.878  1.00  0.00    -0.206 F 
ATOM     89  C   UNL A   1      42.345  21.349  28.050  1.00  0.00     0.059 A 
ATOM     90  C   UNL A   1      42.477  22.229  25.790  1.00  0.00     0.059 A 
ATOM     91  F   UNL A   1      42.765  24.533  25.457  1.00  0.00    -0.206 F 
ATOM     92  C   UNL A   1      42.341  21.154  26.668  1.00  0.00     0.060 A 
BRANCH  92  93
ATOM     93  S   UNL A   1      42.113  19.480  26.030  1.00  0.00     0.124 S 
ATOM     94  O   UNL A   1      42.596  18.674  27.145  1.00  0.00    -0.237 OA
ATOM     95  O   UNL A   1      40.674  19.439  25.788  1.00  0.00    -0.237 OA
ATOM     96  O   UNL A   1      42.944  19.463  24.830  1.00  0.00    -0.744 OA
ENDBRANCH  92  93
ENDBRANCH  60  85
BRANCH  72  97
ATOM     97  C   UNL A   1      48.033  27.289  30.344  1.00  0.00     0.058 A 
ATOM     98  C   UNL A   1      49.050  27.580  29.423  1.00  0.00     0.135 A 
ATOM     99  C   UNL A   1      48.399  26.686  31.558  1.00  0.00     0.135 A 
ATOM    100  F   UNL A   1      48.752  28.149  28.244  1.00  0.00    -0.206 F 
ATOM    101  C   UNL A   1      50.380  27.267  29.687  1.00  0.00     0.059 A 
ATOM    102  C   UNL A   1      49.727  26.390  31.855  1.00  0.00     0.059 A 
ATOM    103  F   UNL A   1      47.467  26.395  32.479  1.00  0.00    -0.206 F 
ATOM    104  C   UNL A   1      50.709  26.675  30.907  1.00  0.00     0.060 A 
BRANCH 104 105
ATOM    105  S   UNL A   1      52.442  26.311  31.253  1.00  0.00     0.124 S 
ATOM    106  O   UNL A   1      52.962  26.052  29.914  1.00  0.00    -0.237 OA
ATOM    107  O   UNL A   1      52.901  27.543  31.885  1.00  0.00    -0.237 OA
ATOM    108  O   UNL A   1      52.376  25.149  32.136  1.00  0.00    -0.744 OA
ENDBRANCH 104 105
ENDBRANCH  72  97
ENDBRANCH  46  47
ENDBRANCH  38  41
ENDBRANCH  36  37
ENDBRANCH  35  36
ENDBRANCH   1  35
TORSDOF 18
ENDMDL
MODEL 2
REMARK VINA RESULT:     -13.4      2.663      8.356
REMARK SMILES O=C(NCCCNC(=O)c1ccc(-c2c3nc(c(-c4c(F)cc(S(=O)(=O)[O-])cc4F)c4ccc([nH]4)c(-c4c(F)cc(S(=O)(=O)[O-])cc4F)c4nc(c(-c5c(F)cc(S(=O)(=O)[O-])cc5F)c5ccc2[nH]5)C=C4)C=C3)cc1)c1ccc(NC(=O)[C@@H]2CC=CC[C@H]2C(=O)Nc2cccc([N+](=O)[O-])c2)cc1
REMARK SMILES IDX 4 1 3 2 1 3 2 4 76 6 77 7 102 8 78 9 101 10 79 11 80 12
REMARK SMILES IDX 81 13 82 15 83 16 84 17 88 18 85 19 87 20 86 21 89 22 90 23
REMARK SMILES IDX 91 24 92 26 93 27 100 28 94 29 96 30 95 31 97 32 98 33 99 34
REMARK SMILES IDX 5 35 6 36 7 37 8 38 9 40 10 41 11 42 75 43 12 44 74 45 13 46
REMARK SMILES IDX 14 47 15 48 68 49 16 50 73 51 67 52 69 53 17 54 72 55 66 56
REMARK SMILES IDX 65 57 18 59 52 60 31 61 51 62 32 63 35 64 50 65 70 66 33 67
REMARK SMILES IDX 34 68 49 70 71 71 36 72 19 73 20 74 29 75 21 76 22 77 28 78
REMARK SMILES IDX 30 79 23 80 24 81 25 82 26 83 27 84 53 85 54 86 63 87 55 88
REMARK SMILES IDX 56 89 62 90 64 91 57 92 58 93 59 94 60 95 61 96 37 97 38 98
REMARK SMILES IDX 47 99 39 100 40 101 46 102 48 103 41 104 42 105 43 106
REMARK SMILES IDX 44 107 45 108
REMARK H PARENT 3 5 80 14 91 25 7 39 69 58 35 69
REMARK Flexibility Score: inf
ROOT
ATOM      1  C   UNL A   1      33.697  28.725  27.415  1.00  0.00     0.118 C 
ENDROOT
BRANCH   1   2
ATOM      2  N   UNL A   1      32.652  29.604  26.907  1.00  0.00    -0.352 N 
ATOM      3  O   UNL A   1      31.291  30.484  25.321  1.00  0.00    -0.269 OA
ATOM      4  C   UNL A   1      32.035  29.579  25.678  1.00  0.00     0.251 C 
ATOM      5  H   UNL A   1      32.349  30.309  27.524  1.00  0.00     0.163 HD
BRANCH   4   6
ATOM      6  C   UNL A   1      32.271  28.424  24.793  1.00  0.00     0.039 A 
ATOM      7  C   UNL A   1      31.567  27.245  25.013  1.00  0.00     0.016 A 
ATOM      8  C   UNL A   1      33.180  28.509  23.738  1.00  0.00     0.016 A 
ATOM      9  C   UNL A   1      31.866  26.117  24.251  1.00  0.00     0.027 A 
ATOM     10  C   UNL A   1      33.505  27.351  23.017  1.00  0.00     0.027 A 
ATOM     11  C   UNL A   1      32.914  26.124  23.346  1.00  0.00     0.041 A 
BRANCH  11  12
ATOM     12  N   UNL A   1      33.296  24.962  22.667  1.00  0.00    -0.326 N 
ATOM     13  C   UNL A   1      33.361  23.659  23.099  1.00  0.00     0.228 C 
ATOM     14  H   UNL A   1      33.562  25.101  21.729  1.00  0.00     0.169 HD
ATOM     15  O   UNL A   1      32.878  22.812  22.340  1.00  0.00    -0.274 OA
BRANCH  13  16
ATOM     16  C   UNL A   1      34.275  23.246  24.303  1.00  0.00     0.095 C 
ATOM     17  C   UNL A   1      35.710  23.659  23.840  1.00  0.00     0.041 C 
ATOM     18  C   UNL A   1      34.254  21.779  24.812  1.00  0.00     0.095 C 
ATOM     19  C   UNL A   1      36.837  23.216  24.708  1.00  0.00    -0.030 C 
ATOM     20  C   UNL A   1      35.550  21.256  25.498  1.00  0.00     0.041 C 
ATOM     21  C   UNL A   1      36.764  22.111  25.447  1.00  0.00    -0.030 C 
BRANCH  18  22
ATOM     22  C   UNL A   1      33.152  21.194  25.724  1.00  0.00     0.228 C 
ATOM     23  O   UNL A   1      32.584  21.983  26.504  1.00  0.00    -0.274 OA
ATOM     24  N   UNL A   1      32.541  19.979  25.639  1.00  0.00    -0.326 N 
ATOM     25  H   UNL A   1      31.772  19.898  26.249  1.00  0.00     0.169 HD
BRANCH  24  26
ATOM     26  C   UNL A   1      32.754  18.822  24.886  1.00  0.00     0.048 A 
ATOM     27  C   UNL A   1      32.523  18.883  23.507  1.00  0.00     0.026 A 
ATOM     28  C   UNL A   1      33.127  17.611  25.436  1.00  0.00     0.111 A 
ATOM     29  C   UNL A   1      32.829  17.793  22.681  1.00  0.00     0.009 A 
ATOM     30  C   UNL A   1      33.530  16.553  24.613  1.00  0.00     0.271 A 
ATOM     31  C   UNL A   1      33.386  16.638  23.228  1.00  0.00     0.086 A 
BRANCH  30  32
ATOM     32  N   UNL A   1      34.167  15.382  25.225  1.00  0.00     0.062 N 
ATOM     33  O   UNL A   1      33.456  14.396  25.452  1.00  0.00    -0.258 OA
ATOM     34  O   UNL A   1      35.389  15.435  25.429  1.00  0.00    -0.258 OA
ENDBRANCH  30  32
ENDBRANCH  24  26
ENDBRANCH  18  22
ENDBRANCH  13  16
ENDBRANCH  11  12
ENDBRANCH   4   6
ENDBRANCH   1   2
BRANCH   1  35
ATOM     35  C   UNL A   1      35.095  29.214  27.056  1.00  0.00     0.042 C 
BRANCH  35  36
ATOM     36  C   UNL A   1      35.558  30.430  27.848  1.00  0.00     0.118 C 
BRANCH  36  37
ATOM     37  N   UNL A   1      35.498  30.229  29.292  1.00  0.00    -0.352 N 
ATOM     38  C   UNL A   1      36.486  29.873  30.182  1.00  0.00     0.251 C 
ATOM     39  H   UNL A   1      34.611  30.370  29.693  1.00  0.00     0.163 HD
ATOM     40  O   UNL A   1      36.174  29.602  31.339  1.00  0.00    -0.269 OA
BRANCH  38  41
ATOM     41  C   UNL A   1      37.903  29.777  29.753  1.00  0.00     0.039 A 
ATOM     42  C   UNL A   1      38.874  29.441  30.703  1.00  0.00     0.014 A 
ATOM     43  C   UNL A   1      38.286  30.014  28.431  1.00  0.00     0.014 A 
ATOM     44  C   UNL A   1      40.202  29.251  30.306  1.00  0.00     0.010 A 
ATOM     45  C   UNL A   1      39.588  29.735  28.021  1.00  0.00     0.010 A 
ATOM     46  C   UNL A   1      40.561  29.344  28.952  1.00  0.00    -0.014 A 
BRANCH  46  47
ATOM     47  C   UNL A   1      41.937  29.021  28.485  1.00  0.00     0.031 A 
ATOM     48  C   UNL A   1      42.287  27.621  28.052  1.00  0.00     0.074 A 
ATOM     49  C   UNL A   1      42.898  29.968  28.528  1.00  0.00     0.049 A 
ATOM     50  N   UNL A   1      43.450  27.128  27.710  1.00  0.00    -0.248 NA
ATOM     51  C   UNL A   1      41.190  26.639  28.029  1.00  0.00     0.031 C 
ATOM     52  C   UNL A   1      42.705  31.350  28.976  1.00  0.00     0.029 A 
ATOM     53  N   UNL A   1      44.231  29.911  28.205  1.00  0.00    -0.354 N 
ATOM     54  C   UNL A   1      43.229  25.780  27.450  1.00  0.00     0.074 A 
ATOM     55  C   UNL A   1      41.832  25.522  27.724  1.00  0.00     0.031 C 
ATOM     56  C   UNL A   1      43.869  32.012  28.879  1.00  0.00     0.029 A 
ATOM     57  C   UNL A   1      44.901  31.097  28.404  1.00  0.00     0.049 A 
ATOM     58  H   UNL A   1      44.667  29.098  27.862  1.00  0.00     0.167 HD
ATOM     59  C   UNL A   1      44.104  24.848  27.001  1.00  0.00     0.037 A 
ATOM     60  C   UNL A   1      46.200  31.410  28.236  1.00  0.00     0.037 A 
ATOM     61  C   UNL A   1      45.486  25.114  26.701  1.00  0.00     0.049 A 
ATOM     62  C   UNL A   1      47.154  30.358  27.737  1.00  0.00     0.074 A 
ATOM     63  C   UNL A   1      46.437  24.250  26.183  1.00  0.00     0.029 A 
ATOM     64  N   UNL A   1      46.120  26.333  26.891  1.00  0.00    -0.354 N 
ATOM     65  N   UNL A   1      46.912  29.103  27.437  1.00  0.00    -0.248 NA
ATOM     66  C   UNL A   1      48.553  30.762  27.548  1.00  0.00     0.031 C 
ATOM     67  C   UNL A   1      47.653  24.935  26.101  1.00  0.00     0.029 A 
ATOM     68  C   UNL A   1      47.450  26.240  26.520  1.00  0.00     0.049 A 
ATOM     69  H   UNL A   1      45.685  27.146  27.239  1.00  0.00     0.167 HD
ATOM     70  C   UNL A   1      48.122  28.579  26.997  1.00  0.00     0.074 A 
ATOM     71  C   UNL A   1      49.091  29.653  27.061  1.00  0.00     0.031 C 
ATOM     72  C   UNL A   1      48.403  27.320  26.578  1.00  0.00     0.037 A 
BRANCH  59  73
ATOM     73  C   UNL A   1      43.588  23.449  26.797  1.00  0.00     0.058 A 
ATOM     74  C   UNL A   1      43.329  22.594  27.882  1.00  0.00     0.135 A 
ATOM     75  C   UNL A   1      43.316  22.967  25.506  1.00  0.00     0.135 A 
ATOM     76  F   UNL A   1      43.584  22.997  29.137  1.00  0.00    -0.206 F 
ATOM     77  C   UNL A   1      42.849  21.302  27.691  1.00  0.00     0.059 A 
ATOM     78  C   UNL A   1      42.808  21.688  25.295  1.00  0.00     0.059 A 
ATOM     79  F   UNL A   1      43.544  23.741  24.434  1.00  0.00    -0.206 F 
ATOM     80  C   UNL A   1      42.593  20.858  26.393  1.00  0.00     0.060 A 
BRANCH  80  81
ATOM     81  S   UNL A   1      41.970  19.179  26.166  1.00  0.00     0.124 S 
ATOM     82  O   UNL A   1      42.293  18.573  27.454  1.00  0.00    -0.237 OA
ATOM     83  O   UNL A   1      40.552  19.404  25.910  1.00  0.00    -0.237 OA
ATOM     84  O   UNL A   1      42.740  18.681  25.030  1.00  0.00    -0.744 OA
ENDBRANCH  80  81
ENDBRANCH  59  73
BRANCH  60  85
ATOM     85  C   UNL A   1      46.676  32.790  28.524  1.00  0.00     0.058 A 
ATOM     86  C   UNL A   1      46.651  33.781  27.532  1.00  0.00     0.135 A 
ATOM     87  C   UNL A   1      47.152  33.149  29.794  1.00  0.00     0.135 A 
ATOM     88  F   UNL A   1      46.210  33.485  26.300  1.00  0.00    -0.206 F 
ATOM     89  C   UNL A   1      47.096  35.075  27.781  1.00  0.00     0.059 A 
ATOM     90  C   UNL A   1      47.579  34.443  30.076  1.00  0.00     0.059 A 
ATOM     91  F   UNL A   1      47.179  32.243  30.784  1.00  0.00    -0.206 F 
ATOM     92  C   UNL A   1      47.556  35.397  29.059  1.00  0.00     0.060 A 
BRANCH  92  93
ATOM     93  S   UNL A   1      48.084  37.093  29.386  1.00  0.00     0.124 S 
ATOM     94  O   UNL A   1      47.961  37.698  28.065  1.00  0.00    -0.237 OA
ATOM     95  O   UNL A   1      47.112  37.528  30.384  1.00  0.00    -0.237 OA
ATOM     96  O   UNL A   1      49.447  36.928  29.881  1.00  0.00    -0.744 OA
ENDBRANCH  92  93
ENDBRANCH  60  85
BRANCH  72  97
ATOM     97  C   UNL A   1      49.808  27.040  26.117  1.00  0.00     0.058 A 
ATOM     98  C   UNL A   1      50.766  26.470  26.969  1.00  0.00     0.135 A 
ATOM     99  C   UNL A   1      50.180  27.293  24.787  1.00  0.00     0.135 A 
ATOM    100  F   UNL A   1      50.463  26.215  28.252  1.00  0.00    -0.206 F 
ATOM    101  C   UNL A   1      52.052  26.181  26.526  1.00  0.00     0.059 A 
ATOM    102  C   UNL A   1      51.452  26.986  24.315  1.00  0.00     0.059 A 
ATOM    103  F   UNL A   1      49.299  27.828  23.928  1.00  0.00    -0.206 F 
ATOM    104  C   UNL A   1      52.385  26.440  25.194  1.00  0.00     0.060 A 
BRANCH 104 105
ATOM    105  S   UNL A   1      54.045  26.023  24.621  1.00  0.00     0.124 S 
ATOM    106  O   UNL A   1      54.148  24.621  25.011  1.00  0.00    -0.237 OA
ATOM    107  O   UNL A   1      53.954  26.279  23.187  1.00  0.00    -0.237 OA
ATOM    108  O   UNL A   1      54.902  26.945  25.362  1.00  0.00    -0.744 OA
ENDBRANCH 104 105
ENDBRANCH  72  97
ENDBRANCH  46  47
ENDBRANCH  38  41
ENDBRANCH  36  37
ENDBRANCH  35  36
ENDBRANCH   1  35
TORSDOF 18
ENDMDL
MODEL 3
REMARK VINA RESULT:     -13.4      4.594      6.749
REMARK SMILES O=C(NCCCNC(=O)c1ccc(-c2c3nc(c(-c4c(F)cc(S(=O)(=O)[O-])cc4F)c4ccc([nH]4)c(-c4c(F)cc(S(=O)(=O)[O-])cc4F)c4nc(c(-c5c(F)cc(S(=O)(=O)[O-])cc5F)c5ccc2[nH]5)C=C4)C=C3)cc1)c1ccc(NC(=O)[C@@H]2CC=CC[C@H]2C(=O)Nc2cccc([N+](=O)[O-])c2)cc1
REMARK SMILES IDX 4 1 3 2 1 3 2 4 76 6 77 7 102 8 78 9 101 10 79 11 80 12
REMARK SMILES IDX 81 13 82 15 83 16 84 17 88 18 85 19 87 20 86 21 89 22 90 23
REMARK SMILES IDX 91 24 92 26 93 27 100 28 94 29 96 30 95 31 97 32 98 33 99 34
REMARK SMILES IDX 5 35 6 36 7 37 8 38 9 40 10 41 11 42 75 43 12 44 74 45 13 46
REMARK SMILES IDX 14 47 15 48 68 49 16 50 73 51 67 52 69 53 17 54 72 55 66 56
REMARK SMILES IDX 65 57 18 59 52 60 31 61 51 62 32 63 35 64 50 65 70 66 33 67
REMARK SMILES IDX 34 68 49 70 71 71 36 72 19 73 20 74 29 75 21 76 22 77 28 78
REMARK SMILES IDX 30 79 23 80 24 81 25 82 26 83 27 84 53 85 54 86 63 87 55 88
REMARK SMILES IDX 56 89 62 90 64 91 57 92 58 93 59 94 60 95 61 96 37 97 38 98
REMARK SMILES IDX 47 99 39 100 40 101 46 102 48 103 41 104 42 105 43 106
REMARK SMILES IDX 44 107 45 108
REMARK H PARENT 3 5 80 14 91 25 7 39 69 58 35 69
REMARK Flexibility Score: inf
ROOT
ATOM      1  C   UNL A   1      31.948  30.780  26.144  1.00  0.00     0.118 C 
ENDROOT
BRANCH   1   2
ATOM      2  N   UNL A   1      33.372  30.473  26.185  1.00  0.00    -0.352 N 
ATOM      3  O   UNL A   1      35.194  29.209  26.658  1.00  0.00    -0.269 OA
ATOM      4  C   UNL A   1      33.982  29.281  26.499  1.00  0.00     0.251 C 
ATOM      5  H   UNL A   1      33.976  31.216  25.959  1.00  0.00     0.163 HD
BRANCH   4   6
ATOM      6  C   UNL A   1      33.146  28.072  26.626  1.00  0.00     0.039 A 
ATOM      7  C   UNL A   1      33.609  26.869  26.103  1.00  0.00     0.016 A 
ATOM      8  C   UNL A   1      31.911  28.125  27.271  1.00  0.00     0.016 A 
ATOM      9  C   UNL A   1      32.779  25.751  26.121  1.00  0.00     0.027 A 
ATOM     10  C   UNL A   1      31.069  27.003  27.234  1.00  0.00     0.027 A 
ATOM     11  C   UNL A   1      31.470  25.841  26.564  1.00  0.00     0.041 A 
BRANCH  11  12
ATOM     12  N   UNL A   1      30.595  24.752  26.472  1.00  0.00    -0.326 N 
ATOM     13  C   UNL A   1      30.754  23.446  26.864  1.00  0.00     0.228 C 
ATOM     14  H   UNL A   1      29.725  24.957  26.059  1.00  0.00     0.169 HD
ATOM     15  O   UNL A   1      29.808  22.945  27.482  1.00  0.00    -0.274 OA
BRANCH  13  16
ATOM     16  C   UNL A   1      31.906  22.557  26.282  1.00  0.00     0.095 C 
ATOM     17  C   UNL A   1      32.903  22.408  27.476  1.00  0.00     0.041 C 
ATOM     18  C   UNL A   1      32.644  23.008  24.991  1.00  0.00     0.095 C 
ATOM     19  C   UNL A   1      34.209  21.761  27.170  1.00  0.00    -0.030 C 
ATOM     20  C   UNL A   1      34.112  22.520  24.816  1.00  0.00     0.041 C 
ATOM     21  C   UNL A   1      34.763  21.831  25.960  1.00  0.00    -0.030 C 
BRANCH  18  22
ATOM     22  C   UNL A   1      32.078  22.837  23.564  1.00  0.00     0.228 C 
ATOM     23  O   UNL A   1      31.915  21.672  23.155  1.00  0.00    -0.274 OA
ATOM     24  N   UNL A   1      31.506  23.780  22.763  1.00  0.00    -0.326 N 
ATOM     25  H   UNL A   1      31.096  23.392  21.956  1.00  0.00     0.169 HD
BRANCH  24  26
ATOM     26  C   UNL A   1      31.368  25.168  22.822  1.00  0.00     0.048 A 
ATOM     27  C   UNL A   1      30.143  25.689  23.257  1.00  0.00     0.026 A 
ATOM     28  C   UNL A   1      32.353  26.051  22.426  1.00  0.00     0.111 A 
ATOM     29  C   UNL A   1      29.980  27.067  23.450  1.00  0.00     0.009 A 
ATOM     30  C   UNL A   1      32.236  27.417  22.709  1.00  0.00     0.271 A 
ATOM     31  C   UNL A   1      31.048  27.934  23.226  1.00  0.00     0.086 A 
BRANCH  30  32
ATOM     32  N   UNL A   1      33.404  28.283  22.515  1.00  0.00     0.062 N 
ATOM     33  O   UNL A   1      34.212  27.968  21.634  1.00  0.00    -0.258 OA
ATOM     34  O   UNL A   1      33.481  29.307  23.212  1.00  0.00    -0.258 OA
ENDBRANCH  30  32
ENDBRANCH  24  26
ENDBRANCH  18  22
ENDBRANCH  13  16
ENDBRANCH  11  12
ENDBRANCH   4   6
ENDBRANCH   1   2
BRANCH   1  35
ATOM     35  C   UNL A   1      31.629  32.144  26.744  1.00  0.00     0.042 C 
BRANCH  35  36
ATOM     36  C   UNL A   1      32.835  32.879  27.313  1.00  0.00     0.118 C 
BRANCH  36  37
ATOM     37  N   UNL A   1      32.527  34.239  27.741  1.00  0.00    -0.352 N 
ATOM     38  C   UNL A   1      33.038  34.981  28.781  1.00  0.00     0.251 C 
ATOM     39  H   UNL A   1      31.845  34.699  27.200  1.00  0.00     0.163 HD
ATOM     40  O   UNL A   1      32.513  36.057  29.057  1.00  0.00    -0.269 OA
BRANCH  38  41
ATOM     41  C   UNL A   1      34.179  34.482  29.587  1.00  0.00     0.039 A 
ATOM     42  C   UNL A   1      33.923  33.920  30.843  1.00  0.00     0.014 A 
ATOM     43  C   UNL A   1      35.494  34.562  29.124  1.00  0.00     0.014 A 
ATOM     44  C   UNL A   1      34.969  33.357  31.581  1.00  0.00     0.010 A 
ATOM     45  C   UNL A   1      36.518  33.920  29.817  1.00  0.00     0.010 A 
ATOM     46  C   UNL A   1      36.268  33.304  31.051  1.00  0.00    -0.014 A 
BRANCH  46  47
ATOM     47  C   UNL A   1      37.372  32.598  31.758  1.00  0.00     0.031 A 
ATOM     48  C   UNL A   1      37.891  33.118  33.073  1.00  0.00     0.074 A 
ATOM     49  C   UNL A   1      37.966  31.534  31.177  1.00  0.00     0.049 A 
ATOM     50  N   UNL A   1      38.906  32.699  33.785  1.00  0.00    -0.248 NA
ATOM     51  C   UNL A   1      37.196  34.281  33.649  1.00  0.00     0.031 C 
ATOM     52  C   UNL A   1      37.595  30.961  29.880  1.00  0.00     0.029 A 
ATOM     53  N   UNL A   1      39.016  30.754  31.593  1.00  0.00    -0.354 N 
ATOM     54  C   UNL A   1      38.983  33.555  34.879  1.00  0.00     0.074 A 
ATOM     55  C   UNL A   1      37.943  34.547  34.709  1.00  0.00     0.031 C 
ATOM     56  C   UNL A   1      38.389  29.910  29.619  1.00  0.00     0.029 A 
ATOM     57  C   UNL A   1      39.354  29.759  30.703  1.00  0.00     0.049 A 
ATOM     58  H   UNL A   1      39.485  30.894  32.447  1.00  0.00     0.167 HD
ATOM     59  C   UNL A   1      39.824  33.504  35.938  1.00  0.00     0.037 A 
ATOM     60  C   UNL A   1      40.334  28.837  30.748  1.00  0.00     0.037 A 
ATOM     61  C   UNL A   1      40.837  32.497  36.119  1.00  0.00     0.049 A 
ATOM     62  C   UNL A   1      41.258  28.800  31.936  1.00  0.00     0.074 A 
ATOM     63  C   UNL A   1      41.699  32.326  37.190  1.00  0.00     0.029 A 
ATOM     64  N   UNL A   1      41.129  31.492  35.210  1.00  0.00    -0.354 N 
ATOM     65  N   UNL A   1      41.273  29.580  32.991  1.00  0.00    -0.248 NA
ATOM     66  C   UNL A   1      42.292  27.757  31.944  1.00  0.00     0.031 C 
ATOM     67  C   UNL A   1      42.539  31.244  36.908  1.00  0.00     0.029 A 
ATOM     68  C   UNL A   1      42.168  30.710  35.684  1.00  0.00     0.049 A 
ATOM     69  H   UNL A   1      40.665  31.355  34.352  1.00  0.00     0.167 HD
ATOM     70  C   UNL A   1      42.299  29.103  33.800  1.00  0.00     0.074 A 
ATOM     71  C   UNL A   1      42.874  27.963  33.118  1.00  0.00     0.031 C 
ATOM     72  C   UNL A   1      42.725  29.570  34.999  1.00  0.00     0.037 A 
BRANCH  59  73
ATOM     73  C   UNL A   1      39.679  34.566  36.995  1.00  0.00     0.058 A 
ATOM     74  C   UNL A   1      38.951  34.338  38.174  1.00  0.00     0.135 A 
ATOM     75  C   UNL A   1      40.306  35.815  36.845  1.00  0.00     0.135 A 
ATOM     76  F   UNL A   1      38.320  33.168  38.364  1.00  0.00    -0.206 F 
ATOM     77  C   UNL A   1      38.821  35.321  39.151  1.00  0.00     0.059 A 
ATOM     78  C   UNL A   1      40.213  36.801  37.824  1.00  0.00     0.059 A 
ATOM     79  F   UNL A   1      41.016  36.087  35.739  1.00  0.00    -0.206 F 
ATOM     80  C   UNL A   1      39.455  36.550  38.966  1.00  0.00     0.060 A 
BRANCH  80  81
ATOM     81  S   UNL A   1      39.276  37.811  40.245  1.00  0.00     0.124 S 
ATOM     82  O   UNL A   1      38.208  38.637  39.690  1.00  0.00    -0.237 OA
ATOM     83  O   UNL A   1      38.921  37.019  41.417  1.00  0.00    -0.237 OA
ATOM     84  O   UNL A   1      40.594  38.438  40.290  1.00  0.00    -0.744 OA
ENDBRANCH  80  81
ENDBRANCH  59  73
BRANCH  60  85
ATOM     85  C   UNL A   1      40.482  27.854  29.641  1.00  0.00     0.058 A 
ATOM     86  C   UNL A   1      39.623  26.751  29.538  1.00  0.00     0.135 A 
ATOM     87  C   UNL A   1      41.475  28.003  28.660  1.00  0.00     0.135 A 
ATOM     88  F   UNL A   1      38.662  26.562  30.455  1.00  0.00    -0.206 F 
ATOM     89  C   UNL A   1      39.750  25.821  28.512  1.00  0.00     0.059 A 
ATOM     90  C   UNL A   1      41.607  27.100  27.610  1.00  0.00     0.059 A 
ATOM     91  F   UNL A   1      42.312  29.052  28.703  1.00  0.00    -0.206 F 
ATOM     92  C   UNL A   1      40.745  26.005  27.550  1.00  0.00     0.060 A 
BRANCH  92  93
ATOM     93  S   UNL A   1      40.869  24.819  26.195  1.00  0.00     0.124 S 
ATOM     94  O   UNL A   1      39.523  24.259  26.172  1.00  0.00    -0.237 OA
ATOM     95  O   UNL A   1      41.225  25.677  25.069  1.00  0.00    -0.237 OA
ATOM     96  O   UNL A   1      41.924  23.913  26.640  1.00  0.00    -0.744 OA
ENDBRANCH  92  93
ENDBRANCH  60  85
BRANCH  72  97
ATOM     97  C   UNL A   1      43.845  28.826  35.676  1.00  0.00     0.058 A 
ATOM     98  C   UNL A   1      43.600  27.750  36.542  1.00  0.00     0.135 A 
ATOM     99  C   UNL A   1      45.181  29.160  35.406  1.00  0.00     0.135 A 
ATOM    100  F   UNL A   1      42.340  27.394  36.839  1.00  0.00    -0.206 F 
ATOM    101  C   UNL A   1      44.642  27.044  37.136  1.00  0.00     0.059 A 
ATOM    102  C   UNL A   1      46.239  28.451  35.967  1.00  0.00     0.059 A 
ATOM    103  F   UNL A   1      45.471  30.175  34.576  1.00  0.00    -0.206 F 
ATOM    104  C   UNL A   1      45.959  27.401  36.839  1.00  0.00     0.060 A 
BRANCH 104 105
ATOM    105  S   UNL A   1      47.301  26.452  37.585  1.00  0.00     0.124 S 
ATOM    106  O   UNL A   1      48.266  26.396  36.492  1.00  0.00    -0.237 OA
ATOM    107  O   UNL A   1      47.678  27.284  38.723  1.00  0.00    -0.237 OA
ATOM    108  O   UNL A   1      46.669  25.181  37.929  1.00  0.00    -0.744 OA
ENDBRANCH 104 105
ENDBRANCH  72  97
ENDBRANCH  46  47
ENDBRANCH  38  41
ENDBRANCH  36  37
ENDBRANCH  35  36
ENDBRANCH   1  35
TORSDOF 18
ENDMDL
