MODEL 1
REMARK VINA RESULT:     -12.0      0.000      0.000
REMARK SMILES CCOc1ccc(-c2nc(C(=O)NCCCNC(=O)c3ccc(-c4c5nc(c(-c6c(F)cc(S(=O)(=O)[O-])cc6F)c6ccc([nH]6)c(-c6c(F)cc(S(=O)(=O)[O-])cc6F)c6nc(c(-c7c(F)cc(S(=O)(=O)[O-])cc7F)c7ccc4[nH]7)C=C6)C=C5)cc3)cc(=O)[nH]2)cc1
REMARK SMILES IDX 15 1 14 2 13 3 11 4 12 5 10 7 8 8 9 9 89 10 87 11 86 13
REMARK SMILES IDX 88 14 7 15 4 16 5 17 91 18 6 19 90 20 3 21 2 22 1 23 16 24
REMARK SMILES IDX 17 25 18 26 19 28 20 29 21 30 85 31 22 32 84 33 23 34 24 35
REMARK SMILES IDX 25 36 78 37 26 38 83 39 77 40 79 41 27 42 82 43 76 44 75 45
REMARK SMILES IDX 28 47 62 48 41 49 61 50 42 51 45 52 60 53 80 54 43 55 44 56
REMARK SMILES IDX 59 58 81 59 46 60 29 61 30 62 39 63 31 64 32 65 38 66 40 67
REMARK SMILES IDX 33 68 34 69 35 70 36 71 37 72 63 73 64 74 73 75 65 76 66 77
REMARK SMILES IDX 72 78 74 79 67 80 68 81 69 82 70 83 71 84 47 85 48 86 57 87
REMARK SMILES IDX 49 88 50 89 56 90 58 91 51 92 52 93 53 94 54 95 55 96
REMARK H PARENT 13 6 89 12 17 27 79 46 45 57
REMARK Flexibility Score: inf
ROOT
ATOM      1  C   UNL A   1      38.115  23.534  25.976  1.00  0.00     0.042 C 
ENDROOT
BRANCH   1   2
ATOM      2  C   UNL A   1      37.695  22.170  25.434  1.00  0.00     0.118 C 
BRANCH   2   3
ATOM      3  N   UNL A   1      36.454  21.733  26.041  1.00  0.00    -0.351 N 
ATOM      4  C   UNL A   1      35.140  22.027  25.872  1.00  0.00     0.270 C 
ATOM      5  O   UNL A   1      34.373  21.423  26.634  1.00  0.00    -0.268 OA
ATOM      6  H   UNL A   1      36.599  21.062  26.747  1.00  0.00     0.163 HD
BRANCH   4   7
ATOM      7  C   UNL A   1      34.569  22.963  24.818  1.00  0.00     0.136 A 
ATOM      8  C   UNL A   1      33.873  25.127  24.444  1.00  0.00     0.141 A 
ATOM      9  N   UNL A   1      34.350  24.255  25.267  1.00  0.00    -0.225 NA
ATOM     10  N   UNL A   1      33.542  24.830  23.153  1.00  0.00    -0.306 N 
ATOM     11  C   UNL A   1      33.729  23.586  22.640  1.00  0.00     0.251 A 
ATOM     12  H   UNL A   1      33.158  25.532  22.582  1.00  0.00     0.171 HD
ATOM     13  C   UNL A   1      34.349  22.609  23.545  1.00  0.00     0.105 A 
ATOM     14  O   UNL A   1      33.401  23.284  21.502  1.00  0.00    -0.269 OA
BRANCH   8  15
ATOM     15  C   UNL A   1      33.695  26.532  24.853  1.00  0.00     0.018 A 
ATOM     16  C   UNL A   1      33.417  29.168  25.691  1.00  0.00     0.119 A 
ATOM     17  C   UNL A   1      33.374  28.866  24.329  1.00  0.00     0.047 A 
ATOM     18  C   UNL A   1      33.547  28.152  26.636  1.00  0.00     0.047 A 
ATOM     19  C   UNL A   1      33.524  27.545  23.904  1.00  0.00     0.016 A 
ATOM     20  C   UNL A   1      33.693  26.831  26.219  1.00  0.00     0.016 A 
BRANCH  16  21
ATOM     21  O   UNL A   1      33.204  30.461  26.079  1.00  0.00    -0.494 OA
BRANCH  21  22
ATOM     22  C   UNL A   1      33.453  30.670  27.475  1.00  0.00     0.226 C 
ATOM     23  C   UNL A   1      34.728  31.464  27.708  1.00  0.00     0.049 C 
ENDBRANCH  21  22
ENDBRANCH  16  21
ENDBRANCH   8  15
ENDBRANCH   4   7
ENDBRANCH   2   3
ENDBRANCH   1   2
BRANCH   1  24
ATOM     24  C   UNL A   1      39.308  23.444  26.930  1.00  0.00     0.118 C 
BRANCH  24  25
ATOM     25  N   UNL A   1      40.568  23.716  26.247  1.00  0.00    -0.352 N 
ATOM     26  C   UNL A   1      41.352  24.843  26.249  1.00  0.00     0.251 C 
ATOM     27  H   UNL A   1      40.911  22.974  25.696  1.00  0.00     0.163 HD
ATOM     28  O   UNL A   1      42.211  24.985  25.383  1.00  0.00    -0.269 OA
BRANCH  26  29
ATOM     29  C   UNL A   1      41.167  25.871  27.291  1.00  0.00     0.039 A 
ATOM     30  C   UNL A   1      40.204  25.678  28.284  1.00  0.00     0.014 A 
ATOM     31  C   UNL A   1      41.926  27.043  27.265  1.00  0.00     0.014 A 
ATOM     32  C   UNL A   1      40.047  26.635  29.288  1.00  0.00     0.010 A 
ATOM     33  C   UNL A   1      41.833  27.948  28.314  1.00  0.00     0.010 A 
ATOM     34  C   UNL A   1      40.887  27.759  29.331  1.00  0.00    -0.014 A 
BRANCH  34  35
ATOM     35  C   UNL A   1      40.798  28.762  30.422  1.00  0.00     0.031 A 
ATOM     36  C   UNL A   1      41.659  28.615  31.646  1.00  0.00     0.074 A 
ATOM     37  C   UNL A   1      39.868  29.735  30.357  1.00  0.00     0.049 A 
ATOM     38  N   UNL A   1      41.641  29.301  32.758  1.00  0.00    -0.248 NA
ATOM     39  C   UNL A   1      42.648  27.524  31.629  1.00  0.00     0.031 C 
ATOM     40  C   UNL A   1      38.935  29.938  29.247  1.00  0.00     0.029 A 
ATOM     41  N   UNL A   1      39.535  30.717  31.255  1.00  0.00    -0.354 N 
ATOM     42  C   UNL A   1      42.590  28.709  33.583  1.00  0.00     0.074 A 
ATOM     43  C   UNL A   1      43.123  27.573  32.864  1.00  0.00     0.031 C 
ATOM     44  C   UNL A   1      38.139  30.981  29.528  1.00  0.00     0.029 A 
ATOM     45  C   UNL A   1      38.471  31.490  30.855  1.00  0.00     0.049 A 
ATOM     46  H   UNL A   1      40.012  30.855  32.106  1.00  0.00     0.167 HD
ATOM     47  C   UNL A   1      42.993  29.090  34.819  1.00  0.00     0.037 A 
ATOM     48  C   UNL A   1      37.820  32.482  31.493  1.00  0.00     0.037 A 
ATOM     49  C   UNL A   1      42.463  30.235  35.513  1.00  0.00     0.049 A 
ATOM     50  C   UNL A   1      38.286  32.901  32.859  1.00  0.00     0.074 A 
ATOM     51  C   UNL A   1      42.851  30.757  36.732  1.00  0.00     0.029 A 
ATOM     52  N   UNL A   1      41.419  31.027  35.052  1.00  0.00    -0.354 N 
ATOM     53  N   UNL A   1      39.244  32.386  33.594  1.00  0.00    -0.248 NA
ATOM     54  C   UNL A   1      37.595  34.038  33.481  1.00  0.00     0.031 C 
ATOM     55  C   UNL A   1      42.003  31.826  37.038  1.00  0.00     0.029 A 
ATOM     56  C   UNL A   1      41.128  32.014  35.979  1.00  0.00     0.049 A 
ATOM     57  H   UNL A   1      40.953  30.903  34.193  1.00  0.00     0.167 HD
ATOM     58  C   UNL A   1      39.287  33.149  34.755  1.00  0.00     0.074 A 
ATOM     59  C   UNL A   1      38.263  34.165  34.622  1.00  0.00     0.031 C 
ATOM     60  C   UNL A   1      40.104  33.022  35.829  1.00  0.00     0.037 A 
BRANCH  47  61
ATOM     61  C   UNL A   1      44.040  28.247  35.498  1.00  0.00     0.058 A 
ATOM     62  C   UNL A   1      45.414  28.441  35.273  1.00  0.00     0.135 A 
ATOM     63  C   UNL A   1      43.665  27.221  36.380  1.00  0.00     0.135 A 
ATOM     64  F   UNL A   1      45.833  29.402  34.432  1.00  0.00    -0.206 F 
ATOM     65  C   UNL A   1      46.372  27.614  35.849  1.00  0.00     0.059 A 
ATOM     66  C   UNL A   1      44.609  26.404  36.997  1.00  0.00     0.059 A 
ATOM     67  F   UNL A   1      42.369  26.992  36.640  1.00  0.00    -0.206 F 
ATOM     68  C   UNL A   1      45.959  26.591  36.703  1.00  0.00     0.060 A 
BRANCH  68  69
ATOM     69  S   UNL A   1      47.210  25.499  37.409  1.00  0.00     0.124 S 
ATOM     70  O   UNL A   1      46.521  24.994  38.593  1.00  0.00    -0.237 OA
ATOM     71  O   UNL A   1      47.419  24.530  36.337  1.00  0.00    -0.237 OA
ATOM     72  O   UNL A   1      48.334  26.392  37.670  1.00  0.00    -0.744 OA
ENDBRANCH  68  69
ENDBRANCH  47  61
BRANCH  48  73
ATOM     73  C   UNL A   1      36.665  33.140  30.824  1.00  0.00     0.058 A 
ATOM     74  C   UNL A   1      35.350  32.909  31.253  1.00  0.00     0.135 A 
ATOM     75  C   UNL A   1      36.863  34.073  29.793  1.00  0.00     0.135 A 
ATOM     76  F   UNL A   1      35.110  32.021  32.230  1.00  0.00    -0.206 F 
ATOM     77  C   UNL A   1      34.272  33.582  30.689  1.00  0.00     0.059 A 
ATOM     78  C   UNL A   1      35.803  34.777  29.231  1.00  0.00     0.059 A 
ATOM     79  F   UNL A   1      38.104  34.343  29.360  1.00  0.00    -0.206 F 
ATOM     80  C   UNL A   1      34.510  34.524  29.686  1.00  0.00     0.060 A 
BRANCH  80  81
ATOM     81  S   UNL A   1      33.112  35.461  29.029  1.00  0.00     0.124 S 
ATOM     82  O   UNL A   1      33.787  36.545  28.325  1.00  0.00    -0.237 OA
ATOM     83  O   UNL A   1      32.449  34.469  28.189  1.00  0.00    -0.237 OA
ATOM     84  O   UNL A   1      32.375  35.849  30.228  1.00  0.00    -0.744 OA
ENDBRANCH  80  81
ENDBRANCH  48  73
BRANCH  60  85
ATOM     85  C   UNL A   1      39.958  34.023  36.943  1.00  0.00     0.058 A 
ATOM     86  C   UNL A   1      40.598  35.271  36.906  1.00  0.00     0.135 A 
ATOM     87  C   UNL A   1      39.091  33.762  38.016  1.00  0.00     0.135 A 
ATOM     88  F   UNL A   1      41.444  35.568  35.908  1.00  0.00    -0.206 F 
ATOM     89  C   UNL A   1      40.388  36.223  37.898  1.00  0.00     0.059 A 
ATOM     90  C   UNL A   1      38.842  34.709  39.003  1.00  0.00     0.059 A 
ATOM     91  F   UNL A   1      38.448  32.586  38.095  1.00  0.00    -0.206 F 
ATOM     92  C   UNL A   1      39.501  35.937  38.938  1.00  0.00     0.060 A 
BRANCH  92  93
ATOM     93  S   UNL A   1      39.186  37.207  40.182  1.00  0.00     0.124 S 
ATOM     94  O   UNL A   1      40.541  37.611  40.539  1.00  0.00    -0.237 OA
ATOM     95  O   UNL A   1      38.408  38.189  39.433  1.00  0.00    -0.237 OA
ATOM     96  O   UNL A   1      38.449  36.492  41.220  1.00  0.00    -0.744 OA
ENDBRANCH  92  93
ENDBRANCH  60  85
ENDBRANCH  34  35
ENDBRANCH  26  29
ENDBRANCH  24  25
ENDBRANCH   1  24
TORSDOF 16
ENDMDL
MODEL 2
REMARK VINA RESULT:     -11.8      1.686      2.186
REMARK SMILES CCOc1ccc(-c2nc(C(=O)NCCCNC(=O)c3ccc(-c4c5nc(c(-c6c(F)cc(S(=O)(=O)[O-])cc6F)c6ccc([nH]6)c(-c6c(F)cc(S(=O)(=O)[O-])cc6F)c6nc(c(-c7c(F)cc(S(=O)(=O)[O-])cc7F)c7ccc4[nH]7)C=C6)C=C5)cc3)cc(=O)[nH]2)cc1
REMARK SMILES IDX 15 1 14 2 13 3 11 4 12 5 10 7 8 8 9 9 89 10 87 11 86 13
REMARK SMILES IDX 88 14 7 15 4 16 5 17 91 18 6 19 90 20 3 21 2 22 1 23 16 24
REMARK SMILES IDX 17 25 18 26 19 28 20 29 21 30 85 31 22 32 84 33 23 34 24 35
REMARK SMILES IDX 25 36 78 37 26 38 83 39 77 40 79 41 27 42 82 43 76 44 75 45
REMARK SMILES IDX 28 47 62 48 41 49 61 50 42 51 45 52 60 53 80 54 43 55 44 56
REMARK SMILES IDX 59 58 81 59 46 60 29 61 30 62 39 63 31 64 32 65 38 66 40 67
REMARK SMILES IDX 33 68 34 69 35 70 36 71 37 72 63 73 64 74 73 75 65 76 66 77
REMARK SMILES IDX 72 78 74 79 67 80 68 81 69 82 70 83 71 84 47 85 48 86 57 87
REMARK SMILES IDX 49 88 50 89 56 90 58 91 51 92 52 93 53 94 54 95 55 96
REMARK H PARENT 13 6 89 12 17 27 79 46 45 57
REMARK Flexibility Score: inf
ROOT
ATOM      1  C   UNL A   1      37.381  23.396  25.466  1.00  0.00     0.042 C 
ENDROOT
BRANCH   1   2
ATOM      2  C   UNL A   1      35.937  23.894  25.482  1.00  0.00     0.118 C 
BRANCH   2   3
ATOM      3  N   UNL A   1      35.241  23.497  24.274  1.00  0.00    -0.351 N 
ATOM      4  C   UNL A   1      33.948  23.486  23.864  1.00  0.00     0.270 C 
ATOM      5  O   UNL A   1      33.770  23.036  22.725  1.00  0.00    -0.268 OA
ATOM      6  H   UNL A   1      35.855  23.153  23.586  1.00  0.00     0.163 HD
BRANCH   4   7
ATOM      7  C   UNL A   1      32.762  24.019  24.654  1.00  0.00     0.136 A 
ATOM      8  C   UNL A   1      31.286  25.781  24.817  1.00  0.00     0.141 A 
ATOM      9  N   UNL A   1      32.294  25.247  24.214  1.00  0.00    -0.225 NA
ATOM     10  N   UNL A   1      30.672  25.205  25.893  1.00  0.00    -0.306 N 
ATOM     11  C   UNL A   1      31.071  24.003  26.380  1.00  0.00     0.251 A 
ATOM     12  H   UNL A   1      29.923  25.674  26.325  1.00  0.00     0.171 HD
ATOM     13  C   UNL A   1      32.166  23.350  25.649  1.00  0.00     0.105 A 
ATOM     14  O   UNL A   1      30.567  23.488  27.367  1.00  0.00    -0.269 OA
BRANCH   8  15
ATOM     15  C   UNL A   1      30.705  27.048  24.338  1.00  0.00     0.018 A 
ATOM     16  C   UNL A   1      29.691  29.469  23.424  1.00  0.00     0.119 A 
ATOM     17  C   UNL A   1      29.026  28.281  23.119  1.00  0.00     0.047 A 
ATOM     18  C   UNL A   1      30.831  29.455  24.226  1.00  0.00     0.047 A 
ATOM     19  C   UNL A   1      29.538  27.062  23.568  1.00  0.00     0.016 A 
ATOM     20  C   UNL A   1      31.345  28.242  24.680  1.00  0.00     0.016 A 
BRANCH  16  21
ATOM     21  O   UNL A   1      29.131  30.650  23.025  1.00  0.00    -0.494 OA
BRANCH  21  22
ATOM     22  C   UNL A   1      29.177  30.834  21.604  1.00  0.00     0.226 C 
ATOM     23  C   UNL A   1      28.070  31.756  21.118  1.00  0.00     0.049 C 
ENDBRANCH  21  22
ENDBRANCH  16  21
ENDBRANCH   8  15
ENDBRANCH   4   7
ENDBRANCH   2   3
ENDBRANCH   1   2
BRANCH   1  24
ATOM     24  C   UNL A   1      38.259  24.110  26.495  1.00  0.00     0.118 C 
BRANCH  24  25
ATOM     25  N   UNL A   1      39.679  23.904  26.229  1.00  0.00    -0.352 N 
ATOM     26  C   UNL A   1      40.762  24.691  26.536  1.00  0.00     0.251 C 
ATOM     27  H   UNL A   1      39.896  23.069  25.753  1.00  0.00     0.163 HD
ATOM     28  O   UNL A   1      41.834  24.495  25.970  1.00  0.00    -0.269 OA
BRANCH  26  29
ATOM     29  C   UNL A   1      40.637  25.760  27.545  1.00  0.00     0.039 A 
ATOM     30  C   UNL A   1      39.671  25.649  28.549  1.00  0.00     0.014 A 
ATOM     31  C   UNL A   1      41.454  26.891  27.478  1.00  0.00     0.014 A 
ATOM     32  C   UNL A   1      39.571  26.644  29.523  1.00  0.00     0.010 A 
ATOM     33  C   UNL A   1      41.415  27.832  28.498  1.00  0.00     0.010 A 
ATOM     34  C   UNL A   1      40.467  27.725  29.526  1.00  0.00    -0.014 A 
BRANCH  34  35
ATOM     35  C   UNL A   1      40.437  28.765  30.584  1.00  0.00     0.031 A 
ATOM     36  C   UNL A   1      41.311  28.621  31.799  1.00  0.00     0.074 A 
ATOM     37  C   UNL A   1      39.548  29.773  30.501  1.00  0.00     0.049 A 
ATOM     38  N   UNL A   1      41.339  29.343  32.889  1.00  0.00    -0.248 NA
ATOM     39  C   UNL A   1      42.253  27.489  31.805  1.00  0.00     0.031 C 
ATOM     40  C   UNL A   1      38.607  29.980  29.398  1.00  0.00     0.029 A 
ATOM     41  N   UNL A   1      39.270  30.797  31.371  1.00  0.00    -0.354 N 
ATOM     42  C   UNL A   1      42.275  28.738  33.719  1.00  0.00     0.074 A 
ATOM     43  C   UNL A   1      42.749  27.557  33.030  1.00  0.00     0.031 C 
ATOM     44  C   UNL A   1      37.860  31.064  29.656  1.00  0.00     0.029 A 
ATOM     45  C   UNL A   1      38.234  31.601  30.961  1.00  0.00     0.049 A 
ATOM     46  H   UNL A   1      39.766  30.941  32.209  1.00  0.00     0.167 HD
ATOM     47  C   UNL A   1      42.713  29.140  34.936  1.00  0.00     0.037 A 
ATOM     48  C   UNL A   1      37.634  32.640  31.575  1.00  0.00     0.037 A 
ATOM     49  C   UNL A   1      42.242  30.328  35.599  1.00  0.00     0.049 A 
ATOM     50  C   UNL A   1      38.139  33.082  32.920  1.00  0.00     0.074 A 
ATOM     51  C   UNL A   1      42.671  30.873  36.795  1.00  0.00     0.029 A 
ATOM     52  N   UNL A   1      41.225  31.149  35.128  1.00  0.00    -0.354 N 
ATOM     53  N   UNL A   1      39.086  32.551  33.657  1.00  0.00    -0.248 NA
ATOM     54  C   UNL A   1      37.506  34.266  33.514  1.00  0.00     0.031 C 
ATOM     55  C   UNL A   1      41.873  31.986  37.079  1.00  0.00     0.029 A 
ATOM     56  C   UNL A   1      40.990  32.176  36.026  1.00  0.00     0.049 A 
ATOM     57  H   UNL A   1      40.741  31.017  34.280  1.00  0.00     0.167 HD
ATOM     58  C   UNL A   1      39.179  33.348  34.792  1.00  0.00     0.074 A 
ATOM     59  C   UNL A   1      38.196  34.402  34.640  1.00  0.00     0.031 C 
ATOM     60  C   UNL A   1      40.007  33.221  35.858  1.00  0.00     0.037 A 
BRANCH  47  61
ATOM     61  C   UNL A   1      43.735  28.277  35.627  1.00  0.00     0.058 A 
ATOM     62  C   UNL A   1      45.115  28.440  35.416  1.00  0.00     0.135 A 
ATOM     63  C   UNL A   1      43.328  27.261  36.508  1.00  0.00     0.135 A 
ATOM     64  F   UNL A   1      45.563  29.389  34.578  1.00  0.00    -0.206 F 
ATOM     65  C   UNL A   1      46.048  27.593  36.003  1.00  0.00     0.059 A 
ATOM     66  C   UNL A   1      44.248  26.425  37.136  1.00  0.00     0.059 A 
ATOM     67  F   UNL A   1      42.025  27.061  36.755  1.00  0.00    -0.206 F 
ATOM     68  C   UNL A   1      45.604  26.582  36.855  1.00  0.00     0.060 A 
BRANCH  68  69
ATOM     69  S   UNL A   1      46.824  25.464  37.576  1.00  0.00     0.124 S 
ATOM     70  O   UNL A   1      46.041  24.816  38.624  1.00  0.00    -0.237 OA
ATOM     71  O   UNL A   1      47.182  24.619  36.439  1.00  0.00    -0.237 OA
ATOM     72  O   UNL A   1      47.876  26.362  38.042  1.00  0.00    -0.744 OA
ENDBRANCH  68  69
ENDBRANCH  47  61
BRANCH  48  73
ATOM     73  C   UNL A   1      36.498  33.324  30.902  1.00  0.00     0.058 A 
ATOM     74  C   UNL A   1      35.187  33.198  31.384  1.00  0.00     0.135 A 
ATOM     75  C   UNL A   1      36.714  34.179  29.809  1.00  0.00     0.135 A 
ATOM     76  F   UNL A   1      34.929  32.388  32.422  1.00  0.00    -0.206 F 
ATOM     77  C   UNL A   1      34.131  33.899  30.811  1.00  0.00     0.059 A 
ATOM     78  C   UNL A   1      35.679  34.910  29.236  1.00  0.00     0.059 A 
ATOM     79  F   UNL A   1      37.954  34.348  29.322  1.00  0.00    -0.206 F 
ATOM     80  C   UNL A   1      34.390  34.763  29.745  1.00  0.00     0.060 A 
BRANCH  80  81
ATOM     81  S   UNL A   1      33.027  35.741  29.073  1.00  0.00     0.124 S 
ATOM     82  O   UNL A   1      32.366  34.771  28.208  1.00  0.00    -0.237 OA
ATOM     83  O   UNL A   1      32.300  36.119  30.281  1.00  0.00    -0.237 OA
ATOM     84  O   UNL A   1      33.705  36.838  28.391  1.00  0.00    -0.744 OA
ENDBRANCH  80  81
ENDBRANCH  48  73
BRANCH  60  85
ATOM     85  C   UNL A   1      39.920  34.263  36.941  1.00  0.00     0.058 A 
ATOM     86  C   UNL A   1      40.570  35.502  36.831  1.00  0.00     0.135 A 
ATOM     87  C   UNL A   1      39.098  34.050  38.060  1.00  0.00     0.135 A 
ATOM     88  F   UNL A   1      41.375  35.753  35.786  1.00  0.00    -0.206 F 
ATOM     89  C   UNL A   1      40.414  36.491  37.796  1.00  0.00     0.059 A 
ATOM     90  C   UNL A   1      38.904  35.035  39.021  1.00  0.00     0.059 A 
ATOM     91  F   UNL A   1      38.448  32.886  38.209  1.00  0.00    -0.206 F 
ATOM     92  C   UNL A   1      39.570  36.252  38.883  1.00  0.00     0.060 A 
BRANCH  92  93
ATOM     93  S   UNL A   1      39.324  37.569  40.093  1.00  0.00     0.124 S 
ATOM     94  O   UNL A   1      40.664  38.136  40.188  1.00  0.00    -0.237 OA
ATOM     95  O   UNL A   1      38.325  38.408  39.439  1.00  0.00    -0.237 OA
ATOM     96  O   UNL A   1      38.857  36.858  41.280  1.00  0.00    -0.744 OA
ENDBRANCH  92  93
ENDBRANCH  60  85
ENDBRANCH  34  35
ENDBRANCH  26  29
ENDBRANCH  24  25
ENDBRANCH   1  24
TORSDOF 16
ENDMDL
MODEL 3
REMARK VINA RESULT:     -11.8      3.416      5.688
REMARK SMILES CCOc1ccc(-c2nc(C(=O)NCCCNC(=O)c3ccc(-c4c5nc(c(-c6c(F)cc(S(=O)(=O)[O-])cc6F)c6ccc([nH]6)c(-c6c(F)cc(S(=O)(=O)[O-])cc6F)c6nc(c(-c7c(F)cc(S(=O)(=O)[O-])cc7F)c7ccc4[nH]7)C=C6)C=C5)cc3)cc(=O)[nH]2)cc1
REMARK SMILES IDX 15 1 14 2 13 3 11 4 12 5 10 7 8 8 9 9 89 10 87 11 86 13
REMARK SMILES IDX 88 14 7 15 4 16 5 17 91 18 6 19 90 20 3 21 2 22 1 23 16 24
REMARK SMILES IDX 17 25 18 26 19 28 20 29 21 30 85 31 22 32 84 33 23 34 24 35
REMARK SMILES IDX 25 36 78 37 26 38 83 39 77 40 79 41 27 42 82 43 76 44 75 45
REMARK SMILES IDX 28 47 62 48 41 49 61 50 42 51 45 52 60 53 80 54 43 55 44 56
REMARK SMILES IDX 59 58 81 59 46 60 29 61 30 62 39 63 31 64 32 65 38 66 40 67
REMARK SMILES IDX 33 68 34 69 35 70 36 71 37 72 63 73 64 74 73 75 65 76 66 77
REMARK SMILES IDX 72 78 74 79 67 80 68 81 69 82 70 83 71 84 47 85 48 86 57 87
REMARK SMILES IDX 49 88 50 89 56 90 58 91 51 92 52 93 53 94 54 95 55 96
REMARK H PARENT 13 6 89 12 17 27 79 46 45 57
REMARK Flexibility Score: inf
ROOT
ATOM      1  C   UNL A   1      40.801  21.557  27.746  1.00  0.00     0.042 C 
ENDROOT
BRANCH   1   2
ATOM      2  C   UNL A   1      40.975  20.683  26.506  1.00  0.00     0.118 C 
BRANCH   2   3
ATOM      3  N   UNL A   1      41.611  19.426  26.846  1.00  0.00    -0.351 N 
ATOM      4  C   UNL A   1      42.736  18.776  26.453  1.00  0.00     0.270 C 
ATOM      5  O   UNL A   1      42.913  17.677  26.995  1.00  0.00    -0.268 OA
ATOM      6  H   UNL A   1      41.106  18.923  27.524  1.00  0.00     0.163 HD
BRANCH   4   7
ATOM      7  C   UNL A   1      43.774  19.309  25.478  1.00  0.00     0.136 A 
ATOM      8  C   UNL A   1      45.121  21.120  25.013  1.00  0.00     0.141 A 
ATOM      9  N   UNL A   1      44.232  20.582  25.778  1.00  0.00    -0.225 NA
ATOM     10  N   UNL A   1      45.614  20.505  23.898  1.00  0.00    -0.306 N 
ATOM     11  C   UNL A   1      45.216  19.257  23.540  1.00  0.00     0.251 A 
ATOM     12  H   UNL A   1      46.272  20.978  23.340  1.00  0.00     0.171 HD
ATOM     13  C   UNL A   1      44.266  18.604  24.451  1.00  0.00     0.105 A 
ATOM     14  O   UNL A   1      45.610  18.703  22.524  1.00  0.00    -0.269 OA
BRANCH   8  15
ATOM     15  C   UNL A   1      45.694  22.439  25.334  1.00  0.00     0.018 A 
ATOM     16  C   UNL A   1      46.800  24.896  26.019  1.00  0.00     0.119 A 
ATOM     17  C   UNL A   1      46.850  24.460  24.694  1.00  0.00     0.047 A 
ATOM     18  C   UNL A   1      46.156  24.132  26.991  1.00  0.00     0.047 A 
ATOM     19  C   UNL A   1      46.304  23.222  24.348  1.00  0.00     0.016 A 
ATOM     20  C   UNL A   1      45.606  22.898  26.652  1.00  0.00     0.016 A 
BRANCH  16  21
ATOM     21  O   UNL A   1      47.286  26.139  26.314  1.00  0.00    -0.494 OA
BRANCH  21  22
ATOM     22  C   UNL A   1      46.594  27.185  25.620  1.00  0.00     0.226 C 
ATOM     23  C   UNL A   1      46.102  28.264  26.572  1.00  0.00     0.049 C 
ENDBRANCH  21  22
ENDBRANCH  16  21
ENDBRANCH   8  15
ENDBRANCH   4   7
ENDBRANCH   2   3
ENDBRANCH   1   2
BRANCH   1  24
ATOM     24  C   UNL A   1      41.973  22.519  27.954  1.00  0.00     0.118 C 
BRANCH  24  25
ATOM     25  N   UNL A   1      42.353  23.185  26.712  1.00  0.00    -0.352 N 
ATOM     26  C   UNL A   1      42.231  24.500  26.338  1.00  0.00     0.251 C 
ATOM     27  H   UNL A   1      42.761  22.598  26.034  1.00  0.00     0.163 HD
ATOM     28  O   UNL A   1      42.331  24.805  25.153  1.00  0.00    -0.269 OA
BRANCH  26  29
ATOM     29  C   UNL A   1      41.987  25.539  27.357  1.00  0.00     0.039 A 
ATOM     30  C   UNL A   1      40.821  25.490  28.125  1.00  0.00     0.014 A 
ATOM     31  C   UNL A   1      42.899  26.583  27.528  1.00  0.00     0.014 A 
ATOM     32  C   UNL A   1      40.603  26.454  29.110  1.00  0.00     0.010 A 
ATOM     33  C   UNL A   1      42.725  27.486  28.568  1.00  0.00     0.010 A 
ATOM     34  C   UNL A   1      41.572  27.439  29.364  1.00  0.00    -0.014 A 
BRANCH  34  35
ATOM     35  C   UNL A   1      41.408  28.438  30.449  1.00  0.00     0.031 A 
ATOM     36  C   UNL A   1      42.236  28.328  31.699  1.00  0.00     0.074 A 
ATOM     37  C   UNL A   1      40.441  29.371  30.353  1.00  0.00     0.049 A 
ATOM     38  N   UNL A   1      42.155  29.015  32.808  1.00  0.00    -0.248 NA
ATOM     39  C   UNL A   1      43.269  27.280  31.715  1.00  0.00     0.031 C 
ATOM     40  C   UNL A   1      39.535  29.534  29.213  1.00  0.00     0.029 A 
ATOM     41  N   UNL A   1      40.040  30.340  31.238  1.00  0.00    -0.354 N 
ATOM     42  C   UNL A   1      43.101  28.463  33.663  1.00  0.00     0.074 A 
ATOM     43  C   UNL A   1      43.704  27.349  32.964  1.00  0.00     0.031 C 
ATOM     44  C   UNL A   1      38.688  30.544  29.467  1.00  0.00     0.029 A 
ATOM     45  C   UNL A   1      38.958  31.068  30.803  1.00  0.00     0.049 A 
ATOM     46  H   UNL A   1      40.484  30.498  32.102  1.00  0.00     0.167 HD
ATOM     47  C   UNL A   1      43.450  28.862  34.910  1.00  0.00     0.037 A 
ATOM     48  C   UNL A   1      38.246  32.033  31.418  1.00  0.00     0.037 A 
ATOM     49  C   UNL A   1      42.852  29.985  35.585  1.00  0.00     0.049 A 
ATOM     50  C   UNL A   1      38.652  32.472  32.797  1.00  0.00     0.074 A 
ATOM     51  C   UNL A   1      43.181  30.524  36.814  1.00  0.00     0.029 A 
ATOM     52  N   UNL A   1      41.790  30.732  35.090  1.00  0.00    -0.354 N 
ATOM     53  N   UNL A   1      39.608  31.998  33.562  1.00  0.00    -0.248 NA
ATOM     54  C   UNL A   1      37.895  33.580  33.394  1.00  0.00     0.031 C 
ATOM     55  C   UNL A   1      42.279  31.557  37.092  1.00  0.00     0.029 A 
ATOM     56  C   UNL A   1      41.431  31.707  36.005  1.00  0.00     0.049 A 
ATOM     57  H   UNL A   1      41.357  30.588  34.217  1.00  0.00     0.167 HD
ATOM     58  C   UNL A   1      39.583  32.764  34.722  1.00  0.00     0.074 A 
ATOM     59  C   UNL A   1      38.522  33.736  34.555  1.00  0.00     0.031 C 
ATOM     60  C   UNL A   1      40.371  32.671  35.821  1.00  0.00     0.037 A 
BRANCH  47  61
ATOM     61  C   UNL A   1      44.510  28.064  35.623  1.00  0.00     0.058 A 
ATOM     62  C   UNL A   1      44.192  26.977  36.455  1.00  0.00     0.135 A 
ATOM     63  C   UNL A   1      45.867  28.398  35.482  1.00  0.00     0.135 A 
ATOM     64  F   UNL A   1      42.911  26.616  36.635  1.00  0.00    -0.206 F 
ATOM     65  C   UNL A   1      45.170  26.290  37.165  1.00  0.00     0.059 A 
ATOM     66  C   UNL A   1      46.867  27.701  36.154  1.00  0.00     0.059 A 
ATOM     67  F   UNL A   1      46.234  29.422  34.696  1.00  0.00    -0.206 F 
ATOM     68  C   UNL A   1      46.506  26.665  37.015  1.00  0.00     0.060 A 
BRANCH  68  69
ATOM     69  S   UNL A   1      47.760  25.793  37.976  1.00  0.00     0.124 S 
ATOM     70  O   UNL A   1      47.224  24.435  37.987  1.00  0.00    -0.237 OA
ATOM     71  O   UNL A   1      48.963  25.993  37.173  1.00  0.00    -0.237 OA
ATOM     72  O   UNL A   1      47.746  26.484  39.261  1.00  0.00    -0.744 OA
ENDBRANCH  68  69
ENDBRANCH  47  61
BRANCH  48  73
ATOM     73  C   UNL A   1      37.086  32.641  30.712  1.00  0.00     0.058 A 
ATOM     74  C   UNL A   1      35.770  32.295  31.048  1.00  0.00     0.135 A 
ATOM     75  C   UNL A   1      37.274  33.638  29.741  1.00  0.00     0.135 A 
ATOM     76  F   UNL A   1      35.540  31.342  31.965  1.00  0.00    -0.206 F 
ATOM     77  C   UNL A   1      34.679  32.918  30.452  1.00  0.00     0.059 A 
ATOM     78  C   UNL A   1      36.199  34.295  29.150  1.00  0.00     0.059 A 
ATOM     79  F   UNL A   1      38.514  34.019  29.399  1.00  0.00    -0.206 F 
ATOM     80  C   UNL A   1      34.904  33.927  29.512  1.00  0.00     0.060 A 
BRANCH  80  81
ATOM     81  S   UNL A   1      33.481  34.796  28.817  1.00  0.00     0.124 S 
ATOM     82  O   UNL A   1      33.042  33.865  27.784  1.00  0.00    -0.237 OA
ATOM     83  O   UNL A   1      32.605  34.921  29.978  1.00  0.00    -0.237 OA
ATOM     84  O   UNL A   1      34.054  36.049  28.337  1.00  0.00    -0.744 OA
ENDBRANCH  80  81
ENDBRANCH  48  73
BRANCH  60  85
ATOM     85  C   UNL A   1      40.149  33.667  36.928  1.00  0.00     0.058 A 
ATOM     86  C   UNL A   1      40.781  34.920  36.935  1.00  0.00     0.135 A 
ATOM     87  C   UNL A   1      39.218  33.396  37.944  1.00  0.00     0.135 A 
ATOM     88  F   UNL A   1      41.686  35.227  35.992  1.00  0.00    -0.206 F 
ATOM     89  C   UNL A   1      40.503  35.866  37.916  1.00  0.00     0.059 A 
ATOM     90  C   UNL A   1      38.903  34.338  38.917  1.00  0.00     0.059 A 
ATOM     91  F   UNL A   1      38.580  32.215  37.978  1.00  0.00    -0.206 F 
ATOM     92  C   UNL A   1      39.555  35.570  38.897  1.00  0.00     0.060 A 
BRANCH  92  93
ATOM     93  S   UNL A   1      39.155  36.832  40.124  1.00  0.00     0.124 S 
ATOM     94  O   UNL A   1      38.200  36.127  40.971  1.00  0.00    -0.237 OA
ATOM     95  O   UNL A   1      40.457  37.103  40.727  1.00  0.00    -0.237 OA
ATOM     96  O   UNL A   1      38.602  37.921  39.325  1.00  0.00    -0.744 OA
ENDBRANCH  92  93
ENDBRANCH  60  85
ENDBRANCH  34  35
ENDBRANCH  26  29
ENDBRANCH  24  25
ENDBRANCH   1  24
TORSDOF 16
ENDMDL
