MODEL 1
REMARK VINA RESULT:     -11.7      0.000      0.000
REMARK SMILES [NH3+][C@]1(C(=O)NCCCNC(=O)c2ccc(-c3c4nc(c(-c5c(F)cc(S(=O)(=O)[O-])cc5F)c5ccc([nH]5)c(-c5c(F)cc(S(=O)(=O)[O-])cc5F)c5nc(c(-c6c(F)cc(S(=O)(=O)[O-])cc6F)c6ccc3[nH]6)C=C5)C=C4)cc2)CCC[C@@H]1CCn1cc(I)cn1
REMARK SMILES IDX 7 1 6 2 5 3 3 4 4 5 2 7 78 8 81 9 79 10 80 11 1 12 82 16
REMARK SMILES IDX 83 17 84 18 85 19 89 20 86 21 88 22 87 23 8 24 9 25 10 26
REMARK SMILES IDX 11 28 12 29 13 30 77 31 14 32 76 33 15 34 16 35 17 36 70 37
REMARK SMILES IDX 18 38 75 39 69 40 71 41 19 42 74 43 68 44 67 45 20 47 54 48
REMARK SMILES IDX 33 49 53 50 34 51 37 52 52 53 72 54 35 55 36 56 51 58 73 59
REMARK SMILES IDX 38 60 21 61 22 62 31 63 23 64 24 65 30 66 32 67 25 68 26 69
REMARK SMILES IDX 27 70 28 71 29 72 55 73 56 74 65 75 57 76 58 77 64 78 66 79
REMARK SMILES IDX 59 80 60 81 61 82 62 83 63 84 39 85 40 86 49 87 41 88 42 89
REMARK SMILES IDX 48 90 50 91 43 92 44 93 45 94 46 95 47 96
REMARK H PARENT 5 6 1 13 1 14 1 15 9 27 71 46 37 57
REMARK Flexibility Score: inf
ROOT
ATOM      1  C   UNL A   1      37.541  23.133  25.920  1.00  0.00     0.042 C 
ENDROOT
BRANCH   1   2
ATOM      2  C   UNL A   1      36.070  23.518  25.859  1.00  0.00     0.118 C 
BRANCH   2   3
ATOM      3  N   UNL A   1      35.268  22.717  26.763  1.00  0.00    -0.351 N 
ATOM      4  C   UNL A   1      34.368  21.724  26.598  1.00  0.00     0.281 C 
ATOM      5  O   UNL A   1      33.698  21.468  27.608  1.00  0.00    -0.268 OA
ATOM      6  H   UNL A   1      35.412  22.949  27.709  1.00  0.00     0.163 HD
BRANCH   4   7
ATOM      7  C   UNL A   1      34.097  20.927  25.287  1.00  0.00     0.176 C 
ATOM      8  C   UNL A   1      33.169  19.713  25.361  1.00  0.00     0.079 C 
ATOM      9  C   UNL A   1      33.308  21.881  24.306  1.00  0.00     0.062 C 
ATOM     10  C   UNL A   1      32.614  19.563  23.957  1.00  0.00     0.008 C 
ATOM     11  C   UNL A   1      32.254  20.993  23.600  1.00  0.00     0.011 C 
BRANCH   7  12
ATOM     12  N   UNL A   1      35.404  20.471  24.764  1.00  0.00    -0.345 N 
ATOM     13  H   UNL A   1      36.071  20.397  25.532  1.00  0.00     0.345 HD
ATOM     14  H   UNL A   1      35.748  21.141  24.078  1.00  0.00     0.345 HD
ATOM     15  H   UNL A   1      35.292  19.558  24.321  1.00  0.00     0.345 HD
ENDBRANCH   7  12
BRANCH   9  16
ATOM     16  C   UNL A   1      34.144  22.693  23.285  1.00  0.00     0.034 C 
BRANCH  16  17
ATOM     17  C   UNL A   1      33.278  23.483  22.291  1.00  0.00     0.145 C 
BRANCH  17  18
ATOM     18  N   UNL A   1      33.216  24.899  22.609  1.00  0.00    -0.272 N 
ATOM     19  C   UNL A   1      32.794  25.466  23.779  1.00  0.00     0.123 A 
ATOM     20  N   UNL A   1      33.623  25.802  21.690  1.00  0.00    -0.180 NA
ATOM     21  C   UNL A   1      33.106  26.796  23.661  1.00  0.00     0.051 A 
ATOM     22  C   UNL A   1      33.642  26.951  22.376  1.00  0.00     0.149 A 
ATOM     23  I   UNL A   1      32.868  28.203  25.076  1.00  0.00    -0.041 I 
ENDBRANCH  17  18
ENDBRANCH  16  17
ENDBRANCH   9  16
ENDBRANCH   4   7
ENDBRANCH   2   3
ENDBRANCH   1   2
BRANCH   1  24
ATOM     24  C   UNL A   1      38.469  24.307  26.210  1.00  0.00     0.118 C 
BRANCH  24  25
ATOM     25  N   UNL A   1      39.875  23.916  26.234  1.00  0.00    -0.352 N 
ATOM     26  C   UNL A   1      40.959  24.534  26.801  1.00  0.00     0.251 C 
ATOM     27  H   UNL A   1      40.076  23.073  25.768  1.00  0.00     0.163 HD
ATOM     28  O   UNL A   1      42.095  24.165  26.491  1.00  0.00    -0.269 OA
BRANCH  26  29
ATOM     29  C   UNL A   1      40.778  25.640  27.763  1.00  0.00     0.039 A 
ATOM     30  C   UNL A   1      39.706  25.598  28.659  1.00  0.00     0.014 A 
ATOM     31  C   UNL A   1      41.651  26.730  27.771  1.00  0.00     0.014 A 
ATOM     32  C   UNL A   1      39.558  26.611  29.610  1.00  0.00     0.010 A 
ATOM     33  C   UNL A   1      41.559  27.686  28.776  1.00  0.00     0.010 A 
ATOM     34  C   UNL A   1      40.509  27.640  29.705  1.00  0.00    -0.014 A 
BRANCH  34  35
ATOM     35  C   UNL A   1      40.434  28.670  30.774  1.00  0.00     0.031 A 
ATOM     36  C   UNL A   1      41.308  28.559  31.994  1.00  0.00     0.074 A 
ATOM     37  C   UNL A   1      39.522  29.658  30.678  1.00  0.00     0.049 A 
ATOM     38  N   UNL A   1      41.325  29.310  33.066  1.00  0.00    -0.248 NA
ATOM     39  C   UNL A   1      42.266  27.443  32.030  1.00  0.00     0.031 C 
ATOM     40  C   UNL A   1      38.579  29.834  29.570  1.00  0.00     0.029 A 
ATOM     41  N   UNL A   1      39.227  30.692  31.530  1.00  0.00    -0.354 N 
ATOM     42  C   UNL A   1      42.280  28.748  33.907  1.00  0.00     0.074 A 
ATOM     43  C   UNL A   1      42.780  27.564  33.245  1.00  0.00     0.031 C 
ATOM     44  C   UNL A   1      37.830  30.925  29.799  1.00  0.00     0.029 A 
ATOM     45  C   UNL A   1      38.206  31.499  31.087  1.00  0.00     0.049 A 
ATOM     46  H   UNL A   1      39.701  30.842  32.379  1.00  0.00     0.167 HD
ATOM     47  C   UNL A   1      42.717  29.193  35.109  1.00  0.00     0.037 A 
ATOM     48  C   UNL A   1      37.628  32.574  31.658  1.00  0.00     0.037 A 
ATOM     49  C   UNL A   1      42.232  30.388  35.748  1.00  0.00     0.049 A 
ATOM     50  C   UNL A   1      38.131  33.050  32.993  1.00  0.00     0.074 A 
ATOM     51  C   UNL A   1      42.654  30.963  36.934  1.00  0.00     0.029 A 
ATOM     52  N   UNL A   1      41.212  31.191  35.257  1.00  0.00    -0.354 N 
ATOM     53  N   UNL A   1      39.085  32.547  33.741  1.00  0.00    -0.248 NA
ATOM     54  C   UNL A   1      37.484  34.240  33.560  1.00  0.00     0.031 C 
ATOM     55  C   UNL A   1      41.860  32.087  37.183  1.00  0.00     0.029 A 
ATOM     56  C   UNL A   1      40.976  32.243  36.128  1.00  0.00     0.049 A 
ATOM     57  H   UNL A   1      40.728  31.037  34.414  1.00  0.00     0.167 HD
ATOM     58  C   UNL A   1      39.168  33.373  34.856  1.00  0.00     0.074 A 
ATOM     59  C   UNL A   1      38.179  34.417  34.676  1.00  0.00     0.031 C 
ATOM     60  C   UNL A   1      39.987  33.274  35.932  1.00  0.00     0.037 A 
BRANCH  47  61
ATOM     61  C   UNL A   1      43.778  28.387  35.810  1.00  0.00     0.058 A 
ATOM     62  C   UNL A   1      45.146  28.630  35.601  1.00  0.00     0.135 A 
ATOM     63  C   UNL A   1      43.425  27.386  36.730  1.00  0.00     0.135 A 
ATOM     64  F   UNL A   1      45.541  29.565  34.722  1.00  0.00    -0.206 F 
ATOM     65  C   UNL A   1      46.125  27.889  36.255  1.00  0.00     0.059 A 
ATOM     66  C   UNL A   1      44.389  26.652  37.417  1.00  0.00     0.059 A 
ATOM     67  F   UNL A   1      42.134  27.111  36.968  1.00  0.00    -0.206 F 
ATOM     68  C   UNL A   1      45.736  26.901  37.162  1.00  0.00     0.060 A 
BRANCH  68  69
ATOM     69  S   UNL A   1      47.021  25.955  38.007  1.00  0.00     0.124 S 
ATOM     70  O   UNL A   1      47.938  25.665  36.909  1.00  0.00    -0.237 OA
ATOM     71  O   UNL A   1      47.505  26.907  39.002  1.00  0.00    -0.237 OA
ATOM     72  O   UNL A   1      46.300  24.805  38.542  1.00  0.00    -0.744 OA
ENDBRANCH  68  69
ENDBRANCH  47  61
BRANCH  48  73
ATOM     73  C   UNL A   1      36.523  33.283  30.958  1.00  0.00     0.058 A 
ATOM     74  C   UNL A   1      35.197  33.169  31.403  1.00  0.00     0.135 A 
ATOM     75  C   UNL A   1      36.770  34.102  29.845  1.00  0.00     0.135 A 
ATOM     76  F   UNL A   1      34.910  32.395  32.460  1.00  0.00    -0.206 F 
ATOM     77  C   UNL A   1      34.154  33.828  30.761  1.00  0.00     0.059 A 
ATOM     78  C   UNL A   1      35.747  34.791  29.201  1.00  0.00     0.059 A 
ATOM     79  F   UNL A   1      38.023  34.258  29.390  1.00  0.00    -0.206 F 
ATOM     80  C   UNL A   1      34.440  34.640  29.661  1.00  0.00     0.060 A 
BRANCH  80  81
ATOM     81  S   UNL A   1      33.084  35.530  28.868  1.00  0.00     0.124 S 
ATOM     82  O   UNL A   1      33.804  36.525  28.083  1.00  0.00    -0.237 OA
ATOM     83  O   UNL A   1      32.424  34.472  28.109  1.00  0.00    -0.237 OA
ATOM     84  O   UNL A   1      32.318  36.050  29.997  1.00  0.00    -0.744 OA
ENDBRANCH  80  81
ENDBRANCH  48  73
BRANCH  60  85
ATOM     85  C   UNL A   1      39.868  34.338  36.989  1.00  0.00     0.058 A 
ATOM     86  C   UNL A   1      40.562  35.554  36.892  1.00  0.00     0.135 A 
ATOM     87  C   UNL A   1      39.007  34.159  38.085  1.00  0.00     0.135 A 
ATOM     88  F   UNL A   1      41.402  35.772  35.868  1.00  0.00    -0.206 F 
ATOM     89  C   UNL A   1      40.429  36.545  37.858  1.00  0.00     0.059 A 
ATOM     90  C   UNL A   1      38.836  35.148  39.047  1.00  0.00     0.059 A 
ATOM     91  F   UNL A   1      38.311  33.019  38.219  1.00  0.00    -0.206 F 
ATOM     92  C   UNL A   1      39.561  36.334  38.932  1.00  0.00     0.060 A 
BRANCH  92  93
ATOM     93  S   UNL A   1      39.372  37.642  40.161  1.00  0.00     0.124 S 
ATOM     94  O   UNL A   1      38.268  38.414  39.603  1.00  0.00    -0.237 OA
ATOM     95  O   UNL A   1      39.069  36.888  41.375  1.00  0.00    -0.237 OA
ATOM     96  O   UNL A   1      40.672  38.307  40.153  1.00  0.00    -0.744 OA
ENDBRANCH  92  93
ENDBRANCH  60  85
ENDBRANCH  34  35
ENDBRANCH  26  29
ENDBRANCH  24  25
ENDBRANCH   1  24
TORSDOF 17
ENDMDL
MODEL 2
REMARK VINA RESULT:     -11.5      3.559      9.535
REMARK SMILES [NH3+][C@]1(C(=O)NCCCNC(=O)c2ccc(-c3c4nc(c(-c5c(F)cc(S(=O)(=O)[O-])cc5F)c5ccc([nH]5)c(-c5c(F)cc(S(=O)(=O)[O-])cc5F)c5nc(c(-c6c(F)cc(S(=O)(=O)[O-])cc6F)c6ccc3[nH]6)C=C5)C=C4)cc2)CCC[C@@H]1CCn1cc(I)cn1
REMARK SMILES IDX 7 1 6 2 5 3 3 4 4 5 2 7 78 8 81 9 79 10 80 11 1 12 82 16
REMARK SMILES IDX 83 17 84 18 85 19 89 20 86 21 88 22 87 23 8 24 9 25 10 26
REMARK SMILES IDX 11 28 12 29 13 30 77 31 14 32 76 33 15 34 16 35 17 36 70 37
REMARK SMILES IDX 18 38 75 39 69 40 71 41 19 42 74 43 68 44 67 45 20 47 54 48
REMARK SMILES IDX 33 49 53 50 34 51 37 52 52 53 72 54 35 55 36 56 51 58 73 59
REMARK SMILES IDX 38 60 21 61 22 62 31 63 23 64 24 65 30 66 32 67 25 68 26 69
REMARK SMILES IDX 27 70 28 71 29 72 55 73 56 74 65 75 57 76 58 77 64 78 66 79
REMARK SMILES IDX 59 80 60 81 61 82 62 83 63 84 39 85 40 86 49 87 41 88 42 89
REMARK SMILES IDX 48 90 50 91 43 92 44 93 45 94 46 95 47 96
REMARK H PARENT 5 6 1 13 1 14 1 15 9 27 71 46 37 57
REMARK Flexibility Score: inf
ROOT
ATOM      1  C   UNL A   1      33.092  27.757  26.604  1.00  0.00     0.042 C 
ENDROOT
BRANCH   1   2
ATOM      2  C   UNL A   1      31.680  27.679  26.040  1.00  0.00     0.118 C 
BRANCH   2   3
ATOM      3  N   UNL A   1      30.972  26.511  26.524  1.00  0.00    -0.351 N 
ATOM      4  C   UNL A   1      30.930  25.214  26.157  1.00  0.00     0.281 C 
ATOM      5  O   UNL A   1      29.996  24.571  26.657  1.00  0.00    -0.268 OA
ATOM      6  H   UNL A   1      30.390  26.710  27.294  1.00  0.00     0.163 HD
BRANCH   4   7
ATOM      7  C   UNL A   1      31.903  24.496  25.175  1.00  0.00     0.176 C 
ATOM      8  C   UNL A   1      32.434  25.289  23.979  1.00  0.00     0.079 C 
ATOM      9  C   UNL A   1      33.231  24.179  25.971  1.00  0.00     0.062 C 
ATOM     10  C   UNL A   1      33.748  24.619  23.622  1.00  0.00     0.008 C 
ATOM     11  C   UNL A   1      34.395  24.437  24.983  1.00  0.00     0.011 C 
BRANCH   7  12
ATOM     12  N   UNL A   1      31.211  23.297  24.656  1.00  0.00    -0.345 N 
ATOM     13  H   UNL A   1      30.467  23.582  24.020  1.00  0.00     0.345 HD
ATOM     14  H   UNL A   1      30.810  22.772  25.433  1.00  0.00     0.345 HD
ATOM     15  H   UNL A   1      31.878  22.708  24.157  1.00  0.00     0.345 HD
ENDBRANCH   7  12
BRANCH   9  16
ATOM     16  C   UNL A   1      33.344  22.782  26.630  1.00  0.00     0.034 C 
BRANCH  16  17
ATOM     17  C   UNL A   1      34.441  21.907  26.003  1.00  0.00     0.145 C 
BRANCH  17  18
ATOM     18  N   UNL A   1      33.900  20.782  25.260  1.00  0.00    -0.272 N 
ATOM     19  C   UNL A   1      34.581  19.688  24.806  1.00  0.00     0.123 A 
ATOM     20  N   UNL A   1      32.581  20.752  24.973  1.00  0.00    -0.180 NA
ATOM     21  C   UNL A   1      33.612  18.833  24.347  1.00  0.00     0.051 A 
ATOM     22  C   UNL A   1      32.398  19.513  24.499  1.00  0.00     0.149 A 
ATOM     23  I   UNL A   1      33.904  16.973  23.644  1.00  0.00    -0.041 I 
ENDBRANCH  17  18
ENDBRANCH  16  17
ENDBRANCH   9  16
ENDBRANCH   4   7
ENDBRANCH   2   3
ENDBRANCH   1   2
BRANCH   1  24
ATOM     24  C   UNL A   1      33.993  28.739  25.865  1.00  0.00     0.118 C 
BRANCH  24  25
ATOM     25  N   UNL A   1      33.809  30.115  26.316  1.00  0.00    -0.352 N 
ATOM     26  C   UNL A   1      34.432  30.813  27.317  1.00  0.00     0.251 C 
ATOM     27  H   UNL A   1      33.126  30.623  25.820  1.00  0.00     0.163 HD
ATOM     28  O   UNL A   1      33.952  31.885  27.696  1.00  0.00    -0.269 OA
BRANCH  26  29
ATOM     29  C   UNL A   1      35.658  30.288  27.951  1.00  0.00     0.039 A 
ATOM     30  C   UNL A   1      36.875  30.385  27.269  1.00  0.00     0.014 A 
ATOM     31  C   UNL A   1      35.609  29.680  29.207  1.00  0.00     0.014 A 
ATOM     32  C   UNL A   1      38.049  29.942  27.883  1.00  0.00     0.010 A 
ATOM     33  C   UNL A   1      36.788  29.327  29.854  1.00  0.00     0.010 A 
ATOM     34  C   UNL A   1      38.022  29.450  29.198  1.00  0.00    -0.014 A 
BRANCH  34  35
ATOM     35  C   UNL A   1      39.269  29.072  29.912  1.00  0.00     0.031 A 
ATOM     36  C   UNL A   1      39.699  29.830  31.138  1.00  0.00     0.074 A 
ATOM     37  C   UNL A   1      40.051  28.098  29.406  1.00  0.00     0.049 A 
ATOM     38  N   UNL A   1      40.794  29.703  31.844  1.00  0.00    -0.248 NA
ATOM     39  C   UNL A   1      38.798  30.890  31.617  1.00  0.00     0.031 C 
ATOM     40  C   UNL A   1      39.768  27.331  28.189  1.00  0.00     0.029 A 
ATOM     41  N   UNL A   1      41.251  27.593  29.842  1.00  0.00    -0.354 N 
ATOM     42  C   UNL A   1      40.720  30.674  32.837  1.00  0.00     0.074 A 
ATOM     43  C   UNL A   1      39.500  31.418  32.609  1.00  0.00     0.031 C 
ATOM     44  C   UNL A   1      40.752  26.439  27.992  1.00  0.00     0.029 A 
ATOM     45  C   UNL A   1      41.756  26.598  29.039  1.00  0.00     0.049 A 
ATOM     46  H   UNL A   1      41.706  27.914  30.653  1.00  0.00     0.167 HD
ATOM     47  C   UNL A   1      41.577  30.908  33.859  1.00  0.00     0.037 A 
ATOM     48  C   UNL A   1      42.905  25.899  29.128  1.00  0.00     0.037 A 
ATOM     49  C   UNL A   1      42.775  30.145  34.094  1.00  0.00     0.049 A 
ATOM     50  C   UNL A   1      43.840  26.176  30.273  1.00  0.00     0.074 A 
ATOM     51  C   UNL A   1      43.677  30.257  35.137  1.00  0.00     0.029 A 
ATOM     52  N   UNL A   1      43.242  29.130  33.270  1.00  0.00    -0.354 N 
ATOM     53  N   UNL A   1      43.718  27.050  31.244  1.00  0.00    -0.248 NA
ATOM     54  C   UNL A   1      45.066  25.369  30.338  1.00  0.00     0.031 C 
ATOM     55  C   UNL A   1      44.712  29.342  34.920  1.00  0.00     0.029 A 
ATOM     56  C   UNL A   1      44.431  28.624  33.770  1.00  0.00     0.049 A 
ATOM     57  H   UNL A   1      42.794  28.816  32.452  1.00  0.00     0.167 HD
ATOM     58  C   UNL A   1      44.841  26.884  32.047  1.00  0.00     0.074 A 
ATOM     59  C   UNL A   1      45.620  25.814  31.458  1.00  0.00     0.031 C 
ATOM     60  C   UNL A   1      45.194  27.557  33.170  1.00  0.00     0.037 A 
BRANCH  47  61
ATOM     61  C   UNL A   1      41.247  32.031  34.806  1.00  0.00     0.058 A 
ATOM     62  C   UNL A   1      41.697  33.343  34.580  1.00  0.00     0.135 A 
ATOM     63  C   UNL A   1      40.440  31.803  35.933  1.00  0.00     0.135 A 
ATOM     64  F   UNL A   1      42.483  33.615  33.526  1.00  0.00    -0.206 F 
ATOM     65  C   UNL A   1      41.385  34.381  35.452  1.00  0.00     0.059 A 
ATOM     66  C   UNL A   1      40.091  32.833  36.803  1.00  0.00     0.059 A 
ATOM     67  F   UNL A   1      39.982  30.570  36.199  1.00  0.00    -0.206 F 
ATOM     68  C   UNL A   1      40.581  34.115  36.561  1.00  0.00     0.060 A 
BRANCH  68  69
ATOM     69  S   UNL A   1      40.180  35.476  37.679  1.00  0.00     0.124 S 
ATOM     70  O   UNL A   1      38.923  35.016  38.259  1.00  0.00    -0.237 OA
ATOM     71  O   UNL A   1      41.328  35.486  38.581  1.00  0.00    -0.237 OA
ATOM     72  O   UNL A   1      40.077  36.628  36.789  1.00  0.00    -0.744 OA
ENDBRANCH  68  69
ENDBRANCH  47  61
BRANCH  48  73
ATOM     73  C   UNL A   1      43.221  24.857  28.114  1.00  0.00     0.058 A 
ATOM     74  C   UNL A   1      43.872  25.191  26.917  1.00  0.00     0.135 A 
ATOM     75  C   UNL A   1      42.898  23.508  28.327  1.00  0.00     0.135 A 
ATOM     76  F   UNL A   1      44.197  26.467  26.664  1.00  0.00    -0.206 F 
ATOM     77  C   UNL A   1      44.177  24.228  25.960  1.00  0.00     0.059 A 
ATOM     78  C   UNL A   1      43.215  22.523  27.397  1.00  0.00     0.059 A 
ATOM     79  F   UNL A   1      42.290  23.134  29.465  1.00  0.00    -0.206 F 
ATOM     80  C   UNL A   1      43.846  22.894  26.212  1.00  0.00     0.060 A 
BRANCH  80  81
ATOM     81  S   UNL A   1      44.293  21.647  24.985  1.00  0.00     0.124 S 
ATOM     82  O   UNL A   1      43.297  20.613  25.240  1.00  0.00    -0.237 OA
ATOM     83  O   UNL A   1      44.146  22.382  23.732  1.00  0.00    -0.237 OA
ATOM     84  O   UNL A   1      45.666  21.303  25.342  1.00  0.00    -0.744 OA
ENDBRANCH  80  81
ENDBRANCH  48  73
BRANCH  60  85
ATOM     85  C   UNL A   1      46.468  27.140  33.851  1.00  0.00     0.058 A 
ATOM     86  C   UNL A   1      47.697  27.748  33.551  1.00  0.00     0.135 A 
ATOM     87  C   UNL A   1      46.450  26.156  34.854  1.00  0.00     0.135 A 
ATOM     88  F   UNL A   1      47.771  28.689  32.596  1.00  0.00    -0.206 F 
ATOM     89  C   UNL A   1      48.869  27.377  34.202  1.00  0.00     0.059 A 
ATOM     90  C   UNL A   1      47.604  25.790  35.538  1.00  0.00     0.059 A 
ATOM     91  F   UNL A   1      45.298  25.552  35.187  1.00  0.00    -0.206 F 
ATOM     92  C   UNL A   1      48.812  26.398  35.196  1.00  0.00     0.060 A 
BRANCH  92  93
ATOM     93  S   UNL A   1      50.334  25.950  36.057  1.00  0.00     0.124 S 
ATOM     94  O   UNL A   1      50.412  24.518  35.791  1.00  0.00    -0.237 OA
ATOM     95  O   UNL A   1      51.331  26.776  35.380  1.00  0.00    -0.237 OA
ATOM     96  O   UNL A   1      50.062  26.318  37.444  1.00  0.00    -0.744 OA
ENDBRANCH  92  93
ENDBRANCH  60  85
ENDBRANCH  34  35
ENDBRANCH  26  29
ENDBRANCH  24  25
ENDBRANCH   1  24
TORSDOF 17
ENDMDL
MODEL 3
REMARK VINA RESULT:     -11.5      5.045     10.589
REMARK SMILES [NH3+][C@]1(C(=O)NCCCNC(=O)c2ccc(-c3c4nc(c(-c5c(F)cc(S(=O)(=O)[O-])cc5F)c5ccc([nH]5)c(-c5c(F)cc(S(=O)(=O)[O-])cc5F)c5nc(c(-c6c(F)cc(S(=O)(=O)[O-])cc6F)c6ccc3[nH]6)C=C5)C=C4)cc2)CCC[C@@H]1CCn1cc(I)cn1
REMARK SMILES IDX 7 1 6 2 5 3 3 4 4 5 2 7 78 8 81 9 79 10 80 11 1 12 82 16
REMARK SMILES IDX 83 17 84 18 85 19 89 20 86 21 88 22 87 23 8 24 9 25 10 26
REMARK SMILES IDX 11 28 12 29 13 30 77 31 14 32 76 33 15 34 16 35 17 36 70 37
REMARK SMILES IDX 18 38 75 39 69 40 71 41 19 42 74 43 68 44 67 45 20 47 54 48
REMARK SMILES IDX 33 49 53 50 34 51 37 52 52 53 72 54 35 55 36 56 51 58 73 59
REMARK SMILES IDX 38 60 21 61 22 62 31 63 23 64 24 65 30 66 32 67 25 68 26 69
REMARK SMILES IDX 27 70 28 71 29 72 55 73 56 74 65 75 57 76 58 77 64 78 66 79
REMARK SMILES IDX 59 80 60 81 61 82 62 83 63 84 39 85 40 86 49 87 41 88 42 89
REMARK SMILES IDX 48 90 50 91 43 92 44 93 45 94 46 95 47 96
REMARK H PARENT 5 6 1 13 1 14 1 15 9 27 71 46 37 57
REMARK Flexibility Score: inf
ROOT
ATOM      1  C   UNL A   1      33.148  27.775  26.927  1.00  0.00     0.042 C 
ENDROOT
BRANCH   1   2
ATOM      2  C   UNL A   1      31.785  27.726  26.251  1.00  0.00     0.118 C 
BRANCH   2   3
ATOM      3  N   UNL A   1      31.036  26.547  26.638  1.00  0.00    -0.351 N 
ATOM      4  C   UNL A   1      31.012  25.265  26.220  1.00  0.00     0.281 C 
ATOM      5  O   UNL A   1      30.041  24.612  26.626  1.00  0.00    -0.268 OA
ATOM      6  H   UNL A   1      30.402  26.722  27.371  1.00  0.00     0.163 HD
BRANCH   4   7
ATOM      7  C   UNL A   1      32.050  24.576  25.284  1.00  0.00     0.176 C 
ATOM      8  C   UNL A   1      32.638  25.395  24.133  1.00  0.00     0.079 C 
ATOM      9  C   UNL A   1      33.334  24.261  26.149  1.00  0.00     0.062 C 
ATOM     10  C   UNL A   1      33.979  24.747  23.841  1.00  0.00     0.008 C 
ATOM     11  C   UNL A   1      34.549  24.550  25.234  1.00  0.00     0.011 C 
BRANCH   7  12
ATOM     12  N   UNL A   1      31.403  23.377  24.706  1.00  0.00    -0.345 N 
ATOM     13  H   UNL A   1      31.988  22.559  24.878  1.00  0.00     0.345 HD
ATOM     14  H   UNL A   1      31.286  23.505  23.702  1.00  0.00     0.345 HD
ATOM     15  H   UNL A   1      30.490  23.241  25.141  1.00  0.00     0.345 HD
ENDBRANCH   7  12
BRANCH   9  16
ATOM     16  C   UNL A   1      33.426  22.855  26.791  1.00  0.00     0.034 C 
BRANCH  16  17
ATOM     17  C   UNL A   1      34.500  21.967  26.143  1.00  0.00     0.145 C 
BRANCH  17  18
ATOM     18  N   UNL A   1      33.932  20.840  25.422  1.00  0.00    -0.272 N 
ATOM     19  C   UNL A   1      34.608  19.799  24.851  1.00  0.00     0.123 A 
ATOM     20  N   UNL A   1      32.591  20.750  25.287  1.00  0.00    -0.180 NA
ATOM     21  C   UNL A   1      33.635  18.910  24.473  1.00  0.00     0.051 A 
ATOM     22  C   UNL A   1      32.414  19.520  24.789  1.00  0.00     0.149 A 
ATOM     23  I   UNL A   1      33.932  17.092  23.669  1.00  0.00    -0.041 I 
ENDBRANCH  17  18
ENDBRANCH  16  17
ENDBRANCH   9  16
ENDBRANCH   4   7
ENDBRANCH   2   3
ENDBRANCH   1   2
BRANCH   1  24
ATOM     24  C   UNL A   1      34.067  28.858  26.373  1.00  0.00     0.118 C 
BRANCH  24  25
ATOM     25  N   UNL A   1      33.938  30.122  27.092  1.00  0.00    -0.352 N 
ATOM     26  C   UNL A   1      34.741  30.684  28.049  1.00  0.00     0.251 C 
ATOM     27  H   UNL A   1      33.147  30.655  26.850  1.00  0.00     0.163 HD
ATOM     28  O   UNL A   1      34.319  31.640  28.706  1.00  0.00    -0.269 OA
BRANCH  26  29
ATOM     29  C   UNL A   1      36.094  30.151  28.308  1.00  0.00     0.039 A 
ATOM     30  C   UNL A   1      37.056  30.208  27.295  1.00  0.00     0.014 A 
ATOM     31  C   UNL A   1      36.410  29.573  29.539  1.00  0.00     0.014 A 
ATOM     32  C   UNL A   1      38.354  29.757  27.548  1.00  0.00     0.010 A 
ATOM     33  C   UNL A   1      37.724  29.212  29.819  1.00  0.00     0.010 A 
ATOM     34  C   UNL A   1      38.710  29.296  28.826  1.00  0.00    -0.014 A 
BRANCH  34  35
ATOM     35  C   UNL A   1      40.108  28.911  29.150  1.00  0.00     0.031 A 
ATOM     36  C   UNL A   1      41.043  29.909  29.775  1.00  0.00     0.074 A 
ATOM     37  C   UNL A   1      40.552  27.685  28.807  1.00  0.00     0.049 A 
ATOM     38  N   UNL A   1      42.316  29.786  30.052  1.00  0.00    -0.248 NA
ATOM     39  C   UNL A   1      40.485  31.231  30.105  1.00  0.00     0.031 C 
ATOM     40  C   UNL A   1      39.755  26.651  28.142  1.00  0.00     0.029 A 
ATOM     41  N   UNL A   1      41.787  27.104  28.955  1.00  0.00    -0.354 N 
ATOM     42  C   UNL A   1      42.713  31.014  30.571  1.00  0.00     0.074 A 
ATOM     43  C   UNL A   1      41.560  31.885  30.520  1.00  0.00     0.031 C 
ATOM     44  C   UNL A   1      40.513  25.557  27.964  1.00  0.00     0.029 A 
ATOM     45  C   UNL A   1      41.859  25.824  28.459  1.00  0.00     0.049 A 
ATOM     46  H   UNL A   1      42.550  27.562  29.377  1.00  0.00     0.167 HD
ATOM     47  C   UNL A   1      43.920  31.373  31.068  1.00  0.00     0.037 A 
ATOM     48  C   UNL A   1      42.895  24.965  28.399  1.00  0.00     0.037 A 
ATOM     49  C   UNL A   1      45.055  30.490  31.140  1.00  0.00     0.049 A 
ATOM     50  C   UNL A   1      44.226  25.387  28.959  1.00  0.00     0.074 A 
ATOM     51  C   UNL A   1      46.303  30.734  31.685  1.00  0.00     0.029 A 
ATOM     52  N   UNL A   1      45.082  29.193  30.647  1.00  0.00    -0.354 N 
ATOM     53  N   UNL A   1      44.563  26.528  29.512  1.00  0.00    -0.248 NA
ATOM     54  C   UNL A   1      45.316  24.404  28.891  1.00  0.00     0.031 C 
ATOM     55  C   UNL A   1      47.099  29.603  31.481  1.00  0.00     0.029 A 
ATOM     56  C   UNL A   1      46.332  28.633  30.855  1.00  0.00     0.049 A 
ATOM     57  H   UNL A   1      44.324  28.738  30.215  1.00  0.00     0.167 HD
ATOM     58  C   UNL A   1      45.898  26.393  29.877  1.00  0.00     0.074 A 
ATOM     59  C   UNL A   1      46.300  25.054  29.499  1.00  0.00     0.031 C 
ATOM     60  C   UNL A   1      46.716  27.297  30.472  1.00  0.00     0.037 A 
BRANCH  47  61
ATOM     61  C   UNL A   1      44.075  32.781  31.580  1.00  0.00     0.058 A 
ATOM     62  C   UNL A   1      43.773  33.120  32.909  1.00  0.00     0.135 A 
ATOM     63  C   UNL A   1      44.568  33.796  30.743  1.00  0.00     0.135 A 
ATOM     64  F   UNL A   1      43.286  32.193  33.749  1.00  0.00    -0.206 F 
ATOM     65  C   UNL A   1      43.924  34.419  33.382  1.00  0.00     0.059 A 
ATOM     66  C   UNL A   1      44.754  35.097  31.203  1.00  0.00     0.059 A 
ATOM     67  F   UNL A   1      44.872  33.530  29.463  1.00  0.00    -0.206 F 
ATOM     68  C   UNL A   1      44.416  35.401  32.520  1.00  0.00     0.060 A 
BRANCH  68  69
ATOM     69  S   UNL A   1      44.612  37.081  33.154  1.00  0.00     0.124 S 
ATOM     70  O   UNL A   1      45.950  37.417  32.677  1.00  0.00    -0.237 OA
ATOM     71  O   UNL A   1      43.512  37.789  32.504  1.00  0.00    -0.237 OA
ATOM     72  O   UNL A   1      44.482  36.918  34.598  1.00  0.00    -0.744 OA
ENDBRANCH  68  69
ENDBRANCH  47  61
BRANCH  48  73
ATOM     73  C   UNL A   1      42.706  23.615  27.805  1.00  0.00     0.058 A 
ATOM     74  C   UNL A   1      42.792  23.419  26.418  1.00  0.00     0.135 A 
ATOM     75  C   UNL A   1      42.457  22.491  28.608  1.00  0.00     0.135 A 
ATOM     76  F   UNL A   1      43.024  24.462  25.607  1.00  0.00    -0.206 F 
ATOM     77  C   UNL A   1      42.621  22.162  25.847  1.00  0.00     0.059 A 
ATOM     78  C   UNL A   1      42.307  21.219  28.063  1.00  0.00     0.059 A 
ATOM     79  F   UNL A   1      42.383  22.621  29.942  1.00  0.00    -0.206 F 
ATOM     80  C   UNL A   1      42.382  21.066  26.680  1.00  0.00     0.060 A 
BRANCH  80  81
ATOM     81  S   UNL A   1      42.212  19.432  25.931  1.00  0.00     0.124 S 
ATOM     82  O   UNL A   1      43.056  19.560  24.750  1.00  0.00    -0.237 OA
ATOM     83  O   UNL A   1      42.714  18.557  26.985  1.00  0.00    -0.237 OA
ATOM     84  O   UNL A   1      40.778  19.330  25.673  1.00  0.00    -0.744 OA
ENDBRANCH  80  81
ENDBRANCH  48  73
BRANCH  60  85
ATOM     85  C   UNL A   1      48.122  26.859  30.773  1.00  0.00     0.058 A 
ATOM     86  C   UNL A   1      49.180  27.115  29.886  1.00  0.00     0.135 A 
ATOM     87  C   UNL A   1      48.425  26.222  31.989  1.00  0.00     0.135 A 
ATOM     88  F   UNL A   1      48.944  27.714  28.708  1.00  0.00    -0.206 F 
ATOM     89  C   UNL A   1      50.484  26.731  30.181  1.00  0.00     0.059 A 
ATOM     90  C   UNL A   1      49.726  25.856  32.317  1.00  0.00     0.059 A 
ATOM     91  F   UNL A   1      47.451  25.965  32.877  1.00  0.00    -0.206 F 
ATOM     92  C   UNL A   1      50.747  26.104  31.400  1.00  0.00     0.060 A 
BRANCH  92  93
ATOM     93  S   UNL A   1      52.449  25.641  31.785  1.00  0.00     0.124 S 
ATOM     94  O   UNL A   1      52.774  26.576  32.855  1.00  0.00    -0.237 OA
ATOM     95  O   UNL A   1      52.310  24.243  32.184  1.00  0.00    -0.237 OA
ATOM     96  O   UNL A   1      53.154  25.858  30.524  1.00  0.00    -0.744 OA
ENDBRANCH  92  93
ENDBRANCH  60  85
ENDBRANCH  34  35
ENDBRANCH  26  29
ENDBRANCH  24  25
ENDBRANCH   1  24
TORSDOF 17
ENDMDL
