MODEL 1
REMARK VINA RESULT:     -12.1      0.000      0.000
REMARK SMILES O=C(CC[NH+]1CCC([N@H+]2CCC[C@H](C(=O)NCc3cccnc3)C2)CC1)NCCCNC(=O)c1ccc(-c2c3nc(c(-c4c(F)cc(S(=O)(=O)[O-])cc4F)c4ccc([nH]4)c(-c4c(F)cc(S(=O)(=O)[O-])cc4F)c4nc(c(-c5c(F)cc(S(=O)(=O)[O-])cc5F)c5ccc2[nH]5)C=C4)C=C3)cc1
REMARK SMILES IDX 1 1 2 2 27 3 3 5 4 6 5 7 6 8 26 9 7 11 25 12 8 13 9 14 10 15
REMARK SMILES IDX 24 16 11 18 13 19 12 20 14 21 15 22 16 23 17 25 18 26 19 27
REMARK SMILES IDX 23 28 20 29 22 30 21 31 28 32 29 33 30 34 31 35 32 36 33 38
REMARK SMILES IDX 34 39 35 40 99 41 36 42 98 43 37 44 38 45 39 46 92 47 40 48
REMARK SMILES IDX 97 49 91 50 93 51 41 52 96 53 90 54 89 55 42 57 76 58 55 59
REMARK SMILES IDX 75 60 56 61 59 62 74 63 94 64 57 65 58 66 73 68 95 69 60 70
REMARK SMILES IDX 43 71 44 72 53 73 45 74 46 75 52 76 54 77 47 78 48 79 49 80
REMARK SMILES IDX 50 81 51 82 77 83 78 84 87 85 79 86 80 87 86 88 88 89 81 90
REMARK SMILES IDX 82 91 83 92 84 93 85 94 61 95 62 96 71 97 63 98 64 99 70 100
REMARK SMILES IDX 72 101 65 102 66 103 67 104 68 105 69 106
REMARK H PARENT 27 4 5 10 9 17 16 24 31 37 93 56 59 67
REMARK Flexibility Score: inf
ROOT
ATOM      1  O   UNL A   1      34.076  34.813  29.862  1.00  0.00    -0.275 OA
ATOM      2  C   UNL A   1      34.232  33.617  29.645  1.00  0.00     0.225 C 
ATOM      3  N   UNL A   1      34.523  32.686  30.613  1.00  0.00    -0.356 N 
ATOM      4  H   UNL A   1      34.582  31.741  30.346  1.00  0.00     0.163 HD
ENDROOT
BRANCH   2   5
ATOM      5  C   UNL A   1      34.095  33.023  28.255  1.00  0.00     0.161 C 
BRANCH   5   6
ATOM      6  C   UNL A   1      34.968  31.778  28.077  1.00  0.00     0.272 C 
BRANCH   6   7
ATOM      7  N   UNL A   1      34.329  30.846  27.129  1.00  0.00    -0.334 N 
ATOM      8  C   UNL A   1      34.780  29.461  27.332  1.00  0.00     0.268 C 
ATOM      9  C   UNL A   1      32.863  30.919  27.179  1.00  0.00     0.268 C 
ATOM     10  H   UNL A   1      34.624  31.143  26.198  1.00  0.00     0.348 HD
ATOM     11  C   UNL A   1      34.267  28.573  26.200  1.00  0.00     0.126 C 
ATOM     12  C   UNL A   1      32.277  30.124  26.013  1.00  0.00     0.126 C 
ATOM     13  C   UNL A   1      32.737  28.659  26.065  1.00  0.00     0.195 C 
BRANCH  13  14
ATOM     14  N   UNL A   1      32.139  27.932  24.926  1.00  0.00    -0.331 N 
ATOM     15  C   UNL A   1      30.785  28.365  24.555  1.00  0.00     0.262 C 
ATOM     16  C   UNL A   1      33.029  27.913  23.761  1.00  0.00     0.275 C 
ATOM     17  H   UNL A   1      32.026  26.977  25.267  1.00  0.00     0.348 HD
ATOM     18  C   UNL A   1      30.157  27.452  23.505  1.00  0.00     0.062 C 
ATOM     19  C   UNL A   1      32.522  27.048  22.608  1.00  0.00     0.133 C 
ATOM     20  C   UNL A   1      31.039  27.227  22.288  1.00  0.00     0.025 C 
BRANCH  19  21
ATOM     21  C   UNL A   1      33.045  25.611  22.609  1.00  0.00     0.229 C 
ATOM     22  O   UNL A   1      33.851  25.273  21.729  1.00  0.00    -0.275 OA
ATOM     23  N   UNL A   1      32.738  24.645  23.499  1.00  0.00    -0.352 N 
ATOM     24  H   UNL A   1      33.170  23.786  23.293  1.00  0.00     0.163 HD
BRANCH  23  25
ATOM     25  C   UNL A   1      31.913  24.584  24.690  1.00  0.00     0.153 C 
BRANCH  25  26
ATOM     26  C   UNL A   1      32.588  23.833  25.803  1.00  0.00    -0.010 A 
ATOM     27  C   UNL A   1      33.963  23.603  25.795  1.00  0.00     0.009 A 
ATOM     28  C   UNL A   1      31.882  23.305  26.880  1.00  0.00     0.116 A 
ATOM     29  C   UNL A   1      34.576  22.936  26.850  1.00  0.00     0.020 A 
ATOM     30  N   UNL A   1      32.442  22.634  27.914  1.00  0.00    -0.264 NA
ATOM     31  C   UNL A   1      33.782  22.476  27.879  1.00  0.00     0.111 A 
ENDBRANCH  25  26
ENDBRANCH  23  25
ENDBRANCH  19  21
ENDBRANCH  13  14
ENDBRANCH   6   7
ENDBRANCH   5   6
ENDBRANCH   2   5
BRANCH   3  32
ATOM     32  C   UNL A   1      34.748  33.015  32.004  1.00  0.00     0.117 C 
BRANCH  32  33
ATOM     33  C   UNL A   1      36.215  33.322  32.295  1.00  0.00     0.042 C 
BRANCH  33  34
ATOM     34  C   UNL A   1      37.026  32.124  32.790  1.00  0.00     0.118 C 
BRANCH  34  35
ATOM     35  N   UNL A   1      36.426  30.867  32.379  1.00  0.00    -0.352 N 
ATOM     36  C   UNL A   1      36.736  30.040  31.334  1.00  0.00     0.251 C 
ATOM     37  H   UNL A   1      35.676  30.562  32.940  1.00  0.00     0.163 HD
ATOM     38  O   UNL A   1      35.838  29.325  30.892  1.00  0.00    -0.269 OA
BRANCH  36  39
ATOM     39  C   UNL A   1      38.101  29.955  30.751  1.00  0.00     0.039 A 
ATOM     40  C   UNL A   1      39.144  29.561  31.598  1.00  0.00     0.014 A 
ATOM     41  C   UNL A   1      38.401  30.319  29.434  1.00  0.00     0.014 A 
ATOM     42  C   UNL A   1      40.452  29.473  31.118  1.00  0.00     0.010 A 
ATOM     43  C   UNL A   1      39.692  30.133  28.928  1.00  0.00     0.010 A 
ATOM     44  C   UNL A   1      40.729  29.687  29.758  1.00  0.00    -0.014 A 
BRANCH  44  45
ATOM     45  C   UNL A   1      42.063  29.326  29.199  1.00  0.00     0.031 A 
ATOM     46  C   UNL A   1      43.182  30.326  29.095  1.00  0.00     0.074 A 
ATOM     47  C   UNL A   1      42.238  28.074  28.726  1.00  0.00     0.049 A 
ATOM     48  N   UNL A   1      44.381  30.169  28.591  1.00  0.00    -0.248 NA
ATOM     49  C   UNL A   1      42.917  31.684  29.594  1.00  0.00     0.031 C 
ATOM     50  C   UNL A   1      41.209  27.029  28.703  1.00  0.00     0.029 A 
ATOM     51  N   UNL A   1      43.338  27.460  28.180  1.00  0.00    -0.354 N 
ATOM     52  C   UNL A   1      45.005  31.408  28.687  1.00  0.00     0.074 A 
ATOM     53  C   UNL A   1      44.039  32.315  29.270  1.00  0.00     0.031 C 
ATOM     54  C   UNL A   1      41.739  25.894  28.222  1.00  0.00     0.029 A 
ATOM     55  C   UNL A   1      43.126  26.140  27.851  1.00  0.00     0.049 A 
ATOM     56  H   UNL A   1      44.196  27.920  28.037  1.00  0.00     0.167 HD
ATOM     57  C   UNL A   1      46.268  31.752  28.332  1.00  0.00     0.037 A 
ATOM     58  C   UNL A   1      43.949  25.226  27.305  1.00  0.00     0.037 A 
ATOM     59  C   UNL A   1      47.236  30.833  27.784  1.00  0.00     0.049 A 
ATOM     60  C   UNL A   1      45.357  25.619  26.968  1.00  0.00     0.074 A 
ATOM     61  C   UNL A   1      48.558  31.074  27.449  1.00  0.00     0.029 A 
ATOM     62  N   UNL A   1      46.991  29.499  27.494  1.00  0.00    -0.354 N 
ATOM     63  N   UNL A   1      45.939  26.786  27.110  1.00  0.00    -0.248 NA
ATOM     64  C   UNL A   1      46.220  24.576  26.400  1.00  0.00     0.031 C 
ATOM     65  C   UNL A   1      49.103  29.894  26.927  1.00  0.00     0.029 A 
ATOM     66  C   UNL A   1      48.133  28.907  26.975  1.00  0.00     0.049 A 
ATOM     67  H   UNL A   1      46.132  29.038  27.637  1.00  0.00     0.167 HD
ATOM     68  C   UNL A   1      47.241  26.614  26.658  1.00  0.00     0.074 A 
ATOM     69  C   UNL A   1      47.366  25.227  26.259  1.00  0.00     0.031 C 
ATOM     70  C   UNL A   1      48.241  27.526  26.578  1.00  0.00     0.037 A 
BRANCH  57  71
ATOM     71  C   UNL A   1      46.684  33.186  28.525  1.00  0.00     0.058 A 
ATOM     72  C   UNL A   1      46.501  34.149  27.519  1.00  0.00     0.135 A 
ATOM     73  C   UNL A   1      47.229  33.614  29.747  1.00  0.00     0.135 A 
ATOM     74  F   UNL A   1      45.994  33.794  26.328  1.00  0.00    -0.206 F 
ATOM     75  C   UNL A   1      46.872  35.477  27.708  1.00  0.00     0.059 A 
ATOM     76  C   UNL A   1      47.585  34.942  29.965  1.00  0.00     0.059 A 
ATOM     77  F   UNL A   1      47.422  32.736  30.744  1.00  0.00    -0.206 F 
ATOM     78  C   UNL A   1      47.417  35.864  28.933  1.00  0.00     0.060 A 
BRANCH  78  79
ATOM     79  S   UNL A   1      47.898  37.589  29.161  1.00  0.00     0.124 S 
ATOM     80  O   UNL A   1      49.264  37.444  29.658  1.00  0.00    -0.237 OA
ATOM     81  O   UNL A   1      47.769  38.133  27.814  1.00  0.00    -0.237 OA
ATOM     82  O   UNL A   1      46.927  38.087  30.132  1.00  0.00    -0.744 OA
ENDBRANCH  78  79
ENDBRANCH  57  71
BRANCH  58  83
ATOM     83  C   UNL A   1      43.459  23.843  27.070  1.00  0.00     0.058 A 
ATOM     84  C   UNL A   1      43.250  22.962  28.140  1.00  0.00     0.135 A 
ATOM     85  C   UNL A   1      43.149  23.390  25.777  1.00  0.00     0.135 A 
ATOM     86  F   UNL A   1      43.534  23.352  29.392  1.00  0.00    -0.206 F 
ATOM     87  C   UNL A   1      42.760  21.677  27.941  1.00  0.00     0.059 A 
ATOM     88  C   UNL A   1      42.634  22.118  25.555  1.00  0.00     0.059 A 
ATOM     89  F   UNL A   1      43.311  24.204  24.723  1.00  0.00    -0.206 F 
ATOM     90  C   UNL A   1      42.452  21.265  26.643  1.00  0.00     0.060 A 
BRANCH  90  91
ATOM     91  S   UNL A   1      41.755  19.616  26.397  1.00  0.00     0.124 S 
ATOM     92  O   UNL A   1      42.231  18.919  27.585  1.00  0.00    -0.237 OA
ATOM     93  O   UNL A   1      40.322  19.890  26.347  1.00  0.00    -0.237 OA
ATOM     94  O   UNL A   1      42.347  19.190  25.132  1.00  0.00    -0.744 OA
ENDBRANCH  90  91
ENDBRANCH  58  83
BRANCH  70  95
ATOM     95  C   UNL A   1      49.563  27.042  26.055  1.00  0.00     0.058 A 
ATOM     96  C   UNL A   1      50.523  26.469  26.904  1.00  0.00     0.135 A 
ATOM     97  C   UNL A   1      49.866  27.135  24.688  1.00  0.00     0.135 A 
ATOM     98  F   UNL A   1      50.285  26.365  28.221  1.00  0.00    -0.206 F 
ATOM     99  C   UNL A   1      51.749  26.028  26.419  1.00  0.00     0.059 A 
ATOM    100  C   UNL A   1      51.077  26.681  24.177  1.00  0.00     0.059 A 
ATOM    101  F   UNL A   1      48.979  27.670  23.834  1.00  0.00    -0.206 F 
ATOM    102  C   UNL A   1      52.019  26.142  25.053  1.00  0.00     0.060 A 
BRANCH 102 103
ATOM    103  S   UNL A   1      53.608  25.551  24.430  1.00  0.00     0.124 S 
ATOM    104  O   UNL A   1      54.544  26.295  25.265  1.00  0.00    -0.237 OA
ATOM    105  O   UNL A   1      53.532  24.116  24.686  1.00  0.00    -0.237 OA
ATOM    106  O   UNL A   1      53.579  25.933  23.021  1.00  0.00    -0.744 OA
ENDBRANCH 102 103
ENDBRANCH  70  95
ENDBRANCH  44  45
ENDBRANCH  36  39
ENDBRANCH  34  35
ENDBRANCH  33  34
ENDBRANCH  32  33
ENDBRANCH   3  32
TORSDOF 19
ENDMDL
MODEL 2
REMARK VINA RESULT:     -12.0      6.139     12.113
REMARK SMILES O=C(CC[NH+]1CCC([N@H+]2CCC[C@H](C(=O)NCc3cccnc3)C2)CC1)NCCCNC(=O)c1ccc(-c2c3nc(c(-c4c(F)cc(S(=O)(=O)[O-])cc4F)c4ccc([nH]4)c(-c4c(F)cc(S(=O)(=O)[O-])cc4F)c4nc(c(-c5c(F)cc(S(=O)(=O)[O-])cc5F)c5ccc2[nH]5)C=C4)C=C3)cc1
REMARK SMILES IDX 1 1 2 2 27 3 3 5 4 6 5 7 6 8 26 9 7 11 25 12 8 13 9 14 10 15
REMARK SMILES IDX 24 16 11 18 13 19 12 20 14 21 15 22 16 23 17 25 18 26 19 27
REMARK SMILES IDX 23 28 20 29 22 30 21 31 28 32 29 33 30 34 31 35 32 36 33 38
REMARK SMILES IDX 34 39 35 40 99 41 36 42 98 43 37 44 38 45 39 46 92 47 40 48
REMARK SMILES IDX 97 49 91 50 93 51 41 52 96 53 90 54 89 55 42 57 76 58 55 59
REMARK SMILES IDX 75 60 56 61 59 62 74 63 94 64 57 65 58 66 73 68 95 69 60 70
REMARK SMILES IDX 43 71 44 72 53 73 45 74 46 75 52 76 54 77 47 78 48 79 49 80
REMARK SMILES IDX 50 81 51 82 77 83 78 84 87 85 79 86 80 87 86 88 88 89 81 90
REMARK SMILES IDX 82 91 83 92 84 93 85 94 61 95 62 96 71 97 63 98 64 99 70 100
REMARK SMILES IDX 72 101 65 102 66 103 67 104 68 105 69 106
REMARK H PARENT 27 4 5 10 9 17 16 24 31 37 93 56 59 67
REMARK Flexibility Score: inf
ROOT
ATOM      1  O   UNL A   1      42.625  19.786  25.724  1.00  0.00    -0.275 OA
ATOM      2  C   UNL A   1      41.935  20.787  25.885  1.00  0.00     0.225 C 
ATOM      3  N   UNL A   1      42.403  22.074  25.777  1.00  0.00    -0.356 N 
ATOM      4  H   UNL A   1      41.760  22.812  25.878  1.00  0.00     0.163 HD
ENDROOT
BRANCH   2   5
ATOM      5  C   UNL A   1      40.455  20.705  26.210  1.00  0.00     0.161 C 
BRANCH   5   6
ATOM      6  C   UNL A   1      39.976  21.921  27.007  1.00  0.00     0.272 C 
BRANCH   6   7
ATOM      7  N   UNL A   1      38.618  22.302  26.578  1.00  0.00    -0.334 N 
ATOM      8  C   UNL A   1      38.493  23.753  26.377  1.00  0.00     0.268 C 
ATOM      9  C   UNL A   1      38.192  21.580  25.372  1.00  0.00     0.268 C 
ATOM     10  H   UNL A   1      37.994  22.032  27.339  1.00  0.00     0.348 HD
ATOM     11  C   UNL A   1      37.028  24.125  26.148  1.00  0.00     0.126 C 
ATOM     12  C   UNL A   1      36.704  21.832  25.131  1.00  0.00     0.126 C 
ATOM     13  C   UNL A   1      36.423  23.334  24.977  1.00  0.00     0.195 C 
BRANCH  13  14
ATOM     14  N   UNL A   1      34.976  23.524  24.737  1.00  0.00    -0.331 N 
ATOM     15  C   UNL A   1      34.582  24.893  24.378  1.00  0.00     0.262 C 
ATOM     16  C   UNL A   1      34.448  22.549  23.779  1.00  0.00     0.275 C 
ATOM     17  H   UNL A   1      34.546  23.356  25.646  1.00  0.00     0.348 HD
ATOM     18  C   UNL A   1      33.065  25.060  24.334  1.00  0.00     0.062 C 
ATOM     19  C   UNL A   1      32.930  22.608  23.609  1.00  0.00     0.133 C 
ATOM     20  C   UNL A   1      32.362  24.020  23.478  1.00  0.00     0.025 C 
BRANCH  19  21
ATOM     21  C   UNL A   1      32.150  21.645  24.505  1.00  0.00     0.229 C 
ATOM     22  O   UNL A   1      31.517  22.109  25.465  1.00  0.00    -0.275 OA
ATOM     23  N   UNL A   1      32.051  20.308  24.354  1.00  0.00    -0.352 N 
ATOM     24  H   UNL A   1      31.518  19.882  25.062  1.00  0.00     0.163 HD
BRANCH  23  25
ATOM     25  C   UNL A   1      32.554  19.354  23.383  1.00  0.00     0.153 C 
BRANCH  25  26
ATOM     26  C   UNL A   1      32.921  18.044  24.021  1.00  0.00    -0.010 A 
ATOM     27  C   UNL A   1      32.545  17.742  25.329  1.00  0.00     0.009 A 
ATOM     28  C   UNL A   1      33.675  17.080  23.360  1.00  0.00     0.116 A 
ATOM     29  C   UNL A   1      32.863  16.511  25.892  1.00  0.00     0.020 A 
ATOM     30  N   UNL A   1      34.021  15.879  23.882  1.00  0.00    -0.264 NA
ATOM     31  C   UNL A   1      33.594  15.619  25.136  1.00  0.00     0.111 A 
ENDBRANCH  25  26
ENDBRANCH  23  25
ENDBRANCH  19  21
ENDBRANCH  13  14
ENDBRANCH   6   7
ENDBRANCH   5   6
ENDBRANCH   2   5
BRANCH   3  32
ATOM     32  C   UNL A   1      43.788  22.408  25.522  1.00  0.00     0.117 C 
BRANCH  32  33
ATOM     33  C   UNL A   1      44.321  23.446  26.506  1.00  0.00     0.042 C 
BRANCH  33  34
ATOM     34  C   UNL A   1      44.533  24.837  25.907  1.00  0.00     0.118 C 
BRANCH  34  35
ATOM     35  N   UNL A   1      43.349  25.300  25.204  1.00  0.00    -0.352 N 
ATOM     36  C   UNL A   1      42.168  25.790  25.691  1.00  0.00     0.251 C 
ATOM     37  H   UNL A   1      43.405  25.253  24.223  1.00  0.00     0.163 HD
ATOM     38  O   UNL A   1      41.169  25.663  24.985  1.00  0.00    -0.269 OA
BRANCH  36  39
ATOM     39  C   UNL A   1      42.063  26.487  27.000  1.00  0.00     0.039 A 
ATOM     40  C   UNL A   1      42.770  27.686  27.155  1.00  0.00     0.014 A 
ATOM     41  C   UNL A   1      41.363  25.970  28.095  1.00  0.00     0.014 A 
ATOM     42  C   UNL A   1      42.726  28.384  28.363  1.00  0.00     0.010 A 
ATOM     43  C   UNL A   1      41.236  26.720  29.270  1.00  0.00     0.010 A 
ATOM     44  C   UNL A   1      41.898  27.946  29.410  1.00  0.00    -0.014 A 
BRANCH  44  45
ATOM     45  C   UNL A   1      41.640  28.832  30.581  1.00  0.00     0.031 A 
ATOM     46  C   UNL A   1      42.489  28.781  31.822  1.00  0.00     0.074 A 
ATOM     47  C   UNL A   1      40.575  29.660  30.533  1.00  0.00     0.049 A 
ATOM     48  N   UNL A   1      42.359  29.458  32.936  1.00  0.00    -0.248 NA
ATOM     49  C   UNL A   1      43.613  27.832  31.829  1.00  0.00     0.031 C 
ATOM     50  C   UNL A   1      39.630  29.754  29.415  1.00  0.00     0.029 A 
ATOM     51  N   UNL A   1      40.106  30.583  31.434  1.00  0.00    -0.354 N 
ATOM     52  C   UNL A   1      43.363  29.003  33.784  1.00  0.00     0.074 A 
ATOM     53  C   UNL A   1      44.075  27.967  33.065  1.00  0.00     0.031 C 
ATOM     54  C   UNL A   1      38.731  30.715  29.673  1.00  0.00     0.029 A 
ATOM     55  C   UNL A   1      38.998  31.269  30.994  1.00  0.00     0.049 A 
ATOM     56  H   UNL A   1      40.524  30.739  32.312  1.00  0.00     0.167 HD
ATOM     57  C   UNL A   1      43.666  29.417  35.039  1.00  0.00     0.037 A 
ATOM     58  C   UNL A   1      38.268  32.234  31.584  1.00  0.00     0.037 A 
ATOM     59  C   UNL A   1      42.973  30.473  35.736  1.00  0.00     0.049 A 
ATOM     60  C   UNL A   1      38.656  32.710  32.953  1.00  0.00     0.074 A 
ATOM     61  C   UNL A   1      43.245  31.004  36.986  1.00  0.00     0.029 A 
ATOM     62  N   UNL A   1      41.875  31.163  35.243  1.00  0.00    -0.354 N 
ATOM     63  N   UNL A   1      39.637  32.295  33.718  1.00  0.00    -0.248 NA
ATOM     64  C   UNL A   1      37.842  33.782  33.539  1.00  0.00     0.031 C 
ATOM     65  C   UNL A   1      42.293  31.992  37.262  1.00  0.00     0.029 A 
ATOM     66  C   UNL A   1      41.452  32.106  36.168  1.00  0.00     0.049 A 
ATOM     67  H   UNL A   1      41.457  31.008  34.365  1.00  0.00     0.167 HD
ATOM     68  C   UNL A   1      39.566  33.064  34.872  1.00  0.00     0.074 A 
ATOM     69  C   UNL A   1      38.459  33.982  34.696  1.00  0.00     0.031 C 
ATOM     70  C   UNL A   1      40.345  33.011  35.980  1.00  0.00     0.037 A 
BRANCH  57  71
ATOM     71  C   UNL A   1      44.802  28.729  35.749  1.00  0.00     0.058 A 
ATOM     72  C   UNL A   1      44.588  27.613  36.575  1.00  0.00     0.135 A 
ATOM     73  C   UNL A   1      46.126  29.160  35.564  1.00  0.00     0.135 A 
ATOM     74  F   UNL A   1      43.342  27.165  36.795  1.00  0.00    -0.206 F 
ATOM     75  C   UNL A   1      45.643  26.970  37.216  1.00  0.00     0.059 A 
ATOM     76  C   UNL A   1      47.198  28.516  36.176  1.00  0.00     0.059 A 
ATOM     77  F   UNL A   1      46.389  30.218  34.781  1.00  0.00    -0.206 F 
ATOM     78  C   UNL A   1      46.944  27.430  37.014  1.00  0.00     0.060 A 
BRANCH  78  79
ATOM     79  S   UNL A   1      48.302  26.590  37.856  1.00  0.00     0.124 S 
ATOM     80  O   UNL A   1      47.936  26.782  39.256  1.00  0.00    -0.237 OA
ATOM     81  O   UNL A   1      48.187  25.225  37.353  1.00  0.00    -0.237 OA
ATOM     82  O   UNL A   1      49.484  27.322  37.410  1.00  0.00    -0.744 OA
ENDBRANCH  78  79
ENDBRANCH  57  71
BRANCH  58  83
ATOM     83  C   UNL A   1      37.111  32.826  30.863  1.00  0.00     0.058 A 
ATOM     84  C   UNL A   1      35.801  32.411  31.143  1.00  0.00     0.135 A 
ATOM     85  C   UNL A   1      37.288  33.847  29.916  1.00  0.00     0.135 A 
ATOM     86  F   UNL A   1      35.585  31.438  32.041  1.00  0.00    -0.206 F 
ATOM     87  C   UNL A   1      34.705  32.979  30.503  1.00  0.00     0.059 A 
ATOM     88  C   UNL A   1      36.206  34.447  29.280  1.00  0.00     0.059 A 
ATOM     89  F   UNL A   1      38.520  34.293  29.630  1.00  0.00    -0.206 F 
ATOM     90  C   UNL A   1      34.919  33.999  29.574  1.00  0.00     0.060 A 
BRANCH  90  91
ATOM     91  S   UNL A   1      33.486  34.776  28.793  1.00  0.00     0.124 S 
ATOM     92  O   UNL A   1      34.075  35.996  28.254  1.00  0.00    -0.237 OA
ATOM     93  O   UNL A   1      33.086  33.772  27.813  1.00  0.00    -0.237 OA
ATOM     94  O   UNL A   1      32.559  34.958  29.906  1.00  0.00    -0.744 OA
ENDBRANCH  90  91
ENDBRANCH  58  83
BRANCH  70  95
ATOM     95  C   UNL A   1      40.036  33.987  37.078  1.00  0.00     0.058 A 
ATOM     96  C   UNL A   1      39.049  33.721  38.040  1.00  0.00     0.135 A 
ATOM     97  C   UNL A   1      40.746  35.193  37.181  1.00  0.00     0.135 A 
ATOM     98  F   UNL A   1      38.335  32.586  37.980  1.00  0.00    -0.206 F 
ATOM     99  C   UNL A   1      38.759  34.630  39.051  1.00  0.00     0.059 A 
ATOM    100  C   UNL A   1      40.489  36.107  38.197  1.00  0.00     0.059 A 
ATOM    101  F   UNL A   1      41.705  35.491  36.288  1.00  0.00    -0.206 F 
ATOM    102  C   UNL A   1      39.483  35.823  39.120  1.00  0.00     0.060 A 
BRANCH 102 103
ATOM    103  S   UNL A   1      39.110  36.989  40.447  1.00  0.00     0.124 S 
ATOM    104  O   UNL A   1      40.440  37.486  40.782  1.00  0.00    -0.237 OA
ATOM    105  O   UNL A   1      38.224  37.944  39.787  1.00  0.00    -0.237 OA
ATOM    106  O   UNL A   1      38.475  36.153  41.462  1.00  0.00    -0.744 OA
ENDBRANCH 102 103
ENDBRANCH  70  95
ENDBRANCH  44  45
ENDBRANCH  36  39
ENDBRANCH  34  35
ENDBRANCH  33  34
ENDBRANCH  32  33
ENDBRANCH   3  32
TORSDOF 19
ENDMDL
MODEL 3
REMARK VINA RESULT:     -11.9      6.166     12.146
REMARK SMILES O=C(CC[NH+]1CCC([N@H+]2CCC[C@H](C(=O)NCc3cccnc3)C2)CC1)NCCCNC(=O)c1ccc(-c2c3nc(c(-c4c(F)cc(S(=O)(=O)[O-])cc4F)c4ccc([nH]4)c(-c4c(F)cc(S(=O)(=O)[O-])cc4F)c4nc(c(-c5c(F)cc(S(=O)(=O)[O-])cc5F)c5ccc2[nH]5)C=C4)C=C3)cc1
REMARK SMILES IDX 1 1 2 2 27 3 3 5 4 6 5 7 6 8 26 9 7 11 25 12 8 13 9 14 10 15
REMARK SMILES IDX 24 16 11 18 13 19 12 20 14 21 15 22 16 23 17 25 18 26 19 27
REMARK SMILES IDX 23 28 20 29 22 30 21 31 28 32 29 33 30 34 31 35 32 36 33 38
REMARK SMILES IDX 34 39 35 40 99 41 36 42 98 43 37 44 38 45 39 46 92 47 40 48
REMARK SMILES IDX 97 49 91 50 93 51 41 52 96 53 90 54 89 55 42 57 76 58 55 59
REMARK SMILES IDX 75 60 56 61 59 62 74 63 94 64 57 65 58 66 73 68 95 69 60 70
REMARK SMILES IDX 43 71 44 72 53 73 45 74 46 75 52 76 54 77 47 78 48 79 49 80
REMARK SMILES IDX 50 81 51 82 77 83 78 84 87 85 79 86 80 87 86 88 88 89 81 90
REMARK SMILES IDX 82 91 83 92 84 93 85 94 61 95 62 96 71 97 63 98 64 99 70 100
REMARK SMILES IDX 72 101 65 102 66 103 67 104 68 105 69 106
REMARK H PARENT 27 4 5 10 9 17 16 24 31 37 93 56 59 67
REMARK Flexibility Score: inf
ROOT
ATOM      1  O   UNL A   1      40.445  18.839  25.756  1.00  0.00    -0.275 OA
ATOM      2  C   UNL A   1      40.137  20.024  25.831  1.00  0.00     0.225 C 
ATOM      3  N   UNL A   1      41.012  21.030  26.164  1.00  0.00    -0.356 N 
ATOM      4  H   UNL A   1      40.680  21.957  26.151  1.00  0.00     0.163 HD
ENDROOT
BRANCH   2   5
ATOM      5  C   UNL A   1      38.732  20.515  25.536  1.00  0.00     0.161 C 
BRANCH   5   6
ATOM      6  C   UNL A   1      38.582  22.015  25.803  1.00  0.00     0.272 C 
BRANCH   6   7
ATOM      7  N   UNL A   1      37.236  22.466  25.405  1.00  0.00    -0.334 N 
ATOM      8  C   UNL A   1      36.224  21.419  25.607  1.00  0.00     0.268 C 
ATOM      9  C   UNL A   1      36.837  23.702  26.092  1.00  0.00     0.268 C 
ATOM     10  H   UNL A   1      37.289  22.669  24.407  1.00  0.00     0.348 HD
ATOM     11  C   UNL A   1      34.896  21.848  24.984  1.00  0.00     0.126 C 
ATOM     12  C   UNL A   1      35.558  24.243  25.457  1.00  0.00     0.126 C 
ATOM     13  C   UNL A   1      34.428  23.205  25.535  1.00  0.00     0.195 C 
BRANCH  13  14
ATOM     14  N   UNL A   1      33.213  23.778  24.917  1.00  0.00    -0.331 N 
ATOM     15  C   UNL A   1      33.116  23.604  23.462  1.00  0.00     0.262 C 
ATOM     16  C   UNL A   1      31.992  23.323  25.590  1.00  0.00     0.275 C 
ATOM     17  H   UNL A   1      33.308  24.783  25.058  1.00  0.00     0.348 HD
ATOM     18  C   UNL A   1      31.942  24.380  22.868  1.00  0.00     0.062 C 
ATOM     19  C   UNL A   1      30.719  24.000  25.085  1.00  0.00     0.133 C 
ATOM     20  C   UNL A   1      30.620  24.110  23.565  1.00  0.00     0.025 C 
BRANCH  19  21
ATOM     21  C   UNL A   1      30.294  25.235  25.882  1.00  0.00     0.229 C 
ATOM     22  O   UNL A   1      29.330  25.139  26.655  1.00  0.00    -0.275 OA
ATOM     23  N   UNL A   1      30.881  26.450  25.854  1.00  0.00    -0.352 N 
ATOM     24  H   UNL A   1      30.425  27.106  26.428  1.00  0.00     0.163 HD
BRANCH  23  25
ATOM     25  C   UNL A   1      32.030  27.009  25.169  1.00  0.00     0.153 C 
BRANCH  25  26
ATOM     26  C   UNL A   1      32.657  28.131  25.948  1.00  0.00    -0.010 A 
ATOM     27  C   UNL A   1      33.970  28.050  26.410  1.00  0.00     0.009 A 
ATOM     28  C   UNL A   1      31.960  29.291  26.273  1.00  0.00     0.116 A 
ATOM     29  C   UNL A   1      34.545  29.112  27.098  1.00  0.00     0.020 A 
ATOM     30  N   UNL A   1      32.481  30.336  26.959  1.00  0.00    -0.264 NA
ATOM     31  C   UNL A   1      33.769  30.225  27.345  1.00  0.00     0.111 A 
ENDBRANCH  25  26
ENDBRANCH  23  25
ENDBRANCH  19  21
ENDBRANCH  13  14
ENDBRANCH   6   7
ENDBRANCH   5   6
ENDBRANCH   2   5
BRANCH   3  32
ATOM     32  C   UNL A   1      42.393  20.807  26.532  1.00  0.00     0.117 C 
BRANCH  32  33
ATOM     33  C   UNL A   1      43.270  22.024  26.246  1.00  0.00     0.042 C 
BRANCH  33  34
ATOM     34  C   UNL A   1      42.798  23.316  26.914  1.00  0.00     0.118 C 
BRANCH  34  35
ATOM     35  N   UNL A   1      42.482  24.339  25.934  1.00  0.00    -0.352 N 
ATOM     36  C   UNL A   1      41.748  25.487  26.061  1.00  0.00     0.251 C 
ATOM     37  H   UNL A   1      42.852  24.181  25.035  1.00  0.00     0.163 HD
ATOM     38  O   UNL A   1      41.213  25.932  25.046  1.00  0.00    -0.269 OA
BRANCH  36  39
ATOM     39  C   UNL A   1      41.608  26.217  27.348  1.00  0.00     0.039 A 
ATOM     40  C   UNL A   1      42.592  27.161  27.667  1.00  0.00     0.014 A 
ATOM     41  C   UNL A   1      40.598  25.953  28.278  1.00  0.00     0.014 A 
ATOM     42  C   UNL A   1      42.529  27.872  28.868  1.00  0.00     0.010 A 
ATOM     43  C   UNL A   1      40.479  26.736  29.432  1.00  0.00     0.010 A 
ATOM     44  C   UNL A   1      41.430  27.720  29.729  1.00  0.00    -0.014 A 
BRANCH  44  45
ATOM     45  C   UNL A   1      41.228  28.671  30.859  1.00  0.00     0.031 A 
ATOM     46  C   UNL A   1      42.073  28.624  32.103  1.00  0.00     0.074 A 
ATOM     47  C   UNL A   1      40.217  29.561  30.772  1.00  0.00     0.049 A 
ATOM     48  N   UNL A   1      41.985  29.356  33.186  1.00  0.00    -0.248 NA
ATOM     49  C   UNL A   1      43.136  27.609  32.155  1.00  0.00     0.031 C 
ATOM     50  C   UNL A   1      39.278  29.663  29.648  1.00  0.00     0.029 A 
ATOM     51  N   UNL A   1      39.806  30.551  31.629  1.00  0.00    -0.354 N 
ATOM     52  C   UNL A   1      42.959  28.879  34.056  1.00  0.00     0.074 A 
ATOM     53  C   UNL A   1      43.606  27.770  33.385  1.00  0.00     0.031 C 
ATOM     54  C   UNL A   1      38.441  30.689  29.861  1.00  0.00     0.029 A 
ATOM     55  C   UNL A   1      38.742  31.284  31.157  1.00  0.00     0.049 A 
ATOM     56  H   UNL A   1      40.233  30.720  32.501  1.00  0.00     0.167 HD
ATOM     57  C   UNL A   1      43.288  29.329  35.292  1.00  0.00     0.037 A 
ATOM     58  C   UNL A   1      38.073  32.317  31.701  1.00  0.00     0.037 A 
ATOM     59  C   UNL A   1      42.662  30.456  35.939  1.00  0.00     0.049 A 
ATOM     60  C   UNL A   1      38.491  32.829  33.048  1.00  0.00     0.074 A 
ATOM     61  C   UNL A   1      42.966  31.024  37.164  1.00  0.00     0.029 A 
ATOM     62  N   UNL A   1      41.608  31.190  35.413  1.00  0.00    -0.354 N 
ATOM     63  N   UNL A   1      39.444  32.388  33.833  1.00  0.00    -0.248 NA
ATOM     64  C   UNL A   1      37.745  33.974  33.584  1.00  0.00     0.031 C 
ATOM     65  C   UNL A   1      42.077  32.081  37.394  1.00  0.00     0.029 A 
ATOM     66  C   UNL A   1      41.245  32.198  36.294  1.00  0.00     0.049 A 
ATOM     67  H   UNL A   1      41.181  31.021  34.542  1.00  0.00     0.167 HD
ATOM     68  C   UNL A   1      39.421  33.211  34.952  1.00  0.00     0.074 A 
ATOM     69  C   UNL A   1      38.373  34.187  34.732  1.00  0.00     0.031 C 
ATOM     70  C   UNL A   1      40.196  33.160  36.063  1.00  0.00     0.037 A 
BRANCH  57  71
ATOM     71  C   UNL A   1      44.379  28.604  36.034  1.00  0.00     0.058 A 
ATOM     72  C   UNL A   1      45.726  28.987  35.924  1.00  0.00     0.135 A 
ATOM     73  C   UNL A   1      44.071  27.545  36.904  1.00  0.00     0.135 A 
ATOM     74  F   UNL A   1      46.079  29.986  35.100  1.00  0.00    -0.206 F 
ATOM     75  C   UNL A   1      46.730  28.325  36.626  1.00  0.00     0.059 A 
ATOM     76  C   UNL A   1      45.056  26.886  37.634  1.00  0.00     0.059 A 
ATOM     77  F   UNL A   1      42.799  27.141  37.052  1.00  0.00    -0.206 F 
ATOM     78  C   UNL A   1      46.386  27.273  37.475  1.00  0.00     0.060 A 
BRANCH  78  79
ATOM     79  S   UNL A   1      47.699  26.420  38.374  1.00  0.00     0.124 S 
ATOM     80  O   UNL A   1      48.814  26.540  37.439  1.00  0.00    -0.237 OA
ATOM     81  O   UNL A   1      47.810  27.211  39.595  1.00  0.00    -0.237 OA
ATOM     82  O   UNL A   1      47.170  25.071  38.550  1.00  0.00    -0.744 OA
ENDBRANCH  78  79
ENDBRANCH  57  71
BRANCH  58  83
ATOM     83  C   UNL A   1      36.955  32.947  30.952  1.00  0.00     0.058 A 
ATOM     84  C   UNL A   1      37.204  33.912  29.965  1.00  0.00     0.135 A 
ATOM     85  C   UNL A   1      35.623  32.565  31.175  1.00  0.00     0.135 A 
ATOM     86  F   UNL A   1      38.462  34.308  29.719  1.00  0.00    -0.206 F 
ATOM     87  C   UNL A   1      36.172  34.485  29.231  1.00  0.00     0.059 A 
ATOM     88  C   UNL A   1      34.576  33.106  30.437  1.00  0.00     0.059 A 
ATOM     89  F   UNL A   1      35.336  31.629  32.093  1.00  0.00    -0.206 F 
ATOM     90  C   UNL A   1      34.860  34.073  29.473  1.00  0.00     0.060 A 
BRANCH  90  91
ATOM     91  S   UNL A   1      33.530  34.776  28.471  1.00  0.00     0.124 S 
ATOM     92  O   UNL A   1      33.081  33.608  27.723  1.00  0.00    -0.237 OA
ATOM     93  O   UNL A   1      32.610  35.277  29.487  1.00  0.00    -0.237 OA
ATOM     94  O   UNL A   1      34.211  35.805  27.691  1.00  0.00    -0.744 OA
ENDBRANCH  90  91
ENDBRANCH  58  83
BRANCH  70  95
ATOM     95  C   UNL A   1      39.948  34.201  37.115  1.00  0.00     0.058 A 
ATOM     96  C   UNL A   1      39.092  33.958  38.201  1.00  0.00     0.135 A 
ATOM     97  C   UNL A   1      40.587  35.449  37.048  1.00  0.00     0.135 A 
ATOM     98  F   UNL A   1      38.451  32.784  38.307  1.00  0.00    -0.206 F 
ATOM     99  C   UNL A   1      38.858  34.927  39.171  1.00  0.00     0.059 A 
ATOM    100  C   UNL A   1      40.385  36.425  38.018  1.00  0.00     0.059 A 
ATOM    101  F   UNL A   1      41.420  35.728  36.032  1.00  0.00    -0.206 F 
ATOM    102  C   UNL A   1      39.508  36.160  39.069  1.00  0.00     0.060 A 
BRANCH 102 103
ATOM    103  S   UNL A   1      39.210  37.405  40.342  1.00  0.00     0.124 S 
ATOM    104  O   UNL A   1      38.306  38.318  39.652  1.00  0.00    -0.237 OA
ATOM    105  O   UNL A   1      38.617  36.618  41.419  1.00  0.00    -0.237 OA
ATOM    106  O   UNL A   1      40.544  37.930  40.619  1.00  0.00    -0.744 OA
ENDBRANCH 102 103
ENDBRANCH  70  95
ENDBRANCH  44  45
ENDBRANCH  36  39
ENDBRANCH  34  35
ENDBRANCH  33  34
ENDBRANCH  32  33
ENDBRANCH   3  32
TORSDOF 19
ENDMDL
