MODEL 1
REMARK VINA RESULT:     -11.5      0.000      0.000
REMARK SMILES COc1ccc(-c2sc(C(=O)NCCCNC(=O)c3ccc(-c4c5nc(c(-c6c(F)cc(S(=O)(=O)[O-])cc6F)c6ccc([nH]6)c(-c6c(F)cc(S(=O)(=O)[O-])cc6F)c6nc(c(-c7c(F)cc(S(=O)(=O)[O-])cc7F)c7ccc4[nH]7)C=C6)C=C5)cc3)cc2C)c(OC)c1
REMARK SMILES IDX 14 1 13 2 12 3 10 4 11 5 9 7 7 8 8 9 86 10 85 11 87 12 6 13
REMARK SMILES IDX 3 14 4 15 91 16 5 17 88 18 2 19 1 20 89 21 90 22 15 23 16 24
REMARK SMILES IDX 17 25 18 27 19 28 20 29 84 30 21 31 83 32 22 33 23 34 24 35
REMARK SMILES IDX 77 36 25 37 82 38 76 39 78 40 26 41 81 42 75 43 74 44 27 46
REMARK SMILES IDX 61 47 40 48 60 49 41 50 44 51 59 52 79 53 42 54 43 55 58 57
REMARK SMILES IDX 80 58 45 59 28 60 29 61 38 62 30 63 31 64 37 65 39 66 32 67
REMARK SMILES IDX 33 68 34 69 35 70 36 71 62 72 63 73 72 74 64 75 65 76 71 77
REMARK SMILES IDX 73 78 66 79 67 80 68 81 69 82 70 83 46 84 47 85 56 86 48 87
REMARK SMILES IDX 49 88 55 89 57 90 50 91 51 92 52 93 53 94 54 95
REMARK H PARENT 12 6 16 26 78 45 44 56
REMARK Flexibility Score: inf
ROOT
ATOM      1  C   UNL A   1      34.053  27.875  25.451  1.00  0.00     0.042 C 
ENDROOT
BRANCH   1   2
ATOM      2  C   UNL A   1      32.844  27.708  24.533  1.00  0.00     0.118 C 
BRANCH   2   3
ATOM      3  N   UNL A   1      33.238  27.357  23.180  1.00  0.00    -0.351 N 
ATOM      4  C   UNL A   1      33.265  26.177  22.479  1.00  0.00     0.261 C 
ATOM      5  O   UNL A   1      33.587  26.297  21.290  1.00  0.00    -0.268 OA
ATOM      6  H   UNL A   1      33.553  28.129  22.654  1.00  0.00     0.163 HD
BRANCH   4   7
ATOM      7  C   UNL A   1      32.898  24.879  23.031  1.00  0.00     0.093 A 
ATOM      8  C   UNL A   1      32.643  22.499  23.701  1.00  0.00     0.042 A 
ATOM      9  S   UNL A   1      33.410  23.368  22.441  1.00  0.00    -0.130 S 
ATOM     10  C   UNL A   1      31.844  23.324  24.474  1.00  0.00    -0.031 A 
ATOM     11  C   UNL A   1      32.002  24.693  24.071  1.00  0.00     0.029 A 
ATOM     12  C   UNL A   1      30.945  22.901  25.588  1.00  0.00     0.046 C 
BRANCH   8  13
ATOM     13  C   UNL A   1      32.889  21.051  23.792  1.00  0.00     0.034 A 
ATOM     14  C   UNL A   1      33.228  18.269  23.931  1.00  0.00     0.122 A 
ATOM     15  C   UNL A   1      32.336  18.814  23.013  1.00  0.00     0.047 A 
ATOM     16  C   UNL A   1      33.987  19.109  24.752  1.00  0.00     0.093 A 
ATOM     17  C   UNL A   1      32.159  20.194  22.949  1.00  0.00     0.017 A 
ATOM     18  C   UNL A   1      33.828  20.502  24.687  1.00  0.00     0.131 A 
BRANCH  14  19
ATOM     19  O   UNL A   1      33.329  16.904  23.918  1.00  0.00    -0.497 OA
ATOM     20  C   UNL A   1      34.440  16.384  24.644  1.00  0.00     0.278 C 
ENDBRANCH  14  19
BRANCH  18  21
ATOM     21  O   UNL A   1      34.533  21.397  25.453  1.00  0.00    -0.496 OA
ATOM     22  C   UNL A   1      34.228  21.471  26.837  1.00  0.00     0.278 C 
ENDBRANCH  18  21
ENDBRANCH   8  13
ENDBRANCH   4   7
ENDBRANCH   2   3
ENDBRANCH   1   2
BRANCH   1  23
ATOM     23  C   UNL A   1      33.677  28.066  26.921  1.00  0.00     0.118 C 
BRANCH  23  24
ATOM     24  N   UNL A   1      33.500  29.473  27.264  1.00  0.00    -0.352 N 
ATOM     25  C   UNL A   1      34.316  30.332  27.951  1.00  0.00     0.251 C 
ATOM     26  H   UNL A   1      32.655  29.869  26.949  1.00  0.00     0.163 HD
ATOM     27  O   UNL A   1      33.858  31.414  28.326  1.00  0.00    -0.269 OA
BRANCH  25  28
ATOM     28  C   UNL A   1      35.722  29.987  28.247  1.00  0.00     0.039 A 
ATOM     29  C   UNL A   1      36.662  30.051  27.213  1.00  0.00     0.014 A 
ATOM     30  C   UNL A   1      36.110  29.533  29.512  1.00  0.00     0.014 A 
ATOM     31  C   UNL A   1      37.993  29.702  27.456  1.00  0.00     0.010 A 
ATOM     32  C   UNL A   1      37.450  29.249  29.770  1.00  0.00     0.010 A 
ATOM     33  C   UNL A   1      38.403  29.319  28.743  1.00  0.00    -0.014 A 
BRANCH  33  34
ATOM     34  C   UNL A   1      39.821  28.977  29.025  1.00  0.00     0.031 A 
ATOM     35  C   UNL A   1      40.742  30.000  29.635  1.00  0.00     0.074 A 
ATOM     36  C   UNL A   1      40.292  27.762  28.682  1.00  0.00     0.049 A 
ATOM     37  N   UNL A   1      42.020  29.907  29.903  1.00  0.00    -0.248 NA
ATOM     38  C   UNL A   1      40.158  31.312  29.961  1.00  0.00     0.031 C 
ATOM     39  C   UNL A   1      39.511  26.702  28.039  1.00  0.00     0.029 A 
ATOM     40  N   UNL A   1      41.543  27.214  28.816  1.00  0.00    -0.354 N 
ATOM     41  C   UNL A   1      42.397  31.147  30.404  1.00  0.00     0.074 A 
ATOM     42  C   UNL A   1      41.222  31.991  30.365  1.00  0.00     0.031 C 
ATOM     43  C   UNL A   1      40.294  25.626  27.856  1.00  0.00     0.029 A 
ATOM     44  C   UNL A   1      41.638  25.929  28.338  1.00  0.00     0.049 A 
ATOM     45  H   UNL A   1      42.302  27.697  29.217  1.00  0.00     0.167 HD
ATOM     46  C   UNL A   1      43.605  31.542  30.872  1.00  0.00     0.037 A 
ATOM     47  C   UNL A   1      42.690  25.088  28.292  1.00  0.00     0.037 A 
ATOM     48  C   UNL A   1      44.760  30.684  30.946  1.00  0.00     0.049 A 
ATOM     49  C   UNL A   1      44.013  25.540  28.847  1.00  0.00     0.074 A 
ATOM     50  C   UNL A   1      46.010  30.965  31.472  1.00  0.00     0.029 A 
ATOM     51  N   UNL A   1      44.807  29.376  30.486  1.00  0.00    -0.354 N 
ATOM     52  N   UNL A   1      44.333  26.696  29.379  1.00  0.00    -0.248 NA
ATOM     53  C   UNL A   1      45.115  24.570  28.807  1.00  0.00     0.031 C 
ATOM     54  C   UNL A   1      46.822  29.839  31.297  1.00  0.00     0.029 A 
ATOM     55  C   UNL A   1      46.066  28.843  30.701  1.00  0.00     0.049 A 
ATOM     56  H   UNL A   1      44.054  28.898  30.067  1.00  0.00     0.167 HD
ATOM     57  C   UNL A   1      45.663  26.581  29.764  1.00  0.00     0.074 A 
ATOM     58  C   UNL A   1      46.085  25.240  29.414  1.00  0.00     0.031 C 
ATOM     59  C   UNL A   1      46.465  27.502  30.356  1.00  0.00     0.037 A 
BRANCH  46  60
ATOM     60  C   UNL A   1      43.743  32.962  31.347  1.00  0.00     0.058 A 
ATOM     61  C   UNL A   1      44.045  34.011  30.463  1.00  0.00     0.135 A 
ATOM     62  C   UNL A   1      43.530  33.287  32.697  1.00  0.00     0.135 A 
ATOM     63  F   UNL A   1      44.273  33.756  29.165  1.00  0.00    -0.206 F 
ATOM     64  C   UNL A   1      44.159  35.326  30.905  1.00  0.00     0.059 A 
ATOM     65  C   UNL A   1      43.613  34.598  33.156  1.00  0.00     0.059 A 
ATOM     66  F   UNL A   1      43.237  32.324  33.585  1.00  0.00    -0.206 F 
ATOM     67  C   UNL A   1      43.943  35.609  32.254  1.00  0.00     0.060 A 
BRANCH  67  68
ATOM     68  S   UNL A   1      44.085  37.321  32.811  1.00  0.00     0.124 S 
ATOM     69  O   UNL A   1      43.845  38.051  31.570  1.00  0.00    -0.237 OA
ATOM     70  O   UNL A   1      43.027  37.413  33.813  1.00  0.00    -0.237 OA
ATOM     71  O   UNL A   1      45.445  37.397  33.333  1.00  0.00    -0.744 OA
ENDBRANCH  67  68
ENDBRANCH  46  60
BRANCH  47  72
ATOM     72  C   UNL A   1      42.530  23.722  27.728  1.00  0.00     0.058 A 
ATOM     73  C   UNL A   1      42.313  22.619  28.567  1.00  0.00     0.135 A 
ATOM     74  C   UNL A   1      42.590  23.491  26.345  1.00  0.00     0.135 A 
ATOM     75  F   UNL A   1      42.252  22.791  29.897  1.00  0.00    -0.206 F 
ATOM     76  C   UNL A   1      42.186  21.331  28.060  1.00  0.00     0.059 A 
ATOM     77  C   UNL A   1      42.441  22.214  25.811  1.00  0.00     0.059 A 
ATOM     78  F   UNL A   1      42.776  24.516  25.499  1.00  0.00    -0.206 F 
ATOM     79  C   UNL A   1      42.253  21.138  26.679  1.00  0.00     0.060 A 
BRANCH  79  80
ATOM     80  S   UNL A   1      42.052  19.467  26.025  1.00  0.00     0.124 S 
ATOM     81  O   UNL A   1      42.531  18.657  27.139  1.00  0.00    -0.237 OA
ATOM     82  O   UNL A   1      40.617  19.408  25.763  1.00  0.00    -0.237 OA
ATOM     83  O   UNL A   1      42.898  19.469  24.835  1.00  0.00    -0.744 OA
ENDBRANCH  79  80
ENDBRANCH  47  72
BRANCH  59  84
ATOM     84  C   UNL A   1      47.865  27.073  30.700  1.00  0.00     0.058 A 
ATOM     85  C   UNL A   1      48.150  26.352  31.870  1.00  0.00     0.135 A 
ATOM     86  C   UNL A   1      48.928  27.365  29.831  1.00  0.00     0.135 A 
ATOM     87  F   UNL A   1      47.168  26.053  32.736  1.00  0.00    -0.206 F 
ATOM     88  C   UNL A   1      49.447  25.963  32.184  1.00  0.00     0.059 A 
ATOM     89  C   UNL A   1      50.230  26.963  30.113  1.00  0.00     0.059 A 
ATOM     90  F   UNL A   1      48.707  28.042  28.693  1.00  0.00    -0.206 F 
ATOM     91  C   UNL A   1      50.482  26.276  31.300  1.00  0.00     0.060 A 
BRANCH  91  92
ATOM     92  S   UNL A   1      52.162  25.757  31.709  1.00  0.00     0.124 S 
ATOM     93  O   UNL A   1      51.936  24.409  32.218  1.00  0.00    -0.237 OA
ATOM     94  O   UNL A   1      52.841  25.843  30.420  1.00  0.00    -0.237 OA
ATOM     95  O   UNL A   1      52.588  26.741  32.700  1.00  0.00    -0.744 OA
ENDBRANCH  91  92
ENDBRANCH  59  84
ENDBRANCH  33  34
ENDBRANCH  25  28
ENDBRANCH  23  24
ENDBRANCH   1  23
TORSDOF 16
ENDMDL
MODEL 2
REMARK VINA RESULT:     -11.4      4.821     10.683
REMARK SMILES COc1ccc(-c2sc(C(=O)NCCCNC(=O)c3ccc(-c4c5nc(c(-c6c(F)cc(S(=O)(=O)[O-])cc6F)c6ccc([nH]6)c(-c6c(F)cc(S(=O)(=O)[O-])cc6F)c6nc(c(-c7c(F)cc(S(=O)(=O)[O-])cc7F)c7ccc4[nH]7)C=C6)C=C5)cc3)cc2C)c(OC)c1
REMARK SMILES IDX 14 1 13 2 12 3 10 4 11 5 9 7 7 8 8 9 86 10 85 11 87 12 6 13
REMARK SMILES IDX 3 14 4 15 91 16 5 17 88 18 2 19 1 20 89 21 90 22 15 23 16 24
REMARK SMILES IDX 17 25 18 27 19 28 20 29 84 30 21 31 83 32 22 33 23 34 24 35
REMARK SMILES IDX 77 36 25 37 82 38 76 39 78 40 26 41 81 42 75 43 74 44 27 46
REMARK SMILES IDX 61 47 40 48 60 49 41 50 44 51 59 52 79 53 42 54 43 55 58 57
REMARK SMILES IDX 80 58 45 59 28 60 29 61 38 62 30 63 31 64 37 65 39 66 32 67
REMARK SMILES IDX 33 68 34 69 35 70 36 71 62 72 63 73 72 74 64 75 65 76 71 77
REMARK SMILES IDX 73 78 66 79 67 80 68 81 69 82 70 83 46 84 47 85 56 86 48 87
REMARK SMILES IDX 49 88 55 89 57 90 50 91 51 92 52 93 53 94 54 95
REMARK H PARENT 12 6 16 26 78 45 44 56
REMARK Flexibility Score: inf
ROOT
ATOM      1  C   UNL A   1      39.608  22.109  26.612  1.00  0.00     0.042 C 
ENDROOT
BRANCH   1   2
ATOM      2  C   UNL A   1      38.289  22.661  26.075  1.00  0.00     0.118 C 
BRANCH   2   3
ATOM      3  N   UNL A   1      37.349  21.600  25.761  1.00  0.00    -0.351 N 
ATOM      4  C   UNL A   1      36.049  21.590  25.317  1.00  0.00     0.261 C 
ATOM      5  O   UNL A   1      35.603  20.462  25.073  1.00  0.00    -0.268 OA
ATOM      6  H   UNL A   1      37.721  20.698  25.895  1.00  0.00     0.163 HD
BRANCH   4   7
ATOM      7  C   UNL A   1      35.245  22.783  25.083  1.00  0.00     0.093 A 
ATOM      8  C   UNL A   1      33.941  24.898  25.160  1.00  0.00     0.042 A 
ATOM      9  S   UNL A   1      34.513  23.739  26.284  1.00  0.00    -0.130 S 
ATOM     10  C   UNL A   1      34.139  24.479  23.855  1.00  0.00    -0.031 A 
ATOM     11  C   UNL A   1      34.891  23.256  23.830  1.00  0.00     0.029 A 
ATOM     12  C   UNL A   1      33.673  25.174  22.618  1.00  0.00     0.046 C 
BRANCH   8  13
ATOM     13  C   UNL A   1      33.315  26.120  25.685  1.00  0.00     0.034 A 
ATOM     14  C   UNL A   1      32.229  28.472  26.766  1.00  0.00     0.122 A 
ATOM     15  C   UNL A   1      33.605  28.355  26.601  1.00  0.00     0.047 A 
ATOM     16  C   UNL A   1      31.385  27.436  26.352  1.00  0.00     0.093 A 
ATOM     17  C   UNL A   1      34.147  27.185  26.073  1.00  0.00     0.017 A 
ATOM     18  C   UNL A   1      31.918  26.257  25.807  1.00  0.00     0.131 A 
BRANCH  14  19
ATOM     19  O   UNL A   1      31.796  29.658  27.293  1.00  0.00    -0.497 OA
ATOM     20  C   UNL A   1      31.703  30.726  26.354  1.00  0.00     0.278 C 
ENDBRANCH  14  19
BRANCH  18  21
ATOM     21  O   UNL A   1      31.163  25.197  25.374  1.00  0.00    -0.496 OA
ATOM     22  C   UNL A   1      30.669  24.291  26.349  1.00  0.00     0.278 C 
ENDBRANCH  18  21
ENDBRANCH   8  13
ENDBRANCH   4   7
ENDBRANCH   2   3
ENDBRANCH   1   2
BRANCH   1  23
ATOM     23  C   UNL A   1      40.512  23.182  27.220  1.00  0.00     0.118 C 
BRANCH  23  24
ATOM     24  N   UNL A   1      41.278  23.895  26.204  1.00  0.00    -0.352 N 
ATOM     25  C   UNL A   1      41.605  25.222  26.101  1.00  0.00     0.251 C 
ATOM     26  H   UNL A   1      41.616  23.329  25.472  1.00  0.00     0.163 HD
ATOM     27  O   UNL A   1      42.060  25.640  25.035  1.00  0.00    -0.269 OA
BRANCH  25  28
ATOM     28  C   UNL A   1      41.421  26.150  27.237  1.00  0.00     0.039 A 
ATOM     29  C   UNL A   1      40.345  25.943  28.106  1.00  0.00     0.014 A 
ATOM     30  C   UNL A   1      42.252  27.261  27.412  1.00  0.00     0.014 A 
ATOM     31  C   UNL A   1      40.128  26.821  29.171  1.00  0.00     0.010 A 
ATOM     32  C   UNL A   1      42.075  28.097  28.513  1.00  0.00     0.010 A 
ATOM     33  C   UNL A   1      41.005  27.894  29.396  1.00  0.00    -0.014 A 
BRANCH  33  34
ATOM     34  C   UNL A   1      40.808  28.817  30.544  1.00  0.00     0.031 A 
ATOM     35  C   UNL A   1      41.653  28.681  31.783  1.00  0.00     0.074 A 
ATOM     36  C   UNL A   1      39.830  29.744  30.491  1.00  0.00     0.049 A 
ATOM     37  N   UNL A   1      41.592  29.354  32.903  1.00  0.00    -0.248 NA
ATOM     38  C   UNL A   1      42.685  27.631  31.772  1.00  0.00     0.031 C 
ATOM     39  C   UNL A   1      38.912  29.940  29.366  1.00  0.00     0.029 A 
ATOM     40  N   UNL A   1      39.438  30.687  31.407  1.00  0.00    -0.354 N 
ATOM     41  C   UNL A   1      42.556  28.797  33.736  1.00  0.00     0.074 A 
ATOM     42  C   UNL A   1      43.160  27.703  33.007  1.00  0.00     0.031 C 
ATOM     43  C   UNL A   1      38.079  30.956  29.650  1.00  0.00     0.029 A 
ATOM     44  C   UNL A   1      38.382  31.461  30.985  1.00  0.00     0.049 A 
ATOM     45  H   UNL A   1      39.871  30.799  32.283  1.00  0.00     0.167 HD
ATOM     46  C   UNL A   1      42.917  29.174  34.986  1.00  0.00     0.037 A 
ATOM     47  C   UNL A   1      37.731  32.463  31.606  1.00  0.00     0.037 A 
ATOM     48  C   UNL A   1      42.340  30.291  35.690  1.00  0.00     0.049 A 
ATOM     49  C   UNL A   1      38.173  32.883  32.981  1.00  0.00     0.074 A 
ATOM     50  C   UNL A   1      42.687  30.801  36.929  1.00  0.00     0.029 A 
ATOM     51  N   UNL A   1      41.298  31.074  35.215  1.00  0.00    -0.354 N 
ATOM     52  N   UNL A   1      39.132  32.387  33.726  1.00  0.00    -0.248 NA
ATOM     53  C   UNL A   1      37.453  34.007  33.594  1.00  0.00     0.031 C 
ATOM     54  C   UNL A   1      41.832  31.870  37.218  1.00  0.00     0.029 A 
ATOM     55  C   UNL A   1      40.980  32.052  36.142  1.00  0.00     0.049 A 
ATOM     56  H   UNL A   1      40.850  30.951  34.346  1.00  0.00     0.167 HD
ATOM     57  C   UNL A   1      39.150  33.158  34.883  1.00  0.00     0.074 A 
ATOM     58  C   UNL A   1      38.114  34.159  34.734  1.00  0.00     0.031 C 
ATOM     59  C   UNL A   1      39.953  33.048  35.971  1.00  0.00     0.037 A 
BRANCH  46  60
ATOM     60  C   UNL A   1      43.992  28.379  35.674  1.00  0.00     0.058 A 
ATOM     61  C   UNL A   1      43.687  27.290  36.507  1.00  0.00     0.135 A 
ATOM     62  C   UNL A   1      45.348  28.682  35.467  1.00  0.00     0.135 A 
ATOM     63  F   UNL A   1      42.408  26.964  36.752  1.00  0.00    -0.206 F 
ATOM     64  C   UNL A   1      44.685  26.549  37.132  1.00  0.00     0.059 A 
ATOM     65  C   UNL A   1      46.363  27.939  36.061  1.00  0.00     0.059 A 
ATOM     66  F   UNL A   1      45.697  29.713  34.680  1.00  0.00    -0.206 F 
ATOM     67  C   UNL A   1      46.021  26.882  36.904  1.00  0.00     0.060 A 
BRANCH  67  68
ATOM     68  S   UNL A   1      47.306  25.906  37.714  1.00  0.00     0.124 S 
ATOM     69  O   UNL A   1      46.733  24.565  37.654  1.00  0.00    -0.237 OA
ATOM     70  O   UNL A   1      48.463  26.138  36.856  1.00  0.00    -0.237 OA
ATOM     71  O   UNL A   1      47.390  26.494  39.047  1.00  0.00    -0.744 OA
ENDBRANCH  67  68
ENDBRANCH  46  60
BRANCH  47  72
ATOM     72  C   UNL A   1      36.611  33.163  30.921  1.00  0.00     0.058 A 
ATOM     73  C   UNL A   1      36.860  34.073  29.883  1.00  0.00     0.135 A 
ATOM     74  C   UNL A   1      35.276  32.937  31.289  1.00  0.00     0.135 A 
ATOM     75  F   UNL A   1      38.121  34.324  29.501  1.00  0.00    -0.206 F 
ATOM     76  C   UNL A   1      35.827  34.755  29.249  1.00  0.00     0.059 A 
ATOM     77  C   UNL A   1      34.223  33.589  30.652  1.00  0.00     0.059 A 
ATOM     78  F   UNL A   1      34.984  32.061  32.263  1.00  0.00    -0.206 F 
ATOM     79  C   UNL A   1      34.511  34.507  29.641  1.00  0.00     0.060 A 
BRANCH  79  80
ATOM     80  S   UNL A   1      33.174  35.370  28.789  1.00  0.00     0.124 S 
ATOM     81  O   UNL A   1      33.910  36.377  28.034  1.00  0.00    -0.237 OA
ATOM     82  O   UNL A   1      32.567  34.300  28.004  1.00  0.00    -0.237 OA
ATOM     83  O   UNL A   1      32.351  35.876  29.884  1.00  0.00    -0.744 OA
ENDBRANCH  79  80
ENDBRANCH  47  72
BRANCH  59  84
ATOM     84  C   UNL A   1      39.769  34.064  37.065  1.00  0.00     0.058 A 
ATOM     85  C   UNL A   1      38.899  33.839  38.143  1.00  0.00     0.135 A 
ATOM     86  C   UNL A   1      40.495  35.265  37.044  1.00  0.00     0.135 A 
ATOM     87  F   UNL A   1      38.177  32.709  38.205  1.00  0.00    -0.206 F 
ATOM     88  C   UNL A   1      38.729  34.786  39.147  1.00  0.00     0.059 A 
ATOM     89  C   UNL A   1      40.360  36.214  38.052  1.00  0.00     0.059 A 
ATOM     90  F   UNL A   1      41.350  35.523  36.042  1.00  0.00    -0.206 F 
ATOM     91  C   UNL A   1      39.463  35.973  39.092  1.00  0.00     0.060 A 
BRANCH  91  92
ATOM     92  S   UNL A   1      39.246  37.191  40.406  1.00  0.00     0.124 S 
ATOM     93  O   UNL A   1      38.302  38.119  39.794  1.00  0.00    -0.237 OA
ATOM     94  O   UNL A   1      38.720  36.382  41.501  1.00  0.00    -0.237 OA
ATOM     95  O   UNL A   1      40.596  37.709  40.612  1.00  0.00    -0.744 OA
ENDBRANCH  91  92
ENDBRANCH  59  84
ENDBRANCH  33  34
ENDBRANCH  25  28
ENDBRANCH  23  24
ENDBRANCH   1  23
TORSDOF 16
ENDMDL
MODEL 3
REMARK VINA RESULT:     -11.4      3.125      4.009
REMARK SMILES COc1ccc(-c2sc(C(=O)NCCCNC(=O)c3ccc(-c4c5nc(c(-c6c(F)cc(S(=O)(=O)[O-])cc6F)c6ccc([nH]6)c(-c6c(F)cc(S(=O)(=O)[O-])cc6F)c6nc(c(-c7c(F)cc(S(=O)(=O)[O-])cc7F)c7ccc4[nH]7)C=C6)C=C5)cc3)cc2C)c(OC)c1
REMARK SMILES IDX 14 1 13 2 12 3 10 4 11 5 9 7 7 8 8 9 86 10 85 11 87 12 6 13
REMARK SMILES IDX 3 14 4 15 91 16 5 17 88 18 2 19 1 20 89 21 90 22 15 23 16 24
REMARK SMILES IDX 17 25 18 27 19 28 20 29 84 30 21 31 83 32 22 33 23 34 24 35
REMARK SMILES IDX 77 36 25 37 82 38 76 39 78 40 26 41 81 42 75 43 74 44 27 46
REMARK SMILES IDX 61 47 40 48 60 49 41 50 44 51 59 52 79 53 42 54 43 55 58 57
REMARK SMILES IDX 80 58 45 59 28 60 29 61 38 62 30 63 31 64 37 65 39 66 32 67
REMARK SMILES IDX 33 68 34 69 35 70 36 71 62 72 63 73 72 74 64 75 65 76 71 77
REMARK SMILES IDX 73 78 66 79 67 80 68 81 69 82 70 83 46 84 47 85 56 86 48 87
REMARK SMILES IDX 49 88 55 89 57 90 50 91 51 92 52 93 53 94 54 95
REMARK H PARENT 12 6 16 26 78 45 44 56
REMARK Flexibility Score: inf
ROOT
ATOM      1  C   UNL A   1      34.233  30.196  26.966  1.00  0.00     0.042 C 
ENDROOT
BRANCH   1   2
ATOM      2  C   UNL A   1      32.758  29.956  27.280  1.00  0.00     0.118 C 
BRANCH   2   3
ATOM      3  N   UNL A   1      31.953  29.897  26.073  1.00  0.00    -0.351 N 
ATOM      4  C   UNL A   1      31.622  28.885  25.206  1.00  0.00     0.261 C 
ATOM      5  O   UNL A   1      30.821  29.212  24.322  1.00  0.00    -0.268 OA
ATOM      6  H   UNL A   1      31.561  30.766  25.824  1.00  0.00     0.163 HD
BRANCH   4   7
ATOM      7  C   UNL A   1      32.104  27.513  25.312  1.00  0.00     0.093 A 
ATOM      8  C   UNL A   1      33.322  25.347  25.269  1.00  0.00     0.042 A 
ATOM      9  S   UNL A   1      33.419  26.853  24.461  1.00  0.00    -0.130 S 
ATOM     10  C   UNL A   1      32.185  25.266  26.056  1.00  0.00    -0.031 A 
ATOM     11  C   UNL A   1      31.493  26.524  26.067  1.00  0.00     0.029 A 
ATOM     12  C   UNL A   1      31.714  24.071  26.817  1.00  0.00     0.046 C 
BRANCH   8  13
ATOM     13  C   UNL A   1      34.384  24.360  25.024  1.00  0.00     0.034 A 
ATOM     14  C   UNL A   1      36.503  22.573  24.586  1.00  0.00     0.122 A 
ATOM     15  C   UNL A   1      36.621  23.564  25.554  1.00  0.00     0.047 A 
ATOM     16  C   UNL A   1      35.313  22.439  23.864  1.00  0.00     0.093 A 
ATOM     17  C   UNL A   1      35.574  24.458  25.767  1.00  0.00     0.017 A 
ATOM     18  C   UNL A   1      34.246  23.326  24.078  1.00  0.00     0.131 A 
BRANCH  14  19
ATOM     19  O   UNL A   1      37.586  21.745  24.452  1.00  0.00    -0.497 OA
ATOM     20  C   UNL A   1      37.381  20.418  24.929  1.00  0.00     0.278 C 
ENDBRANCH  14  19
BRANCH  18  21
ATOM     21  O   UNL A   1      33.045  23.263  23.416  1.00  0.00    -0.496 OA
ATOM     22  C   UNL A   1      33.071  23.216  21.997  1.00  0.00     0.278 C 
ENDBRANCH  18  21
ENDBRANCH   8  13
ENDBRANCH   4   7
ENDBRANCH   2   3
ENDBRANCH   1   2
BRANCH   1  23
ATOM     23  C   UNL A   1      35.183  29.481  27.928  1.00  0.00     0.118 C 
BRANCH  23  24
ATOM     24  N   UNL A   1      35.290  30.171  29.208  1.00  0.00    -0.352 N 
ATOM     25  C   UNL A   1      36.345  30.285  30.074  1.00  0.00     0.251 C 
ATOM     26  H   UNL A   1      34.469  30.631  29.497  1.00  0.00     0.163 HD
ATOM     27  O   UNL A   1      36.139  30.719  31.209  1.00  0.00    -0.269 OA
BRANCH  25  28
ATOM     28  C   UNL A   1      37.715  29.899  29.673  1.00  0.00     0.039 A 
ATOM     29  C   UNL A   1      38.575  29.370  30.641  1.00  0.00     0.014 A 
ATOM     30  C   UNL A   1      38.183  30.119  28.374  1.00  0.00     0.014 A 
ATOM     31  C   UNL A   1      39.884  29.024  30.299  1.00  0.00     0.010 A 
ATOM     32  C   UNL A   1      39.467  29.711  28.017  1.00  0.00     0.010 A 
ATOM     33  C   UNL A   1      40.335  29.171  28.977  1.00  0.00    -0.014 A 
BRANCH  33  34
ATOM     34  C   UNL A   1      41.714  28.776  28.590  1.00  0.00     0.031 A 
ATOM     35  C   UNL A   1      42.813  29.804  28.540  1.00  0.00     0.074 A 
ATOM     36  C   UNL A   1      41.964  27.501  28.232  1.00  0.00     0.049 A 
ATOM     37  N   UNL A   1      44.061  29.663  28.174  1.00  0.00    -0.248 NA
ATOM     38  C   UNL A   1      42.456  31.179  28.924  1.00  0.00     0.031 C 
ATOM     39  C   UNL A   1      40.971  26.424  28.190  1.00  0.00     0.029 A 
ATOM     40  N   UNL A   1      43.126  26.895  27.824  1.00  0.00    -0.354 N 
ATOM     41  C   UNL A   1      44.631  30.928  28.261  1.00  0.00     0.074 A 
ATOM     42  C   UNL A   1      43.581  31.834  28.675  1.00  0.00     0.031 C 
ATOM     43  C   UNL A   1      41.571  25.286  27.803  1.00  0.00     0.029 A 
ATOM     44  C   UNL A   1      42.981  25.558  27.538  1.00  0.00     0.049 A 
ATOM     45  H   UNL A   1      43.982  27.373  27.744  1.00  0.00     0.167 HD
ATOM     46  C   UNL A   1      45.914  31.298  28.036  1.00  0.00     0.037 A 
ATOM     47  C   UNL A   1      43.882  24.653  27.109  1.00  0.00     0.037 A 
ATOM     48  C   UNL A   1      46.964  30.384  27.664  1.00  0.00     0.049 A 
ATOM     49  C   UNL A   1      45.307  25.083  26.897  1.00  0.00     0.074 A 
ATOM     50  C   UNL A   1      48.311  30.645  27.485  1.00  0.00     0.029 A 
ATOM     51  N   UNL A   1      46.785  29.030  27.420  1.00  0.00    -0.354 N 
ATOM     52  N   UNL A   1      45.842  26.272  27.049  1.00  0.00    -0.248 NA
ATOM     53  C   UNL A   1      46.256  24.047  26.466  1.00  0.00     0.031 C 
ATOM     54  C   UNL A   1      48.941  29.457  27.098  1.00  0.00     0.029 A 
ATOM     55  C   UNL A   1      47.994  28.447  27.077  1.00  0.00     0.049 A 
ATOM     56  H   UNL A   1      45.925  28.553  27.481  1.00  0.00     0.167 HD
ATOM     57  C   UNL A   1      47.193  26.119  26.762  1.00  0.00     0.074 A 
ATOM     58  C   UNL A   1      47.396  24.722  26.439  1.00  0.00     0.031 C 
ATOM     59  C   UNL A   1      48.179  27.052  26.768  1.00  0.00     0.037 A 
BRANCH  46  60
ATOM     60  C   UNL A   1      46.261  32.753  28.190  1.00  0.00     0.058 A 
ATOM     61  C   UNL A   1      46.113  33.664  27.132  1.00  0.00     0.135 A 
ATOM     62  C   UNL A   1      46.709  33.253  29.424  1.00  0.00     0.135 A 
ATOM     63  F   UNL A   1      45.702  33.239  25.927  1.00  0.00    -0.206 F 
ATOM     64  C   UNL A   1      46.423  35.012  27.283  1.00  0.00     0.059 A 
ATOM     65  C   UNL A   1      47.000  34.602  29.605  1.00  0.00     0.059 A 
ATOM     66  F   UNL A   1      46.869  32.427  30.470  1.00  0.00    -0.206 F 
ATOM     67  C   UNL A   1      46.867  35.472  28.523  1.00  0.00     0.060 A 
BRANCH  67  68
ATOM     68  S   UNL A   1      47.257  37.225  28.706  1.00  0.00     0.124 S 
ATOM     69  O   UNL A   1      47.290  37.663  27.314  1.00  0.00    -0.237 OA
ATOM     70  O   UNL A   1      46.132  37.715  29.497  1.00  0.00    -0.237 OA
ATOM     71  O   UNL A   1      48.544  37.217  29.393  1.00  0.00    -0.744 OA
ENDBRANCH  67  68
ENDBRANCH  46  60
BRANCH  47  72
ATOM     72  C   UNL A   1      43.472  23.242  26.882  1.00  0.00     0.058 A 
ATOM     73  C   UNL A   1      43.414  22.710  25.585  1.00  0.00     0.135 A 
ATOM     74  C   UNL A   1      43.132  22.399  27.951  1.00  0.00     0.135 A 
ATOM     75  F   UNL A   1      43.726  23.479  24.531  1.00  0.00    -0.206 F 
ATOM     76  C   UNL A   1      43.009  21.400  25.352  1.00  0.00     0.059 A 
ATOM     77  C   UNL A   1      42.747  21.077  27.745  1.00  0.00     0.059 A 
ATOM     78  F   UNL A   1      43.190  22.855  29.212  1.00  0.00    -0.206 F 
ATOM     79  C   UNL A   1      42.676  20.592  26.439  1.00  0.00     0.060 A 
BRANCH  79  80
ATOM     80  S   UNL A   1      42.184  18.881  26.131  1.00  0.00     0.124 S 
ATOM     81  O   UNL A   1      43.087  18.508  25.048  1.00  0.00    -0.237 OA
ATOM     82  O   UNL A   1      42.440  18.249  27.421  1.00  0.00    -0.237 OA
ATOM     83  O   UNL A   1      40.775  18.999  25.768  1.00  0.00    -0.744 OA
ENDBRANCH  79  80
ENDBRANCH  47  72
BRANCH  59  84
ATOM     84  C   UNL A   1      49.572  26.579  26.456  1.00  0.00     0.058 A 
ATOM     85  C   UNL A   1      50.384  25.978  27.430  1.00  0.00     0.135 A 
ATOM     86  C   UNL A   1      50.087  26.704  25.156  1.00  0.00     0.135 A 
ATOM     87  F   UNL A   1      49.940  25.841  28.690  1.00  0.00    -0.206 F 
ATOM     88  C   UNL A   1      51.674  25.549  27.135  1.00  0.00     0.059 A 
ATOM     89  C   UNL A   1      51.364  26.257  24.832  1.00  0.00     0.059 A 
ATOM     90  F   UNL A   1      49.346  27.260  24.184  1.00  0.00    -0.206 F 
ATOM     91  C   UNL A   1      52.156  25.695  25.833  1.00  0.00     0.060 A 
BRANCH  91  92
ATOM     92  S   UNL A   1      53.826  25.123  25.456  1.00  0.00     0.124 S 
ATOM     93  O   UNL A   1      54.059  25.737  24.154  1.00  0.00    -0.237 OA
ATOM     94  O   UNL A   1      54.604  25.670  26.563  1.00  0.00    -0.237 OA
ATOM     95  O   UNL A   1      53.692  23.669  25.451  1.00  0.00    -0.744 OA
ENDBRANCH  91  92
ENDBRANCH  59  84
ENDBRANCH  33  34
ENDBRANCH  25  28
ENDBRANCH  23  24
ENDBRANCH   1  23
TORSDOF 16
ENDMDL
