MODEL 1
REMARK VINA RESULT:     -11.2      0.000      0.000
REMARK SMILES CCCCCCNC(=O)Oc1cccc(-c2ccc([C@@H](C)C(=O)NCCCNC(=O)c3ccc(-c4c5nc(c(-c6c(F)cc(S(=O)(=O)[O-])cc6F)c6ccc([nH]6)c(-c6c(F)cc(S(=O)(=O)[O-])cc6F)c6nc(c(-c7c(F)cc(S(=O)(=O)[O-])cc7F)c7ccc4[nH]7)C=C6)C=C5)cc3)cc2F)c1
REMARK SMILES IDX 20 1 21 2 19 3 16 4 17 5 98 6 18 7 97 8 99 9 15 10 11 11
REMARK SMILES IDX 12 12 100 13 13 14 14 15 10 16 8 17 7 18 9 20 6 21 5 22 4 23
REMARK SMILES IDX 3 24 2 25 1 26 22 27 23 28 24 29 25 31 26 32 27 33 28 34
REMARK SMILES IDX 29 35 30 37 31 38 32 39 96 40 33 41 95 42 34 43 35 44 36 45
REMARK SMILES IDX 89 46 37 47 94 48 88 49 90 50 38 51 93 52 87 53 86 54 39 56
REMARK SMILES IDX 73 57 52 58 72 59 53 60 56 61 71 62 91 63 54 64 55 65 70 67
REMARK SMILES IDX 92 68 57 69 40 70 41 71 50 72 42 73 43 74 49 75 51 76 44 77
REMARK SMILES IDX 45 78 46 79 47 80 48 81 74 82 75 83 84 84 76 85 77 86 83 87
REMARK SMILES IDX 85 88 78 89 79 90 80 91 81 92 82 93 58 94 59 95 68 96 60 97
REMARK SMILES IDX 61 98 67 99 69 100 62 101 63 102 64 103 65 104 66 105
REMARK H PARENT 7 19 24 30 28 36 90 55 56 66
REMARK Flexibility Score: inf
ROOT
ATOM      1  C   UNL A   1      35.937  33.032  29.465  1.00  0.00     0.105 C 
ATOM      2  C   UNL A   1      37.031  33.838  28.770  1.00  0.00     0.023 C 
ENDROOT
BRANCH   1   3
ATOM      3  C   UNL A   1      35.205  32.025  28.594  1.00  0.00    -0.033 A 
ATOM      4  C   UNL A   1      33.784  29.977  27.186  1.00  0.00     0.018 A 
ATOM      5  C   UNL A   1      33.219  31.240  27.421  1.00  0.00     0.012 A 
ATOM      6  C   UNL A   1      35.105  29.793  27.620  1.00  0.00     0.131 A 
ATOM      7  C   UNL A   1      33.929  32.255  28.074  1.00  0.00     0.005 A 
ATOM      8  C   UNL A   1      35.796  30.781  28.328  1.00  0.00     0.044 A 
ATOM      9  F   UNL A   1      35.751  28.642  27.374  1.00  0.00    -0.206 F 
BRANCH   4  10
ATOM     10  C   UNL A   1      32.988  28.904  26.553  1.00  0.00    -0.012 A 
ATOM     11  C   UNL A   1      32.537  27.419  24.680  1.00  0.00     0.133 A 
ATOM     12  C   UNL A   1      31.542  26.761  25.394  1.00  0.00     0.047 A 
ATOM     13  C   UNL A   1      33.249  28.483  25.238  1.00  0.00     0.056 A 
ATOM     14  C   UNL A   1      31.264  27.165  26.694  1.00  0.00     0.004 A 
ATOM     15  C   UNL A   1      31.974  28.228  27.262  1.00  0.00     0.009 A 
BRANCH  11  16
ATOM     16  O   UNL A   1      32.714  27.043  23.341  1.00  0.00    -0.410 OA
BRANCH  16  17
ATOM     17  C   UNL A   1      31.614  26.572  22.641  1.00  0.00     0.412 C 
ATOM     18  N   UNL A   1      30.786  27.577  22.219  1.00  0.00    -0.321 N 
ATOM     19  H   UNL A   1      29.969  27.305  21.744  1.00  0.00     0.167 HD
ATOM     20  O   UNL A   1      31.359  25.401  22.394  1.00  0.00    -0.224 OA
BRANCH  18  21
ATOM     21  C   UNL A   1      30.993  28.999  22.400  1.00  0.00     0.119 C 
BRANCH  21  22
ATOM     22  C   UNL A   1      29.987  29.594  23.385  1.00  0.00     0.021 C 
BRANCH  22  23
ATOM     23  C   UNL A   1      28.528  29.202  23.120  1.00  0.00     0.002 C 
BRANCH  23  24
ATOM     24  C   UNL A   1      27.658  30.295  22.489  1.00  0.00    -0.000 C 
BRANCH  24  25
ATOM     25  C   UNL A   1      28.048  31.732  22.850  1.00  0.00    -0.003 C 
ATOM     26  C   UNL A   1      28.113  32.656  21.644  1.00  0.00     0.004 C 
ENDBRANCH  24  25
ENDBRANCH  23  24
ENDBRANCH  22  23
ENDBRANCH  21  22
ENDBRANCH  18  21
ENDBRANCH  16  17
ENDBRANCH  11  16
ENDBRANCH   4  10
ENDBRANCH   1   3
BRANCH   1  27
ATOM     27  C   UNL A   1      35.000  33.867  30.355  1.00  0.00     0.227 C 
ATOM     28  O   UNL A   1      33.797  33.944  30.075  1.00  0.00    -0.274 OA
ATOM     29  N   UNL A   1      35.402  34.537  31.468  1.00  0.00    -0.356 N 
ATOM     30  H   UNL A   1      34.671  34.983  31.953  1.00  0.00     0.163 HD
BRANCH  29  31
ATOM     31  C   UNL A   1      36.706  34.714  32.074  1.00  0.00     0.117 C 
BRANCH  31  32
ATOM     32  C   UNL A   1      36.879  33.877  33.338  1.00  0.00     0.042 C 
BRANCH  32  33
ATOM     33  C   UNL A   1      37.690  32.607  33.132  1.00  0.00     0.118 C 
BRANCH  33  34
ATOM     34  N   UNL A   1      36.842  31.462  32.832  1.00  0.00    -0.352 N 
ATOM     35  C   UNL A   1      37.028  30.410  31.973  1.00  0.00     0.251 C 
ATOM     36  H   UNL A   1      35.994  31.439  33.331  1.00  0.00     0.163 HD
ATOM     37  O   UNL A   1      36.064  29.692  31.711  1.00  0.00    -0.269 OA
BRANCH  35  38
ATOM     38  C   UNL A   1      38.349  30.126  31.363  1.00  0.00     0.039 A 
ATOM     39  C   UNL A   1      38.557  30.483  30.026  1.00  0.00     0.014 A 
ATOM     40  C   UNL A   1      39.352  29.443  32.055  1.00  0.00     0.014 A 
ATOM     41  C   UNL A   1      39.764  30.168  29.398  1.00  0.00     0.010 A 
ATOM     42  C   UNL A   1      40.591  29.221  31.461  1.00  0.00     0.010 A 
ATOM     43  C   UNL A   1      40.799  29.543  30.114  1.00  0.00    -0.014 A 
BRANCH  43  44
ATOM     44  C   UNL A   1      42.069  29.160  29.445  1.00  0.00     0.031 A 
ATOM     45  C   UNL A   1      43.181  30.169  29.306  1.00  0.00     0.074 A 
ATOM     46  C   UNL A   1      42.212  27.917  28.944  1.00  0.00     0.049 A 
ATOM     47  N   UNL A   1      44.359  30.031  28.753  1.00  0.00    -0.248 NA
ATOM     48  C   UNL A   1      42.929  31.520  29.834  1.00  0.00     0.031 C 
ATOM     49  C   UNL A   1      41.187  26.872  28.970  1.00  0.00     0.029 A 
ATOM     50  N   UNL A   1      43.278  27.321  28.321  1.00  0.00    -0.354 N 
ATOM     51  C   UNL A   1      44.976  31.274  28.854  1.00  0.00     0.074 A 
ATOM     52  C   UNL A   1      44.020  32.171  29.460  1.00  0.00     0.031 C 
ATOM     53  C   UNL A   1      41.686  25.754  28.419  1.00  0.00     0.029 A 
ATOM     54  C   UNL A   1      43.051  26.010  27.973  1.00  0.00     0.049 A 
ATOM     55  H   UNL A   1      44.127  27.788  28.140  1.00  0.00     0.167 HD
ATOM     56  C   UNL A   1      46.236  31.629  28.502  1.00  0.00     0.037 A 
ATOM     57  C   UNL A   1      43.855  25.116  27.366  1.00  0.00     0.037 A 
ATOM     58  C   UNL A   1      47.190  30.721  27.922  1.00  0.00     0.049 A 
ATOM     59  C   UNL A   1      45.258  25.528  27.005  1.00  0.00     0.074 A 
ATOM     60  C   UNL A   1      48.506  30.962  27.571  1.00  0.00     0.029 A 
ATOM     61  N   UNL A   1      46.931  29.393  27.612  1.00  0.00    -0.354 N 
ATOM     62  N   UNL A   1      45.844  26.691  27.160  1.00  0.00    -0.248 NA
ATOM     63  C   UNL A   1      46.114  24.498  26.402  1.00  0.00     0.031 C 
ATOM     64  C   UNL A   1      49.030  29.794  27.007  1.00  0.00     0.029 A 
ATOM     65  C   UNL A   1      48.059  28.806  27.063  1.00  0.00     0.049 A 
ATOM     66  H   UNL A   1      46.072  28.936  27.760  1.00  0.00     0.167 HD
ATOM     67  C   UNL A   1      47.149  26.522  26.711  1.00  0.00     0.074 A 
ATOM     68  C   UNL A   1      47.266  25.142  26.288  1.00  0.00     0.031 C 
ATOM     69  C   UNL A   1      48.160  27.426  26.657  1.00  0.00     0.037 A 
BRANCH  56  70
ATOM     70  C   UNL A   1      46.652  33.057  28.742  1.00  0.00     0.058 A 
ATOM     71  C   UNL A   1      46.483  34.052  27.764  1.00  0.00     0.135 A 
ATOM     72  C   UNL A   1      47.201  33.444  29.975  1.00  0.00     0.135 A 
ATOM     73  F   UNL A   1      45.979  33.739  26.560  1.00  0.00    -0.206 F 
ATOM     74  C   UNL A   1      46.875  35.368  27.987  1.00  0.00     0.059 A 
ATOM     75  C   UNL A   1      47.569  34.762  30.232  1.00  0.00     0.059 A 
ATOM     76  F   UNL A   1      47.386  32.538  30.948  1.00  0.00    -0.206 F 
ATOM     77  C   UNL A   1      47.417  35.714  29.226  1.00  0.00     0.060 A 
BRANCH  77  78
ATOM     78  S   UNL A   1      47.911  37.429  29.501  1.00  0.00     0.124 S 
ATOM     79  O   UNL A   1      48.702  37.699  28.304  1.00  0.00    -0.237 OA
ATOM     80  O   UNL A   1      46.626  38.116  29.578  1.00  0.00    -0.237 OA
ATOM     81  O   UNL A   1      48.664  37.370  30.749  1.00  0.00    -0.744 OA
ENDBRANCH  77  78
ENDBRANCH  56  70
BRANCH  57  82
ATOM     82  C   UNL A   1      43.368  23.736  27.102  1.00  0.00     0.058 A 
ATOM     83  C   UNL A   1      42.989  23.334  25.812  1.00  0.00     0.135 A 
ATOM     84  C   UNL A   1      43.282  22.785  28.132  1.00  0.00     0.135 A 
ATOM     85  F   UNL A   1      43.049  24.206  24.794  1.00  0.00    -0.206 F 
ATOM     86  C   UNL A   1      42.521  22.049  25.556  1.00  0.00     0.059 A 
ATOM     87  C   UNL A   1      42.846  21.486  27.894  1.00  0.00     0.059 A 
ATOM     88  F   UNL A   1      43.650  23.111  29.380  1.00  0.00    -0.206 F 
ATOM     89  C   UNL A   1      42.456  21.131  26.604  1.00  0.00     0.060 A 
BRANCH  89  90
ATOM     90  S   UNL A   1      41.888  19.453  26.252  1.00  0.00     0.124 S 
ATOM     91  O   UNL A   1      42.299  18.743  27.457  1.00  0.00    -0.237 OA
ATOM     92  O   UNL A   1      40.451  19.645  26.082  1.00  0.00    -0.237 OA
ATOM     93  O   UNL A   1      42.613  19.102  25.034  1.00  0.00    -0.744 OA
ENDBRANCH  89  90
ENDBRANCH  57  82
BRANCH  69  94
ATOM     94  C   UNL A   1      49.498  26.932  26.177  1.00  0.00     0.058 A 
ATOM     95  C   UNL A   1      50.403  26.279  27.030  1.00  0.00     0.135 A 
ATOM     96  C   UNL A   1      49.871  27.101  24.834  1.00  0.00     0.135 A 
ATOM     97  F   UNL A   1      50.097  26.092  28.324  1.00  0.00    -0.206 F 
ATOM     98  C   UNL A   1      51.650  25.858  26.579  1.00  0.00     0.059 A 
ATOM     99  C   UNL A   1      51.098  26.656  24.353  1.00  0.00     0.059 A 
ATOM    100  F   UNL A   1      49.037  27.702  23.970  1.00  0.00    -0.206 F 
ATOM    101  C   UNL A   1      51.991  26.057  25.240  1.00  0.00     0.060 A 
BRANCH 101 102
ATOM    102  S   UNL A   1      53.614  25.514  24.669  1.00  0.00     0.124 S 
ATOM    103  O   UNL A   1      54.490  26.494  25.303  1.00  0.00    -0.237 OA
ATOM    104  O   UNL A   1      53.695  24.155  25.196  1.00  0.00    -0.237 OA
ATOM    105  O   UNL A   1      53.513  25.611  23.216  1.00  0.00    -0.744 OA
ENDBRANCH 101 102
ENDBRANCH  69  94
ENDBRANCH  43  44
ENDBRANCH  35  38
ENDBRANCH  33  34
ENDBRANCH  32  33
ENDBRANCH  31  32
ENDBRANCH  29  31
ENDBRANCH   1  27
TORSDOF 22
ENDMDL
MODEL 2
REMARK VINA RESULT:     -10.8      5.766     12.441
REMARK SMILES CCCCCCNC(=O)Oc1cccc(-c2ccc([C@@H](C)C(=O)NCCCNC(=O)c3ccc(-c4c5nc(c(-c6c(F)cc(S(=O)(=O)[O-])cc6F)c6ccc([nH]6)c(-c6c(F)cc(S(=O)(=O)[O-])cc6F)c6nc(c(-c7c(F)cc(S(=O)(=O)[O-])cc7F)c7ccc4[nH]7)C=C6)C=C5)cc3)cc2F)c1
REMARK SMILES IDX 20 1 21 2 19 3 16 4 17 5 98 6 18 7 97 8 99 9 15 10 11 11
REMARK SMILES IDX 12 12 100 13 13 14 14 15 10 16 8 17 7 18 9 20 6 21 5 22 4 23
REMARK SMILES IDX 3 24 2 25 1 26 22 27 23 28 24 29 25 31 26 32 27 33 28 34
REMARK SMILES IDX 29 35 30 37 31 38 32 39 96 40 33 41 95 42 34 43 35 44 36 45
REMARK SMILES IDX 89 46 37 47 94 48 88 49 90 50 38 51 93 52 87 53 86 54 39 56
REMARK SMILES IDX 73 57 52 58 72 59 53 60 56 61 71 62 91 63 54 64 55 65 70 67
REMARK SMILES IDX 92 68 57 69 40 70 41 71 50 72 42 73 43 74 49 75 51 76 44 77
REMARK SMILES IDX 45 78 46 79 47 80 48 81 74 82 75 83 84 84 76 85 77 86 83 87
REMARK SMILES IDX 85 88 78 89 79 90 80 91 81 92 82 93 58 94 59 95 68 96 60 97
REMARK SMILES IDX 61 98 67 99 69 100 62 101 63 102 64 103 65 104 66 105
REMARK H PARENT 7 19 24 30 28 36 90 55 56 66
REMARK Flexibility Score: inf
ROOT
ATOM      1  C   UNL A   1      41.433  20.764  27.240  1.00  0.00     0.105 C 
ATOM      2  C   UNL A   1      41.111  19.488  28.013  1.00  0.00     0.023 C 
ENDROOT
BRANCH   1   3
ATOM      3  C   UNL A   1      40.252  21.441  26.564  1.00  0.00    -0.033 A 
ATOM      4  C   UNL A   1      37.864  22.581  25.472  1.00  0.00     0.018 A 
ATOM      5  C   UNL A   1      38.763  23.341  26.237  1.00  0.00     0.012 A 
ATOM      6  C   UNL A   1      38.230  21.251  25.217  1.00  0.00     0.131 A 
ATOM      7  C   UNL A   1      39.951  22.794  26.736  1.00  0.00     0.005 A 
ATOM      8  C   UNL A   1      39.383  20.683  25.766  1.00  0.00     0.044 A 
ATOM      9  F   UNL A   1      37.467  20.471  24.435  1.00  0.00    -0.206 F 
BRANCH   4  10
ATOM     10  C   UNL A   1      36.586  23.166  25.014  1.00  0.00    -0.012 A 
ATOM     11  C   UNL A   1      34.601  24.511  25.420  1.00  0.00     0.133 A 
ATOM     12  C   UNL A   1      34.201  24.389  24.094  1.00  0.00     0.047 A 
ATOM     13  C   UNL A   1      35.769  23.904  25.886  1.00  0.00     0.056 A 
ATOM     14  C   UNL A   1      34.992  23.659  23.215  1.00  0.00     0.004 A 
ATOM     15  C   UNL A   1      36.166  23.050  23.673  1.00  0.00     0.009 A 
BRANCH  11  16
ATOM     16  O   UNL A   1      33.723  25.173  26.290  1.00  0.00    -0.410 OA
BRANCH  16  17
ATOM     17  C   UNL A   1      33.002  26.251  25.800  1.00  0.00     0.412 C 
ATOM     18  N   UNL A   1      31.653  26.021  25.781  1.00  0.00    -0.321 N 
ATOM     19  H   UNL A   1      31.088  26.737  25.412  1.00  0.00     0.167 HD
ATOM     20  O   UNL A   1      33.464  27.316  25.413  1.00  0.00    -0.224 OA
BRANCH  18  21
ATOM     21  C   UNL A   1      30.974  24.831  26.251  1.00  0.00     0.119 C 
BRANCH  21  22
ATOM     22  C   UNL A   1      30.805  23.800  25.135  1.00  0.00     0.021 C 
BRANCH  22  23
ATOM     23  C   UNL A   1      30.836  22.341  25.605  1.00  0.00     0.002 C 
BRANCH  23  24
ATOM     24  C   UNL A   1      32.234  21.733  25.769  1.00  0.00    -0.000 C 
BRANCH  24  25
ATOM     25  C   UNL A   1      32.678  20.799  24.639  1.00  0.00    -0.003 C 
ATOM     26  C   UNL A   1      34.123  20.344  24.771  1.00  0.00     0.004 C 
ENDBRANCH  24  25
ENDBRANCH  23  24
ENDBRANCH  22  23
ENDBRANCH  21  22
ENDBRANCH  18  21
ENDBRANCH  16  17
ENDBRANCH  11  16
ENDBRANCH   4  10
ENDBRANCH   1   3
BRANCH   1  27
ATOM     27  C   UNL A   1      42.679  20.666  26.343  1.00  0.00     0.227 C 
ATOM     28  O   UNL A   1      43.027  19.566  25.895  1.00  0.00    -0.274 OA
ATOM     29  N   UNL A   1      43.443  21.732  25.981  1.00  0.00    -0.356 N 
ATOM     30  H   UNL A   1      44.176  21.507  25.364  1.00  0.00     0.163 HD
BRANCH  29  31
ATOM     31  C   UNL A   1      43.378  23.135  26.333  1.00  0.00     0.117 C 
BRANCH  31  32
ATOM     32  C   UNL A   1      44.573  23.581  27.169  1.00  0.00     0.042 C 
BRANCH  32  33
ATOM     33  C   UNL A   1      45.015  25.012  26.902  1.00  0.00     0.118 C 
BRANCH  33  34
ATOM     34  N   UNL A   1      44.332  25.586  25.752  1.00  0.00    -0.352 N 
ATOM     35  C   UNL A   1      43.267  26.447  25.680  1.00  0.00     0.251 C 
ATOM     36  H   UNL A   1      44.696  25.312  24.880  1.00  0.00     0.163 HD
ATOM     37  O   UNL A   1      42.712  26.601  24.593  1.00  0.00    -0.269 OA
BRANCH  35  38
ATOM     38  C   UNL A   1      42.779  27.184  26.870  1.00  0.00     0.039 A 
ATOM     39  C   UNL A   1      43.279  28.468  27.110  1.00  0.00     0.014 A 
ATOM     40  C   UNL A   1      41.905  26.604  27.793  1.00  0.00     0.014 A 
ATOM     41  C   UNL A   1      42.895  29.165  28.259  1.00  0.00     0.010 A 
ATOM     42  C   UNL A   1      41.444  27.337  28.883  1.00  0.00     0.010 A 
ATOM     43  C   UNL A   1      41.964  28.610  29.151  1.00  0.00    -0.014 A 
BRANCH  43  44
ATOM     44  C   UNL A   1      41.584  29.320  30.400  1.00  0.00     0.031 A 
ATOM     45  C   UNL A   1      42.410  29.141  31.650  1.00  0.00     0.074 A 
ATOM     46  C   UNL A   1      40.489  30.105  30.415  1.00  0.00     0.049 A 
ATOM     47  N   UNL A   1      42.241  29.669  32.835  1.00  0.00    -0.248 NA
ATOM     48  C   UNL A   1      43.562  28.228  31.565  1.00  0.00     0.031 C 
ATOM     49  C   UNL A   1      39.582  30.313  29.284  1.00  0.00     0.029 A 
ATOM     50  N   UNL A   1      39.956  30.877  31.414  1.00  0.00    -0.354 N 
ATOM     51  C   UNL A   1      43.250  29.142  33.634  1.00  0.00     0.074 A 
ATOM     52  C   UNL A   1      43.987  28.204  32.819  1.00  0.00     0.031 C 
ATOM     53  C   UNL A   1      38.625  31.183  29.644  1.00  0.00     0.029 A 
ATOM     54  C   UNL A   1      38.829  31.568  31.036  1.00  0.00     0.049 A 
ATOM     55  H   UNL A   1      40.343  30.931  32.319  1.00  0.00     0.167 HD
ATOM     56  C   UNL A   1      43.556  29.435  34.922  1.00  0.00     0.037 A 
ATOM     57  C   UNL A   1      38.052  32.419  31.732  1.00  0.00     0.037 A 
ATOM     58  C   UNL A   1      42.831  30.391  35.718  1.00  0.00     0.049 A 
ATOM     59  C   UNL A   1      38.424  32.747  33.154  1.00  0.00     0.074 A 
ATOM     60  C   UNL A   1      43.083  30.799  37.015  1.00  0.00     0.029 A 
ATOM     61  N   UNL A   1      41.713  31.093  35.288  1.00  0.00    -0.354 N 
ATOM     62  N   UNL A   1      39.417  32.284  33.876  1.00  0.00    -0.248 NA
ATOM     63  C   UNL A   1      37.582  33.729  33.849  1.00  0.00     0.031 C 
ATOM     64  C   UNL A   1      42.091  31.714  37.386  1.00  0.00     0.029 A 
ATOM     65  C   UNL A   1      41.257  31.922  36.299  1.00  0.00     0.049 A 
ATOM     66  H   UNL A   1      41.305  31.012  34.396  1.00  0.00     0.167 HD
ATOM     67  C   UNL A   1      39.341  32.946  35.097  1.00  0.00     0.074 A 
ATOM     68  C   UNL A   1      38.211  33.848  35.008  1.00  0.00     0.031 C 
ATOM     69  C   UNL A   1      40.136  32.822  36.190  1.00  0.00     0.037 A 
BRANCH  56  70
ATOM     70  C   UNL A   1      44.727  28.719  35.542  1.00  0.00     0.058 A 
ATOM     71  C   UNL A   1      44.572  27.503  36.229  1.00  0.00     0.135 A 
ATOM     72  C   UNL A   1      46.026  29.239  35.427  1.00  0.00     0.135 A 
ATOM     73  F   UNL A   1      43.352  26.965  36.386  1.00  0.00    -0.206 F 
ATOM     74  C   UNL A   1      45.655  26.847  36.806  1.00  0.00     0.059 A 
ATOM     75  C   UNL A   1      47.129  28.584  35.968  1.00  0.00     0.059 A 
ATOM     76  F   UNL A   1      46.237  30.398  34.782  1.00  0.00    -0.206 F 
ATOM     77  C   UNL A   1      46.931  27.396  36.670  1.00  0.00     0.060 A 
BRANCH  77  78
ATOM     78  S   UNL A   1      48.326  26.528  37.418  1.00  0.00     0.124 S 
ATOM     79  O   UNL A   1      47.962  25.134  37.182  1.00  0.00    -0.237 OA
ATOM     80  O   UNL A   1      49.457  27.026  36.642  1.00  0.00    -0.237 OA
ATOM     81  O   UNL A   1      48.287  26.958  38.812  1.00  0.00    -0.744 OA
ENDBRANCH  77  78
ENDBRANCH  56  70
BRANCH  57  82
ATOM     82  C   UNL A   1      36.873  33.053  31.082  1.00  0.00     0.058 A 
ATOM     83  C   UNL A   1      35.566  32.737  31.484  1.00  0.00     0.135 A 
ATOM     84  C   UNL A   1      37.028  33.996  30.054  1.00  0.00     0.135 A 
ATOM     85  F   UNL A   1      35.363  31.839  32.461  1.00  0.00    -0.206 F 
ATOM     86  C   UNL A   1      34.455  33.314  30.876  1.00  0.00     0.059 A 
ATOM     87  C   UNL A   1      35.933  34.608  29.452  1.00  0.00     0.059 A 
ATOM     88  F   UNL A   1      38.256  34.349  29.644  1.00  0.00    -0.206 F 
ATOM     89  C   UNL A   1      34.651  34.252  29.862  1.00  0.00     0.060 A 
BRANCH  89  90
ATOM     90  S   UNL A   1      33.203  35.026  29.109  1.00  0.00     0.124 S 
ATOM     91  O   UNL A   1      32.846  34.051  28.085  1.00  0.00    -0.237 OA
ATOM     92  O   UNL A   1      32.288  35.131  30.240  1.00  0.00    -0.237 OA
ATOM     93  O   UNL A   1      33.723  36.298  28.614  1.00  0.00    -0.744 OA
ENDBRANCH  89  90
ENDBRANCH  57  82
BRANCH  69  94
ATOM     94  C   UNL A   1      39.846  33.727  37.356  1.00  0.00     0.058 A 
ATOM     95  C   UNL A   1      38.942  33.373  38.371  1.00  0.00     0.135 A 
ATOM     96  C   UNL A   1      40.498  34.966  37.465  1.00  0.00     0.135 A 
ATOM     97  F   UNL A   1      38.290  32.200  38.316  1.00  0.00    -0.206 F 
ATOM     98  C   UNL A   1      38.659  34.235  39.425  1.00  0.00     0.059 A 
ATOM     99  C   UNL A   1      40.258  35.829  38.529  1.00  0.00     0.059 A 
ATOM    100  F   UNL A   1      41.385  35.348  36.533  1.00  0.00    -0.206 F 
ATOM    101  C   UNL A   1      39.318  35.464  39.492  1.00  0.00     0.060 A 
BRANCH 101 102
ATOM    102  S   UNL A   1      38.937  36.579  40.859  1.00  0.00     0.124 S 
ATOM    103  O   UNL A   1      38.452  37.757  40.149  1.00  0.00    -0.237 OA
ATOM    104  O   UNL A   1      37.930  35.828  41.605  1.00  0.00    -0.237 OA
ATOM    105  O   UNL A   1      40.220  36.737  41.536  1.00  0.00    -0.744 OA
ENDBRANCH 101 102
ENDBRANCH  69  94
ENDBRANCH  43  44
ENDBRANCH  35  38
ENDBRANCH  33  34
ENDBRANCH  32  33
ENDBRANCH  31  32
ENDBRANCH  29  31
ENDBRANCH   1  27
TORSDOF 22
ENDMDL
MODEL 3
REMARK VINA RESULT:     -10.6      4.382      7.603
REMARK SMILES CCCCCCNC(=O)Oc1cccc(-c2ccc([C@@H](C)C(=O)NCCCNC(=O)c3ccc(-c4c5nc(c(-c6c(F)cc(S(=O)(=O)[O-])cc6F)c6ccc([nH]6)c(-c6c(F)cc(S(=O)(=O)[O-])cc6F)c6nc(c(-c7c(F)cc(S(=O)(=O)[O-])cc7F)c7ccc4[nH]7)C=C6)C=C5)cc3)cc2F)c1
REMARK SMILES IDX 20 1 21 2 19 3 16 4 17 5 98 6 18 7 97 8 99 9 15 10 11 11
REMARK SMILES IDX 12 12 100 13 13 14 14 15 10 16 8 17 7 18 9 20 6 21 5 22 4 23
REMARK SMILES IDX 3 24 2 25 1 26 22 27 23 28 24 29 25 31 26 32 27 33 28 34
REMARK SMILES IDX 29 35 30 37 31 38 32 39 96 40 33 41 95 42 34 43 35 44 36 45
REMARK SMILES IDX 89 46 37 47 94 48 88 49 90 50 38 51 93 52 87 53 86 54 39 56
REMARK SMILES IDX 73 57 52 58 72 59 53 60 56 61 71 62 91 63 54 64 55 65 70 67
REMARK SMILES IDX 92 68 57 69 40 70 41 71 50 72 42 73 43 74 49 75 51 76 44 77
REMARK SMILES IDX 45 78 46 79 47 80 48 81 74 82 75 83 84 84 76 85 77 86 83 87
REMARK SMILES IDX 85 88 78 89 79 90 80 91 81 92 82 93 58 94 59 95 68 96 60 97
REMARK SMILES IDX 61 98 67 99 69 100 62 101 63 102 64 103 65 104 66 105
REMARK H PARENT 7 19 24 30 28 36 90 55 56 66
REMARK Flexibility Score: inf
ROOT
ATOM      1  C   UNL A   1      40.275  33.225  33.519  1.00  0.00     0.105 C 
ATOM      2  C   UNL A   1      41.150  32.210  34.250  1.00  0.00     0.023 C 
ENDROOT
BRANCH   1   3
ATOM      3  C   UNL A   1      40.872  33.823  32.257  1.00  0.00    -0.033 A 
ATOM      4  C   UNL A   1      41.811  35.159  29.906  1.00  0.00     0.018 A 
ATOM      5  C   UNL A   1      42.562  35.134  31.091  1.00  0.00     0.012 A 
ATOM      6  C   UNL A   1      40.606  34.441  29.914  1.00  0.00     0.131 A 
ATOM      7  C   UNL A   1      42.121  34.446  32.228  1.00  0.00     0.005 A 
ATOM      8  C   UNL A   1      40.132  33.806  31.065  1.00  0.00     0.044 A 
ATOM      9  F   UNL A   1      39.858  34.350  28.803  1.00  0.00    -0.206 F 
BRANCH   4  10
ATOM     10  C   UNL A   1      42.269  35.948  28.743  1.00  0.00    -0.012 A 
ATOM     11  C   UNL A   1      42.704  38.086  27.666  1.00  0.00     0.133 A 
ATOM     12  C   UNL A   1      43.266  37.457  26.561  1.00  0.00     0.047 A 
ATOM     13  C   UNL A   1      42.200  37.351  28.741  1.00  0.00     0.056 A 
ATOM     14  C   UNL A   1      43.340  36.069  26.538  1.00  0.00     0.004 A 
ATOM     15  C   UNL A   1      42.840  35.326  27.614  1.00  0.00     0.009 A 
BRANCH  11  16
ATOM     16  O   UNL A   1      42.562  39.479  27.601  1.00  0.00    -0.410 OA
BRANCH  16  17
ATOM     17  C   UNL A   1      41.949  40.025  26.483  1.00  0.00     0.412 C 
ATOM     18  N   UNL A   1      42.779  40.853  25.776  1.00  0.00    -0.321 N 
ATOM     19  H   UNL A   1      42.392  41.298  24.989  1.00  0.00     0.167 HD
ATOM     20  O   UNL A   1      40.799  39.824  26.117  1.00  0.00    -0.224 OA
BRANCH  18  21
ATOM     21  C   UNL A   1      44.168  41.138  26.069  1.00  0.00     0.119 C 
BRANCH  21  22
ATOM     22  C   UNL A   1      44.850  41.869  24.913  1.00  0.00     0.021 C 
BRANCH  22  23
ATOM     23  C   UNL A   1      44.204  43.207  24.535  1.00  0.00     0.002 C 
BRANCH  23  24
ATOM     24  C   UNL A   1      44.839  44.447  25.174  1.00  0.00    -0.000 C 
BRANCH  24  25
ATOM     25  C   UNL A   1      46.089  44.980  24.466  1.00  0.00    -0.003 C 
ATOM     26  C   UNL A   1      45.990  44.922  22.950  1.00  0.00     0.004 C 
ENDBRANCH  24  25
ENDBRANCH  23  24
ENDBRANCH  22  23
ENDBRANCH  21  22
ENDBRANCH  18  21
ENDBRANCH  16  17
ENDBRANCH  11  16
ENDBRANCH   4  10
ENDBRANCH   1   3
BRANCH   1  27
ATOM     27  C   UNL A   1      39.610  34.266  34.435  1.00  0.00     0.227 C 
ATOM     28  O   UNL A   1      40.313  34.986  35.156  1.00  0.00    -0.274 OA
ATOM     29  N   UNL A   1      38.267  34.473  34.506  1.00  0.00    -0.356 N 
ATOM     30  H   UNL A   1      38.006  35.209  35.105  1.00  0.00     0.163 HD
BRANCH  29  31
ATOM     31  C   UNL A   1      37.150  33.812  33.863  1.00  0.00     0.117 C 
BRANCH  31  32
ATOM     32  C   UNL A   1      36.920  34.311  32.440  1.00  0.00     0.042 C 
BRANCH  32  33
ATOM     33  C   UNL A   1      37.007  33.221  31.381  1.00  0.00     0.118 C 
BRANCH  33  34
ATOM     34  N   UNL A   1      36.474  31.954  31.860  1.00  0.00    -0.352 N 
ATOM     35  C   UNL A   1      36.897  30.668  31.649  1.00  0.00     0.251 C 
ATOM     36  H   UNL A   1      35.676  32.035  32.431  1.00  0.00     0.163 HD
ATOM     37  O   UNL A   1      36.144  29.746  31.958  1.00  0.00    -0.269 OA
BRANCH  35  38
ATOM     38  C   UNL A   1      38.227  30.371  31.065  1.00  0.00     0.039 A 
ATOM     39  C   UNL A   1      38.361  30.380  29.672  1.00  0.00     0.014 A 
ATOM     40  C   UNL A   1      39.318  30.004  31.858  1.00  0.00     0.014 A 
ATOM     41  C   UNL A   1      39.581  30.036  29.085  1.00  0.00     0.010 A 
ATOM     42  C   UNL A   1      40.560  29.762  31.277  1.00  0.00     0.010 A 
ATOM     43  C   UNL A   1      40.697  29.734  29.883  1.00  0.00    -0.014 A 
BRANCH  43  44
ATOM     44  C   UNL A   1      41.986  29.322  29.271  1.00  0.00     0.031 A 
ATOM     45  C   UNL A   1      43.113  30.317  29.143  1.00  0.00     0.074 A 
ATOM     46  C   UNL A   1      42.135  28.064  28.811  1.00  0.00     0.049 A 
ATOM     47  N   UNL A   1      44.308  30.152  28.637  1.00  0.00    -0.248 NA
ATOM     48  C   UNL A   1      42.855  31.684  29.624  1.00  0.00     0.031 C 
ATOM     49  C   UNL A   1      41.099  27.029  28.829  1.00  0.00     0.029 A 
ATOM     50  N   UNL A   1      43.216  27.441  28.243  1.00  0.00    -0.354 N 
ATOM     51  C   UNL A   1      44.933  31.392  28.725  1.00  0.00     0.074 A 
ATOM     52  C   UNL A   1      43.964  32.315  29.272  1.00  0.00     0.031 C 
ATOM     53  C   UNL A   1      41.607  25.891  28.328  1.00  0.00     0.029 A 
ATOM     54  C   UNL A   1      42.989  26.123  27.923  1.00  0.00     0.049 A 
ATOM     55  H   UNL A   1      44.076  27.895  28.079  1.00  0.00     0.167 HD
ATOM     56  C   UNL A   1      46.208  31.726  28.408  1.00  0.00     0.037 A 
ATOM     57  C   UNL A   1      43.805  25.205  27.371  1.00  0.00     0.037 A 
ATOM     58  C   UNL A   1      47.173  30.794  27.889  1.00  0.00     0.049 A 
ATOM     59  C   UNL A   1      45.224  25.594  27.048  1.00  0.00     0.074 A 
ATOM     60  C   UNL A   1      48.503  31.014  27.578  1.00  0.00     0.029 A 
ATOM     61  N   UNL A   1      46.912  29.460  27.606  1.00  0.00    -0.354 N 
ATOM     62  N   UNL A   1      45.815  26.756  27.192  1.00  0.00    -0.248 NA
ATOM     63  C   UNL A   1      46.091  24.540  26.506  1.00  0.00     0.031 C 
ATOM     64  C   UNL A   1      49.035  29.825  27.066  1.00  0.00     0.029 A 
ATOM     65  C   UNL A   1      48.053  28.848  27.115  1.00  0.00     0.049 A 
ATOM     66  H   UNL A   1      46.044  29.015  27.736  1.00  0.00     0.167 HD
ATOM     67  C   UNL A   1      47.134  26.563  26.794  1.00  0.00     0.074 A 
ATOM     68  C   UNL A   1      47.252  25.170  26.415  1.00  0.00     0.031 C 
ATOM     69  C   UNL A   1      48.155  27.456  26.751  1.00  0.00     0.037 A 
BRANCH  56  70
ATOM     70  C   UNL A   1      46.629  33.157  28.623  1.00  0.00     0.058 A 
ATOM     71  C   UNL A   1      46.439  34.141  27.638  1.00  0.00     0.135 A 
ATOM     72  C   UNL A   1      47.205  33.558  29.840  1.00  0.00     0.135 A 
ATOM     73  F   UNL A   1      45.909  33.814  26.448  1.00  0.00    -0.206 F 
ATOM     74  C   UNL A   1      46.835  35.459  27.837  1.00  0.00     0.059 A 
ATOM     75  C   UNL A   1      47.579  34.878  30.074  1.00  0.00     0.059 A 
ATOM     76  F   UNL A   1      47.411  32.663  30.819  1.00  0.00    -0.206 F 
ATOM     77  C   UNL A   1      47.404  35.819  29.060  1.00  0.00     0.060 A 
BRANCH  77  78
ATOM     78  S   UNL A   1      47.905  37.536  29.305  1.00  0.00     0.124 S 
ATOM     79  O   UNL A   1      47.173  38.208  28.235  1.00  0.00    -0.237 OA
ATOM     80  O   UNL A   1      47.435  37.808  30.660  1.00  0.00    -0.237 OA
ATOM     81  O   UNL A   1      49.354  37.496  29.143  1.00  0.00    -0.744 OA
ENDBRANCH  77  78
ENDBRANCH  56  70
BRANCH  57  82
ATOM     82  C   UNL A   1      43.314  23.822  27.129  1.00  0.00     0.058 A 
ATOM     83  C   UNL A   1      42.834  23.432  25.869  1.00  0.00     0.135 A 
ATOM     84  C   UNL A   1      43.326  22.857  28.148  1.00  0.00     0.135 A 
ATOM     85  F   UNL A   1      42.799  24.319  24.862  1.00  0.00    -0.206 F 
ATOM     86  C   UNL A   1      42.362  22.145  25.633  1.00  0.00     0.059 A 
ATOM     87  C   UNL A   1      42.886  21.555  27.928  1.00  0.00     0.059 A 
ATOM     88  F   UNL A   1      43.792  23.171  29.366  1.00  0.00    -0.206 F 
ATOM     89  C   UNL A   1      42.395  21.212  26.671  1.00  0.00     0.060 A 
BRANCH  89  90
ATOM     90  S   UNL A   1      41.819  19.532  26.342  1.00  0.00     0.124 S 
ATOM     91  O   UNL A   1      42.537  19.209  25.114  1.00  0.00    -0.237 OA
ATOM     92  O   UNL A   1      42.251  18.821  27.541  1.00  0.00    -0.237 OA
ATOM     93  O   UNL A   1      40.374  19.693  26.205  1.00  0.00    -0.744 OA
ENDBRANCH  89  90
ENDBRANCH  57  82
BRANCH  69  94
ATOM     94  C   UNL A   1      49.504  26.937  26.334  1.00  0.00     0.058 A 
ATOM     95  C   UNL A   1      50.435  26.444  27.262  1.00  0.00     0.135 A 
ATOM     96  C   UNL A   1      49.862  26.919  24.975  1.00  0.00     0.135 A 
ATOM     97  F   UNL A   1      50.145  26.439  28.573  1.00  0.00    -0.206 F 
ATOM     98  C   UNL A   1      51.691  25.998  26.864  1.00  0.00     0.059 A 
ATOM     99  C   UNL A   1      51.099  26.445  24.551  1.00  0.00     0.059 A 
ATOM    100  F   UNL A   1      49.004  27.361  24.043  1.00  0.00    -0.206 F 
ATOM    101  C   UNL A   1      52.016  26.008  25.506  1.00  0.00     0.060 A 
BRANCH 101 102
ATOM    102  S   UNL A   1      53.652  25.437  25.002  1.00  0.00     0.124 S 
ATOM    103  O   UNL A   1      54.445  25.736  26.188  1.00  0.00    -0.237 OA
ATOM    104  O   UNL A   1      53.420  24.020  24.733  1.00  0.00    -0.237 OA
ATOM    105  O   UNL A   1      53.949  26.250  23.827  1.00  0.00    -0.744 OA
ENDBRANCH 101 102
ENDBRANCH  69  94
ENDBRANCH  43  44
ENDBRANCH  35  38
ENDBRANCH  33  34
ENDBRANCH  32  33
ENDBRANCH  31  32
ENDBRANCH  29  31
ENDBRANCH   1  27
TORSDOF 22
ENDMDL
