MODEL 1
REMARK VINA RESULT:      -9.7      0.000      0.000
REMARK SMILES COc1ccc(OCc2nc(N)cc(SCC(=O)NCCCNC(=O)c3ccc(-c4c5nc(c(-c6c(F)cc(S(=O)(=O)[O-])cc6F)c6ccc([nH]6)c(-c6c(F)cc(S(=O)(=O)[O-])cc6F)c6nc(c(-c7c(F)cc(S(=O)(=O)[O-])cc7F)c7ccc4[nH]7)C=C6)C=C5)cc3)n2)cc1
REMARK SMILES IDX 17 1 18 2 19 3 16 5 15 6 14 7 9 8 10 9 92 10 11 11 13 12
REMARK SMILES IDX 8 13 7 14 6 15 3 16 4 17 94 18 5 19 93 20 2 21 1 22 12 23
REMARK SMILES IDX 20 26 21 27 22 28 23 29 24 30 25 32 26 33 27 34 91 35 28 36
REMARK SMILES IDX 90 37 29 38 30 39 31 40 84 41 32 42 89 43 83 44 85 45 33 46
REMARK SMILES IDX 88 47 82 48 81 49 34 51 68 52 47 53 67 54 48 55 51 56 66 57
REMARK SMILES IDX 86 58 49 59 50 60 65 62 87 63 52 64 35 65 36 66 45 67 37 68
REMARK SMILES IDX 38 69 44 70 46 71 39 72 40 73 41 74 42 75 43 76 69 77 70 78
REMARK SMILES IDX 79 79 71 80 72 81 78 82 80 83 73 84 74 85 75 86 76 87 77 88
REMARK SMILES IDX 53 89 54 90 63 91 55 92 56 93 62 94 64 95 57 96 58 97 59 98
REMARK SMILES IDX 60 99 61 100
REMARK H PARENT 19 4 12 24 12 25 23 31 85 50 51 61
REMARK Flexibility Score: inf
ROOT
ATOM      1  C   UNL A   1      43.802  21.269  25.575  1.00  0.00     0.230 C 
ATOM      2  O   UNL A   1      44.323  20.731  24.593  1.00  0.00    -0.274 OA
ATOM      3  N   UNL A   1      42.843  20.576  26.248  1.00  0.00    -0.355 N 
ATOM      4  H   UNL A   1      42.656  19.675  25.902  1.00  0.00     0.163 HD
ENDROOT
BRANCH   1   5
ATOM      5  C   UNL A   1      44.273  22.627  26.054  1.00  0.00     0.176 C 
BRANCH   5   6
ATOM      6  S   UNL A   1      44.294  23.901  24.764  1.00  0.00    -0.096 SA
BRANCH   6   7
ATOM      7  C   UNL A   1      44.774  25.398  25.595  1.00  0.00     0.102 A 
ATOM      8  C   UNL A   1      45.160  26.330  27.663  1.00  0.00     0.169 A 
ATOM      9  N   UNL A   1      45.530  27.510  27.139  1.00  0.00    -0.213 NA
ATOM     10  N   UNL A   1      44.741  25.279  26.934  1.00  0.00    -0.223 NA
ATOM     11  C   UNL A   1      45.539  27.603  25.807  1.00  0.00     0.128 A 
ATOM     12  C   UNL A   1      45.205  26.551  24.985  1.00  0.00     0.082 A 
BRANCH   8  13
ATOM     13  C   UNL A   1      45.327  26.109  29.155  1.00  0.00     0.306 C 
BRANCH  13  14
ATOM     14  O   UNL A   1      45.214  24.740  29.580  1.00  0.00    -0.486 OA
BRANCH  14  15
ATOM     15  C   UNL A   1      44.946  24.484  30.896  1.00  0.00     0.120 A 
ATOM     16  C   UNL A   1      44.693  24.067  33.662  1.00  0.00     0.119 A 
ATOM     17  C   UNL A   1      45.546  25.055  33.176  1.00  0.00     0.050 A 
ATOM     18  C   UNL A   1      43.920  23.328  32.766  1.00  0.00     0.050 A 
ATOM     19  C   UNL A   1      45.679  25.256  31.799  1.00  0.00     0.050 A 
ATOM     20  C   UNL A   1      44.038  23.547  31.387  1.00  0.00     0.050 A 
BRANCH  16  21
ATOM     21  O   UNL A   1      44.650  23.933  35.023  1.00  0.00    -0.497 OA
ATOM     22  C   UNL A   1      43.347  23.734  35.559  1.00  0.00     0.278 C 
ENDBRANCH  16  21
ENDBRANCH  14  15
ENDBRANCH  13  14
ENDBRANCH   8  13
BRANCH  11  23
ATOM     23  N   UNL A   1      45.986  28.799  25.276  1.00  0.00    -0.384 N 
ATOM     24  H   UNL A   1      46.360  28.823  24.366  1.00  0.00     0.158 HD
ATOM     25  H   UNL A   1      45.928  29.625  25.808  1.00  0.00     0.158 HD
ENDBRANCH  11  23
ENDBRANCH   6   7
ENDBRANCH   5   6
ENDBRANCH   1   5
BRANCH   3  26
ATOM     26  C   UNL A   1      42.053  20.972  27.402  1.00  0.00     0.117 C 
BRANCH  26  27
ATOM     27  C   UNL A   1      40.706  21.569  27.002  1.00  0.00     0.042 C 
BRANCH  27  28
ATOM     28  C   UNL A   1      40.545  23.054  27.322  1.00  0.00     0.118 C 
BRANCH  28  29
ATOM     29  N   UNL A   1      40.880  23.916  26.199  1.00  0.00    -0.352 N 
ATOM     30  C   UNL A   1      40.954  25.283  26.113  1.00  0.00     0.251 C 
ATOM     31  H   UNL A   1      41.086  23.440  25.363  1.00  0.00     0.163 HD
ATOM     32  O   UNL A   1      41.103  25.794  25.002  1.00  0.00    -0.269 OA
BRANCH  30  33
ATOM     33  C   UNL A   1      40.846  26.147  27.311  1.00  0.00     0.039 A 
ATOM     34  C   UNL A   1      41.729  27.225  27.433  1.00  0.00     0.014 A 
ATOM     35  C   UNL A   1      39.937  25.881  28.340  1.00  0.00     0.014 A 
ATOM     36  C   UNL A   1      41.669  28.057  28.554  1.00  0.00     0.010 A 
ATOM     37  C   UNL A   1      39.829  26.755  29.424  1.00  0.00     0.010 A 
ATOM     38  C   UNL A   1      40.701  27.845  29.549  1.00  0.00    -0.014 A 
BRANCH  38  39
ATOM     39  C   UNL A   1      40.597  28.768  30.709  1.00  0.00     0.031 A 
ATOM     40  C   UNL A   1      39.546  29.845  30.748  1.00  0.00     0.074 A 
ATOM     41  C   UNL A   1      41.484  28.665  31.719  1.00  0.00     0.049 A 
ATOM     42  N   UNL A   1      39.293  30.717  31.692  1.00  0.00    -0.248 NA
ATOM     43  C   UNL A   1      38.687  29.979  29.564  1.00  0.00     0.031 C 
ATOM     44  C   UNL A   1      42.600  27.717  31.765  1.00  0.00     0.029 A 
ATOM     45  N   UNL A   1      41.592  29.364  32.894  1.00  0.00    -0.354 N 
ATOM     46  C   UNL A   1      38.258  31.511  31.211  1.00  0.00     0.074 A 
ATOM     47  C   UNL A   1      37.967  31.048  29.870  1.00  0.00     0.031 C 
ATOM     48  C   UNL A   1      43.265  27.878  32.919  1.00  0.00     0.029 A 
ATOM     49  C   UNL A   1      42.638  28.952  33.686  1.00  0.00     0.049 A 
ATOM     50  H   UNL A   1      40.980  30.091  33.147  1.00  0.00     0.167 HD
ATOM     51  C   UNL A   1      37.596  32.516  31.834  1.00  0.00     0.037 A 
ATOM     52  C   UNL A   1      43.045  29.381  34.897  1.00  0.00     0.037 A 
ATOM     53  C   UNL A   1      37.876  32.958  33.175  1.00  0.00     0.049 A 
ATOM     54  C   UNL A   1      42.264  30.456  35.597  1.00  0.00     0.074 A 
ATOM     55  C   UNL A   1      37.212  33.913  33.926  1.00  0.00     0.029 A 
ATOM     56  N   UNL A   1      38.913  32.482  33.967  1.00  0.00    -0.354 N 
ATOM     57  N   UNL A   1      41.223  31.127  35.168  1.00  0.00    -0.248 NA
ATOM     58  C   UNL A   1      42.698  30.817  36.954  1.00  0.00     0.031 C 
ATOM     59  C   UNL A   1      37.870  34.041  35.155  1.00  0.00     0.029 A 
ATOM     60  C   UNL A   1      38.919  33.136  35.188  1.00  0.00     0.049 A 
ATOM     61  H   UNL A   1      39.551  31.782  33.698  1.00  0.00     0.167 HD
ATOM     62  C   UNL A   1      40.864  31.978  36.208  1.00  0.00     0.074 A 
ATOM     63  C   UNL A   1      41.793  31.727  37.290  1.00  0.00     0.031 C 
ATOM     64  C   UNL A   1      39.853  32.882  36.259  1.00  0.00     0.037 A 
BRANCH  51  65
ATOM     65  C   UNL A   1      36.506  33.207  31.058  1.00  0.00     0.058 A 
ATOM     66  C   UNL A   1      36.795  34.070  29.988  1.00  0.00     0.135 A 
ATOM     67  C   UNL A   1      35.157  33.012  31.394  1.00  0.00     0.135 A 
ATOM     68  F   UNL A   1      38.068  34.300  29.629  1.00  0.00    -0.206 F 
ATOM     69  C   UNL A   1      35.790  34.759  29.316  1.00  0.00     0.059 A 
ATOM     70  C   UNL A   1      34.133  33.669  30.716  1.00  0.00     0.059 A 
ATOM     71  F   UNL A   1      34.822  32.193  32.402  1.00  0.00    -0.206 F 
ATOM     72  C   UNL A   1      34.463  34.560  29.696  1.00  0.00     0.060 A 
BRANCH  72  73
ATOM     73  S   UNL A   1      33.170  35.494  28.848  1.00  0.00     0.124 S 
ATOM     74  O   UNL A   1      32.435  36.059  29.976  1.00  0.00    -0.237 OA
ATOM     75  O   UNL A   1      33.939  36.450  28.055  1.00  0.00    -0.237 OA
ATOM     76  O   UNL A   1      32.461  34.477  28.082  1.00  0.00    -0.744 OA
ENDBRANCH  72  73
ENDBRANCH  51  65
BRANCH  52  77
ATOM     77  C   UNL A   1      44.226  28.738  35.529  1.00  0.00     0.058 A 
ATOM     78  C   UNL A   1      44.080  27.613  36.351  1.00  0.00     0.135 A 
ATOM     79  C   UNL A   1      45.526  29.186  35.253  1.00  0.00     0.135 A 
ATOM     80  F   UNL A   1      42.855  27.151  36.647  1.00  0.00    -0.206 F 
ATOM     81  C   UNL A   1      45.184  26.944  36.871  1.00  0.00     0.059 A 
ATOM     82  C   UNL A   1      46.646  28.523  35.744  1.00  0.00     0.059 A 
ATOM     83  F   UNL A   1      45.716  30.250  34.456  1.00  0.00    -0.206 F 
ATOM     84  C   UNL A   1      46.464  27.401  36.551  1.00  0.00     0.060 A 
BRANCH  84  85
ATOM     85  S   UNL A   1      47.890  26.460  37.138  1.00  0.00     0.124 S 
ATOM     86  O   UNL A   1      47.800  25.251  36.328  1.00  0.00    -0.237 OA
ATOM     87  O   UNL A   1      48.999  27.356  36.828  1.00  0.00    -0.237 OA
ATOM     88  O   UNL A   1      47.614  26.288  38.561  1.00  0.00    -0.744 OA
ENDBRANCH  84  85
ENDBRANCH  52  77
BRANCH  64  89
ATOM     89  C   UNL A   1      39.682  33.655  37.537  1.00  0.00     0.058 A 
ATOM     90  C   UNL A   1      40.394  34.838  37.784  1.00  0.00     0.135 A 
ATOM     91  C   UNL A   1      38.758  33.231  38.505  1.00  0.00     0.135 A 
ATOM     92  F   UNL A   1      41.294  35.284  36.893  1.00  0.00    -0.206 F 
ATOM     93  C   UNL A   1      40.216  35.562  38.960  1.00  0.00     0.059 A 
ATOM     94  C   UNL A   1      38.545  33.952  39.676  1.00  0.00     0.059 A 
ATOM     95  F   UNL A   1      38.043  32.111  38.313  1.00  0.00    -0.206 F 
ATOM     96  C   UNL A   1      39.288  35.109  39.900  1.00  0.00     0.060 A 
BRANCH  96  97
ATOM     97  S   UNL A   1      39.043  36.071  41.409  1.00  0.00     0.124 S 
ATOM     98  O   UNL A   1      37.820  35.479  41.939  1.00  0.00    -0.237 OA
ATOM     99  O   UNL A   1      40.261  35.792  42.162  1.00  0.00    -0.237 OA
ATOM    100  O   UNL A   1      38.918  37.441  40.920  1.00  0.00    -0.744 OA
ENDBRANCH  96  97
ENDBRANCH  64  89
ENDBRANCH  38  39
ENDBRANCH  30  33
ENDBRANCH  28  29
ENDBRANCH  27  28
ENDBRANCH  26  27
ENDBRANCH   3  26
TORSDOF 20
ENDMDL
MODEL 2
REMARK VINA RESULT:      -9.1      4.731     10.601
REMARK SMILES COc1ccc(OCc2nc(N)cc(SCC(=O)NCCCNC(=O)c3ccc(-c4c5nc(c(-c6c(F)cc(S(=O)(=O)[O-])cc6F)c6ccc([nH]6)c(-c6c(F)cc(S(=O)(=O)[O-])cc6F)c6nc(c(-c7c(F)cc(S(=O)(=O)[O-])cc7F)c7ccc4[nH]7)C=C6)C=C5)cc3)n2)cc1
REMARK SMILES IDX 17 1 18 2 19 3 16 5 15 6 14 7 9 8 10 9 92 10 11 11 13 12
REMARK SMILES IDX 8 13 7 14 6 15 3 16 4 17 94 18 5 19 93 20 2 21 1 22 12 23
REMARK SMILES IDX 20 26 21 27 22 28 23 29 24 30 25 32 26 33 27 34 91 35 28 36
REMARK SMILES IDX 90 37 29 38 30 39 31 40 84 41 32 42 89 43 83 44 85 45 33 46
REMARK SMILES IDX 88 47 82 48 81 49 34 51 68 52 47 53 67 54 48 55 51 56 66 57
REMARK SMILES IDX 86 58 49 59 50 60 65 62 87 63 52 64 35 65 36 66 45 67 37 68
REMARK SMILES IDX 38 69 44 70 46 71 39 72 40 73 41 74 42 75 43 76 69 77 70 78
REMARK SMILES IDX 79 79 71 80 72 81 78 82 80 83 73 84 74 85 75 86 76 87 77 88
REMARK SMILES IDX 53 89 54 90 63 91 55 92 56 93 62 94 64 95 57 96 58 97 59 98
REMARK SMILES IDX 60 99 61 100
REMARK H PARENT 19 4 12 24 12 25 23 31 85 50 51 61
REMARK Flexibility Score: inf
ROOT
ATOM      1  C   UNL A   1      50.464  22.204  35.773  1.00  0.00     0.230 C 
ATOM      2  O   UNL A   1      51.680  22.417  35.780  1.00  0.00    -0.274 OA
ATOM      3  N   UNL A   1      49.636  23.242  35.476  1.00  0.00    -0.355 N 
ATOM      4  H   UNL A   1      50.086  24.090  35.265  1.00  0.00     0.163 HD
ENDROOT
BRANCH   1   5
ATOM      5  C   UNL A   1      49.922  20.810  36.016  1.00  0.00     0.176 C 
BRANCH   5   6
ATOM      6  S   UNL A   1      49.215  20.566  37.668  1.00  0.00    -0.096 SA
BRANCH   6   7
ATOM      7  C   UNL A   1      47.658  19.752  37.394  1.00  0.00     0.102 A 
ATOM      8  C   UNL A   1      46.032  18.473  38.398  1.00  0.00     0.169 A 
ATOM      9  N   UNL A   1      45.263  18.460  37.296  1.00  0.00    -0.213 NA
ATOM     10  N   UNL A   1      47.238  19.065  38.470  1.00  0.00    -0.223 NA
ATOM     11  C   UNL A   1      45.714  19.140  36.239  1.00  0.00     0.128 A 
ATOM     12  C   UNL A   1      46.898  19.842  36.253  1.00  0.00     0.082 A 
BRANCH   8  13
ATOM     13  C   UNL A   1      45.473  17.891  39.684  1.00  0.00     0.306 C 
BRANCH  13  14
ATOM     14  O   UNL A   1      44.231  17.180  39.536  1.00  0.00    -0.486 OA
BRANCH  14  15
ATOM     15  C   UNL A   1      43.685  16.583  40.638  1.00  0.00     0.120 A 
ATOM     16  C   UNL A   1      42.282  15.354  42.738  1.00  0.00     0.119 A 
ATOM     17  C   UNL A   1      41.870  15.176  41.420  1.00  0.00     0.050 A 
ATOM     18  C   UNL A   1      43.433  16.098  43.001  1.00  0.00     0.050 A 
ATOM     19  C   UNL A   1      42.562  15.795  40.376  1.00  0.00     0.050 A 
ATOM     20  C   UNL A   1      44.139  16.700  41.951  1.00  0.00     0.050 A 
BRANCH  16  21
ATOM     21  O   UNL A   1      41.526  14.726  43.689  1.00  0.00    -0.497 OA
ATOM     22  C   UNL A   1      42.073  13.501  44.168  1.00  0.00     0.278 C 
ENDBRANCH  16  21
ENDBRANCH  14  15
ENDBRANCH  13  14
ENDBRANCH   8  13
BRANCH  11  23
ATOM     23  N   UNL A   1      44.885  19.177  35.133  1.00  0.00    -0.384 N 
ATOM     24  H   UNL A   1      45.153  18.723  34.301  1.00  0.00     0.158 HD
ATOM     25  H   UNL A   1      44.027  19.657  35.177  1.00  0.00     0.158 HD
ENDBRANCH  11  23
ENDBRANCH   6   7
ENDBRANCH   5   6
ENDBRANCH   1   5
BRANCH   3  26
ATOM     26  C   UNL A   1      48.184  23.283  35.427  1.00  0.00     0.117 C 
BRANCH  26  27
ATOM     27  C   UNL A   1      47.642  24.705  35.544  1.00  0.00     0.042 C 
BRANCH  27  28
ATOM     28  C   UNL A   1      48.485  25.643  36.406  1.00  0.00     0.118 C 
BRANCH  28  29
ATOM     29  N   UNL A   1      48.020  25.717  37.783  1.00  0.00    -0.352 N 
ATOM     30  C   UNL A   1      46.980  26.419  38.338  1.00  0.00     0.251 C 
ATOM     31  H   UNL A   1      48.537  25.176  38.421  1.00  0.00     0.163 HD
ATOM     32  O   UNL A   1      46.881  26.449  39.565  1.00  0.00    -0.269 OA
BRANCH  30  33
ATOM     33  C   UNL A   1      45.995  27.145  37.503  1.00  0.00     0.039 A 
ATOM     34  C   UNL A   1      44.672  26.691  37.494  1.00  0.00     0.014 A 
ATOM     35  C   UNL A   1      46.362  28.220  36.687  1.00  0.00     0.014 A 
ATOM     36  C   UNL A   1      43.714  27.339  36.710  1.00  0.00     0.010 A 
ATOM     37  C   UNL A   1      45.389  28.911  35.960  1.00  0.00     0.010 A 
ATOM     38  C   UNL A   1      44.058  28.472  35.955  1.00  0.00    -0.014 A 
BRANCH  38  39
ATOM     39  C   UNL A   1      43.025  29.199  35.172  1.00  0.00     0.031 A 
ATOM     40  C   UNL A   1      42.667  28.768  33.775  1.00  0.00     0.074 A 
ATOM     41  C   UNL A   1      42.433  30.285  35.707  1.00  0.00     0.049 A 
ATOM     42  N   UNL A   1      41.772  29.268  32.960  1.00  0.00    -0.248 NA
ATOM     43  C   UNL A   1      43.433  27.649  33.208  1.00  0.00     0.031 C 
ATOM     44  C   UNL A   1      42.748  30.855  37.019  1.00  0.00     0.029 A 
ATOM     45  N   UNL A   1      41.451  31.107  35.215  1.00  0.00    -0.354 N 
ATOM     46  C   UNL A   1      41.876  28.537  31.783  1.00  0.00     0.074 A 
ATOM     47  C   UNL A   1      42.958  27.593  31.972  1.00  0.00     0.031 C 
ATOM     48  C   UNL A   1      41.958  31.917  37.237  1.00  0.00     0.029 A 
ATOM     49  C   UNL A   1      41.096  32.118  36.075  1.00  0.00     0.049 A 
ATOM     50  H   UNL A   1      41.039  30.984  34.329  1.00  0.00     0.167 HD
ATOM     51  C   UNL A   1      41.126  28.626  30.658  1.00  0.00     0.037 A 
ATOM     52  C   UNL A   1      40.175  33.094  35.951  1.00  0.00     0.037 A 
ATOM     53  C   UNL A   1      40.038  29.552  30.482  1.00  0.00     0.049 A 
ATOM     54  C   UNL A   1      39.314  33.142  34.721  1.00  0.00     0.074 A 
ATOM     55  C   UNL A   1      39.167  29.668  29.413  1.00  0.00     0.029 A 
ATOM     56  N   UNL A   1      39.674  30.530  31.398  1.00  0.00    -0.354 N 
ATOM     57  N   UNL A   1      39.359  32.377  33.657  1.00  0.00    -0.248 NA
ATOM     58  C   UNL A   1      38.265  34.170  34.683  1.00  0.00     0.031 C 
ATOM     59  C   UNL A   1      38.303  30.741  29.664  1.00  0.00     0.029 A 
ATOM     60  C   UNL A   1      38.607  31.266  30.910  1.00  0.00     0.049 A 
ATOM     61  H   UNL A   1      40.113  30.680  32.267  1.00  0.00     0.167 HD
ATOM     62  C   UNL A   1      38.332  32.818  32.829  1.00  0.00     0.074 A 
ATOM     63  C   UNL A   1      37.678  33.908  33.523  1.00  0.00     0.031 C 
ATOM     64  C   UNL A   1      37.965  32.355  31.607  1.00  0.00     0.037 A 
BRANCH  51  65
ATOM     65  C   UNL A   1      41.471  27.694  29.526  1.00  0.00     0.058 A 
ATOM     66  C   UNL A   1      42.609  27.894  28.726  1.00  0.00     0.135 A 
ATOM     67  C   UNL A   1      40.651  26.594  29.230  1.00  0.00     0.135 A 
ATOM     68  F   UNL A   1      43.425  28.935  28.957  1.00  0.00    -0.206 F 
ATOM     69  C   UNL A   1      42.890  27.071  27.639  1.00  0.00     0.059 A 
ATOM     70  C   UNL A   1      40.928  25.740  28.165  1.00  0.00     0.059 A 
ATOM     71  F   UNL A   1      39.556  26.350  29.965  1.00  0.00    -0.206 F 
ATOM     72  C   UNL A   1      42.036  26.004  27.360  1.00  0.00     0.060 A 
BRANCH  72  73
ATOM     73  S   UNL A   1      42.383  24.970  25.921  1.00  0.00     0.124 S 
ATOM     74  O   UNL A   1      43.742  24.522  26.208  1.00  0.00    -0.237 OA
ATOM     75  O   UNL A   1      41.348  23.943  26.012  1.00  0.00    -0.237 OA
ATOM     76  O   UNL A   1      42.248  25.892  24.799  1.00  0.00    -0.744 OA
ENDBRANCH  72  73
ENDBRANCH  51  65
BRANCH  52  77
ATOM     77  C   UNL A   1      40.001  34.066  37.062  1.00  0.00     0.058 A 
ATOM     78  C   UNL A   1      40.614  35.325  37.022  1.00  0.00     0.135 A 
ATOM     79  C   UNL A   1      39.148  33.785  38.139  1.00  0.00     0.135 A 
ATOM     80  F   UNL A   1      41.442  35.636  36.012  1.00  0.00    -0.206 F 
ATOM     81  C   UNL A   1      40.381  36.279  38.007  1.00  0.00     0.059 A 
ATOM     82  C   UNL A   1      38.883  34.729  39.126  1.00  0.00     0.059 A 
ATOM     83  F   UNL A   1      38.523  32.598  38.211  1.00  0.00    -0.206 F 
ATOM     84  C   UNL A   1      39.503  35.975  39.049  1.00  0.00     0.060 A 
BRANCH  84  85
ATOM     85  S   UNL A   1      39.121  37.260  40.260  1.00  0.00     0.124 S 
ATOM     86  O   UNL A   1      40.448  37.596  40.762  1.00  0.00    -0.237 OA
ATOM     87  O   UNL A   1      38.473  38.276  39.437  1.00  0.00    -0.237 OA
ATOM     88  O   UNL A   1      38.242  36.578  41.205  1.00  0.00    -0.744 OA
ENDBRANCH  84  85
ENDBRANCH  52  77
BRANCH  64  89
ATOM     89  C   UNL A   1      36.786  33.013  30.946  1.00  0.00     0.058 A 
ATOM     90  C   UNL A   1      35.473  32.794  31.391  1.00  0.00     0.135 A 
ATOM     91  C   UNL A   1      36.977  33.910  29.883  1.00  0.00     0.135 A 
ATOM     92  F   UNL A   1      35.235  31.942  32.401  1.00  0.00    -0.206 F 
ATOM     93  C   UNL A   1      34.387  33.424  30.790  1.00  0.00     0.059 A 
ATOM     94  C   UNL A   1      35.908  34.569  29.283  1.00  0.00     0.059 A 
ATOM     95  F   UNL A   1      38.213  34.163  29.425  1.00  0.00    -0.206 F 
ATOM     96  C   UNL A   1      34.616  34.310  29.735  1.00  0.00     0.060 A 
BRANCH  96  97
ATOM     97  S   UNL A   1      33.202  35.143  28.980  1.00  0.00     0.124 S 
ATOM     98  O   UNL A   1      33.826  36.342  28.434  1.00  0.00    -0.237 OA
ATOM     99  O   UNL A   1      32.745  34.163  28.000  1.00  0.00    -0.237 OA
ATOM    100  O   UNL A   1      32.298  35.361  30.106  1.00  0.00    -0.744 OA
ENDBRANCH  96  97
ENDBRANCH  64  89
ENDBRANCH  38  39
ENDBRANCH  30  33
ENDBRANCH  28  29
ENDBRANCH  27  28
ENDBRANCH  26  27
ENDBRANCH   3  26
TORSDOF 20
ENDMDL
MODEL 3
REMARK VINA RESULT:      -9.0      8.827     15.065
REMARK SMILES COc1ccc(OCc2nc(N)cc(SCC(=O)NCCCNC(=O)c3ccc(-c4c5nc(c(-c6c(F)cc(S(=O)(=O)[O-])cc6F)c6ccc([nH]6)c(-c6c(F)cc(S(=O)(=O)[O-])cc6F)c6nc(c(-c7c(F)cc(S(=O)(=O)[O-])cc7F)c7ccc4[nH]7)C=C6)C=C5)cc3)n2)cc1
REMARK SMILES IDX 17 1 18 2 19 3 16 5 15 6 14 7 9 8 10 9 92 10 11 11 13 12
REMARK SMILES IDX 8 13 7 14 6 15 3 16 4 17 94 18 5 19 93 20 2 21 1 22 12 23
REMARK SMILES IDX 20 26 21 27 22 28 23 29 24 30 25 32 26 33 27 34 91 35 28 36
REMARK SMILES IDX 90 37 29 38 30 39 31 40 84 41 32 42 89 43 83 44 85 45 33 46
REMARK SMILES IDX 88 47 82 48 81 49 34 51 68 52 47 53 67 54 48 55 51 56 66 57
REMARK SMILES IDX 86 58 49 59 50 60 65 62 87 63 52 64 35 65 36 66 45 67 37 68
REMARK SMILES IDX 38 69 44 70 46 71 39 72 40 73 41 74 42 75 43 76 69 77 70 78
REMARK SMILES IDX 79 79 71 80 72 81 78 82 80 83 73 84 74 85 75 86 76 87 77 88
REMARK SMILES IDX 53 89 54 90 63 91 55 92 56 93 62 94 64 95 57 96 58 97 59 98
REMARK SMILES IDX 60 99 61 100
REMARK H PARENT 19 4 12 24 12 25 23 31 85 50 51 61
REMARK Flexibility Score: inf
ROOT
ATOM      1  C   UNL A   1      42.867  40.696  25.906  1.00  0.00     0.230 C 
ATOM      2  O   UNL A   1      41.945  41.424  25.523  1.00  0.00    -0.274 OA
ATOM      3  N   UNL A   1      42.543  39.551  26.567  1.00  0.00    -0.355 N 
ATOM      4  H   UNL A   1      41.579  39.384  26.668  1.00  0.00     0.163 HD
ENDROOT
BRANCH   1   5
ATOM      5  C   UNL A   1      44.307  41.035  25.579  1.00  0.00     0.176 C 
BRANCH   5   6
ATOM      6  S   UNL A   1      44.580  42.776  25.152  1.00  0.00    -0.096 SA
BRANCH   6   7
ATOM      7  C   UNL A   1      44.740  42.802  23.381  1.00  0.00     0.102 A 
ATOM      8  C   UNL A   1      43.553  42.778  21.410  1.00  0.00     0.169 A 
ATOM      9  N   UNL A   1      44.662  42.885  20.660  1.00  0.00    -0.213 NA
ATOM     10  N   UNL A   1      43.555  42.692  22.754  1.00  0.00    -0.223 NA
ATOM     11  C   UNL A   1      45.824  42.978  21.311  1.00  0.00     0.128 A 
ATOM     12  C   UNL A   1      45.911  42.982  22.685  1.00  0.00     0.082 A 
BRANCH   8  13
ATOM     13  C   UNL A   1      42.200  42.874  20.730  1.00  0.00     0.306 C 
BRANCH  13  14
ATOM     14  O   UNL A   1      42.220  42.651  19.309  1.00  0.00    -0.486 OA
BRANCH  14  15
ATOM     15  C   UNL A   1      42.333  43.731  18.479  1.00  0.00     0.120 A 
ATOM     16  C   UNL A   1      42.247  45.993  16.816  1.00  0.00     0.119 A 
ATOM     17  C   UNL A   1      41.324  45.845  17.850  1.00  0.00     0.050 A 
ATOM     18  C   UNL A   1      43.251  45.039  16.654  1.00  0.00     0.050 A 
ATOM     19  C   UNL A   1      41.361  44.715  18.670  1.00  0.00     0.050 A 
ATOM     20  C   UNL A   1      43.300  43.917  17.493  1.00  0.00     0.050 A 
BRANCH  16  21
ATOM     21  O   UNL A   1      42.113  47.122  16.055  1.00  0.00    -0.497 OA
ATOM     22  C   UNL A   1      42.377  48.339  16.746  1.00  0.00     0.278 C 
ENDBRANCH  16  21
ENDBRANCH  14  15
ENDBRANCH  13  14
ENDBRANCH   8  13
BRANCH  11  23
ATOM     23  N   UNL A   1      46.953  43.156  20.533  1.00  0.00    -0.384 N 
ATOM     24  H   UNL A   1      46.869  43.509  19.618  1.00  0.00     0.158 HD
ATOM     25  H   UNL A   1      47.840  42.931  20.895  1.00  0.00     0.158 HD
ENDBRANCH  11  23
ENDBRANCH   6   7
ENDBRANCH   5   6
ENDBRANCH   1   5
BRANCH   3  26
ATOM     26  C   UNL A   1      43.411  38.541  27.148  1.00  0.00     0.117 C 
BRANCH  26  27
ATOM     27  C   UNL A   1      44.518  39.152  28.003  1.00  0.00     0.042 C 
BRANCH  27  28
ATOM     28  C   UNL A   1      45.362  38.139  28.775  1.00  0.00     0.118 C 
BRANCH  28  29
ATOM     29  N   UNL A   1      46.774  38.198  28.430  1.00  0.00    -0.352 N 
ATOM     30  C   UNL A   1      47.676  37.193  28.184  1.00  0.00     0.251 C 
ATOM     31  H   UNL A   1      47.144  39.107  28.361  1.00  0.00     0.163 HD
ATOM     32  O   UNL A   1      48.866  37.489  28.068  1.00  0.00    -0.269 OA
BRANCH  30  33
ATOM     33  C   UNL A   1      47.256  35.777  28.073  1.00  0.00     0.039 A 
ATOM     34  C   UNL A   1      47.383  34.958  29.199  1.00  0.00     0.014 A 
ATOM     35  C   UNL A   1      46.797  35.231  26.870  1.00  0.00     0.014 A 
ATOM     36  C   UNL A   1      47.010  33.613  29.133  1.00  0.00     0.010 A 
ATOM     37  C   UNL A   1      46.356  33.906  26.825  1.00  0.00     0.010 A 
ATOM     38  C   UNL A   1      46.469  33.080  27.952  1.00  0.00    -0.014 A 
BRANCH  38  39
ATOM     39  C   UNL A   1      46.012  31.666  27.902  1.00  0.00     0.031 A 
ATOM     40  C   UNL A   1      44.635  31.281  28.371  1.00  0.00     0.074 A 
ATOM     41  C   UNL A   1      46.861  30.712  27.470  1.00  0.00     0.049 A 
ATOM     42  N   UNL A   1      44.062  30.103  28.371  1.00  0.00    -0.248 NA
ATOM     43  C   UNL A   1      43.803  32.351  28.939  1.00  0.00     0.031 C 
ATOM     44  C   UNL A   1      48.249  30.942  27.064  1.00  0.00     0.029 A 
ATOM     45  N   UNL A   1      46.686  29.362  27.307  1.00  0.00    -0.354 N 
ATOM     46  C   UNL A   1      42.813  30.286  28.951  1.00  0.00     0.074 A 
ATOM     47  C   UNL A   1      42.732  31.680  29.337  1.00  0.00     0.031 C 
ATOM     48  C   UNL A   1      48.791  29.778  26.676  1.00  0.00     0.029 A 
ATOM     49  C   UNL A   1      47.799  28.716  26.824  1.00  0.00     0.049 A 
ATOM     50  H   UNL A   1      45.842  28.898  27.514  1.00  0.00     0.167 HD
ATOM     51  C   UNL A   1      41.815  29.385  29.125  1.00  0.00     0.037 A 
ATOM     52  C   UNL A   1      48.002  27.417  26.526  1.00  0.00     0.037 A 
ATOM     53  C   UNL A   1      41.893  28.005  28.721  1.00  0.00     0.049 A 
ATOM     54  C   UNL A   1      46.867  26.444  26.670  1.00  0.00     0.074 A 
ATOM     55  C   UNL A   1      40.911  27.032  28.780  1.00  0.00     0.029 A 
ATOM     56  N   UNL A   1      43.022  27.398  28.188  1.00  0.00    -0.354 N 
ATOM     57  N   UNL A   1      45.655  26.655  27.126  1.00  0.00    -0.248 NA
ATOM     58  C   UNL A   1      47.118  25.061  26.241  1.00  0.00     0.031 C 
ATOM     59  C   UNL A   1      41.458  25.828  28.320  1.00  0.00     0.029 A 
ATOM     60  C   UNL A   1      42.768  26.060  27.933  1.00  0.00     0.049 A 
ATOM     61  H   UNL A   1      43.879  27.852  28.017  1.00  0.00     0.167 HD
ATOM     62  C   UNL A   1      44.992  25.438  27.022  1.00  0.00     0.074 A 
ATOM     63  C   UNL A   1      45.934  24.498  26.448  1.00  0.00     0.031 C 
ATOM     64  C   UNL A   1      43.716  25.130  27.367  1.00  0.00     0.037 A 
BRANCH  51  65
ATOM     65  C   UNL A   1      40.556  29.873  29.791  1.00  0.00     0.058 A 
ATOM     66  C   UNL A   1      40.497  30.110  31.175  1.00  0.00     0.135 A 
ATOM     67  C   UNL A   1      39.391  30.097  29.040  1.00  0.00     0.135 A 
ATOM     68  F   UNL A   1      41.578  29.904  31.943  1.00  0.00    -0.206 F 
ATOM     69  C   UNL A   1      39.314  30.496  31.798  1.00  0.00     0.059 A 
ATOM     70  C   UNL A   1      38.204  30.511  29.639  1.00  0.00     0.059 A 
ATOM     71  F   UNL A   1      39.391  29.894  27.714  1.00  0.00    -0.206 F 
ATOM     72  C   UNL A   1      38.170  30.683  31.022  1.00  0.00     0.060 A 
BRANCH  72  73
ATOM     73  S   UNL A   1      36.629  31.138  31.846  1.00  0.00     0.124 S 
ATOM     74  O   UNL A   1      35.837  31.633  30.724  1.00  0.00    -0.237 OA
ATOM     75  O   UNL A   1      36.189  29.868  32.418  1.00  0.00    -0.237 OA
ATOM     76  O   UNL A   1      37.046  32.146  32.814  1.00  0.00    -0.744 OA
ENDBRANCH  72  73
ENDBRANCH  51  65
BRANCH  52  77
ATOM     77  C   UNL A   1      49.329  26.995  26.009  1.00  0.00     0.058 A 
ATOM     78  C   UNL A   1      49.666  27.169  24.660  1.00  0.00     0.135 A 
ATOM     79  C   UNL A   1      50.313  26.490  26.872  1.00  0.00     0.135 A 
ATOM     80  F   UNL A   1      48.755  27.645  23.796  1.00  0.00    -0.206 F 
ATOM     81  C   UNL A   1      50.938  26.868  24.184  1.00  0.00     0.059 A 
ATOM     82  C   UNL A   1      51.598  26.201  26.423  1.00  0.00     0.059 A 
ATOM     83  F   UNL A   1      50.042  26.323  28.176  1.00  0.00    -0.206 F 
ATOM     84  C   UNL A   1      51.901  26.395  25.077  1.00  0.00     0.060 A 
BRANCH  84  85
ATOM     85  S   UNL A   1      53.579  26.114  24.471  1.00  0.00     0.124 S 
ATOM     86  O   UNL A   1      54.197  27.414  24.702  1.00  0.00    -0.237 OA
ATOM     87  O   UNL A   1      54.038  25.027  25.329  1.00  0.00    -0.237 OA
ATOM     88  O   UNL A   1      53.373  25.752  23.072  1.00  0.00    -0.744 OA
ENDBRANCH  84  85
ENDBRANCH  52  77
BRANCH  64  89
ATOM     89  C   UNL A   1      43.253  23.722  27.114  1.00  0.00     0.058 A 
ATOM     90  C   UNL A   1      42.948  23.267  25.823  1.00  0.00     0.135 A 
ATOM     91  C   UNL A   1      43.159  22.805  28.173  1.00  0.00     0.135 A 
ATOM     92  F   UNL A   1      43.017  24.105  24.776  1.00  0.00    -0.206 F 
ATOM     93  C   UNL A   1      42.541  21.956  25.592  1.00  0.00     0.059 A 
ATOM     94  C   UNL A   1      42.778  21.484  27.962  1.00  0.00     0.059 A 
ATOM     95  F   UNL A   1      43.449  23.187  29.427  1.00  0.00    -0.206 F 
ATOM     96  C   UNL A   1      42.459  21.072  26.670  1.00  0.00     0.060 A 
BRANCH  96  97
ATOM     97  S   UNL A   1      41.957  19.365  26.355  1.00  0.00     0.124 S 
ATOM     98  O   UNL A   1      40.520  19.514  26.160  1.00  0.00    -0.237 OA
ATOM     99  O   UNL A   1      42.728  19.025  25.163  1.00  0.00    -0.237 OA
ATOM    100  O   UNL A   1      42.358  18.665  27.573  1.00  0.00    -0.744 OA
ENDBRANCH  96  97
ENDBRANCH  64  89
ENDBRANCH  38  39
ENDBRANCH  30  33
ENDBRANCH  28  29
ENDBRANCH  27  28
ENDBRANCH  26  27
ENDBRANCH   3  26
TORSDOF 20
ENDMDL
