MODEL 1
REMARK VINA RESULT:     -11.1      0.000      0.000
REMARK SMILES C[C@H]([C@@H](C)O)[N@H+]1CC[C@@](C)(C(=O)NCCCNC(=O)c2ccc(-c3c4nc(c(-c5c(F)cc(S(=O)(=O)[O-])cc5F)c5ccc([nH]5)c(-c5c(F)cc(S(=O)(=O)[O-])cc5F)c5nc(c(-c6c(F)cc(S(=O)(=O)[O-])cc6F)c6ccc3[nH]6)C=C5)C=C4)cc2)C1
REMARK SMILES IDX 15 1 14 2 13 3 11 4 12 5 9 7 6 8 7 9 86 10 8 12 10 13 2 14
REMARK SMILES IDX 1 15 3 16 4 17 5 18 16 20 17 21 18 22 19 24 20 25 21 26
REMARK SMILES IDX 85 27 22 28 84 29 23 30 24 31 25 32 78 33 26 34 83 35 77 36
REMARK SMILES IDX 79 37 27 38 82 39 76 40 75 41 28 43 62 44 41 45 61 46 42 47
REMARK SMILES IDX 45 48 60 49 80 50 43 51 44 52 59 54 81 55 46 56 29 57 30 58
REMARK SMILES IDX 39 59 31 60 32 61 38 62 40 63 33 64 34 65 35 66 36 67 37 68
REMARK SMILES IDX 63 69 64 70 73 71 65 72 66 73 72 74 74 75 67 76 68 77 69 78
REMARK SMILES IDX 70 79 71 80 47 81 48 82 57 83 49 84 50 85 56 86 58 87 51 88
REMARK SMILES IDX 52 89 53 90 54 91 55 92
REMARK H PARENT 13 6 6 11 5 19 17 23 79 42 45 53
REMARK Flexibility Score: inf
ROOT
ATOM      1  C   UNL A   1      32.222  27.732  27.084  1.00  0.00     0.042 C 
ENDROOT
BRANCH   1   2
ATOM      2  C   UNL A   1      32.221  26.565  26.099  1.00  0.00     0.117 C 
BRANCH   2   3
ATOM      3  N   UNL A   1      30.894  26.358  25.556  1.00  0.00    -0.355 N 
ATOM      4  C   UNL A   1      30.247  26.924  24.504  1.00  0.00     0.231 C 
ATOM      5  O   UNL A   1      29.068  26.580  24.370  1.00  0.00    -0.274 OA
ATOM      6  H   UNL A   1      30.362  25.685  26.039  1.00  0.00     0.163 HD
BRANCH   4   7
ATOM      7  C   UNL A   1      30.967  27.824  23.477  1.00  0.00     0.100 C 
ATOM      8  N   UNL A   1      30.030  30.036  23.032  1.00  0.00    -0.330 N 
ATOM      9  C   UNL A   1      30.815  30.094  24.263  1.00  0.00     0.263 C 
ATOM     10  C   UNL A   1      29.894  28.610  22.668  1.00  0.00     0.279 C 
ATOM     11  H   UNL A   1      30.508  30.508  22.264  1.00  0.00     0.348 HD
ATOM     12  C   UNL A   1      31.804  28.964  24.076  1.00  0.00     0.084 C 
ATOM     13  C   UNL A   1      31.828  26.912  22.576  1.00  0.00     0.028 C 
BRANCH   8  14
ATOM     14  C   UNL A   1      28.768  30.822  23.109  1.00  0.00     0.209 C 
ATOM     15  C   UNL A   1      27.484  29.979  22.997  1.00  0.00     0.078 C 
BRANCH  14  16
ATOM     16  C   UNL A   1      28.768  32.005  22.094  1.00  0.00     0.169 C 
ATOM     17  C   UNL A   1      28.054  31.668  20.788  1.00  0.00     0.045 C 
BRANCH  16  18
ATOM     18  O   UNL A   1      28.078  33.133  22.655  1.00  0.00    -0.387 OA
ATOM     19  H   UNL A   1      28.300  33.211  23.596  1.00  0.00     0.211 HD
ENDBRANCH  16  18
ENDBRANCH  14  16
ENDBRANCH   8  14
ENDBRANCH   4   7
ENDBRANCH   2   3
ENDBRANCH   1   2
BRANCH   1  20
ATOM     20  C   UNL A   1      33.597  28.370  27.259  1.00  0.00     0.118 C 
BRANCH  20  21
ATOM     21  N   UNL A   1      33.507  29.784  27.598  1.00  0.00    -0.352 N 
ATOM     22  C   UNL A   1      34.433  30.584  28.223  1.00  0.00     0.251 C 
ATOM     23  H   UNL A   1      32.666  30.227  27.344  1.00  0.00     0.163 HD
ATOM     24  O   UNL A   1      34.104  31.695  28.633  1.00  0.00    -0.269 OA
BRANCH  22  25
ATOM     25  C   UNL A   1      35.813  30.096  28.412  1.00  0.00     0.039 A 
ATOM     26  C   UNL A   1      36.697  30.103  27.330  1.00  0.00     0.014 A 
ATOM     27  C   UNL A   1      36.233  29.636  29.663  1.00  0.00     0.014 A 
ATOM     28  C   UNL A   1      38.026  29.714  27.522  1.00  0.00     0.010 A 
ATOM     29  C   UNL A   1      37.571  29.322  29.869  1.00  0.00     0.010 A 
ATOM     30  C   UNL A   1      38.481  29.356  28.801  1.00  0.00    -0.014 A 
BRANCH  30  31
ATOM     31  C   UNL A   1      39.900  29.000  29.062  1.00  0.00     0.031 A 
ATOM     32  C   UNL A   1      40.848  30.052  29.568  1.00  0.00     0.074 A 
ATOM     33  C   UNL A   1      40.352  27.769  28.749  1.00  0.00     0.049 A 
ATOM     34  N   UNL A   1      42.147  29.999  29.699  1.00  0.00    -0.248 NA
ATOM     35  C   UNL A   1      40.257  31.347  29.946  1.00  0.00     0.031 C 
ATOM     36  C   UNL A   1      39.535  26.673  28.223  1.00  0.00     0.029 A 
ATOM     37  N   UNL A   1      41.618  27.240  28.803  1.00  0.00    -0.354 N 
ATOM     38  C   UNL A   1      42.532  31.257  30.151  1.00  0.00     0.074 A 
ATOM     39  C   UNL A   1      41.334  32.065  30.225  1.00  0.00     0.031 C 
ATOM     40  C   UNL A   1      40.317  25.602  28.012  1.00  0.00     0.029 A 
ATOM     41  C   UNL A   1      41.697  25.948  28.339  1.00  0.00     0.049 A 
ATOM     42  H   UNL A   1      42.396  27.738  29.143  1.00  0.00     0.167 HD
ATOM     43  C   UNL A   1      43.769  31.691  30.490  1.00  0.00     0.037 A 
ATOM     44  C   UNL A   1      42.764  25.141  28.173  1.00  0.00     0.037 A 
ATOM     45  C   UNL A   1      44.950  30.869  30.440  1.00  0.00     0.049 A 
ATOM     46  C   UNL A   1      44.132  25.651  28.541  1.00  0.00     0.074 A 
ATOM     47  C   UNL A   1      46.241  31.197  30.810  1.00  0.00     0.029 A 
ATOM     48  N   UNL A   1      44.981  29.556  29.993  1.00  0.00    -0.354 N 
ATOM     49  N   UNL A   1      44.472  26.828  29.008  1.00  0.00    -0.248 NA
ATOM     50  C   UNL A   1      45.261  24.727  28.358  1.00  0.00     0.031 C 
ATOM     51  C   UNL A   1      47.063  30.098  30.546  1.00  0.00     0.029 A 
ATOM     52  C   UNL A   1      46.275  29.066  30.062  1.00  0.00     0.049 A 
ATOM     53  H   UNL A   1      44.201  29.048  29.674  1.00  0.00     0.167 HD
ATOM     54  C   UNL A   1      45.848  26.774  29.211  1.00  0.00     0.074 A 
ATOM     55  C   UNL A   1      46.276  25.448  28.815  1.00  0.00     0.031 C 
ATOM     56  C   UNL A   1      46.679  27.733  29.686  1.00  0.00     0.037 A 
BRANCH  43  57
ATOM     57  C   UNL A   1      43.909  33.117  30.949  1.00  0.00     0.058 A 
ATOM     58  C   UNL A   1      44.109  34.167  30.038  1.00  0.00     0.135 A 
ATOM     59  C   UNL A   1      43.806  33.442  32.311  1.00  0.00     0.135 A 
ATOM     60  F   UNL A   1      44.230  33.912  28.726  1.00  0.00    -0.206 F 
ATOM     61  C   UNL A   1      44.233  35.486  30.465  1.00  0.00     0.059 A 
ATOM     62  C   UNL A   1      43.898  34.758  32.758  1.00  0.00     0.059 A 
ATOM     63  F   UNL A   1      43.616  32.478  33.225  1.00  0.00    -0.206 F 
ATOM     64  C   UNL A   1      44.127  35.771  31.827  1.00  0.00     0.060 A 
BRANCH  64  65
ATOM     65  S   UNL A   1      44.288  37.487  32.362  1.00  0.00     0.124 S 
ATOM     66  O   UNL A   1      43.324  37.541  33.457  1.00  0.00    -0.237 OA
ATOM     67  O   UNL A   1      45.692  37.563  32.751  1.00  0.00    -0.237 OA
ATOM     68  O   UNL A   1      43.927  38.250  31.172  1.00  0.00    -0.744 OA
ENDBRANCH  64  65
ENDBRANCH  43  57
BRANCH  44  69
ATOM     69  C   UNL A   1      42.581  23.763  27.643  1.00  0.00     0.058 A 
ATOM     70  C   UNL A   1      42.429  22.673  28.512  1.00  0.00     0.135 A 
ATOM     71  C   UNL A   1      42.543  23.507  26.263  1.00  0.00     0.135 A 
ATOM     72  F   UNL A   1      42.464  22.864  29.840  1.00  0.00    -0.206 F 
ATOM     73  C   UNL A   1      42.264  21.376  28.036  1.00  0.00     0.059 A 
ATOM     74  C   UNL A   1      42.352  22.223  25.761  1.00  0.00     0.059 A 
ATOM     75  F   UNL A   1      42.665  24.518  25.388  1.00  0.00    -0.206 F 
ATOM     76  C   UNL A   1      42.225  21.162  26.657  1.00  0.00     0.060 A 
BRANCH  76  77
ATOM     77  S   UNL A   1      41.966  19.481  26.049  1.00  0.00     0.124 S 
ATOM     78  O   UNL A   1      42.313  18.689  27.223  1.00  0.00    -0.237 OA
ATOM     79  O   UNL A   1      40.553  19.501  25.686  1.00  0.00    -0.237 OA
ATOM     80  O   UNL A   1      42.893  19.385  24.925  1.00  0.00    -0.744 OA
ENDBRANCH  76  77
ENDBRANCH  44  69
BRANCH  56  81
ATOM     81  C   UNL A   1      48.129  27.382  29.861  1.00  0.00     0.058 A 
ATOM     82  C   UNL A   1      49.086  27.682  28.882  1.00  0.00     0.135 A 
ATOM     83  C   UNL A   1      48.578  26.826  31.072  1.00  0.00     0.135 A 
ATOM     84  F   UNL A   1      48.708  28.205  27.704  1.00  0.00    -0.206 F 
ATOM     85  C   UNL A   1      50.441  27.441  29.093  1.00  0.00     0.059 A 
ATOM     86  C   UNL A   1      49.929  26.601  31.315  1.00  0.00     0.059 A 
ATOM     87  F   UNL A   1      47.703  26.529  32.044  1.00  0.00    -0.206 F 
ATOM     88  C   UNL A   1      50.853  26.910  30.318  1.00  0.00     0.060 A 
BRANCH  88  89
ATOM     89  S   UNL A   1      52.620  26.674  30.607  1.00  0.00     0.124 S 
ATOM     90  O   UNL A   1      52.617  25.565  31.556  1.00  0.00    -0.237 OA
ATOM     91  O   UNL A   1      53.115  26.363  29.270  1.00  0.00    -0.237 OA
ATOM     92  O   UNL A   1      53.050  27.961  31.146  1.00  0.00    -0.744 OA
ENDBRANCH  88  89
ENDBRANCH  56  81
ENDBRANCH  30  31
ENDBRANCH  22  25
ENDBRANCH  20  21
ENDBRANCH   1  20
TORSDOF 16
ENDMDL
MODEL 2
REMARK VINA RESULT:     -10.9      2.209      3.796
REMARK SMILES C[C@H]([C@@H](C)O)[N@H+]1CC[C@@](C)(C(=O)NCCCNC(=O)c2ccc(-c3c4nc(c(-c5c(F)cc(S(=O)(=O)[O-])cc5F)c5ccc([nH]5)c(-c5c(F)cc(S(=O)(=O)[O-])cc5F)c5nc(c(-c6c(F)cc(S(=O)(=O)[O-])cc6F)c6ccc3[nH]6)C=C5)C=C4)cc2)C1
REMARK SMILES IDX 15 1 14 2 13 3 11 4 12 5 9 7 6 8 7 9 86 10 8 12 10 13 2 14
REMARK SMILES IDX 1 15 3 16 4 17 5 18 16 20 17 21 18 22 19 24 20 25 21 26
REMARK SMILES IDX 85 27 22 28 84 29 23 30 24 31 25 32 78 33 26 34 83 35 77 36
REMARK SMILES IDX 79 37 27 38 82 39 76 40 75 41 28 43 62 44 41 45 61 46 42 47
REMARK SMILES IDX 45 48 60 49 80 50 43 51 44 52 59 54 81 55 46 56 29 57 30 58
REMARK SMILES IDX 39 59 31 60 32 61 38 62 40 63 33 64 34 65 35 66 36 67 37 68
REMARK SMILES IDX 63 69 64 70 73 71 65 72 66 73 72 74 74 75 67 76 68 77 69 78
REMARK SMILES IDX 70 79 71 80 47 81 48 82 57 83 49 84 50 85 56 86 58 87 51 88
REMARK SMILES IDX 52 89 53 90 54 91 55 92
REMARK H PARENT 13 6 6 11 5 19 17 23 79 42 45 53
REMARK Flexibility Score: inf
ROOT
ATOM      1  C   UNL A   1      32.120  27.756  27.413  1.00  0.00     0.042 C 
ENDROOT
BRANCH   1   2
ATOM      2  C   UNL A   1      31.996  26.455  26.623  1.00  0.00     0.117 C 
BRANCH   2   3
ATOM      3  N   UNL A   1      32.615  26.591  25.320  1.00  0.00    -0.355 N 
ATOM      4  C   UNL A   1      33.164  25.677  24.478  1.00  0.00     0.231 C 
ATOM      5  O   UNL A   1      33.696  26.149  23.469  1.00  0.00    -0.274 OA
ATOM      6  H   UNL A   1      32.645  27.515  24.983  1.00  0.00     0.163 HD
BRANCH   4   7
ATOM      7  C   UNL A   1      33.016  24.155  24.698  1.00  0.00     0.100 C 
ATOM      8  N   UNL A   1      35.051  22.827  24.944  1.00  0.00    -0.330 N 
ATOM      9  C   UNL A   1      34.746  23.467  26.222  1.00  0.00     0.263 C 
ATOM     10  C   UNL A   1      34.159  23.429  23.931  1.00  0.00     0.279 C 
ATOM     11  H   UNL A   1      34.854  21.826  24.974  1.00  0.00     0.348 HD
ATOM     12  C   UNL A   1      33.250  23.675  26.138  1.00  0.00     0.084 C 
ATOM     13  C   UNL A   1      31.616  23.743  24.191  1.00  0.00     0.028 C 
BRANCH   8  14
ATOM     14  C   UNL A   1      36.505  22.824  24.626  1.00  0.00     0.209 C 
ATOM     15  C   UNL A   1      36.830  22.764  23.123  1.00  0.00     0.078 C 
BRANCH  14  16
ATOM     16  C   UNL A   1      37.263  21.717  25.422  1.00  0.00     0.169 C 
ATOM     17  C   UNL A   1      37.012  20.316  24.874  1.00  0.00     0.045 C 
BRANCH  16  18
ATOM     18  O   UNL A   1      38.679  21.938  25.343  1.00  0.00    -0.387 OA
ATOM     19  H   UNL A   1      39.038  22.053  26.237  1.00  0.00     0.211 HD
ENDBRANCH  16  18
ENDBRANCH  14  16
ENDBRANCH   8  14
ENDBRANCH   4   7
ENDBRANCH   2   3
ENDBRANCH   1   2
BRANCH   1  20
ATOM     20  C   UNL A   1      33.483  28.424  27.262  1.00  0.00     0.118 C 
BRANCH  20  21
ATOM     21  N   UNL A   1      33.421  29.860  27.503  1.00  0.00    -0.352 N 
ATOM     22  C   UNL A   1      34.361  30.683  28.074  1.00  0.00     0.251 C 
ATOM     23  H   UNL A   1      32.589  30.301  27.216  1.00  0.00     0.163 HD
ATOM     24  O   UNL A   1      34.053  31.825  28.405  1.00  0.00    -0.269 OA
BRANCH  22  25
ATOM     25  C   UNL A   1      35.731  30.181  28.302  1.00  0.00     0.039 A 
ATOM     26  C   UNL A   1      36.643  30.176  27.245  1.00  0.00     0.014 A 
ATOM     27  C   UNL A   1      36.112  29.721  29.566  1.00  0.00     0.014 A 
ATOM     28  C   UNL A   1      37.963  29.774  27.474  1.00  0.00     0.010 A 
ATOM     29  C   UNL A   1      37.440  29.394  29.809  1.00  0.00     0.010 A 
ATOM     30  C   UNL A   1      38.380  29.415  28.766  1.00  0.00    -0.014 A 
BRANCH  30  31
ATOM     31  C   UNL A   1      39.787  29.046  29.066  1.00  0.00     0.031 A 
ATOM     32  C   UNL A   1      40.727  30.086  29.610  1.00  0.00     0.074 A 
ATOM     33  C   UNL A   1      40.239  27.814  28.755  1.00  0.00     0.049 A 
ATOM     34  N   UNL A   1      42.021  30.022  29.780  1.00  0.00    -0.248 NA
ATOM     35  C   UNL A   1      40.135  31.382  29.982  1.00  0.00     0.031 C 
ATOM     36  C   UNL A   1      39.429  26.730  28.196  1.00  0.00     0.029 A 
ATOM     37  N   UNL A   1      41.498  27.275  28.843  1.00  0.00    -0.354 N 
ATOM     38  C   UNL A   1      42.402  31.272  30.254  1.00  0.00     0.074 A 
ATOM     39  C   UNL A   1      41.208  32.089  30.299  1.00  0.00     0.031 C 
ATOM     40  C   UNL A   1      40.210  25.654  27.999  1.00  0.00     0.029 A 
ATOM     41  C   UNL A   1      41.582  25.986  28.370  1.00  0.00     0.049 A 
ATOM     42  H   UNL A   1      42.269  27.764  29.211  1.00  0.00     0.167 HD
ATOM     43  C   UNL A   1      43.631  31.694  30.634  1.00  0.00     0.037 A 
ATOM     44  C   UNL A   1      42.647  25.173  28.229  1.00  0.00     0.037 A 
ATOM     45  C   UNL A   1      44.807  30.863  30.613  1.00  0.00     0.049 A 
ATOM     46  C   UNL A   1      44.007  25.668  28.642  1.00  0.00     0.074 A 
ATOM     47  C   UNL A   1      46.089  31.178  31.024  1.00  0.00     0.029 A 
ATOM     48  N   UNL A   1      44.842  29.554  30.155  1.00  0.00    -0.354 N 
ATOM     49  N   UNL A   1      44.342  26.839  29.131  1.00  0.00    -0.248 NA
ATOM     50  C   UNL A   1      45.134  24.737  28.486  1.00  0.00     0.031 C 
ATOM     51  C   UNL A   1      46.910  30.074  30.775  1.00  0.00     0.029 A 
ATOM     52  C   UNL A   1      46.129  29.053  30.258  1.00  0.00     0.049 A 
ATOM     53  H   UNL A   1      44.068  29.055  29.807  1.00  0.00     0.167 HD
ATOM     54  C   UNL A   1      45.710  26.772  29.374  1.00  0.00     0.074 A 
ATOM     55  C   UNL A   1      46.140  25.447  28.980  1.00  0.00     0.031 C 
ATOM     56  C   UNL A   1      46.534  27.721  29.883  1.00  0.00     0.037 A 
BRANCH  43  57
ATOM     57  C   UNL A   1      43.768  33.115  31.109  1.00  0.00     0.058 A 
ATOM     58  C   UNL A   1      44.066  34.163  30.224  1.00  0.00     0.135 A 
ATOM     59  C   UNL A   1      43.564  33.438  32.460  1.00  0.00     0.135 A 
ATOM     60  F   UNL A   1      44.287  33.908  28.924  1.00  0.00    -0.206 F 
ATOM     61  C   UNL A   1      44.188  35.476  30.665  1.00  0.00     0.059 A 
ATOM     62  C   UNL A   1      43.650  34.750  32.920  1.00  0.00     0.059 A 
ATOM     63  F   UNL A   1      43.276  32.476  33.351  1.00  0.00    -0.206 F 
ATOM     64  C   UNL A   1      43.979  35.760  32.016  1.00  0.00     0.060 A 
BRANCH  64  65
ATOM     65  S   UNL A   1      44.137  37.470  32.570  1.00  0.00     0.124 S 
ATOM     66  O   UNL A   1      43.152  37.518  33.647  1.00  0.00    -0.237 OA
ATOM     67  O   UNL A   1      45.534  37.535  32.987  1.00  0.00    -0.237 OA
ATOM     68  O   UNL A   1      43.803  38.246  31.381  1.00  0.00    -0.744 OA
ENDBRANCH  64  65
ENDBRANCH  43  57
BRANCH  44  69
ATOM     69  C   UNL A   1      42.470  23.801  27.682  1.00  0.00     0.058 A 
ATOM     70  C   UNL A   1      42.363  22.694  28.536  1.00  0.00     0.135 A 
ATOM     71  C   UNL A   1      42.392  23.568  26.299  1.00  0.00     0.135 A 
ATOM     72  F   UNL A   1      42.437  22.864  29.865  1.00  0.00    -0.206 F 
ATOM     73  C   UNL A   1      42.204  21.402  28.043  1.00  0.00     0.059 A 
ATOM     74  C   UNL A   1      42.207  22.288  25.782  1.00  0.00     0.059 A 
ATOM     75  F   UNL A   1      42.471  24.594  25.438  1.00  0.00    -0.206 F 
ATOM     76  C   UNL A   1      42.125  21.211  26.662  1.00  0.00     0.060 A 
BRANCH  76  77
ATOM     77  S   UNL A   1      41.874  19.536  26.035  1.00  0.00     0.124 S 
ATOM     78  O   UNL A   1      40.443  19.538  25.758  1.00  0.00    -0.237 OA
ATOM     79  O   UNL A   1      42.751  19.513  24.868  1.00  0.00    -0.237 OA
ATOM     80  O   UNL A   1      42.303  18.694  27.148  1.00  0.00    -0.744 OA
ENDBRANCH  76  77
ENDBRANCH  44  69
BRANCH  56  81
ATOM     81  C   UNL A   1      47.976  27.356  30.098  1.00  0.00     0.058 A 
ATOM     82  C   UNL A   1      48.964  27.656  29.150  1.00  0.00     0.135 A 
ATOM     83  C   UNL A   1      48.384  26.788  31.318  1.00  0.00     0.135 A 
ATOM     84  F   UNL A   1      48.625  28.190  27.965  1.00  0.00    -0.206 F 
ATOM     85  C   UNL A   1      50.310  27.402  29.400  1.00  0.00     0.059 A 
ATOM     86  C   UNL A   1      49.725  26.551  31.599  1.00  0.00     0.059 A 
ATOM     87  F   UNL A   1      47.478  26.491  32.262  1.00  0.00    -0.206 F 
ATOM     88  C   UNL A   1      50.681  26.859  30.632  1.00  0.00     0.060 A 
BRANCH  88  89
ATOM     89  S   UNL A   1      52.436  26.607  30.972  1.00  0.00     0.124 S 
ATOM     90  O   UNL A   1      52.407  25.397  31.787  1.00  0.00    -0.237 OA
ATOM     91  O   UNL A   1      52.995  26.456  29.632  1.00  0.00    -0.237 OA
ATOM     92  O   UNL A   1      52.825  27.827  31.673  1.00  0.00    -0.744 OA
ENDBRANCH  88  89
ENDBRANCH  56  81
ENDBRANCH  30  31
ENDBRANCH  22  25
ENDBRANCH  20  21
ENDBRANCH   1  20
TORSDOF 16
ENDMDL
MODEL 3
REMARK VINA RESULT:     -10.8      4.249     10.243
REMARK SMILES C[C@H]([C@@H](C)O)[N@H+]1CC[C@@](C)(C(=O)NCCCNC(=O)c2ccc(-c3c4nc(c(-c5c(F)cc(S(=O)(=O)[O-])cc5F)c5ccc([nH]5)c(-c5c(F)cc(S(=O)(=O)[O-])cc5F)c5nc(c(-c6c(F)cc(S(=O)(=O)[O-])cc6F)c6ccc3[nH]6)C=C5)C=C4)cc2)C1
REMARK SMILES IDX 15 1 14 2 13 3 11 4 12 5 9 7 6 8 7 9 86 10 8 12 10 13 2 14
REMARK SMILES IDX 1 15 3 16 4 17 5 18 16 20 17 21 18 22 19 24 20 25 21 26
REMARK SMILES IDX 85 27 22 28 84 29 23 30 24 31 25 32 78 33 26 34 83 35 77 36
REMARK SMILES IDX 79 37 27 38 82 39 76 40 75 41 28 43 62 44 41 45 61 46 42 47
REMARK SMILES IDX 45 48 60 49 80 50 43 51 44 52 59 54 81 55 46 56 29 57 30 58
REMARK SMILES IDX 39 59 31 60 32 61 38 62 40 63 33 64 34 65 35 66 36 67 37 68
REMARK SMILES IDX 63 69 64 70 73 71 65 72 66 73 72 74 74 75 67 76 68 77 69 78
REMARK SMILES IDX 70 79 71 80 47 81 48 82 57 83 49 84 50 85 56 86 58 87 51 88
REMARK SMILES IDX 52 89 53 90 54 91 55 92
REMARK H PARENT 13 6 6 11 5 19 17 23 79 42 45 53
REMARK Flexibility Score: inf
ROOT
ATOM      1  C   UNL A   1      35.905  23.466  23.858  1.00  0.00     0.042 C 
ENDROOT
BRANCH   1   2
ATOM      2  C   UNL A   1      34.447  23.842  24.108  1.00  0.00     0.117 C 
BRANCH   2   3
ATOM      3  N   UNL A   1      33.569  23.085  23.238  1.00  0.00    -0.355 N 
ATOM      4  C   UNL A   1      32.925  21.901  23.409  1.00  0.00     0.231 C 
ATOM      5  O   UNL A   1      32.320  21.488  22.414  1.00  0.00    -0.274 OA
ATOM      6  H   UNL A   1      33.410  23.505  22.362  1.00  0.00     0.163 HD
BRANCH   4   7
ATOM      7  C   UNL A   1      32.845  21.192  24.778  1.00  0.00     0.100 C 
ATOM      8  N   UNL A   1      33.680  18.902  24.937  1.00  0.00    -0.330 N 
ATOM      9  C   UNL A   1      34.812  19.824  25.008  1.00  0.00     0.263 C 
ATOM     10  C   UNL A   1      32.496  19.693  24.541  1.00  0.00     0.279 C 
ATOM     11  H   UNL A   1      33.484  18.484  25.847  1.00  0.00     0.348 HD
ATOM     12  C   UNL A   1      34.174  21.088  25.541  1.00  0.00     0.084 C 
ATOM     13  C   UNL A   1      31.772  21.917  25.619  1.00  0.00     0.028 C 
BRANCH   8  14
ATOM     14  C   UNL A   1      33.967  17.690  24.121  1.00  0.00     0.209 C 
ATOM     15  C   UNL A   1      33.079  17.535  22.874  1.00  0.00     0.078 C 
BRANCH  14  16
ATOM     16  C   UNL A   1      33.961  16.398  24.994  1.00  0.00     0.169 C 
ATOM     17  C   UNL A   1      35.364  15.909  25.341  1.00  0.00     0.045 C 
BRANCH  16  18
ATOM     18  O   UNL A   1      33.299  16.652  26.242  1.00  0.00    -0.387 OA
ATOM     19  H   UNL A   1      33.953  16.920  26.906  1.00  0.00     0.211 HD
ENDBRANCH  16  18
ENDBRANCH  14  16
ENDBRANCH   8  14
ENDBRANCH   4   7
ENDBRANCH   2   3
ENDBRANCH   1   2
BRANCH   1  20
ATOM     20  C   UNL A   1      36.835  23.871  24.998  1.00  0.00     0.118 C 
BRANCH  20  21
ATOM     21  N   UNL A   1      37.788  22.819  25.329  1.00  0.00    -0.352 N 
ATOM     22  C   UNL A   1      38.982  22.915  26.002  1.00  0.00     0.251 C 
ATOM     23  H   UNL A   1      37.541  21.916  25.028  1.00  0.00     0.163 HD
ATOM     24  O   UNL A   1      39.765  21.969  25.994  1.00  0.00    -0.269 OA
BRANCH  22  25
ATOM     25  C   UNL A   1      39.322  24.162  26.715  1.00  0.00     0.039 A 
ATOM     26  C   UNL A   1      38.872  24.347  28.024  1.00  0.00     0.014 A 
ATOM     27  C   UNL A   1      40.092  25.145  26.088  1.00  0.00     0.014 A 
ATOM     28  C   UNL A   1      39.255  25.491  28.731  1.00  0.00     0.010 A 
ATOM     29  C   UNL A   1      40.533  26.244  26.815  1.00  0.00     0.010 A 
ATOM     30  C   UNL A   1      40.118  26.430  28.143  1.00  0.00    -0.014 A 
BRANCH  30  31
ATOM     31  C   UNL A   1      40.602  27.625  28.881  1.00  0.00     0.031 A 
ATOM     32  C   UNL A   1      41.955  27.594  29.539  1.00  0.00     0.074 A 
ATOM     33  C   UNL A   1      39.791  28.689  29.043  1.00  0.00     0.049 A 
ATOM     34  N   UNL A   1      42.493  28.453  30.362  1.00  0.00    -0.248 NA
ATOM     35  C   UNL A   1      42.800  26.421  29.255  1.00  0.00     0.031 C 
ATOM     36  C   UNL A   1      38.447  28.825  28.477  1.00  0.00     0.029 A 
ATOM     37  N   UNL A   1      39.969  29.850  29.753  1.00  0.00    -0.354 N 
ATOM     38  C   UNL A   1      43.726  27.916  30.715  1.00  0.00     0.074 A 
ATOM     39  C   UNL A   1      43.835  26.635  30.052  1.00  0.00     0.031 C 
ATOM     40  C   UNL A   1      37.927  30.004  28.856  1.00  0.00     0.029 A 
ATOM     41  C   UNL A   1      38.877  30.687  29.729  1.00  0.00     0.049 A 
ATOM     42  H   UNL A   1      40.801  30.066  30.234  1.00  0.00     0.167 HD
ATOM     43  C   UNL A   1      44.687  28.453  31.504  1.00  0.00     0.037 A 
ATOM     44  C   UNL A   1      38.656  31.858  30.357  1.00  0.00     0.037 A 
ATOM     45  C   UNL A   1      44.580  29.742  32.135  1.00  0.00     0.049 A 
ATOM     46  C   UNL A   1      39.732  32.427  31.244  1.00  0.00     0.074 A 
ATOM     47  C   UNL A   1      45.517  30.398  32.912  1.00  0.00     0.029 A 
ATOM     48  N   UNL A   1      43.469  30.570  32.060  1.00  0.00    -0.354 N 
ATOM     49  N   UNL A   1      40.911  31.928  31.531  1.00  0.00    -0.248 NA
ATOM     50  C   UNL A   1      39.451  33.716  31.892  1.00  0.00     0.031 C 
ATOM     51  C   UNL A   1      44.957  31.605  33.345  1.00  0.00     0.029 A 
ATOM     52  C   UNL A   1      43.691  31.725  32.792  1.00  0.00     0.049 A 
ATOM     53  H   UNL A   1      42.645  30.368  31.561  1.00  0.00     0.167 HD
ATOM     54  C   UNL A   1      41.525  32.858  32.363  1.00  0.00     0.074 A 
ATOM     55  C   UNL A   1      40.589  33.949  32.533  1.00  0.00     0.031 C 
ATOM     56  C   UNL A   1      42.756  32.813  32.930  1.00  0.00     0.037 A 
BRANCH  43  57
ATOM     57  C   UNL A   1      45.939  27.649  31.727  1.00  0.00     0.058 A 
ATOM     58  C   UNL A   1      47.062  27.787  30.895  1.00  0.00     0.135 A 
ATOM     59  C   UNL A   1      46.031  26.755  32.806  1.00  0.00     0.135 A 
ATOM     60  F   UNL A   1      47.024  28.616  29.840  1.00  0.00    -0.206 F 
ATOM     61  C   UNL A   1      48.220  27.046  31.107  1.00  0.00     0.059 A 
ATOM     62  C   UNL A   1      47.190  26.025  33.055  1.00  0.00     0.059 A 
ATOM     63  F   UNL A   1      44.987  26.583  33.633  1.00  0.00    -0.206 F 
ATOM     64  C   UNL A   1      48.274  26.166  32.190  1.00  0.00     0.060 A 
BRANCH  64  65
ATOM     65  S   UNL A   1      49.785  25.215  32.451  1.00  0.00     0.124 S 
ATOM     66  O   UNL A   1      50.109  24.805  31.088  1.00  0.00    -0.237 OA
ATOM     67  O   UNL A   1      50.679  26.206  33.042  1.00  0.00    -0.237 OA
ATOM     68  O   UNL A   1      49.363  24.142  33.345  1.00  0.00    -0.744 OA
ENDBRANCH  64  65
ENDBRANCH  43  57
BRANCH  44  69
ATOM     69  C   UNL A   1      37.369  32.577  30.163  1.00  0.00     0.058 A 
ATOM     70  C   UNL A   1      37.241  33.572  29.182  1.00  0.00     0.135 A 
ATOM     71  C   UNL A   1      36.239  32.281  30.942  1.00  0.00     0.135 A 
ATOM     72  F   UNL A   1      38.294  33.895  28.416  1.00  0.00    -0.206 F 
ATOM     73  C   UNL A   1      36.048  34.260  28.991  1.00  0.00     0.059 A 
ATOM     74  C   UNL A   1      35.026  32.937  30.752  1.00  0.00     0.059 A 
ATOM     75  F   UNL A   1      36.302  31.325  31.882  1.00  0.00    -0.206 F 
ATOM     76  C   UNL A   1      34.944  33.934  29.780  1.00  0.00     0.060 A 
BRANCH  76  77
ATOM     77  S   UNL A   1      33.387  34.803  29.494  1.00  0.00     0.124 S 
ATOM     78  O   UNL A   1      32.864  34.922  30.849  1.00  0.00    -0.237 OA
ATOM     79  O   UNL A   1      33.840  36.043  28.872  1.00  0.00    -0.237 OA
ATOM     80  O   UNL A   1      32.656  33.898  28.610  1.00  0.00    -0.744 OA
ENDBRANCH  76  77
ENDBRANCH  44  69
BRANCH  56  81
ATOM     81  C   UNL A   1      43.195  33.996  33.746  1.00  0.00     0.058 A 
ATOM     82  C   UNL A   1      43.689  35.165  33.149  1.00  0.00     0.135 A 
ATOM     83  C   UNL A   1      43.025  33.992  35.141  1.00  0.00     0.135 A 
ATOM     84  F   UNL A   1      43.880  35.216  31.820  1.00  0.00    -0.206 F 
ATOM     85  C   UNL A   1      44.002  36.290  33.906  1.00  0.00     0.059 A 
ATOM     86  C   UNL A   1      43.306  35.113  35.914  1.00  0.00     0.059 A 
ATOM     87  F   UNL A   1      42.547  32.900  35.760  1.00  0.00    -0.206 F 
ATOM     88  C   UNL A   1      43.797  36.257  35.287  1.00  0.00     0.060 A 
BRANCH  88  89
ATOM     89  S   UNL A   1      44.135  37.749  36.247  1.00  0.00     0.124 S 
ATOM     90  O   UNL A   1      43.155  37.635  37.322  1.00  0.00    -0.237 OA
ATOM     91  O   UNL A   1      45.529  37.559  36.636  1.00  0.00    -0.237 OA
ATOM     92  O   UNL A   1      43.898  38.828  35.293  1.00  0.00    -0.744 OA
ENDBRANCH  88  89
ENDBRANCH  56  81
ENDBRANCH  30  31
ENDBRANCH  22  25
ENDBRANCH  20  21
ENDBRANCH   1  20
TORSDOF 16
ENDMDL
