MODEL 1
REMARK VINA RESULT:     -11.9      0.000      0.000
REMARK SMILES O=C1NC[C@@H](CSc2ccnc(C(=O)NCCCNC(=O)c3ccc(-c4c5nc(c(-c6c(F)cc(S(=O)(=O)[O-])cc6F)c6ccc([nH]6)c(-c6c(F)cc(S(=O)(=O)[O-])cc6F)c6nc(c(-c7c(F)cc(S(=O)(=O)[O-])cc7F)c7ccc4[nH]7)C=C6)C=C5)cc3)c2)O1
REMARK SMILES IDX 17 1 16 2 15 3 13 4 14 5 12 7 8 8 9 9 88 10 10 11 11 12 7 13
REMARK SMILES IDX 6 14 5 15 1 16 2 17 3 18 89 19 4 20 18 22 19 23 20 24 21 26
REMARK SMILES IDX 22 27 23 28 87 29 24 30 86 31 25 32 26 33 27 34 80 35 28 36
REMARK SMILES IDX 85 37 79 38 81 39 29 40 84 41 78 42 77 43 30 45 64 46 43 47
REMARK SMILES IDX 63 48 44 49 47 50 62 51 82 52 45 53 46 54 61 56 83 57 48 58
REMARK SMILES IDX 31 59 32 60 41 61 33 62 34 63 40 64 42 65 35 66 36 67 37 68
REMARK SMILES IDX 38 69 39 70 65 71 66 72 75 73 67 74 68 75 74 76 76 77 69 78
REMARK SMILES IDX 70 79 71 80 72 81 73 82 49 83 50 84 59 85 51 86 52 87 58 88
REMARK SMILES IDX 60 89 53 90 54 91 55 92 56 93 57 94
REMARK H PARENT 15 6 3 21 19 25 81 44 47 55
REMARK Flexibility Score: inf
ROOT
ATOM      1  C   UNL A   1      40.564  21.534  27.170  1.00  0.00     0.042 C 
ENDROOT
BRANCH   1   2
ATOM      2  C   UNL A   1      41.780  21.058  26.377  1.00  0.00     0.118 C 
BRANCH   2   3
ATOM      3  N   UNL A   1      41.789  19.608  26.306  1.00  0.00    -0.351 N 
ATOM      4  C   UNL A   1      42.702  18.711  25.801  1.00  0.00     0.269 C 
ATOM      5  O   UNL A   1      42.390  17.520  25.822  1.00  0.00    -0.268 OA
ATOM      6  H   UNL A   1      40.989  19.185  26.694  1.00  0.00     0.163 HD
BRANCH   4   7
ATOM      7  C   UNL A   1      44.065  19.128  25.330  1.00  0.00     0.129 A 
ATOM      8  C   UNL A   1      45.682  20.758  24.683  1.00  0.00     0.011 A 
ATOM      9  C   UNL A   1      46.679  19.851  25.024  1.00  0.00     0.035 A 
ATOM     10  C   UNL A   1      44.347  20.377  24.797  1.00  0.00     0.049 A 
ATOM     11  C   UNL A   1      46.309  18.576  25.398  1.00  0.00     0.113 A 
ATOM     12  N   UNL A   1      45.031  18.201  25.567  1.00  0.00    -0.251 NA
BRANCH   8  13
ATOM     13  S   UNL A   1      46.110  22.445  24.317  1.00  0.00    -0.122 SA
BRANCH  13  14
ATOM     14  C   UNL A   1      44.486  23.293  24.385  1.00  0.00     0.122 C 
BRANCH  14  15
ATOM     15  C   UNL A   1      44.410  24.599  25.190  1.00  0.00     0.208 C 
ATOM     16  O   UNL A   1      45.223  24.481  28.547  1.00  0.00    -0.225 OA
ATOM     17  C   UNL A   1      45.132  24.691  27.348  1.00  0.00     0.407 C 
ATOM     18  N   UNL A   1      46.089  25.299  26.593  1.00  0.00    -0.318 N 
ATOM     19  O   UNL A   1      44.066  24.357  26.568  1.00  0.00    -0.443 OA
ATOM     20  C   UNL A   1      45.686  25.415  25.236  1.00  0.00     0.165 C 
ATOM     21  H   UNL A   1      46.952  25.617  26.944  1.00  0.00     0.167 HD
ENDBRANCH  14  15
ENDBRANCH  13  14
ENDBRANCH   8  13
ENDBRANCH   4   7
ENDBRANCH   2   3
ENDBRANCH   1   2
BRANCH   1  22
ATOM     22  C   UNL A   1      40.654  23.012  27.543  1.00  0.00     0.118 C 
BRANCH  22  23
ATOM     23  N   UNL A   1      41.022  23.828  26.395  1.00  0.00    -0.352 N 
ATOM     24  C   UNL A   1      40.960  25.186  26.228  1.00  0.00     0.251 C 
ATOM     25  H   UNL A   1      41.368  23.328  25.622  1.00  0.00     0.163 HD
ATOM     26  O   UNL A   1      41.033  25.654  25.095  1.00  0.00    -0.269 OA
BRANCH  24  27
ATOM     27  C   UNL A   1      40.813  26.078  27.396  1.00  0.00     0.039 A 
ATOM     28  C   UNL A   1      41.754  27.090  27.595  1.00  0.00     0.014 A 
ATOM     29  C   UNL A   1      39.781  25.889  28.319  1.00  0.00     0.014 A 
ATOM     30  C   UNL A   1      41.638  27.932  28.700  1.00  0.00     0.010 A 
ATOM     31  C   UNL A   1      39.611  26.787  29.366  1.00  0.00     0.010 A 
ATOM     32  C   UNL A   1      40.549  27.805  29.581  1.00  0.00    -0.014 A 
BRANCH  32  33
ATOM     33  C   UNL A   1      40.389  28.728  30.731  1.00  0.00     0.031 A 
ATOM     34  C   UNL A   1      41.275  28.599  31.941  1.00  0.00     0.074 A 
ATOM     35  C   UNL A   1      39.417  29.660  30.695  1.00  0.00     0.049 A 
ATOM     36  N   UNL A   1      41.290  29.320  33.032  1.00  0.00    -0.248 NA
ATOM     37  C   UNL A   1      42.253  27.500  31.935  1.00  0.00     0.031 C 
ATOM     38  C   UNL A   1      38.466  29.844  29.596  1.00  0.00     0.029 A 
ATOM     39  N   UNL A   1      39.075  30.633  31.596  1.00  0.00    -0.354 N 
ATOM     40  C   UNL A   1      42.275  28.761  33.841  1.00  0.00     0.074 A 
ATOM     41  C   UNL A   1      42.775  27.595  33.147  1.00  0.00     0.031 C 
ATOM     42  C   UNL A   1      37.685  30.901  29.863  1.00  0.00     0.029 A 
ATOM     43  C   UNL A   1      38.050  31.443  31.168  1.00  0.00     0.049 A 
ATOM     44  H   UNL A   1      39.520  30.743  32.467  1.00  0.00     0.167 HD
ATOM     45  C   UNL A   1      42.740  29.197  35.037  1.00  0.00     0.037 A 
ATOM     46  C   UNL A   1      37.476  32.508  31.757  1.00  0.00     0.037 A 
ATOM     47  C   UNL A   1      42.228  30.359  35.718  1.00  0.00     0.049 A 
ATOM     48  C   UNL A   1      37.990  32.961  33.095  1.00  0.00     0.074 A 
ATOM     49  C   UNL A   1      42.645  30.913  36.916  1.00  0.00     0.029 A 
ATOM     50  N   UNL A   1      41.175  31.143  35.263  1.00  0.00    -0.354 N 
ATOM     51  N   UNL A   1      38.963  32.460  33.820  1.00  0.00    -0.248 NA
ATOM     52  C   UNL A   1      37.333  34.131  33.690  1.00  0.00     0.031 C 
ATOM     53  C   UNL A   1      41.809  31.996  37.212  1.00  0.00     0.029 A 
ATOM     54  C   UNL A   1      40.911  32.159  36.169  1.00  0.00     0.049 A 
ATOM     55  H   UNL A   1      40.687  30.998  34.420  1.00  0.00     0.167 HD
ATOM     56  C   UNL A   1      39.055  33.270  34.946  1.00  0.00     0.074 A 
ATOM     57  C   UNL A   1      38.048  34.303  34.794  1.00  0.00     0.031 C 
ATOM     58  C   UNL A   1      39.894  33.171  36.008  1.00  0.00     0.037 A 
BRANCH  45  59
ATOM     59  C   UNL A   1      43.849  28.401  35.677  1.00  0.00     0.058 A 
ATOM     60  C   UNL A   1      45.201  28.633  35.366  1.00  0.00     0.135 A 
ATOM     61  C   UNL A   1      43.562  27.379  36.598  1.00  0.00     0.135 A 
ATOM     62  F   UNL A   1      45.538  29.587  34.484  1.00  0.00    -0.206 F 
ATOM     63  C   UNL A   1      46.219  27.845  35.897  1.00  0.00     0.059 A 
ATOM     64  C   UNL A   1      44.568  26.604  37.169  1.00  0.00     0.059 A 
ATOM     65  F   UNL A   1      42.292  27.113  36.939  1.00  0.00    -0.206 F 
ATOM     66  C   UNL A   1      45.891  26.827  36.792  1.00  0.00     0.060 A 
BRANCH  66  67
ATOM     67  S   UNL A   1      47.218  25.789  37.439  1.00  0.00     0.124 S 
ATOM     68  O   UNL A   1      46.713  25.472  38.772  1.00  0.00    -0.237 OA
ATOM     69  O   UNL A   1      47.239  24.681  36.489  1.00  0.00    -0.237 OA
ATOM     70  O   UNL A   1      48.385  26.665  37.403  1.00  0.00    -0.744 OA
ENDBRANCH  66  67
ENDBRANCH  45  59
BRANCH  46  71
ATOM     71  C   UNL A   1      36.397  33.249  31.052  1.00  0.00     0.058 A 
ATOM     72  C   UNL A   1      35.067  33.170  31.492  1.00  0.00     0.135 A 
ATOM     73  C   UNL A   1      36.675  34.084  29.958  1.00  0.00     0.135 A 
ATOM     74  F   UNL A   1      34.751  32.382  32.531  1.00  0.00    -0.206 F 
ATOM     75  C   UNL A   1      34.049  33.885  30.870  1.00  0.00     0.059 A 
ATOM     76  C   UNL A   1      35.678  34.830  29.336  1.00  0.00     0.059 A 
ATOM     77  F   UNL A   1      37.933  34.210  29.510  1.00  0.00    -0.206 F 
ATOM     78  C   UNL A   1      34.367  34.719  29.797  1.00  0.00     0.060 A 
BRANCH  78  79
ATOM     79  S   UNL A   1      33.050  35.699  29.046  1.00  0.00     0.124 S 
ATOM     80  O   UNL A   1      33.810  36.719  28.335  1.00  0.00    -0.237 OA
ATOM     81  O   UNL A   1      32.371  34.710  28.215  1.00  0.00    -0.237 OA
ATOM     82  O   UNL A   1      32.284  36.170  30.197  1.00  0.00    -0.744 OA
ENDBRANCH  78  79
ENDBRANCH  46  71
BRANCH  58  83
ATOM     83  C   UNL A   1      39.773  34.229  37.074  1.00  0.00     0.058 A 
ATOM     84  C   UNL A   1      39.076  33.998  38.271  1.00  0.00     0.135 A 
ATOM     85  C   UNL A   1      40.370  35.487  36.897  1.00  0.00     0.135 A 
ATOM     86  F   UNL A   1      38.482  32.814  38.491  1.00  0.00    -0.206 F 
ATOM     87  C   UNL A   1      38.933  34.994  39.231  1.00  0.00     0.059 A 
ATOM     88  C   UNL A   1      40.272  36.485  37.861  1.00  0.00     0.059 A 
ATOM     89  F   UNL A   1      41.061  35.758  35.779  1.00  0.00    -0.206 F 
ATOM     90  C   UNL A   1      39.531  36.237  39.015  1.00  0.00     0.060 A 
BRANCH  90  91
ATOM     91  S   UNL A   1      39.334  37.521  40.267  1.00  0.00     0.124 S 
ATOM     92  O   UNL A   1      38.625  36.799  41.318  1.00  0.00    -0.237 OA
ATOM     93  O   UNL A   1      40.717  37.880  40.567  1.00  0.00    -0.237 OA
ATOM     94  O   UNL A   1      38.560  38.550  39.580  1.00  0.00    -0.744 OA
ENDBRANCH  90  91
ENDBRANCH  58  83
ENDBRANCH  32  33
ENDBRANCH  24  27
ENDBRANCH  22  23
ENDBRANCH   1  22
TORSDOF 16
ENDMDL
MODEL 2
REMARK VINA RESULT:     -11.7      4.968     13.007
REMARK SMILES O=C1NC[C@@H](CSc2ccnc(C(=O)NCCCNC(=O)c3ccc(-c4c5nc(c(-c6c(F)cc(S(=O)(=O)[O-])cc6F)c6ccc([nH]6)c(-c6c(F)cc(S(=O)(=O)[O-])cc6F)c6nc(c(-c7c(F)cc(S(=O)(=O)[O-])cc7F)c7ccc4[nH]7)C=C6)C=C5)cc3)c2)O1
REMARK SMILES IDX 17 1 16 2 15 3 13 4 14 5 12 7 8 8 9 9 88 10 10 11 11 12 7 13
REMARK SMILES IDX 6 14 5 15 1 16 2 17 3 18 89 19 4 20 18 22 19 23 20 24 21 26
REMARK SMILES IDX 22 27 23 28 87 29 24 30 86 31 25 32 26 33 27 34 80 35 28 36
REMARK SMILES IDX 85 37 79 38 81 39 29 40 84 41 78 42 77 43 30 45 64 46 43 47
REMARK SMILES IDX 63 48 44 49 47 50 62 51 82 52 45 53 46 54 61 56 83 57 48 58
REMARK SMILES IDX 31 59 32 60 41 61 33 62 34 63 40 64 42 65 35 66 36 67 37 68
REMARK SMILES IDX 38 69 39 70 65 71 66 72 75 73 67 74 68 75 74 76 76 77 69 78
REMARK SMILES IDX 70 79 71 80 72 81 73 82 49 83 50 84 59 85 51 86 52 87 58 88
REMARK SMILES IDX 60 89 53 90 54 91 55 92 56 93 57 94
REMARK H PARENT 15 6 3 21 19 25 81 44 47 55
REMARK Flexibility Score: inf
ROOT
ATOM      1  C   UNL A   1      34.634  33.539  28.101  1.00  0.00     0.042 C 
ENDROOT
BRANCH   1   2
ATOM      2  C   UNL A   1      33.257  34.143  28.369  1.00  0.00     0.118 C 
BRANCH   2   3
ATOM      3  N   UNL A   1      33.311  35.586  28.214  1.00  0.00    -0.351 N 
ATOM      4  C   UNL A   1      33.270  36.617  29.125  1.00  0.00     0.269 C 
ATOM      5  O   UNL A   1      33.264  37.763  28.674  1.00  0.00    -0.268 OA
ATOM      6  H   UNL A   1      33.391  35.884  27.279  1.00  0.00     0.163 HD
BRANCH   4   7
ATOM      7  C   UNL A   1      33.331  36.387  30.606  1.00  0.00     0.129 A 
ATOM      8  C   UNL A   1      33.850  35.080  32.533  1.00  0.00     0.011 A 
ATOM      9  C   UNL A   1      33.928  36.258  33.267  1.00  0.00     0.035 A 
ATOM     10  C   UNL A   1      33.504  35.138  31.185  1.00  0.00     0.049 A 
ATOM     11  C   UNL A   1      33.588  37.443  32.647  1.00  0.00     0.113 A 
ATOM     12  N   UNL A   1      33.303  37.532  31.339  1.00  0.00    -0.251 NA
BRANCH   8  13
ATOM     13  S   UNL A   1      34.399  33.551  33.258  1.00  0.00    -0.122 SA
BRANCH  13  14
ATOM     14  C   UNL A   1      36.079  33.354  32.549  1.00  0.00     0.122 C 
BRANCH  14  15
ATOM     15  C   UNL A   1      36.990  34.591  32.550  1.00  0.00     0.208 C 
ATOM     16  O   UNL A   1      39.552  34.714  34.866  1.00  0.00    -0.225 OA
ATOM     17  C   UNL A   1      38.839  34.686  33.875  1.00  0.00     0.407 C 
ATOM     18  N   UNL A   1      39.282  34.453  32.608  1.00  0.00    -0.318 N 
ATOM     19  O   UNL A   1      37.491  34.883  33.869  1.00  0.00    -0.443 OA
ATOM     20  C   UNL A   1      38.219  34.501  31.668  1.00  0.00     0.165 C 
ATOM     21  H   UNL A   1      40.221  34.273  32.373  1.00  0.00     0.167 HD
ENDBRANCH  14  15
ENDBRANCH  13  14
ENDBRANCH   8  13
ENDBRANCH   4   7
ENDBRANCH   2   3
ENDBRANCH   1   2
BRANCH   1  22
ATOM     22  C   UNL A   1      34.969  32.402  29.064  1.00  0.00     0.118 C 
BRANCH  22  23
ATOM     23  N   UNL A   1      34.339  31.156  28.653  1.00  0.00    -0.352 N 
ATOM     24  C   UNL A   1      34.905  29.995  28.195  1.00  0.00     0.251 C 
ATOM     25  H   UNL A   1      33.357  31.144  28.715  1.00  0.00     0.163 HD
ATOM     26  O   UNL A   1      34.200  29.169  27.623  1.00  0.00    -0.269 OA
BRANCH  24  27
ATOM     27  C   UNL A   1      36.347  29.738  28.390  1.00  0.00     0.039 A 
ATOM     28  C   UNL A   1      36.791  29.296  29.638  1.00  0.00     0.014 A 
ATOM     29  C   UNL A   1      37.265  29.979  27.364  1.00  0.00     0.014 A 
ATOM     30  C   UNL A   1      38.150  29.062  29.844  1.00  0.00     0.010 A 
ATOM     31  C   UNL A   1      38.606  29.654  27.541  1.00  0.00     0.010 A 
ATOM     32  C   UNL A   1      39.066  29.213  28.788  1.00  0.00    -0.014 A 
BRANCH  32  33
ATOM     33  C   UNL A   1      40.507  28.919  28.982  1.00  0.00     0.031 A 
ATOM     34  C   UNL A   1      41.067  27.571  28.614  1.00  0.00     0.074 A 
ATOM     35  C   UNL A   1      41.301  29.861  29.525  1.00  0.00     0.049 A 
ATOM     36  N   UNL A   1      42.297  27.138  28.701  1.00  0.00    -0.248 NA
ATOM     37  C   UNL A   1      40.114  26.571  28.108  1.00  0.00     0.031 C 
ATOM     38  C   UNL A   1      40.858  31.185  29.967  1.00  0.00     0.029 A 
ATOM     39  N   UNL A   1      42.646  29.857  29.787  1.00  0.00    -0.354 N 
ATOM     40  C   UNL A   1      42.265  25.817  28.263  1.00  0.00     0.074 A 
ATOM     41  C   UNL A   1      40.882  25.500  27.989  1.00  0.00     0.031 C 
ATOM     42  C   UNL A   1      41.920  31.885  30.394  1.00  0.00     0.029 A 
ATOM     43  C   UNL A   1      43.111  31.047  30.295  1.00  0.00     0.049 A 
ATOM     44  H   UNL A   1      43.225  29.077  29.625  1.00  0.00     0.167 HD
ATOM     45  C   UNL A   1      43.298  24.959  28.077  1.00  0.00     0.037 A 
ATOM     46  C   UNL A   1      44.358  31.421  30.635  1.00  0.00     0.037 A 
ATOM     47  C   UNL A   1      44.672  25.289  28.358  1.00  0.00     0.049 A 
ATOM     48  C   UNL A   1      45.486  30.447  30.444  1.00  0.00     0.074 A 
ATOM     49  C   UNL A   1      45.802  24.512  28.175  1.00  0.00     0.029 A 
ATOM     50  N   UNL A   1      45.102  26.498  28.892  1.00  0.00    -0.354 N 
ATOM     51  N   UNL A   1      45.449  29.222  29.971  1.00  0.00    -0.248 NA
ATOM     52  C   UNL A   1      46.826  30.908  30.825  1.00  0.00     0.031 C 
ATOM     53  C   UNL A   1      46.907  25.228  28.651  1.00  0.00     0.029 A 
ATOM     54  C   UNL A   1      46.477  26.477  29.070  1.00  0.00     0.049 A 
ATOM     55  H   UNL A   1      44.516  27.258  29.111  1.00  0.00     0.167 HD
ATOM     56  C   UNL A   1      46.766  28.776  29.971  1.00  0.00     0.074 A 
ATOM     57  C   UNL A   1      47.573  29.870  30.475  1.00  0.00     0.031 C 
ATOM     58  C   UNL A   1      47.263  27.572  29.588  1.00  0.00     0.037 A 
BRANCH  45  59
ATOM     59  C   UNL A   1      42.966  23.584  27.554  1.00  0.00     0.058 A 
ATOM     60  C   UNL A   1      42.578  22.540  28.413  1.00  0.00     0.135 A 
ATOM     61  C   UNL A   1      43.054  23.297  26.182  1.00  0.00     0.135 A 
ATOM     62  F   UNL A   1      42.487  22.750  29.736  1.00  0.00    -0.206 F 
ATOM     63  C   UNL A   1      42.349  21.251  27.939  1.00  0.00     0.059 A 
ATOM     64  C   UNL A   1      42.793  22.023  25.682  1.00  0.00     0.059 A 
ATOM     65  F   UNL A   1      43.414  24.252  25.312  1.00  0.00    -0.206 F 
ATOM     66  C   UNL A   1      42.467  21.001  26.572  1.00  0.00     0.060 A 
BRANCH  66  67
ATOM     67  S   UNL A   1      42.207  19.316  25.979  1.00  0.00     0.124 S 
ATOM     68  O   UNL A   1      40.767  19.314  25.734  1.00  0.00    -0.237 OA
ATOM     69  O   UNL A   1      43.052  19.269  24.790  1.00  0.00    -0.237 OA
ATOM     70  O   UNL A   1      42.653  18.489  27.096  1.00  0.00    -0.744 OA
ENDBRANCH  66  67
ENDBRANCH  45  59
BRANCH  46  71
ATOM     71  C   UNL A   1      44.605  32.802  31.129  1.00  0.00     0.058 A 
ATOM     72  C   UNL A   1      44.876  33.846  30.232  1.00  0.00     0.135 A 
ATOM     73  C   UNL A   1      44.533  33.116  32.495  1.00  0.00     0.135 A 
ATOM     74  F   UNL A   1      44.960  33.595  28.917  1.00  0.00    -0.206 F 
ATOM     75  C   UNL A   1      45.072  35.152  30.671  1.00  0.00     0.059 A 
ATOM     76  C   UNL A   1      44.698  34.418  32.956  1.00  0.00     0.059 A 
ATOM     77  F   UNL A   1      44.257  32.157  33.392  1.00  0.00    -0.206 F 
ATOM     78  C   UNL A   1      44.973  35.429  32.035  1.00  0.00     0.060 A 
BRANCH  78  79
ATOM     79  S   UNL A   1      45.155  37.139  32.584  1.00  0.00     0.124 S 
ATOM     80  O   UNL A   1      45.705  36.962  33.922  1.00  0.00    -0.237 OA
ATOM     81  O   UNL A   1      46.067  37.684  31.583  1.00  0.00    -0.237 OA
ATOM     82  O   UNL A   1      43.791  37.657  32.525  1.00  0.00    -0.744 OA
ENDBRANCH  78  79
ENDBRANCH  46  71
BRANCH  58  83
ATOM     83  C   UNL A   1      48.756  27.392  29.676  1.00  0.00     0.058 A 
ATOM     84  C   UNL A   1      49.611  27.765  28.626  1.00  0.00     0.135 A 
ATOM     85  C   UNL A   1      49.339  26.844  30.830  1.00  0.00     0.135 A 
ATOM     86  F   UNL A   1      49.107  28.290  27.497  1.00  0.00    -0.206 F 
ATOM     87  C   UNL A   1      50.984  27.556  28.698  1.00  0.00     0.059 A 
ATOM     88  C   UNL A   1      50.714  26.662  30.939  1.00  0.00     0.059 A 
ATOM     89  F   UNL A   1      48.572  26.484  31.871  1.00  0.00    -0.206 F 
ATOM     90  C   UNL A   1      51.526  26.999  29.858  1.00  0.00     0.060 A 
BRANCH  90  91
ATOM     91  S   UNL A   1      53.308  26.729  29.936  1.00  0.00     0.124 S 
ATOM     92  O   UNL A   1      53.579  26.175  28.614  1.00  0.00    -0.237 OA
ATOM     93  O   UNL A   1      53.819  28.076  30.175  1.00  0.00    -0.237 OA
ATOM     94  O   UNL A   1      53.463  25.799  31.050  1.00  0.00    -0.744 OA
ENDBRANCH  90  91
ENDBRANCH  58  83
ENDBRANCH  32  33
ENDBRANCH  24  27
ENDBRANCH  22  23
ENDBRANCH   1  22
TORSDOF 16
ENDMDL
MODEL 3
REMARK VINA RESULT:     -11.7      3.537      5.530
REMARK SMILES O=C1NC[C@@H](CSc2ccnc(C(=O)NCCCNC(=O)c3ccc(-c4c5nc(c(-c6c(F)cc(S(=O)(=O)[O-])cc6F)c6ccc([nH]6)c(-c6c(F)cc(S(=O)(=O)[O-])cc6F)c6nc(c(-c7c(F)cc(S(=O)(=O)[O-])cc7F)c7ccc4[nH]7)C=C6)C=C5)cc3)c2)O1
REMARK SMILES IDX 17 1 16 2 15 3 13 4 14 5 12 7 8 8 9 9 88 10 10 11 11 12 7 13
REMARK SMILES IDX 6 14 5 15 1 16 2 17 3 18 89 19 4 20 18 22 19 23 20 24 21 26
REMARK SMILES IDX 22 27 23 28 87 29 24 30 86 31 25 32 26 33 27 34 80 35 28 36
REMARK SMILES IDX 85 37 79 38 81 39 29 40 84 41 78 42 77 43 30 45 64 46 43 47
REMARK SMILES IDX 63 48 44 49 47 50 62 51 82 52 45 53 46 54 61 56 83 57 48 58
REMARK SMILES IDX 31 59 32 60 41 61 33 62 34 63 40 64 42 65 35 66 36 67 37 68
REMARK SMILES IDX 38 69 39 70 65 71 66 72 75 73 67 74 68 75 74 76 76 77 69 78
REMARK SMILES IDX 70 79 71 80 72 81 73 82 49 83 50 84 59 85 51 86 52 87 58 88
REMARK SMILES IDX 60 89 53 90 54 91 55 92 56 93 57 94
REMARK H PARENT 15 6 3 21 19 25 81 44 47 55
REMARK Flexibility Score: inf
ROOT
ATOM      1  C   UNL A   1      38.225  23.696  26.419  1.00  0.00     0.042 C 
ENDROOT
BRANCH   1   2
ATOM      2  C   UNL A   1      37.771  22.395  25.761  1.00  0.00     0.118 C 
BRANCH   2   3
ATOM      3  N   UNL A   1      37.532  22.613  24.346  1.00  0.00    -0.351 N 
ATOM      4  C   UNL A   1      36.391  22.904  23.633  1.00  0.00     0.269 C 
ATOM      5  O   UNL A   1      36.495  22.962  22.408  1.00  0.00    -0.268 OA
ATOM      6  H   UNL A   1      38.341  22.538  23.789  1.00  0.00     0.163 HD
BRANCH   4   7
ATOM      7  C   UNL A   1      35.089  23.238  24.299  1.00  0.00     0.129 A 
ATOM      8  C   UNL A   1      33.405  24.764  25.027  1.00  0.00     0.011 A 
ATOM      9  C   UNL A   1      32.495  23.713  25.005  1.00  0.00     0.035 A 
ATOM     10  C   UNL A   1      34.739  24.516  24.708  1.00  0.00     0.049 A 
ATOM     11  C   UNL A   1      32.962  22.443  24.736  1.00  0.00     0.113 A 
ATOM     12  N   UNL A   1      34.229  22.188  24.375  1.00  0.00    -0.251 NA
BRANCH   8  13
ATOM     13  S   UNL A   1      32.824  26.431  25.245  1.00  0.00    -0.122 SA
BRANCH  13  14
ATOM     14  C   UNL A   1      33.629  27.319  23.857  1.00  0.00     0.122 C 
BRANCH  14  15
ATOM     15  C   UNL A   1      33.026  27.124  22.457  1.00  0.00     0.208 C 
ATOM     16  O   UNL A   1      33.321  24.011  20.985  1.00  0.00    -0.225 OA
ATOM     17  C   UNL A   1      32.963  25.068  21.482  1.00  0.00     0.407 C 
ATOM     18  N   UNL A   1      31.697  25.333  21.909  1.00  0.00    -0.318 N 
ATOM     19  O   UNL A   1      33.762  26.151  21.690  1.00  0.00    -0.443 OA
ATOM     20  C   UNL A   1      31.587  26.652  22.423  1.00  0.00     0.165 C 
ATOM     21  H   UNL A   1      30.952  24.690  21.867  1.00  0.00     0.167 HD
ENDBRANCH  14  15
ENDBRANCH  13  14
ENDBRANCH   8  13
ENDBRANCH   4   7
ENDBRANCH   2   3
ENDBRANCH   1   2
BRANCH   1  22
ATOM     22  C   UNL A   1      39.639  23.600  26.987  1.00  0.00     0.118 C 
BRANCH  22  23
ATOM     23  N   UNL A   1      40.610  24.233  26.105  1.00  0.00    -0.352 N 
ATOM     24  C   UNL A   1      41.103  25.511  26.116  1.00  0.00     0.251 C 
ATOM     25  H   UNL A   1      40.966  23.654  25.394  1.00  0.00     0.163 HD
ATOM     26  O   UNL A   1      41.681  25.938  25.121  1.00  0.00    -0.269 OA
BRANCH  24  27
ATOM     27  C   UNL A   1      40.945  26.364  27.311  1.00  0.00     0.039 A 
ATOM     28  C   UNL A   1      41.765  27.485  27.453  1.00  0.00     0.014 A 
ATOM     29  C   UNL A   1      40.028  26.034  28.314  1.00  0.00     0.014 A 
ATOM     30  C   UNL A   1      41.639  28.294  28.583  1.00  0.00     0.010 A 
ATOM     31  C   UNL A   1      39.838  26.892  29.391  1.00  0.00     0.010 A 
ATOM     32  C   UNL A   1      40.654  28.019  29.548  1.00  0.00    -0.014 A 
BRANCH  32  33
ATOM     33  C   UNL A   1      40.478  28.901  30.728  1.00  0.00     0.031 A 
ATOM     34  C   UNL A   1      41.362  28.744  31.936  1.00  0.00     0.074 A 
ATOM     35  C   UNL A   1      39.495  29.821  30.718  1.00  0.00     0.049 A 
ATOM     36  N   UNL A   1      41.364  29.427  33.051  1.00  0.00    -0.248 NA
ATOM     37  C   UNL A   1      42.353  27.657  31.898  1.00  0.00     0.031 C 
ATOM     38  C   UNL A   1      38.546  30.029  29.623  1.00  0.00     0.029 A 
ATOM     39  N   UNL A   1      39.137  30.759  31.650  1.00  0.00    -0.354 N 
ATOM     40  C   UNL A   1      42.353  28.854  33.844  1.00  0.00     0.074 A 
ATOM     41  C   UNL A   1      42.871  27.719  33.114  1.00  0.00     0.031 C 
ATOM     42  C   UNL A   1      37.750  31.067  29.922  1.00  0.00     0.029 A 
ATOM     43  C   UNL A   1      38.104  31.570  31.245  1.00  0.00     0.049 A 
ATOM     44  H   UNL A   1      39.578  30.846  32.526  1.00  0.00     0.167 HD
ATOM     45  C   UNL A   1      42.809  29.256  35.056  1.00  0.00     0.037 A 
ATOM     46  C   UNL A   1      37.515  32.608  31.868  1.00  0.00     0.037 A 
ATOM     47  C   UNL A   1      42.280  30.389  35.773  1.00  0.00     0.049 A 
ATOM     48  C   UNL A   1      38.018  33.023  33.221  1.00  0.00     0.074 A 
ATOM     49  C   UNL A   1      42.686  30.908  36.990  1.00  0.00     0.029 A 
ATOM     50  N   UNL A   1      41.218  31.174  35.341  1.00  0.00    -0.354 N 
ATOM     51  N   UNL A   1      38.995  32.510  33.933  1.00  0.00    -0.248 NA
ATOM     52  C   UNL A   1      37.344  34.164  33.852  1.00  0.00     0.031 C 
ATOM     53  C   UNL A   1      41.835  31.970  37.319  1.00  0.00     0.029 A 
ATOM     54  C   UNL A   1      40.939  32.156  36.278  1.00  0.00     0.049 A 
ATOM     55  H   UNL A   1      40.735  31.051  34.491  1.00  0.00     0.167 HD
ATOM     56  C   UNL A   1      39.072  33.284  35.085  1.00  0.00     0.074 A 
ATOM     57  C   UNL A   1      38.053  34.309  34.964  1.00  0.00     0.031 C 
ATOM     58  C   UNL A   1      39.909  33.160  36.147  1.00  0.00     0.037 A 
BRANCH  45  59
ATOM     59  C   UNL A   1      43.926  28.454  35.673  1.00  0.00     0.058 A 
ATOM     60  C   UNL A   1      45.276  28.710  35.372  1.00  0.00     0.135 A 
ATOM     61  C   UNL A   1      43.649  27.401  36.561  1.00  0.00     0.135 A 
ATOM     62  F   UNL A   1      45.603  29.696  34.521  1.00  0.00    -0.206 F 
ATOM     63  C   UNL A   1      46.301  27.918  35.881  1.00  0.00     0.059 A 
ATOM     64  C   UNL A   1      44.662  26.619  37.111  1.00  0.00     0.059 A 
ATOM     65  F   UNL A   1      42.381  27.110  36.891  1.00  0.00    -0.206 F 
ATOM     66  C   UNL A   1      45.983  26.870  36.744  1.00  0.00     0.060 A 
BRANCH  66  67
ATOM     67  S   UNL A   1      47.321  25.827  37.361  1.00  0.00     0.124 S 
ATOM     68  O   UNL A   1      46.869  25.552  38.722  1.00  0.00    -0.237 OA
ATOM     69  O   UNL A   1      47.284  24.694  36.441  1.00  0.00    -0.237 OA
ATOM     70  O   UNL A   1      48.498  26.683  37.252  1.00  0.00    -0.744 OA
ENDBRANCH  66  67
ENDBRANCH  45  59
BRANCH  46  71
ATOM     71  C   UNL A   1      36.428  33.359  31.183  1.00  0.00     0.058 A 
ATOM     72  C   UNL A   1      36.708  34.178  30.080  1.00  0.00     0.135 A 
ATOM     73  C   UNL A   1      35.089  33.240  31.587  1.00  0.00     0.135 A 
ATOM     74  F   UNL A   1      37.974  34.328  29.660  1.00  0.00    -0.206 F 
ATOM     75  C   UNL A   1      35.701  34.859  29.403  1.00  0.00     0.059 A 
ATOM     76  C   UNL A   1      34.061  33.889  30.909  1.00  0.00     0.059 A 
ATOM     77  F   UNL A   1      34.766  32.453  32.624  1.00  0.00    -0.206 F 
ATOM     78  C   UNL A   1      34.379  34.700  29.821  1.00  0.00     0.060 A 
BRANCH  78  79
ATOM     79  S   UNL A   1      33.074  35.529  28.888  1.00  0.00     0.124 S 
ATOM     80  O   UNL A   1      32.481  34.415  28.158  1.00  0.00    -0.237 OA
ATOM     81  O   UNL A   1      32.257  36.103  29.953  1.00  0.00    -0.237 OA
ATOM     82  O   UNL A   1      33.805  36.498  28.077  1.00  0.00    -0.744 OA
ENDBRANCH  78  79
ENDBRANCH  46  71
BRANCH  58  83
ATOM     83  C   UNL A   1      39.772  34.180  37.246  1.00  0.00     0.058 A 
ATOM     84  C   UNL A   1      40.413  35.428  37.185  1.00  0.00     0.135 A 
ATOM     85  C   UNL A   1      38.981  33.907  38.374  1.00  0.00     0.135 A 
ATOM     86  F   UNL A   1      41.186  35.740  36.132  1.00  0.00    -0.206 F 
ATOM     87  C   UNL A   1      40.315  36.347  38.224  1.00  0.00     0.059 A 
ATOM     88  C   UNL A   1      38.837  34.827  39.407  1.00  0.00     0.059 A 
ATOM     89  F   UNL A   1      38.332  32.737  38.479  1.00  0.00    -0.206 F 
ATOM     90  C   UNL A   1      39.528  36.036  39.334  1.00  0.00     0.060 A 
BRANCH  90  91
ATOM     91  S   UNL A   1      39.413  37.235  40.677  1.00  0.00     0.124 S 
ATOM     92  O   UNL A   1      40.781  37.740  40.736  1.00  0.00    -0.237 OA
ATOM     93  O   UNL A   1      38.413  38.172  40.175  1.00  0.00    -0.237 OA
ATOM     94  O   UNL A   1      38.991  36.429  41.818  1.00  0.00    -0.744 OA
ENDBRANCH  90  91
ENDBRANCH  58  83
ENDBRANCH  32  33
ENDBRANCH  24  27
ENDBRANCH  22  23
ENDBRANCH   1  22
TORSDOF 16
ENDMDL
