MODEL 1
REMARK VINA RESULT:     -11.0      0.000      0.000
REMARK SMILES O=C(NCCCNC(=O)[C@@H](CCOC(F)(F)F)Cc1ccccc1Cl)c1ccc(-c2c3nc(c(-c4c(F)cc(S(=O)(=O)[O-])cc4F)c4ccc([nH]4)c(-c4c(F)cc(S(=O)(=O)[O-])cc4F)c4nc(c(-c5c(F)cc(S(=O)(=O)[O-])cc5F)c5ccc2[nH]5)C=C4)C=C3)cc1
REMARK SMILES IDX 5 1 4 2 3 3 1 4 2 5 26 7 27 8 91 9 28 10 90 11 29 12 30 13
REMARK SMILES IDX 31 14 84 15 32 16 89 17 83 18 85 19 33 20 88 21 82 22 81 23
REMARK SMILES IDX 34 25 68 26 47 27 67 28 48 29 51 30 66 31 86 32 49 33 50 34
REMARK SMILES IDX 65 36 87 37 52 38 35 39 36 40 45 41 37 42 38 43 44 44 46 45
REMARK SMILES IDX 39 46 40 47 41 48 42 49 43 50 69 51 70 52 79 53 71 54 72 55
REMARK SMILES IDX 78 56 80 57 73 58 74 59 75 60 76 61 77 62 53 63 54 64 63 65
REMARK SMILES IDX 55 66 56 67 62 68 64 69 57 70 58 71 59 72 60 73 61 74 6 75
REMARK SMILES IDX 7 76 8 77 9 79 10 80 11 81 12 82 13 83 14 84 15 85 16 86
REMARK SMILES IDX 17 87 18 88 19 89 20 90 24 91 21 92 23 93 25 94 22 95
REMARK H PARENT 3 6 85 24 51 35 7 78
REMARK Flexibility Score: inf
ROOT
ATOM      1  C   UNL A   1      33.110  27.654  25.845  1.00  0.00     0.042 C 
ENDROOT
BRANCH   1   2
ATOM      2  C   UNL A   1      34.295  28.169  26.638  1.00  0.00     0.118 C 
BRANCH   2   3
ATOM      3  N   UNL A   1      34.032  29.488  27.201  1.00  0.00    -0.352 N 
ATOM      4  O   UNL A   1      34.299  31.230  28.601  1.00  0.00    -0.269 OA
ATOM      5  C   UNL A   1      34.800  30.252  28.048  1.00  0.00     0.251 C 
ATOM      6  H   UNL A   1      33.174  29.892  26.936  1.00  0.00     0.163 HD
BRANCH   5   7
ATOM      7  C   UNL A   1      36.212  29.892  28.304  1.00  0.00     0.039 A 
ATOM      8  C   UNL A   1      37.187  30.130  27.336  1.00  0.00     0.014 A 
ATOM      9  C   UNL A   1      36.577  29.334  29.533  1.00  0.00     0.014 A 
ATOM     10  C   UNL A   1      38.473  29.646  27.515  1.00  0.00     0.010 A 
ATOM     11  C   UNL A   1      37.911  28.975  29.767  1.00  0.00     0.010 A 
ATOM     12  C   UNL A   1      38.866  29.106  28.749  1.00  0.00    -0.014 A 
BRANCH  12  13
ATOM     13  C   UNL A   1      40.303  28.792  28.956  1.00  0.00     0.031 A 
ATOM     14  C   UNL A   1      40.883  27.459  28.570  1.00  0.00     0.074 A 
ATOM     15  C   UNL A   1      41.098  29.762  29.453  1.00  0.00     0.049 A 
ATOM     16  N   UNL A   1      42.120  27.044  28.669  1.00  0.00    -0.248 NA
ATOM     17  C   UNL A   1      39.961  26.458  28.011  1.00  0.00     0.031 C 
ATOM     18  C   UNL A   1      40.637  31.090  29.880  1.00  0.00     0.029 A 
ATOM     19  N   UNL A   1      42.452  29.808  29.658  1.00  0.00    -0.354 N 
ATOM     20  C   UNL A   1      42.127  25.736  28.198  1.00  0.00     0.074 A 
ATOM     21  C   UNL A   1      40.761  25.413  27.843  1.00  0.00     0.031 C 
ATOM     22  C   UNL A   1      41.693  31.837  30.227  1.00  0.00     0.029 A 
ATOM     23  C   UNL A   1      42.894  31.020  30.137  1.00  0.00     0.049 A 
ATOM     24  H   UNL A   1      43.051  29.047  29.478  1.00  0.00     0.167 HD
ATOM     25  C   UNL A   1      43.179  24.892  28.067  1.00  0.00     0.037 A 
ATOM     26  C   UNL A   1      44.126  31.424  30.496  1.00  0.00     0.037 A 
ATOM     27  C   UNL A   1      44.535  25.233  28.421  1.00  0.00     0.049 A 
ATOM     28  C   UNL A   1      45.265  30.458  30.365  1.00  0.00     0.074 A 
ATOM     29  C   UNL A   1      45.672  24.449  28.331  1.00  0.00     0.029 A 
ATOM     30  N   UNL A   1      44.939  26.460  28.931  1.00  0.00    -0.354 N 
ATOM     31  N   UNL A   1      45.249  29.225  29.915  1.00  0.00    -0.248 NA
ATOM     32  C   UNL A   1      46.586  30.930  30.793  1.00  0.00     0.031 C 
ATOM     33  C   UNL A   1      46.756  25.186  28.821  1.00  0.00     0.029 A 
ATOM     34  C   UNL A   1      46.305  26.449  29.170  1.00  0.00     0.049 A 
ATOM     35  H   UNL A   1      44.343  27.225  29.099  1.00  0.00     0.167 HD
ATOM     36  C   UNL A   1      46.561  28.777  29.995  1.00  0.00     0.074 A 
ATOM     37  C   UNL A   1      47.347  29.882  30.509  1.00  0.00     0.031 C 
ATOM     38  C   UNL A   1      47.068  27.561  29.680  1.00  0.00     0.037 A 
BRANCH  25  39
ATOM     39  C   UNL A   1      42.910  23.513  27.523  1.00  0.00     0.058 A 
ATOM     40  C   UNL A   1      43.222  23.170  26.198  1.00  0.00     0.135 A 
ATOM     41  C   UNL A   1      42.386  22.506  28.350  1.00  0.00     0.135 A 
ATOM     42  F   UNL A   1      43.712  24.095  25.357  1.00  0.00    -0.206 F 
ATOM     43  C   UNL A   1      43.005  21.886  25.706  1.00  0.00     0.059 A 
ATOM     44  C   UNL A   1      42.184  21.207  27.888  1.00  0.00     0.059 A 
ATOM     45  F   UNL A   1      42.069  22.777  29.626  1.00  0.00    -0.206 F 
ATOM     46  C   UNL A   1      42.488  20.910  26.561  1.00  0.00     0.060 A 
BRANCH  46  47
ATOM     47  S   UNL A   1      42.225  19.247  25.908  1.00  0.00     0.124 S 
ATOM     48  O   UNL A   1      43.004  19.291  24.675  1.00  0.00    -0.237 OA
ATOM     49  O   UNL A   1      42.767  18.406  26.970  1.00  0.00    -0.237 OA
ATOM     50  O   UNL A   1      40.777  19.175  25.733  1.00  0.00    -0.744 OA
ENDBRANCH  46  47
ENDBRANCH  25  39
BRANCH  26  51
ATOM     51  C   UNL A   1      44.328  32.791  31.046  1.00  0.00     0.058 A 
ATOM     52  C   UNL A   1      44.207  33.052  32.418  1.00  0.00     0.135 A 
ATOM     53  C   UNL A   1      44.661  33.865  30.203  1.00  0.00     0.135 A 
ATOM     54  F   UNL A   1      43.892  32.061  33.264  1.00  0.00    -0.206 F 
ATOM     55  C   UNL A   1      44.381  34.334  32.933  1.00  0.00     0.059 A 
ATOM     56  C   UNL A   1      44.875  35.146  30.697  1.00  0.00     0.059 A 
ATOM     57  F   UNL A   1      44.812  33.665  28.884  1.00  0.00    -0.206 F 
ATOM     58  C   UNL A   1      44.714  35.374  32.062  1.00  0.00     0.060 A 
BRANCH  58  59
ATOM     59  S   UNL A   1      44.962  37.029  32.739  1.00  0.00     0.124 S 
ATOM     60  O   UNL A   1      43.627  37.345  33.232  1.00  0.00    -0.237 OA
ATOM     61  O   UNL A   1      45.980  36.796  33.758  1.00  0.00    -0.237 OA
ATOM     62  O   UNL A   1      45.408  37.800  31.584  1.00  0.00    -0.744 OA
ENDBRANCH  58  59
ENDBRANCH  26  51
BRANCH  38  63
ATOM     63  C   UNL A   1      48.550  27.378  29.855  1.00  0.00     0.058 A 
ATOM     64  C   UNL A   1      49.453  27.627  28.810  1.00  0.00     0.135 A 
ATOM     65  C   UNL A   1      49.072  26.963  31.090  1.00  0.00     0.135 A 
ATOM     66  F   UNL A   1      49.003  28.016  27.606  1.00  0.00    -0.206 F 
ATOM     67  C   UNL A   1      50.821  27.439  28.973  1.00  0.00     0.059 A 
ATOM     68  C   UNL A   1      50.440  26.798  31.284  1.00  0.00     0.059 A 
ATOM     69  F   UNL A   1      48.252  26.718  32.125  1.00  0.00    -0.206 F 
ATOM     70  C   UNL A   1      51.304  27.023  30.215  1.00  0.00     0.060 A 
BRANCH  70  71
ATOM     71  S   UNL A   1      53.083  26.798  30.419  1.00  0.00     0.124 S 
ATOM     72  O   UNL A   1      53.524  26.672  29.033  1.00  0.00    -0.237 OA
ATOM     73  O   UNL A   1      53.478  28.026  31.100  1.00  0.00    -0.237 OA
ATOM     74  O   UNL A   1      53.182  25.582  31.222  1.00  0.00    -0.744 OA
ENDBRANCH  70  71
ENDBRANCH  38  63
ENDBRANCH  12  13
ENDBRANCH   5   7
ENDBRANCH   2   3
ENDBRANCH   1   2
BRANCH   1  75
ATOM     75  C   UNL A   1      31.785  28.024  26.495  1.00  0.00     0.117 C 
BRANCH  75  76
ATOM     76  N   UNL A   1      31.035  26.830  26.826  1.00  0.00    -0.356 N 
ATOM     77  C   UNL A   1      30.292  25.981  26.085  1.00  0.00     0.223 C 
ATOM     78  H   UNL A   1      31.077  26.589  27.779  1.00  0.00     0.163 HD
ATOM     79  O   UNL A   1      29.632  25.150  26.724  1.00  0.00    -0.275 OA
BRANCH  77  80
ATOM     80  C   UNL A   1      30.229  25.955  24.558  1.00  0.00     0.085 C 
BRANCH  80  81
ATOM     81  C   UNL A   1      30.795  24.656  23.925  1.00  0.00     0.042 C 
BRANCH  81  82
ATOM     82  C   UNL A   1      32.296  24.459  23.682  1.00  0.00     0.171 C 
BRANCH  82  83
ATOM     83  O   UNL A   1      32.893  23.440  24.452  1.00  0.00    -0.292 OA
BRANCH  83  84
ATOM     84  C   UNL A   1      33.794  23.890  25.439  1.00  0.00     0.522 C 
ATOM     85  F   UNL A   1      34.506  22.828  25.867  1.00  0.00    -0.144 F 
ATOM     86  F   UNL A   1      34.642  24.807  24.938  1.00  0.00    -0.144 F 
ATOM     87  F   UNL A   1      33.118  24.412  26.476  1.00  0.00    -0.144 F 
ENDBRANCH  83  84
ENDBRANCH  82  83
ENDBRANCH  81  82
ENDBRANCH  80  81
BRANCH  80  88
ATOM     88  C   UNL A   1      28.966  26.484  23.858  1.00  0.00     0.050 C 
BRANCH  88  89
ATOM     89  C   UNL A   1      28.939  27.830  23.155  1.00  0.00    -0.029 A 
ATOM     90  C   UNL A   1      30.076  28.422  22.586  1.00  0.00     0.005 A 
ATOM     91  C   UNL A   1      27.736  28.571  23.126  1.00  0.00     0.044 A 
ATOM     92  C   UNL A   1      30.020  29.704  22.026  1.00  0.00     0.000 A 
ATOM     93  C   UNL A   1      27.680  29.847  22.554  1.00  0.00     0.021 A 
ATOM     94  Cl  UNL A   1      26.261  27.960  23.803  1.00  0.00    -0.084 Cl
ATOM     95  C   UNL A   1      28.826  30.418  22.012  1.00  0.00     0.002 A 
ENDBRANCH  88  89
ENDBRANCH  80  88
ENDBRANCH  77  80
ENDBRANCH  75  76
ENDBRANCH   1  75
TORSDOF 19
ENDMDL
MODEL 2
REMARK VINA RESULT:     -11.0      2.833      8.982
REMARK SMILES O=C(NCCCNC(=O)[C@@H](CCOC(F)(F)F)Cc1ccccc1Cl)c1ccc(-c2c3nc(c(-c4c(F)cc(S(=O)(=O)[O-])cc4F)c4ccc([nH]4)c(-c4c(F)cc(S(=O)(=O)[O-])cc4F)c4nc(c(-c5c(F)cc(S(=O)(=O)[O-])cc5F)c5ccc2[nH]5)C=C4)C=C3)cc1
REMARK SMILES IDX 5 1 4 2 3 3 1 4 2 5 26 7 27 8 91 9 28 10 90 11 29 12 30 13
REMARK SMILES IDX 31 14 84 15 32 16 89 17 83 18 85 19 33 20 88 21 82 22 81 23
REMARK SMILES IDX 34 25 68 26 47 27 67 28 48 29 51 30 66 31 86 32 49 33 50 34
REMARK SMILES IDX 65 36 87 37 52 38 35 39 36 40 45 41 37 42 38 43 44 44 46 45
REMARK SMILES IDX 39 46 40 47 41 48 42 49 43 50 69 51 70 52 79 53 71 54 72 55
REMARK SMILES IDX 78 56 80 57 73 58 74 59 75 60 76 61 77 62 53 63 54 64 63 65
REMARK SMILES IDX 55 66 56 67 62 68 64 69 57 70 58 71 59 72 60 73 61 74 6 75
REMARK SMILES IDX 7 76 8 77 9 79 10 80 11 81 12 82 13 83 14 84 15 85 16 86
REMARK SMILES IDX 17 87 18 88 19 89 20 90 24 91 21 92 23 93 25 94 22 95
REMARK H PARENT 3 6 85 24 51 35 7 78
REMARK Flexibility Score: inf
ROOT
ATOM      1  C   UNL A   1      33.920  29.717  27.009  1.00  0.00     0.042 C 
ENDROOT
BRANCH   1   2
ATOM      2  C   UNL A   1      35.288  29.512  27.629  1.00  0.00     0.118 C 
BRANCH   2   3
ATOM      3  N   UNL A   1      35.306  29.908  29.032  1.00  0.00    -0.352 N 
ATOM      4  O   UNL A   1      36.069  29.992  31.148  1.00  0.00    -0.269 OA
ATOM      5  C   UNL A   1      36.323  29.829  29.955  1.00  0.00     0.251 C 
ATOM      6  H   UNL A   1      34.464  30.290  29.370  1.00  0.00     0.163 HD
BRANCH   5   7
ATOM      7  C   UNL A   1      37.706  29.535  29.519  1.00  0.00     0.039 A 
ATOM      8  C   UNL A   1      38.639  29.034  30.425  1.00  0.00     0.014 A 
ATOM      9  C   UNL A   1      38.074  29.738  28.186  1.00  0.00     0.014 A 
ATOM     10  C   UNL A   1      39.969  28.914  30.053  1.00  0.00     0.010 A 
ATOM     11  C   UNL A   1      39.388  29.479  27.778  1.00  0.00     0.010 A 
ATOM     12  C   UNL A   1      40.353  29.087  28.716  1.00  0.00    -0.014 A 
BRANCH  12  13
ATOM     13  C   UNL A   1      41.749  28.748  28.332  1.00  0.00     0.031 A 
ATOM     14  C   UNL A   1      42.847  29.775  28.363  1.00  0.00     0.074 A 
ATOM     15  C   UNL A   1      42.022  27.467  28.007  1.00  0.00     0.049 A 
ATOM     16  N   UNL A   1      44.116  29.626  28.078  1.00  0.00    -0.248 NA
ATOM     17  C   UNL A   1      42.479  31.145  28.753  1.00  0.00     0.031 C 
ATOM     18  C   UNL A   1      41.027  26.390  27.927  1.00  0.00     0.029 A 
ATOM     19  N   UNL A   1      43.204  26.840  27.713  1.00  0.00    -0.354 N 
ATOM     20  C   UNL A   1      44.697  30.878  28.241  1.00  0.00     0.074 A 
ATOM     21  C   UNL A   1      43.634  31.785  28.618  1.00  0.00     0.031 C 
ATOM     22  C   UNL A   1      41.647  25.229  27.677  1.00  0.00     0.029 A 
ATOM     23  C   UNL A   1      43.067  25.489  27.487  1.00  0.00     0.049 A 
ATOM     24  H   UNL A   1      44.068  27.309  27.671  1.00  0.00     0.167 HD
ATOM     25  C   UNL A   1      45.998  31.230  28.097  1.00  0.00     0.037 A 
ATOM     26  C   UNL A   1      43.976  24.563  27.134  1.00  0.00     0.037 A 
ATOM     27  C   UNL A   1      47.045  30.311  27.725  1.00  0.00     0.049 A 
ATOM     28  C   UNL A   1      45.403  24.989  26.956  1.00  0.00     0.074 A 
ATOM     29  C   UNL A   1      48.394  30.567  27.549  1.00  0.00     0.029 A 
ATOM     30  N   UNL A   1      46.863  28.957  27.475  1.00  0.00    -0.354 N 
ATOM     31  N   UNL A   1      45.931  26.179  27.118  1.00  0.00    -0.248 NA
ATOM     32  C   UNL A   1      46.357  23.953  26.545  1.00  0.00     0.031 C 
ATOM     33  C   UNL A   1      49.020  29.379  27.155  1.00  0.00     0.029 A 
ATOM     34  C   UNL A   1      48.072  28.369  27.135  1.00  0.00     0.049 A 
ATOM     35  H   UNL A   1      46.001  28.484  27.530  1.00  0.00     0.167 HD
ATOM     36  C   UNL A   1      47.283  26.033  26.838  1.00  0.00     0.074 A 
ATOM     37  C   UNL A   1      47.494  24.633  26.526  1.00  0.00     0.031 C 
ATOM     38  C   UNL A   1      48.260  26.973  26.831  1.00  0.00     0.037 A 
BRANCH  25  39
ATOM     39  C   UNL A   1      46.366  32.671  28.336  1.00  0.00     0.058 A 
ATOM     40  C   UNL A   1      46.814  33.119  29.589  1.00  0.00     0.135 A 
ATOM     41  C   UNL A   1      46.326  33.605  27.287  1.00  0.00     0.135 A 
ATOM     42  F   UNL A   1      46.860  32.275  30.633  1.00  0.00    -0.206 F 
ATOM     43  C   UNL A   1      47.187  34.444  29.799  1.00  0.00     0.059 A 
ATOM     44  C   UNL A   1      46.719  34.929  27.468  1.00  0.00     0.059 A 
ATOM     45  F   UNL A   1      45.906  33.232  26.067  1.00  0.00    -0.206 F 
ATOM     46  C   UNL A   1      47.138  35.341  28.731  1.00  0.00     0.060 A 
BRANCH  46  47
ATOM     47  S   UNL A   1      47.638  37.052  29.020  1.00  0.00     0.124 S 
ATOM     48  O   UNL A   1      48.888  37.121  28.271  1.00  0.00    -0.237 OA
ATOM     49  O   UNL A   1      46.520  37.802  28.458  1.00  0.00    -0.237 OA
ATOM     50  O   UNL A   1      47.772  37.127  30.472  1.00  0.00    -0.744 OA
ENDBRANCH  46  47
ENDBRANCH  25  39
BRANCH  26  51
ATOM     51  C   UNL A   1      43.550  23.159  26.893  1.00  0.00     0.058 A 
ATOM     52  C   UNL A   1      43.184  22.314  27.950  1.00  0.00     0.135 A 
ATOM     53  C   UNL A   1      43.489  22.637  25.589  1.00  0.00     0.135 A 
ATOM     54  F   UNL A   1      43.225  22.764  29.213  1.00  0.00    -0.206 F 
ATOM     55  C   UNL A   1      42.799  20.995  27.728  1.00  0.00     0.059 A 
ATOM     56  C   UNL A   1      43.074  21.335  25.339  1.00  0.00     0.059 A 
ATOM     57  F   UNL A   1      43.806  23.411  24.539  1.00  0.00    -0.206 F 
ATOM     58  C   UNL A   1      42.749  20.516  26.418  1.00  0.00     0.060 A 
BRANCH  58  59
ATOM     59  S   UNL A   1      42.226  18.811  26.135  1.00  0.00     0.124 S 
ATOM     60  O   UNL A   1      40.832  18.994  25.750  1.00  0.00    -0.237 OA
ATOM     61  O   UNL A   1      43.131  18.383  25.073  1.00  0.00    -0.237 OA
ATOM     62  O   UNL A   1      42.446  18.174  27.429  1.00  0.00    -0.744 OA
ENDBRANCH  58  59
ENDBRANCH  26  51
BRANCH  38  63
ATOM     63  C   UNL A   1      49.650  26.503  26.505  1.00  0.00     0.058 A 
ATOM     64  C   UNL A   1      50.155  26.543  25.196  1.00  0.00     0.135 A 
ATOM     65  C   UNL A   1      50.492  26.020  27.519  1.00  0.00     0.135 A 
ATOM     66  F   UNL A   1      49.386  26.985  24.188  1.00  0.00    -0.206 F 
ATOM     67  C   UNL A   1      51.435  26.090  24.898  1.00  0.00     0.059 A 
ATOM     68  C   UNL A   1      51.787  25.591  27.249  1.00  0.00     0.059 A 
ATOM     69  F   UNL A   1      50.060  25.968  28.790  1.00  0.00    -0.206 F 
ATOM     70  C   UNL A   1      52.243  25.614  25.932  1.00  0.00     0.060 A 
BRANCH  70  71
ATOM     71  S   UNL A   1      53.909  25.044  25.536  1.00  0.00     0.124 S 
ATOM     72  O   UNL A   1      54.188  25.784  24.309  1.00  0.00    -0.237 OA
ATOM     73  O   UNL A   1      54.669  25.456  26.711  1.00  0.00    -0.237 OA
ATOM     74  O   UNL A   1      53.745  23.602  25.376  1.00  0.00    -0.744 OA
ENDBRANCH  70  71
ENDBRANCH  38  63
ENDBRANCH  12  13
ENDBRANCH   5   7
ENDBRANCH   2   3
ENDBRANCH   1   2
BRANCH   1  75
ATOM     75  C   UNL A   1      32.951  28.605  27.387  1.00  0.00     0.117 C 
BRANCH  75  76
ATOM     76  N   UNL A   1      31.857  28.547  26.440  1.00  0.00    -0.356 N 
ATOM     77  C   UNL A   1      31.750  28.038  25.194  1.00  0.00     0.223 C 
ATOM     78  H   UNL A   1      31.027  28.960  26.771  1.00  0.00     0.163 HD
ATOM     79  O   UNL A   1      30.708  28.321  24.588  1.00  0.00    -0.275 OA
BRANCH  77  80
ATOM     80  C   UNL A   1      32.780  27.141  24.509  1.00  0.00     0.085 C 
BRANCH  80  81
ATOM     81  C   UNL A   1      33.721  27.894  23.531  1.00  0.00     0.042 C 
BRANCH  81  82
ATOM     82  C   UNL A   1      33.666  27.667  22.015  1.00  0.00     0.171 C 
BRANCH  82  83
ATOM     83  O   UNL A   1      33.854  26.331  21.608  1.00  0.00    -0.292 OA
BRANCH  83  84
ATOM     84  C   UNL A   1      32.701  25.693  21.106  1.00  0.00     0.522 C 
ATOM     85  F   UNL A   1      31.629  26.427  21.466  1.00  0.00    -0.144 F 
ATOM     86  F   UNL A   1      32.739  25.611  19.764  1.00  0.00    -0.144 F 
ATOM     87  F   UNL A   1      32.589  24.463  21.634  1.00  0.00    -0.144 F 
ENDBRANCH  83  84
ENDBRANCH  82  83
ENDBRANCH  81  82
ENDBRANCH  80  81
BRANCH  80  88
ATOM     88  C   UNL A   1      33.489  26.057  25.338  1.00  0.00     0.050 C 
BRANCH  88  89
ATOM     89  C   UNL A   1      33.617  24.624  24.850  1.00  0.00    -0.029 A 
ATOM     90  C   UNL A   1      34.779  24.119  24.249  1.00  0.00     0.005 A 
ATOM     91  C   UNL A   1      32.498  23.765  24.929  1.00  0.00     0.044 A 
ATOM     92  C   UNL A   1      34.819  22.817  23.735  1.00  0.00     0.000 A 
ATOM     93  C   UNL A   1      32.545  22.460  24.425  1.00  0.00     0.021 A 
ATOM     94  Cl  UNL A   1      30.998  24.269  25.638  1.00  0.00    -0.084 Cl
ATOM     95  C   UNL A   1      33.704  21.989  23.820  1.00  0.00     0.002 A 
ENDBRANCH  88  89
ENDBRANCH  80  88
ENDBRANCH  77  80
ENDBRANCH  75  76
ENDBRANCH   1  75
TORSDOF 19
ENDMDL
MODEL 3
REMARK VINA RESULT:     -11.0      5.771     10.290
REMARK SMILES O=C(NCCCNC(=O)[C@@H](CCOC(F)(F)F)Cc1ccccc1Cl)c1ccc(-c2c3nc(c(-c4c(F)cc(S(=O)(=O)[O-])cc4F)c4ccc([nH]4)c(-c4c(F)cc(S(=O)(=O)[O-])cc4F)c4nc(c(-c5c(F)cc(S(=O)(=O)[O-])cc5F)c5ccc2[nH]5)C=C4)C=C3)cc1
REMARK SMILES IDX 5 1 4 2 3 3 1 4 2 5 26 7 27 8 91 9 28 10 90 11 29 12 30 13
REMARK SMILES IDX 31 14 84 15 32 16 89 17 83 18 85 19 33 20 88 21 82 22 81 23
REMARK SMILES IDX 34 25 68 26 47 27 67 28 48 29 51 30 66 31 86 32 49 33 50 34
REMARK SMILES IDX 65 36 87 37 52 38 35 39 36 40 45 41 37 42 38 43 44 44 46 45
REMARK SMILES IDX 39 46 40 47 41 48 42 49 43 50 69 51 70 52 79 53 71 54 72 55
REMARK SMILES IDX 78 56 80 57 73 58 74 59 75 60 76 61 77 62 53 63 54 64 63 65
REMARK SMILES IDX 55 66 56 67 62 68 64 69 57 70 58 71 59 72 60 73 61 74 6 75
REMARK SMILES IDX 7 76 8 77 9 79 10 80 11 81 12 82 13 83 14 84 15 85 16 86
REMARK SMILES IDX 17 87 18 88 19 89 20 90 24 91 21 92 23 93 25 94 22 95
REMARK H PARENT 3 6 85 24 51 35 7 78
REMARK Flexibility Score: inf
ROOT
ATOM      1  C   UNL A   1      39.811  21.999  26.559  1.00  0.00     0.042 C 
ENDROOT
BRANCH   1   2
ATOM      2  C   UNL A   1      40.008  23.447  26.964  1.00  0.00     0.118 C 
BRANCH   2   3
ATOM      3  N   UNL A   1      40.876  24.152  26.030  1.00  0.00    -0.352 N 
ATOM      4  O   UNL A   1      41.844  25.929  25.045  1.00  0.00    -0.269 OA
ATOM      5  C   UNL A   1      41.313  25.457  26.048  1.00  0.00     0.251 C 
ATOM      6  H   UNL A   1      41.199  23.614  25.272  1.00  0.00     0.163 HD
BRANCH   5   7
ATOM      7  C   UNL A   1      41.131  26.288  27.259  1.00  0.00     0.039 A 
ATOM      8  C   UNL A   1      41.911  27.426  27.457  1.00  0.00     0.014 A 
ATOM      9  C   UNL A   1      40.153  25.946  28.198  1.00  0.00     0.014 A 
ATOM     10  C   UNL A   1      41.850  28.106  28.663  1.00  0.00     0.010 A 
ATOM     11  C   UNL A   1      39.994  26.721  29.353  1.00  0.00     0.010 A 
ATOM     12  C   UNL A   1      40.859  27.795  29.606  1.00  0.00    -0.014 A 
BRANCH  12  13
ATOM     13  C   UNL A   1      40.705  28.684  30.787  1.00  0.00     0.031 A 
ATOM     14  C   UNL A   1      41.626  28.588  31.973  1.00  0.00     0.074 A 
ATOM     15  C   UNL A   1      39.744  29.630  30.746  1.00  0.00     0.049 A 
ATOM     16  N   UNL A   1      41.631  29.306  33.066  1.00  0.00    -0.248 NA
ATOM     17  C   UNL A   1      42.667  27.549  31.936  1.00  0.00     0.031 C 
ATOM     18  C   UNL A   1      38.781  29.803  29.650  1.00  0.00     0.029 A 
ATOM     19  N   UNL A   1      39.429  30.640  31.617  1.00  0.00    -0.354 N 
ATOM     20  C   UNL A   1      42.662  28.805  33.852  1.00  0.00     0.074 A 
ATOM     21  C   UNL A   1      43.240  27.696  33.123  1.00  0.00     0.031 C 
ATOM     22  C   UNL A   1      38.035  30.891  29.882  1.00  0.00     0.029 A 
ATOM     23  C   UNL A   1      38.399  31.441  31.179  1.00  0.00     0.049 A 
ATOM     24  H   UNL A   1      39.896  30.780  32.472  1.00  0.00     0.167 HD
ATOM     25  C   UNL A   1      43.088  29.239  35.063  1.00  0.00     0.037 A 
ATOM     26  C   UNL A   1      37.790  32.485  31.768  1.00  0.00     0.037 A 
ATOM     27  C   UNL A   1      42.503  30.349  35.773  1.00  0.00     0.049 A 
ATOM     28  C   UNL A   1      38.266  32.925  33.121  1.00  0.00     0.074 A 
ATOM     29  C   UNL A   1      42.857  30.867  37.007  1.00  0.00     0.029 A 
ATOM     30  N   UNL A   1      41.442  31.117  35.311  1.00  0.00    -0.354 N 
ATOM     31  N   UNL A   1      39.245  32.437  33.845  1.00  0.00    -0.248 NA
ATOM     32  C   UNL A   1      37.557  34.050  33.739  1.00  0.00     0.031 C 
ATOM     33  C   UNL A   1      41.988  31.921  37.309  1.00  0.00     0.029 A 
ATOM     34  C   UNL A   1      41.123  32.096  36.241  1.00  0.00     0.049 A 
ATOM     35  H   UNL A   1      40.983  30.986  34.450  1.00  0.00     0.167 HD
ATOM     36  C   UNL A   1      39.277  33.204  35.003  1.00  0.00     0.074 A 
ATOM     37  C   UNL A   1      38.237  34.205  34.866  1.00  0.00     0.031 C 
ATOM     38  C   UNL A   1      40.085  33.085  36.084  1.00  0.00     0.037 A 
BRANCH  25  39
ATOM     39  C   UNL A   1      44.239  28.510  35.706  1.00  0.00     0.058 A 
ATOM     40  C   UNL A   1      44.032  27.422  36.569  1.00  0.00     0.135 A 
ATOM     41  C   UNL A   1      45.566  28.867  35.415  1.00  0.00     0.135 A 
ATOM     42  F   UNL A   1      42.785  27.044  36.895  1.00  0.00    -0.206 F 
ATOM     43  C   UNL A   1      45.098  26.727  37.135  1.00  0.00     0.059 A 
ATOM     44  C   UNL A   1      46.648  28.171  35.950  1.00  0.00     0.059 A 
ATOM     45  F   UNL A   1      45.824  29.900  34.597  1.00  0.00    -0.206 F 
ATOM     46  C   UNL A   1      46.403  27.108  36.818  1.00  0.00     0.060 A 
BRANCH  46  47
ATOM     47  S   UNL A   1      47.771  26.188  37.553  1.00  0.00     0.124 S 
ATOM     48  O   UNL A   1      48.451  25.679  36.366  1.00  0.00    -0.237 OA
ATOM     49  O   UNL A   1      48.482  27.225  38.293  1.00  0.00    -0.237 OA
ATOM     50  O   UNL A   1      47.103  25.182  38.374  1.00  0.00    -0.744 OA
ENDBRANCH  46  47
ENDBRANCH  25  39
BRANCH  26  51
ATOM     51  C   UNL A   1      36.645  33.154  31.095  1.00  0.00     0.058 A 
ATOM     52  C   UNL A   1      35.329  32.979  31.545  1.00  0.00     0.135 A 
ATOM     53  C   UNL A   1      36.850  33.995  29.988  1.00  0.00     0.135 A 
ATOM     54  F   UNL A   1      35.080  32.187  32.598  1.00  0.00    -0.206 F 
ATOM     55  C   UNL A   1      34.254  33.592  30.907  1.00  0.00     0.059 A 
ATOM     56  C   UNL A   1      35.797  34.646  29.357  1.00  0.00     0.059 A 
ATOM     57  F   UNL A   1      38.093  34.216  29.531  1.00  0.00    -0.206 F 
ATOM     58  C   UNL A   1      34.500  34.423  29.813  1.00  0.00     0.060 A 
BRANCH  58  59
ATOM     59  S   UNL A   1      33.104  35.233  29.005  1.00  0.00     0.124 S 
ATOM     60  O   UNL A   1      32.218  35.482  30.135  1.00  0.00    -0.237 OA
ATOM     61  O   UNL A   1      33.731  36.410  28.413  1.00  0.00    -0.237 OA
ATOM     62  O   UNL A   1      32.643  34.231  28.049  1.00  0.00    -0.744 OA
ENDBRANCH  58  59
ENDBRANCH  26  51
BRANCH  38  63
ATOM     63  C   UNL A   1      39.894  34.088  37.187  1.00  0.00     0.058 A 
ATOM     64  C   UNL A   1      40.538  35.334  37.171  1.00  0.00     0.135 A 
ATOM     65  C   UNL A   1      39.042  33.801  38.266  1.00  0.00     0.135 A 
ATOM     66  F   UNL A   1      41.372  35.651  36.167  1.00  0.00    -0.206 F 
ATOM     67  C   UNL A   1      40.371  36.250  38.204  1.00  0.00     0.059 A 
ATOM     68  C   UNL A   1      38.836  34.715  39.293  1.00  0.00     0.059 A 
ATOM     69  F   UNL A   1      38.395  32.626  38.324  1.00  0.00    -0.206 F 
ATOM     70  C   UNL A   1      39.518  35.930  39.262  1.00  0.00     0.060 A 
BRANCH  70  71
ATOM     71  S   UNL A   1      39.297  37.134  40.588  1.00  0.00     0.124 S 
ATOM     72  O   UNL A   1      38.885  36.278  41.695  1.00  0.00    -0.237 OA
ATOM     73  O   UNL A   1      40.627  37.722  40.702  1.00  0.00    -0.237 OA
ATOM     74  O   UNL A   1      38.265  38.027  40.067  1.00  0.00    -0.744 OA
ENDBRANCH  70  71
ENDBRANCH  38  63
ENDBRANCH  12  13
ENDBRANCH   5   7
ENDBRANCH   2   3
ENDBRANCH   1   2
BRANCH   1  75
ATOM     75  C   UNL A   1      38.555  21.809  25.720  1.00  0.00     0.117 C 
BRANCH  75  76
ATOM     76  N   UNL A   1      37.794  23.040  25.665  1.00  0.00    -0.356 N 
ATOM     77  C   UNL A   1      36.489  23.319  25.866  1.00  0.00     0.223 C 
ATOM     78  H   UNL A   1      38.337  23.828  25.437  1.00  0.00     0.163 HD
ATOM     79  O   UNL A   1      36.134  24.465  25.559  1.00  0.00    -0.275 OA
BRANCH  77  80
ATOM     80  C   UNL A   1      35.454  22.360  26.453  1.00  0.00     0.085 C 
BRANCH  80  81
ATOM     81  C   UNL A   1      34.290  23.066  27.199  1.00  0.00     0.042 C 
BRANCH  81  82
ATOM     82  C   UNL A   1      32.962  22.356  27.488  1.00  0.00     0.171 C 
BRANCH  82  83
ATOM     83  O   UNL A   1      31.841  23.205  27.571  1.00  0.00    -0.292 OA
BRANCH  83  84
ATOM     84  C   UNL A   1      30.957  23.134  26.474  1.00  0.00     0.522 C 
ATOM     85  F   UNL A   1      31.029  21.890  25.961  1.00  0.00    -0.144 F 
ATOM     86  F   UNL A   1      29.689  23.370  26.860  1.00  0.00    -0.144 F 
ATOM     87  F   UNL A   1      31.319  24.020  25.532  1.00  0.00    -0.144 F 
ENDBRANCH  83  84
ENDBRANCH  82  83
ENDBRANCH  81  82
ENDBRANCH  80  81
BRANCH  80  88
ATOM     88  C   UNL A   1      35.009  21.147  25.619  1.00  0.00     0.050 C 
BRANCH  88  89
ATOM     89  C   UNL A   1      34.036  21.280  24.460  1.00  0.00    -0.029 A 
ATOM     90  C   UNL A   1      33.922  22.443  23.684  1.00  0.00     0.005 A 
ATOM     91  C   UNL A   1      33.145  20.220  24.181  1.00  0.00     0.044 A 
ATOM     92  C   UNL A   1      32.949  22.549  22.682  1.00  0.00     0.000 A 
ATOM     93  C   UNL A   1      32.182  20.325  23.171  1.00  0.00     0.021 A 
ATOM     94  Cl  UNL A   1      33.174  18.733  25.072  1.00  0.00    -0.084 Cl
ATOM     95  C   UNL A   1      32.079  21.495  22.427  1.00  0.00     0.002 A 
ENDBRANCH  88  89
ENDBRANCH  80  88
ENDBRANCH  77  80
ENDBRANCH  75  76
ENDBRANCH   1  75
TORSDOF 19
ENDMDL
