MODEL 1
REMARK VINA RESULT:     -12.3      0.000      0.000
REMARK SMILES CC(=O)C1=C(NCCCNC(=O)c2ccc(-c3c4nc(c(-c5c(F)cc(S(=O)(=O)[O-])cc5F)c5ccc([nH]5)c(-c5c(F)cc(S(=O)(=O)[O-])cc5F)c5nc(c(-c6c(F)cc(S(=O)(=O)[O-])cc6F)c6ccc3[nH]6)C=C5)C=C4)cc2)C(=O)N(c2ccc(C(=O)[O-])cc2)[C@H]1c1ccc([N+](=O)[O-])cc1
REMARK SMILES IDX 8 1 7 2 6 3 5 5 4 6 91 7 79 8 81 9 80 10 2 11 1 12 3 13
REMARK SMILES IDX 92 14 93 15 100 16 94 17 99 18 95 19 96 20 97 21 98 22 82 23
REMARK SMILES IDX 83 24 90 25 84 26 89 27 85 28 86 29 87 30 88 31 9 32 10 33
REMARK SMILES IDX 11 34 12 36 13 37 14 38 78 39 15 40 77 41 16 42 17 43 18 44
REMARK SMILES IDX 71 45 19 46 76 47 70 48 72 49 20 50 75 51 69 52 68 53 21 55
REMARK SMILES IDX 55 56 34 57 54 58 35 59 38 60 53 61 73 62 36 63 37 64 52 66
REMARK SMILES IDX 74 67 39 68 22 69 23 70 32 71 24 72 25 73 31 74 33 75 26 76
REMARK SMILES IDX 27 77 28 78 29 79 30 80 56 81 57 82 66 83 58 84 59 85 65 86
REMARK SMILES IDX 67 87 60 88 61 89 62 90 63 91 64 92 40 93 41 94 50 95 42 96
REMARK SMILES IDX 43 97 49 98 51 99 44 100 45 101 46 102 47 103 48 104
REMARK H PARENT 6 4 10 35 72 54 38 65
REMARK Flexibility Score: inf
ROOT
ATOM      1  C   UNL A   1      34.365  30.854  28.106  1.00  0.00     0.042 C 
ENDROOT
BRANCH   1   2
ATOM      2  C   UNL A   1      34.281  29.501  27.410  1.00  0.00     0.115 C 
BRANCH   2   3
ATOM      3  N   UNL A   1      32.928  28.992  27.441  1.00  0.00    -0.380 N 
ATOM      4  H   UNL A   1      32.575  28.783  28.336  1.00  0.00     0.160 HD
BRANCH   3   5
ATOM      5  C   UNL A   1      32.068  28.757  26.402  1.00  0.00     0.110 C 
ATOM      6  C   UNL A   1      31.351  27.713  25.973  1.00  0.00     0.051 C 
ATOM      7  C   UNL A   1      30.575  27.969  24.727  1.00  0.00     0.157 C 
ATOM      8  C   UNL A   1      31.708  29.878  25.451  1.00  0.00     0.275 C 
ATOM      9  N   UNL A   1      30.718  29.398  24.607  1.00  0.00    -0.295 N 
ATOM     10  O   UNL A   1      32.188  30.999  25.522  1.00  0.00    -0.267 OA
BRANCH   6  11
ATOM     11  C   UNL A   1      31.199  26.421  26.654  1.00  0.00     0.160 C 
ATOM     12  C   UNL A   1      29.971  25.601  26.367  1.00  0.00     0.093 C 
ATOM     13  O   UNL A   1      32.023  26.080  27.499  1.00  0.00    -0.295 OA
ENDBRANCH   6  11
BRANCH   7  14
ATOM     14  C   UNL A   1      31.196  27.248  23.525  1.00  0.00    -0.020 A 
ATOM     15  C   UNL A   1      32.477  27.602  23.042  1.00  0.00     0.013 A 
ATOM     16  C   UNL A   1      30.516  26.188  22.906  1.00  0.00     0.013 A 
ATOM     17  C   UNL A   1      33.071  26.908  21.989  1.00  0.00     0.086 A 
ATOM     18  C   UNL A   1      31.106  25.487  21.848  1.00  0.00     0.086 A 
ATOM     19  C   UNL A   1      32.384  25.848  21.395  1.00  0.00     0.269 A 
BRANCH  19  20
ATOM     20  N   UNL A   1      33.007  25.106  20.293  1.00  0.00     0.062 N 
ATOM     21  O   UNL A   1      33.179  25.702  19.221  1.00  0.00    -0.258 OA
ATOM     22  O   UNL A   1      33.320  23.924  20.501  1.00  0.00    -0.258 OA
ENDBRANCH  19  20
ENDBRANCH   7  14
BRANCH   9  23
ATOM     23  C   UNL A   1      29.977  30.160  23.690  1.00  0.00     0.045 A 
ATOM     24  C   UNL A   1      29.164  31.210  24.121  1.00  0.00     0.027 A 
ATOM     25  C   UNL A   1      30.061  29.871  22.322  1.00  0.00     0.027 A 
ATOM     26  C   UNL A   1      28.480  31.997  23.188  1.00  0.00     0.012 A 
ATOM     27  C   UNL A   1      29.334  30.619  21.393  1.00  0.00     0.012 A 
ATOM     28  C   UNL A   1      28.553  31.697  21.821  1.00  0.00    -0.003 A 
BRANCH  28  29
ATOM     29  C   UNL A   1      27.795  32.539  20.866  1.00  0.00     0.071 C 
ATOM     30  O   UNL A   1      27.510  33.715  21.014  1.00  0.00    -0.545 OA
ATOM     31  O   UNL A   1      27.418  31.867  19.764  1.00  0.00    -0.545 OA
ENDBRANCH  28  29
ENDBRANCH   9  23
ENDBRANCH   3   5
ENDBRANCH   2   3
ENDBRANCH   1   2
BRANCH   1  32
ATOM     32  C   UNL A   1      35.710  31.128  28.770  1.00  0.00     0.118 C 
BRANCH  32  33
ATOM     33  N   UNL A   1      35.706  30.826  30.195  1.00  0.00    -0.352 N 
ATOM     34  C   UNL A   1      36.597  30.112  30.958  1.00  0.00     0.251 C 
ATOM     35  H   UNL A   1      34.939  31.193  30.692  1.00  0.00     0.163 HD
ATOM     36  O   UNL A   1      36.296  29.811  32.111  1.00  0.00    -0.269 OA
BRANCH  34  37
ATOM     37  C   UNL A   1      37.900  29.688  30.400  1.00  0.00     0.039 A 
ATOM     38  C   UNL A   1      38.117  29.810  29.024  1.00  0.00     0.014 A 
ATOM     39  C   UNL A   1      38.897  29.149  31.216  1.00  0.00     0.014 A 
ATOM     40  C   UNL A   1      39.357  29.460  28.483  1.00  0.00     0.010 A 
ATOM     41  C   UNL A   1      40.160  28.888  30.690  1.00  0.00     0.010 A 
ATOM     42  C   UNL A   1      40.405  29.036  29.317  1.00  0.00    -0.014 A 
BRANCH  42  43
ATOM     43  C   UNL A   1      41.759  28.751  28.774  1.00  0.00     0.031 A 
ATOM     44  C   UNL A   1      42.106  27.367  28.288  1.00  0.00     0.074 A 
ATOM     45  C   UNL A   1      42.698  29.721  28.781  1.00  0.00     0.049 A 
ATOM     46  N   UNL A   1      43.253  26.907  27.860  1.00  0.00    -0.248 NA
ATOM     47  C   UNL A   1      41.032  26.361  28.314  1.00  0.00     0.031 C 
ATOM     48  C   UNL A   1      42.501  31.087  29.271  1.00  0.00     0.029 A 
ATOM     49  N   UNL A   1      44.010  29.704  28.376  1.00  0.00    -0.354 N 
ATOM     50  C   UNL A   1      43.043  25.561  27.580  1.00  0.00     0.074 A 
ATOM     51  C   UNL A   1      41.674  25.265  27.935  1.00  0.00     0.031 C 
ATOM     52  C   UNL A   1      43.640  31.780  29.121  1.00  0.00     0.029 A 
ATOM     53  C   UNL A   1      44.664  30.900  28.566  1.00  0.00     0.049 A 
ATOM     54  H   UNL A   1      44.443  28.911  27.985  1.00  0.00     0.167 HD
ATOM     55  C   UNL A   1      43.907  24.661  27.054  1.00  0.00     0.037 A 
ATOM     56  C   UNL A   1      45.946  31.246  28.337  1.00  0.00     0.037 A 
ATOM     57  C   UNL A   1      45.261  24.972  26.673  1.00  0.00     0.049 A 
ATOM     58  C   UNL A   1      46.887  30.223  27.755  1.00  0.00     0.074 A 
ATOM     59  C   UNL A   1      46.194  24.146  26.069  1.00  0.00     0.029 A 
ATOM     60  N   UNL A   1      45.878  26.201  26.857  1.00  0.00    -0.354 N 
ATOM     61  N   UNL A   1      46.648  28.975  27.430  1.00  0.00    -0.248 NA
ATOM     62  C   UNL A   1      48.267  30.656  27.502  1.00  0.00     0.031 C 
ATOM     63  C   UNL A   1      47.389  24.857  25.941  1.00  0.00     0.029 A 
ATOM     64  C   UNL A   1      47.185  26.147  26.404  1.00  0.00     0.049 A 
ATOM     65  H   UNL A   1      45.449  26.995  27.252  1.00  0.00     0.167 HD
ATOM     66  C   UNL A   1      47.838  28.486  26.903  1.00  0.00     0.074 A 
ATOM     67  C   UNL A   1      48.791  29.575  26.940  1.00  0.00     0.031 C 
ATOM     68  C   UNL A   1      48.118  27.246  26.430  1.00  0.00     0.037 A 
BRANCH  55  69
ATOM     69  C   UNL A   1      43.425  23.251  26.848  1.00  0.00     0.058 A 
ATOM     70  C   UNL A   1      43.218  22.722  25.564  1.00  0.00     0.135 A 
ATOM     71  C   UNL A   1      43.243  22.393  27.945  1.00  0.00     0.135 A 
ATOM     72  F   UNL A   1      43.361  23.501  24.480  1.00  0.00    -0.206 F 
ATOM     73  C   UNL A   1      42.838  21.397  25.375  1.00  0.00     0.059 A 
ATOM     74  C   UNL A   1      42.892  21.056  27.778  1.00  0.00     0.059 A 
ATOM     75  F   UNL A   1      43.424  22.847  29.195  1.00  0.00    -0.206 F 
ATOM     76  C   UNL A   1      42.686  20.569  26.489  1.00  0.00     0.060 A 
BRANCH  76  77
ATOM     77  S   UNL A   1      42.235  18.842  26.221  1.00  0.00     0.124 S 
ATOM     78  O   UNL A   1      43.234  18.429  25.240  1.00  0.00    -0.237 OA
ATOM     79  O   UNL A   1      42.383  18.272  27.555  1.00  0.00    -0.237 OA
ATOM     80  O   UNL A   1      40.865  18.921  25.723  1.00  0.00    -0.744 OA
ENDBRANCH  76  77
ENDBRANCH  55  69
BRANCH  56  81
ATOM     81  C   UNL A   1      46.423  32.621  28.655  1.00  0.00     0.058 A 
ATOM     82  C   UNL A   1      46.368  33.648  27.701  1.00  0.00     0.135 A 
ATOM     83  C   UNL A   1      46.963  32.931  29.914  1.00  0.00     0.135 A 
ATOM     84  F   UNL A   1      45.865  33.402  26.481  1.00  0.00    -0.206 F 
ATOM     85  C   UNL A   1      46.861  34.921  27.968  1.00  0.00     0.059 A 
ATOM     86  C   UNL A   1      47.433  34.205  30.216  1.00  0.00     0.059 A 
ATOM     87  F   UNL A   1      47.022  31.992  30.872  1.00  0.00    -0.206 F 
ATOM     88  C   UNL A   1      47.394  35.189  29.230  1.00  0.00     0.060 A 
BRANCH  88  89
ATOM     89  S   UNL A   1      48.017  36.849  29.572  1.00  0.00     0.124 S 
ATOM     90  O   UNL A   1      47.263  37.203  30.769  1.00  0.00    -0.237 OA
ATOM     91  O   UNL A   1      49.443  36.608  29.763  1.00  0.00    -0.237 OA
ATOM     92  O   UNL A   1      47.670  37.592  28.365  1.00  0.00    -0.744 OA
ENDBRANCH  88  89
ENDBRANCH  56  81
BRANCH  68  93
ATOM     93  C   UNL A   1      49.492  27.008  25.867  1.00  0.00     0.058 A 
ATOM     94  C   UNL A   1      50.541  26.508  26.653  1.00  0.00     0.135 A 
ATOM     95  C   UNL A   1      49.745  27.232  24.503  1.00  0.00     0.135 A 
ATOM     96  F   UNL A   1      50.355  26.281  27.963  1.00  0.00    -0.206 F 
ATOM     97  C   UNL A   1      51.800  26.262  26.113  1.00  0.00     0.059 A 
ATOM     98  C   UNL A   1      50.986  26.964  23.935  1.00  0.00     0.059 A 
ATOM     99  F   UNL A   1      48.774  27.700  23.702  1.00  0.00    -0.206 F 
ATOM    100  C   UNL A   1      52.012  26.490  24.752  1.00  0.00     0.060 A 
BRANCH 100 101
ATOM    101  S   UNL A   1      53.640  26.134  24.058  1.00  0.00     0.124 S 
ATOM    102  O   UNL A   1      53.957  24.858  24.692  1.00  0.00    -0.237 OA
ATOM    103  O   UNL A   1      53.362  26.078  22.626  1.00  0.00    -0.237 OA
ATOM    104  O   UNL A   1      54.450  27.269  24.490  1.00  0.00    -0.744 OA
ENDBRANCH 100 101
ENDBRANCH  68  93
ENDBRANCH  42  43
ENDBRANCH  34  37
ENDBRANCH  32  33
ENDBRANCH   1  32
TORSDOF 18
ENDMDL
MODEL 2
REMARK VINA RESULT:     -12.1      7.039     12.765
REMARK SMILES CC(=O)C1=C(NCCCNC(=O)c2ccc(-c3c4nc(c(-c5c(F)cc(S(=O)(=O)[O-])cc5F)c5ccc([nH]5)c(-c5c(F)cc(S(=O)(=O)[O-])cc5F)c5nc(c(-c6c(F)cc(S(=O)(=O)[O-])cc6F)c6ccc3[nH]6)C=C5)C=C4)cc2)C(=O)N(c2ccc(C(=O)[O-])cc2)[C@H]1c1ccc([N+](=O)[O-])cc1
REMARK SMILES IDX 8 1 7 2 6 3 5 5 4 6 91 7 79 8 81 9 80 10 2 11 1 12 3 13
REMARK SMILES IDX 92 14 93 15 100 16 94 17 99 18 95 19 96 20 97 21 98 22 82 23
REMARK SMILES IDX 83 24 90 25 84 26 89 27 85 28 86 29 87 30 88 31 9 32 10 33
REMARK SMILES IDX 11 34 12 36 13 37 14 38 78 39 15 40 77 41 16 42 17 43 18 44
REMARK SMILES IDX 71 45 19 46 76 47 70 48 72 49 20 50 75 51 69 52 68 53 21 55
REMARK SMILES IDX 55 56 34 57 54 58 35 59 38 60 53 61 73 62 36 63 37 64 52 66
REMARK SMILES IDX 74 67 39 68 22 69 23 70 32 71 24 72 25 73 31 74 33 75 26 76
REMARK SMILES IDX 27 77 28 78 29 79 30 80 56 81 57 82 66 83 58 84 59 85 65 86
REMARK SMILES IDX 67 87 60 88 61 89 62 90 63 91 64 92 40 93 41 94 50 95 42 96
REMARK SMILES IDX 43 97 49 98 51 99 44 100 45 101 46 102 47 103 48 104
REMARK H PARENT 6 4 10 35 72 54 38 65
REMARK Flexibility Score: inf
ROOT
ATOM      1  C   UNL A   1      38.916  22.709  26.285  1.00  0.00     0.042 C 
ENDROOT
BRANCH   1   2
ATOM      2  C   UNL A   1      37.859  23.643  25.710  1.00  0.00     0.115 C 
BRANCH   2   3
ATOM      3  N   UNL A   1      37.260  23.071  24.524  1.00  0.00    -0.380 N 
ATOM      4  H   UNL A   1      37.765  23.204  23.690  1.00  0.00     0.160 HD
BRANCH   3   5
ATOM      5  C   UNL A   1      36.090  22.373  24.396  1.00  0.00     0.110 C 
ATOM      6  C   UNL A   1      34.937  22.552  23.743  1.00  0.00     0.051 C 
ATOM      7  C   UNL A   1      33.928  21.479  23.967  1.00  0.00     0.157 C 
ATOM      8  C   UNL A   1      35.939  21.023  25.064  1.00  0.00     0.275 C 
ATOM      9  N   UNL A   1      34.730  20.490  24.642  1.00  0.00    -0.295 N 
ATOM     10  O   UNL A   1      36.799  20.524  25.772  1.00  0.00    -0.267 OA
BRANCH   6  11
ATOM     11  C   UNL A   1      34.633  23.626  22.788  1.00  0.00     0.160 C 
ATOM     12  C   UNL A   1      33.625  23.358  21.706  1.00  0.00     0.093 C 
ATOM     13  O   UNL A   1      35.265  24.680  22.839  1.00  0.00    -0.295 OA
ENDBRANCH   6  11
BRANCH   7  14
ATOM     14  C   UNL A   1      32.784  21.967  24.862  1.00  0.00    -0.020 A 
ATOM     15  C   UNL A   1      31.448  21.982  24.398  1.00  0.00     0.013 A 
ATOM     16  C   UNL A   1      33.039  22.371  26.181  1.00  0.00     0.013 A 
ATOM     17  C   UNL A   1      30.397  22.368  25.228  1.00  0.00     0.086 A 
ATOM     18  C   UNL A   1      31.988  22.760  27.021  1.00  0.00     0.086 A 
ATOM     19  C   UNL A   1      30.670  22.753  26.542  1.00  0.00     0.269 A 
BRANCH  19  20
ATOM     20  N   UNL A   1      29.567  23.150  27.426  1.00  0.00     0.062 N 
ATOM     21  O   UNL A   1      29.200  24.333  27.394  1.00  0.00    -0.258 OA
ATOM     22  O   UNL A   1      29.073  22.277  28.154  1.00  0.00    -0.258 OA
ENDBRANCH  19  20
ENDBRANCH   7  14
BRANCH   9  23
ATOM     23  C   UNL A   1      34.278  19.182  24.881  1.00  0.00     0.045 A 
ATOM     24  C   UNL A   1      33.127  18.948  25.637  1.00  0.00     0.027 A 
ATOM     25  C   UNL A   1      34.985  18.097  24.347  1.00  0.00     0.027 A 
ATOM     26  C   UNL A   1      32.659  17.641  25.815  1.00  0.00     0.012 A 
ATOM     27  C   UNL A   1      34.549  16.788  24.572  1.00  0.00     0.012 A 
ATOM     28  C   UNL A   1      33.374  16.556  25.293  1.00  0.00    -0.003 A 
BRANCH  28  29
ATOM     29  C   UNL A   1      32.858  15.186  25.523  1.00  0.00     0.071 C 
ATOM     30  O   UNL A   1      33.494  14.152  25.417  1.00  0.00    -0.545 OA
ATOM     31  O   UNL A   1      31.560  15.170  25.873  1.00  0.00    -0.545 OA
ENDBRANCH  28  29
ENDBRANCH   9  23
ENDBRANCH   3   5
ENDBRANCH   2   3
ENDBRANCH   1   2
BRANCH   1  32
ATOM     32  C   UNL A   1      40.093  23.429  26.933  1.00  0.00     0.118 C 
BRANCH  32  33
ATOM     33  N   UNL A   1      40.851  24.236  25.986  1.00  0.00    -0.352 N 
ATOM     34  C   UNL A   1      41.264  25.544  26.059  1.00  0.00     0.251 C 
ATOM     35  H   UNL A   1      41.106  23.769  25.158  1.00  0.00     0.163 HD
ATOM     36  O   UNL A   1      41.722  26.087  25.056  1.00  0.00    -0.269 OA
BRANCH  34  37
ATOM     37  C   UNL A   1      41.146  26.305  27.322  1.00  0.00     0.039 A 
ATOM     38  C   UNL A   1      42.168  27.191  27.675  1.00  0.00     0.014 A 
ATOM     39  C   UNL A   1      40.051  26.133  28.172  1.00  0.00     0.014 A 
ATOM     40  C   UNL A   1      42.053  27.955  28.840  1.00  0.00     0.010 A 
ATOM     41  C   UNL A   1      39.895  26.960  29.282  1.00  0.00     0.010 A 
ATOM     42  C   UNL A   1      40.896  27.878  29.632  1.00  0.00    -0.014 A 
BRANCH  42  43
ATOM     43  C   UNL A   1      40.713  28.750  30.822  1.00  0.00     0.031 A 
ATOM     44  C   UNL A   1      39.647  29.816  30.825  1.00  0.00     0.074 A 
ATOM     45  C   UNL A   1      41.549  28.627  31.874  1.00  0.00     0.049 A 
ATOM     46  N   UNL A   1      39.390  30.722  31.733  1.00  0.00    -0.248 NA
ATOM     47  C   UNL A   1      38.774  29.891  29.642  1.00  0.00     0.031 C 
ATOM     48  C   UNL A   1      42.652  27.667  31.971  1.00  0.00     0.029 A 
ATOM     49  N   UNL A   1      41.614  29.321  33.057  1.00  0.00    -0.354 N 
ATOM     50  C   UNL A   1      38.342  31.482  31.226  1.00  0.00     0.074 A 
ATOM     51  C   UNL A   1      38.042  30.964  29.910  1.00  0.00     0.031 C 
ATOM     52  C   UNL A   1      43.269  27.820  33.154  1.00  0.00     0.029 A 
ATOM     53  C   UNL A   1      42.638  28.916  33.883  1.00  0.00     0.049 A 
ATOM     54  H   UNL A   1      40.986  30.041  33.294  1.00  0.00     0.167 HD
ATOM     55  C   UNL A   1      37.675  32.503  31.814  1.00  0.00     0.037 A 
ATOM     56  C   UNL A   1      43.037  29.383  35.082  1.00  0.00     0.037 A 
ATOM     57  C   UNL A   1      37.957  32.993  33.138  1.00  0.00     0.049 A 
ATOM     58  C   UNL A   1      42.278  30.523  35.711  1.00  0.00     0.074 A 
ATOM     59  C   UNL A   1      37.294  33.978  33.849  1.00  0.00     0.029 A 
ATOM     60  N   UNL A   1      38.985  32.539  33.952  1.00  0.00    -0.354 N 
ATOM     61  N   UNL A   1      41.243  31.180  35.246  1.00  0.00    -0.248 NA
ATOM     62  C   UNL A   1      42.737  30.981  37.029  1.00  0.00     0.031 C 
ATOM     63  C   UNL A   1      37.954  34.159  35.067  1.00  0.00     0.029 A 
ATOM     64  C   UNL A   1      38.989  33.242  35.145  1.00  0.00     0.049 A 
ATOM     65  H   UNL A   1      39.618  31.822  33.717  1.00  0.00     0.167 HD
ATOM     66  C   UNL A   1      40.906  32.104  36.229  1.00  0.00     0.074 A 
ATOM     67  C   UNL A   1      41.839  31.912  37.320  1.00  0.00     0.031 C 
ATOM     68  C   UNL A   1      39.914  33.028  36.230  1.00  0.00     0.037 A 
BRANCH  55  69
ATOM     69  C   UNL A   1      36.565  33.164  31.042  1.00  0.00     0.058 A 
ATOM     70  C   UNL A   1      35.216  32.978  31.383  1.00  0.00     0.135 A 
ATOM     71  C   UNL A   1      36.859  34.057  29.998  1.00  0.00     0.135 A 
ATOM     72  F   UNL A   1      34.876  32.123  32.361  1.00  0.00    -0.206 F 
ATOM     73  C   UNL A   1      34.197  33.645  30.710  1.00  0.00     0.059 A 
ATOM     74  C   UNL A   1      35.857  34.758  29.331  1.00  0.00     0.059 A 
ATOM     75  F   UNL A   1      38.130  34.271  29.629  1.00  0.00    -0.206 F 
ATOM     76  C   UNL A   1      34.528  34.540  29.691  1.00  0.00     0.060 A 
BRANCH  76  77
ATOM     77  S   UNL A   1      33.194  35.428  28.860  1.00  0.00     0.124 S 
ATOM     78  O   UNL A   1      32.558  34.355  28.101  1.00  0.00    -0.237 OA
ATOM     79  O   UNL A   1      32.425  35.953  29.983  1.00  0.00    -0.237 OA
ATOM     80  O   UNL A   1      33.897  36.427  28.061  1.00  0.00    -0.744 OA
ENDBRANCH  76  77
ENDBRANCH  55  69
BRANCH  56  81
ATOM     81  C   UNL A   1      44.209  28.779  35.773  1.00  0.00     0.058 A 
ATOM     82  C   UNL A   1      45.502  29.295  35.594  1.00  0.00     0.135 A 
ATOM     83  C   UNL A   1      44.065  27.663  36.613  1.00  0.00     0.135 A 
ATOM     84  F   UNL A   1      45.696  30.358  34.799  1.00  0.00    -0.206 F 
ATOM     85  C   UNL A   1      46.613  28.706  36.191  1.00  0.00     0.059 A 
ATOM     86  C   UNL A   1      45.155  27.077  37.247  1.00  0.00     0.059 A 
ATOM     87  F   UNL A   1      42.848  27.142  36.836  1.00  0.00    -0.206 F 
ATOM     88  C   UNL A   1      46.428  27.594  37.015  1.00  0.00     0.060 A 
BRANCH  88  89
ATOM     89  S   UNL A   1      47.873  26.847  37.799  1.00  0.00     0.124 S 
ATOM     90  O   UNL A   1      48.790  26.729  36.671  1.00  0.00    -0.237 OA
ATOM     91  O   UNL A   1      48.223  27.841  38.808  1.00  0.00    -0.237 OA
ATOM     92  O   UNL A   1      47.354  25.587  38.325  1.00  0.00    -0.744 OA
ENDBRANCH  88  89
ENDBRANCH  56  81
BRANCH  68  93
ATOM     93  C   UNL A   1      39.748  33.872  37.465  1.00  0.00     0.058 A 
ATOM     94  C   UNL A   1      40.388  35.112  37.609  1.00  0.00     0.135 A 
ATOM     95  C   UNL A   1      38.889  33.455  38.496  1.00  0.00     0.135 A 
ATOM     96  F   UNL A   1      41.224  35.556  36.656  1.00  0.00    -0.206 F 
ATOM     97  C   UNL A   1      40.203  35.899  38.742  1.00  0.00     0.059 A 
ATOM     98  C   UNL A   1      38.663  34.238  39.622  1.00  0.00     0.059 A 
ATOM     99  F   UNL A   1      38.243  32.282  38.405  1.00  0.00    -0.206 F 
ATOM    100  C   UNL A   1      39.335  35.454  39.742  1.00  0.00     0.060 A 
BRANCH 100 101
ATOM    101  S   UNL A   1      39.077  36.500  41.190  1.00  0.00     0.124 S 
ATOM    102  O   UNL A   1      38.629  37.746  40.576  1.00  0.00    -0.237 OA
ATOM    103  O   UNL A   1      38.062  35.759  41.932  1.00  0.00    -0.237 OA
ATOM    104  O   UNL A   1      40.394  36.547  41.817  1.00  0.00    -0.744 OA
ENDBRANCH 100 101
ENDBRANCH  68  93
ENDBRANCH  42  43
ENDBRANCH  34  37
ENDBRANCH  32  33
ENDBRANCH   1  32
TORSDOF 18
ENDMDL
MODEL 3
REMARK VINA RESULT:     -12.1      0.593      7.876
REMARK SMILES CC(=O)C1=C(NCCCNC(=O)c2ccc(-c3c4nc(c(-c5c(F)cc(S(=O)(=O)[O-])cc5F)c5ccc([nH]5)c(-c5c(F)cc(S(=O)(=O)[O-])cc5F)c5nc(c(-c6c(F)cc(S(=O)(=O)[O-])cc6F)c6ccc3[nH]6)C=C5)C=C4)cc2)C(=O)N(c2ccc(C(=O)[O-])cc2)[C@H]1c1ccc([N+](=O)[O-])cc1
REMARK SMILES IDX 8 1 7 2 6 3 5 5 4 6 91 7 79 8 81 9 80 10 2 11 1 12 3 13
REMARK SMILES IDX 92 14 93 15 100 16 94 17 99 18 95 19 96 20 97 21 98 22 82 23
REMARK SMILES IDX 83 24 90 25 84 26 89 27 85 28 86 29 87 30 88 31 9 32 10 33
REMARK SMILES IDX 11 34 12 36 13 37 14 38 78 39 15 40 77 41 16 42 17 43 18 44
REMARK SMILES IDX 71 45 19 46 76 47 70 48 72 49 20 50 75 51 69 52 68 53 21 55
REMARK SMILES IDX 55 56 34 57 54 58 35 59 38 60 53 61 73 62 36 63 37 64 52 66
REMARK SMILES IDX 74 67 39 68 22 69 23 70 32 71 24 72 25 73 31 74 33 75 26 76
REMARK SMILES IDX 27 77 28 78 29 79 30 80 56 81 57 82 66 83 58 84 59 85 65 86
REMARK SMILES IDX 67 87 60 88 61 89 62 90 63 91 64 92 40 93 41 94 50 95 42 96
REMARK SMILES IDX 43 97 49 98 51 99 44 100 45 101 46 102 47 103 48 104
REMARK H PARENT 6 4 10 35 72 54 38 65
REMARK Flexibility Score: inf
ROOT
ATOM      1  C   UNL A   1      34.229  30.627  27.834  1.00  0.00     0.042 C 
ENDROOT
BRANCH   1   2
ATOM      2  C   UNL A   1      34.120  29.155  27.458  1.00  0.00     0.115 C 
BRANCH   2   3
ATOM      3  N   UNL A   1      32.737  28.729  27.448  1.00  0.00    -0.380 N 
ATOM      4  H   UNL A   1      32.341  28.562  28.334  1.00  0.00     0.160 HD
BRANCH   3   5
ATOM      5  C   UNL A   1      31.902  28.523  26.384  1.00  0.00     0.110 C 
ATOM      6  C   UNL A   1      31.188  27.496  25.915  1.00  0.00     0.051 C 
ATOM      7  C   UNL A   1      30.446  27.784  24.655  1.00  0.00     0.157 C 
ATOM      8  C   UNL A   1      31.575  29.668  25.448  1.00  0.00     0.275 C 
ATOM      9  N   UNL A   1      30.603  29.214  24.570  1.00  0.00    -0.295 N 
ATOM     10  O   UNL A   1      32.062  30.782  25.555  1.00  0.00    -0.267 OA
BRANCH   6  11
ATOM     11  C   UNL A   1      31.008  26.190  26.564  1.00  0.00     0.160 C 
ATOM     12  C   UNL A   1      29.672  25.510  26.445  1.00  0.00     0.093 C 
ATOM     13  O   UNL A   1      31.913  25.727  27.255  1.00  0.00    -0.295 OA
ENDBRANCH   6  11
BRANCH   7  14
ATOM     14  C   UNL A   1      31.091  27.084  23.455  1.00  0.00    -0.020 A 
ATOM     15  C   UNL A   1      32.182  27.665  22.768  1.00  0.00     0.013 A 
ATOM     16  C   UNL A   1      30.633  25.824  23.040  1.00  0.00     0.013 A 
ATOM     17  C   UNL A   1      32.811  27.003  21.714  1.00  0.00     0.086 A 
ATOM     18  C   UNL A   1      31.259  25.153  21.982  1.00  0.00     0.086 A 
ATOM     19  C   UNL A   1      32.349  25.744  21.325  1.00  0.00     0.269 A 
BRANCH  19  20
ATOM     20  N   UNL A   1      33.013  25.037  20.224  1.00  0.00     0.062 N 
ATOM     21  O   UNL A   1      33.389  23.874  20.429  1.00  0.00    -0.258 OA
ATOM     22  O   UNL A   1      33.159  25.648  19.155  1.00  0.00    -0.258 OA
ENDBRANCH  19  20
ENDBRANCH   7  14
BRANCH   9  23
ATOM     23  C   UNL A   1      29.891  30.001  23.651  1.00  0.00     0.045 A 
ATOM     24  C   UNL A   1      29.203  31.143  24.066  1.00  0.00     0.027 A 
ATOM     25  C   UNL A   1      29.879  29.644  22.296  1.00  0.00     0.027 A 
ATOM     26  C   UNL A   1      28.550  31.949  23.127  1.00  0.00     0.012 A 
ATOM     27  C   UNL A   1      29.179  30.416  21.366  1.00  0.00     0.012 A 
ATOM     28  C   UNL A   1      28.525  31.582  21.775  1.00  0.00    -0.003 A 
BRANCH  28  29
ATOM     29  C   UNL A   1      27.802  32.449  20.815  1.00  0.00     0.071 C 
ATOM     30  O   UNL A   1      27.538  33.629  20.970  1.00  0.00    -0.545 OA
ATOM     31  O   UNL A   1      27.433  31.796  19.699  1.00  0.00    -0.545 OA
ENDBRANCH  28  29
ENDBRANCH   9  23
ENDBRANCH   3   5
ENDBRANCH   2   3
ENDBRANCH   1   2
BRANCH   1  32
ATOM     32  C   UNL A   1      35.602  31.034  28.358  1.00  0.00     0.118 C 
BRANCH  32  33
ATOM     33  N   UNL A   1      35.624  31.205  29.805  1.00  0.00    -0.352 N 
ATOM     34  C   UNL A   1      36.547  30.799  30.737  1.00  0.00     0.251 C 
ATOM     35  H   UNL A   1      34.852  31.690  30.174  1.00  0.00     0.163 HD
ATOM     36  O   UNL A   1      36.269  30.875  31.932  1.00  0.00    -0.269 OA
BRANCH  34  37
ATOM     37  C   UNL A   1      37.857  30.254  30.316  1.00  0.00     0.039 A 
ATOM     38  C   UNL A   1      38.209  30.312  28.964  1.00  0.00     0.014 A 
ATOM     39  C   UNL A   1      38.727  29.664  31.236  1.00  0.00     0.014 A 
ATOM     40  C   UNL A   1      39.462  29.847  28.553  1.00  0.00     0.010 A 
ATOM     41  C   UNL A   1      40.008  29.287  30.840  1.00  0.00     0.010 A 
ATOM     42  C   UNL A   1      40.390  29.370  29.493  1.00  0.00    -0.014 A 
BRANCH  42  43
ATOM     43  C   UNL A   1      41.760  28.959  29.089  1.00  0.00     0.031 A 
ATOM     44  C   UNL A   1      42.875  29.972  29.048  1.00  0.00     0.074 A 
ATOM     45  C   UNL A   1      41.987  27.688  28.695  1.00  0.00     0.049 A 
ATOM     46  N   UNL A   1      44.111  29.823  28.645  1.00  0.00    -0.248 NA
ATOM     47  C   UNL A   1      42.552  31.339  29.490  1.00  0.00     0.031 C 
ATOM     48  C   UNL A   1      40.979  26.626  28.642  1.00  0.00     0.029 A 
ATOM     49  N   UNL A   1      43.133  27.076  28.250  1.00  0.00    -0.354 N 
ATOM     50  C   UNL A   1      44.706  31.074  28.770  1.00  0.00     0.074 A 
ATOM     51  C   UNL A   1      43.683  31.983  29.238  1.00  0.00     0.031 C 
ATOM     52  C   UNL A   1      41.554  25.492  28.211  1.00  0.00     0.029 A 
ATOM     53  C   UNL A   1      42.958  25.753  27.912  1.00  0.00     0.049 A 
ATOM     54  H   UNL A   1      43.998  27.540  28.179  1.00  0.00     0.167 HD
ATOM     55  C   UNL A   1      45.992  31.426  28.538  1.00  0.00     0.037 A 
ATOM     56  C   UNL A   1      43.825  24.855  27.404  1.00  0.00     0.037 A 
ATOM     57  C   UNL A   1      47.013  30.508  28.104  1.00  0.00     0.049 A 
ATOM     58  C   UNL A   1      45.250  25.276  27.152  1.00  0.00     0.074 A 
ATOM     59  C   UNL A   1      48.361  30.754  27.906  1.00  0.00     0.029 A 
ATOM     60  N   UNL A   1      46.802  29.171  27.798  1.00  0.00    -0.354 N 
ATOM     61  N   UNL A   1      45.810  26.446  27.346  1.00  0.00    -0.248 NA
ATOM     62  C   UNL A   1      46.161  24.255  26.619  1.00  0.00     0.031 C 
ATOM     63  C   UNL A   1      48.953  29.583  27.427  1.00  0.00     0.029 A 
ATOM     64  C   UNL A   1      47.990  28.588  27.388  1.00  0.00     0.049 A 
ATOM     65  H   UNL A   1      45.937  28.706  27.863  1.00  0.00     0.167 HD
ATOM     66  C   UNL A   1      47.146  26.291  26.992  1.00  0.00     0.074 A 
ATOM     67  C   UNL A   1      47.313  24.912  26.585  1.00  0.00     0.031 C 
ATOM     68  C   UNL A   1      48.145  27.207  27.003  1.00  0.00     0.037 A 
BRANCH  55  69
ATOM     69  C   UNL A   1      46.385  32.863  28.754  1.00  0.00     0.058 A 
ATOM     70  C   UNL A   1      46.316  33.810  27.720  1.00  0.00     0.135 A 
ATOM     71  C   UNL A   1      46.760  33.314  30.030  1.00  0.00     0.135 A 
ATOM     72  F   UNL A   1      45.980  33.432  26.476  1.00  0.00    -0.206 F 
ATOM     73  C   UNL A   1      46.615  35.151  27.940  1.00  0.00     0.059 A 
ATOM     74  C   UNL A   1      47.034  34.656  30.280  1.00  0.00     0.059 A 
ATOM     75  F   UNL A   1      46.846  32.452  31.054  1.00  0.00    -0.206 F 
ATOM     76  C   UNL A   1      46.965  35.566  29.227  1.00  0.00     0.060 A 
BRANCH  76  77
ATOM     77  S   UNL A   1      47.306  37.317  29.501  1.00  0.00     0.124 S 
ATOM     78  O   UNL A   1      46.337  37.947  28.609  1.00  0.00    -0.237 OA
ATOM     79  O   UNL A   1      47.043  37.464  30.929  1.00  0.00    -0.237 OA
ATOM     80  O   UNL A   1      48.704  37.458  29.105  1.00  0.00    -0.744 OA
ENDBRANCH  76  77
ENDBRANCH  55  69
BRANCH  56  81
ATOM     81  C   UNL A   1      43.379  23.468  27.097  1.00  0.00     0.058 A 
ATOM     82  C   UNL A   1      43.131  23.060  25.777  1.00  0.00     0.135 A 
ATOM     83  C   UNL A   1      43.172  22.526  28.118  1.00  0.00     0.135 A 
ATOM     84  F   UNL A   1      43.309  23.923  24.765  1.00  0.00    -0.206 F 
ATOM     85  C   UNL A   1      42.661  21.784  25.482  1.00  0.00     0.059 A 
ATOM     86  C   UNL A   1      42.734  21.234  27.846  1.00  0.00     0.059 A 
ATOM     87  F   UNL A   1      43.414  22.856  29.397  1.00  0.00    -0.206 F 
ATOM     88  C   UNL A   1      42.464  20.878  26.526  1.00  0.00     0.060 A 
BRANCH  88  89
ATOM     89  S   UNL A   1      41.870  19.219  26.133  1.00  0.00     0.124 S 
ATOM     90  O   UNL A   1      42.652  18.902  24.943  1.00  0.00    -0.237 OA
ATOM     91  O   UNL A   1      42.213  18.476  27.341  1.00  0.00    -0.237 OA
ATOM     92  O   UNL A   1      40.440  19.419  25.913  1.00  0.00    -0.744 OA
ENDBRANCH  88  89
ENDBRANCH  56  81
BRANCH  68  93
ATOM     93  C   UNL A   1      49.522  26.743  26.611  1.00  0.00     0.058 A 
ATOM     94  C   UNL A   1      50.437  26.254  27.555  1.00  0.00     0.135 A 
ATOM     95  C   UNL A   1      49.907  26.737  25.260  1.00  0.00     0.135 A 
ATOM     96  F   UNL A   1      50.122  26.243  28.860  1.00  0.00    -0.206 F 
ATOM     97  C   UNL A   1      51.697  25.798  27.178  1.00  0.00     0.059 A 
ATOM     98  C   UNL A   1      51.148  26.256  24.855  1.00  0.00     0.059 A 
ATOM     99  F   UNL A   1      49.066  27.183  24.314  1.00  0.00    -0.206 F 
ATOM    100  C   UNL A   1      52.041  25.800  25.825  1.00  0.00     0.060 A 
BRANCH 100 101
ATOM    101  S   UNL A   1      53.665  25.173  25.345  1.00  0.00     0.124 S 
ATOM    102  O   UNL A   1      53.884  25.863  24.078  1.00  0.00    -0.237 OA
ATOM    103  O   UNL A   1      54.507  25.605  26.457  1.00  0.00    -0.237 OA
ATOM    104  O   UNL A   1      53.458  23.731  25.247  1.00  0.00    -0.744 OA
ENDBRANCH 100 101
ENDBRANCH  68  93
ENDBRANCH  42  43
ENDBRANCH  34  37
ENDBRANCH  32  33
ENDBRANCH   1  32
TORSDOF 18
ENDMDL
