MODEL 1
REMARK VINA RESULT:     -10.3      0.000      0.000
REMARK SMILES C#CCN(CC(=O)NCCCNC(=O)c1ccc(-c2c3nc(c(-c4c(F)cc(S(=O)(=O)[O-])cc4F)c4ccc([nH]4)c(-c4c(F)cc(S(=O)(=O)[O-])cc4F)c4nc(c(-c5c(F)cc(S(=O)(=O)[O-])cc5F)c5ccc2[nH]5)C=C4)C=C3)cc1)C(=O)N1CC[N@@H+]2CCC[C@H]2C1
REMARK SMILES IDX 10 1 9 2 8 3 6 4 7 5 5 7 4 8 3 9 2 10 1 11 81 12 82 13 83 14
REMARK SMILES IDX 84 15 91 16 85 17 90 18 86 19 89 20 87 21 88 23 11 24 12 25
REMARK SMILES IDX 13 26 14 28 15 29 16 30 80 31 17 32 79 33 18 34 19 35 20 36
REMARK SMILES IDX 73 37 21 38 78 39 72 40 74 41 22 42 77 43 71 44 70 45 23 47
REMARK SMILES IDX 57 48 36 49 56 50 37 51 40 52 55 53 75 54 38 55 39 56 54 58
REMARK SMILES IDX 76 59 41 60 24 61 25 62 34 63 26 64 27 65 33 66 35 67 28 68
REMARK SMILES IDX 29 69 30 70 31 71 32 72 58 73 59 74 68 75 60 76 61 77 67 78
REMARK SMILES IDX 69 79 62 80 63 81 64 82 65 83 66 84 42 85 43 86 52 87 44 88
REMARK SMILES IDX 45 89 51 90 53 91 46 92 47 93 48 94 49 95 50 96
REMARK H PARENT 8 6 86 22 12 27 74 46 40 57
REMARK Flexibility Score: inf
ROOT
ATOM      1  C   UNL A   1      33.038  27.711  26.649  1.00  0.00     0.042 C 
ENDROOT
BRANCH   1   2
ATOM      2  C   UNL A   1      33.069  26.315  26.031  1.00  0.00     0.117 C 
BRANCH   2   3
ATOM      3  N   UNL A   1      31.908  25.505  26.334  1.00  0.00    -0.354 N 
ATOM      4  C   UNL A   1      31.809  24.186  26.662  1.00  0.00     0.239 C 
ATOM      5  O   UNL A   1      30.746  23.828  27.185  1.00  0.00    -0.273 OA
ATOM      6  H   UNL A   1      31.050  25.985  26.297  1.00  0.00     0.163 HD
BRANCH   4   7
ATOM      7  C   UNL A   1      32.975  23.190  26.532  1.00  0.00     0.222 C 
BRANCH   7   8
ATOM      8  N   UNL A   1      33.254  22.674  25.193  1.00  0.00    -0.304 N 
BRANCH   8   9
ATOM      9  C   UNL A   1      32.372  21.639  24.676  1.00  0.00     0.211 C 
BRANCH   9  10
ATOM     10  C   UNL A   1      33.049  20.283  24.565  1.00  0.00    -0.085 C 
ATOM     11  C   UNL A   1      33.630  19.120  24.469  1.00  0.00     0.006 C 
ENDBRANCH   9  10
ENDBRANCH   8   9
BRANCH   8  12
ATOM     12  C   UNL A   1      34.188  23.218  24.315  1.00  0.00     0.321 C 
ATOM     13  O   UNL A   1      33.879  24.000  23.418  1.00  0.00    -0.248 OA
BRANCH  12  14
ATOM     14  N   UNL A   1      35.507  22.966  24.608  1.00  0.00    -0.313 N 
ATOM     15  C   UNL A   1      36.316  22.022  23.832  1.00  0.00     0.183 C 
ATOM     16  C   UNL A   1      36.301  24.041  25.214  1.00  0.00     0.186 C 
ATOM     17  C   UNL A   1      37.430  21.401  24.709  1.00  0.00     0.284 C 
ATOM     18  C   UNL A   1      37.377  23.395  26.091  1.00  0.00     0.204 C 
ATOM     19  N   UNL A   1      38.231  22.470  25.319  1.00  0.00    -0.330 N 
ATOM     20  C   UNL A   1      38.428  24.308  26.694  1.00  0.00     0.073 C 
ATOM     21  C   UNL A   1      39.251  22.045  26.264  1.00  0.00     0.262 C 
ATOM     22  H   UNL A   1      38.683  22.892  24.508  1.00  0.00     0.348 HD
ATOM     23  C   UNL A   1      39.618  23.368  26.943  1.00  0.00     0.068 C 
ENDBRANCH  12  14
ENDBRANCH   8  12
ENDBRANCH   7   8
ENDBRANCH   4   7
ENDBRANCH   2   3
ENDBRANCH   1   2
BRANCH   1  24
ATOM     24  C   UNL A   1      34.043  28.704  26.073  1.00  0.00     0.118 C 
BRANCH  24  25
ATOM     25  N   UNL A   1      33.789  30.074  26.489  1.00  0.00    -0.352 N 
ATOM     26  C   UNL A   1      34.409  30.877  27.413  1.00  0.00     0.251 C 
ATOM     27  H   UNL A   1      33.035  30.503  26.024  1.00  0.00     0.163 HD
ATOM     28  O   UNL A   1      33.864  31.938  27.714  1.00  0.00    -0.269 OA
BRANCH  26  29
ATOM     29  C   UNL A   1      35.695  30.507  28.050  1.00  0.00     0.039 A 
ATOM     30  C   UNL A   1      35.682  29.514  29.038  1.00  0.00     0.014 A 
ATOM     31  C   UNL A   1      36.890  31.174  27.768  1.00  0.00     0.014 A 
ATOM     32  C   UNL A   1      36.860  29.165  29.705  1.00  0.00     0.010 A 
ATOM     33  C   UNL A   1      38.080  30.777  28.383  1.00  0.00     0.010 A 
ATOM     34  C   UNL A   1      38.077  29.779  29.368  1.00  0.00    -0.014 A 
BRANCH  34  35
ATOM     35  C   UNL A   1      39.341  29.392  30.048  1.00  0.00     0.031 A 
ATOM     36  C   UNL A   1      39.794  30.115  31.290  1.00  0.00     0.074 A 
ATOM     37  C   UNL A   1      40.106  28.414  29.524  1.00  0.00     0.049 A 
ATOM     38  N   UNL A   1      40.879  29.938  31.999  1.00  0.00    -0.248 NA
ATOM     39  C   UNL A   1      38.923  31.193  31.787  1.00  0.00     0.031 C 
ATOM     40  C   UNL A   1      39.805  27.671  28.298  1.00  0.00     0.029 A 
ATOM     41  N   UNL A   1      41.296  27.880  29.950  1.00  0.00    -0.354 N 
ATOM     42  C   UNL A   1      40.832  30.889  33.013  1.00  0.00     0.074 A 
ATOM     43  C   UNL A   1      39.633  31.671  32.800  1.00  0.00     0.031 C 
ATOM     44  C   UNL A   1      40.769  26.762  28.085  1.00  0.00     0.029 A 
ATOM     45  C   UNL A   1      41.773  26.876  29.139  1.00  0.00     0.049 A 
ATOM     46  H   UNL A   1      41.764  28.185  30.760  1.00  0.00     0.167 HD
ATOM     47  C   UNL A   1      41.696  31.080  34.039  1.00  0.00     0.037 A 
ATOM     48  C   UNL A   1      42.893  26.133  29.232  1.00  0.00     0.037 A 
ATOM     49  C   UNL A   1      42.873  30.281  34.266  1.00  0.00     0.049 A 
ATOM     50  C   UNL A   1      43.823  26.345  30.393  1.00  0.00     0.074 A 
ATOM     51  C   UNL A   1      43.782  30.361  35.307  1.00  0.00     0.029 A 
ATOM     52  N   UNL A   1      43.304  29.253  33.439  1.00  0.00    -0.354 N 
ATOM     53  N   UNL A   1      43.731  27.211  31.375  1.00  0.00    -0.248 NA
ATOM     54  C   UNL A   1      45.005  25.475  30.467  1.00  0.00     0.031 C 
ATOM     55  C   UNL A   1      44.779  29.403  35.093  1.00  0.00     0.029 A 
ATOM     56  C   UNL A   1      44.469  28.699  33.941  1.00  0.00     0.049 A 
ATOM     57  H   UNL A   1      42.848  28.962  32.617  1.00  0.00     0.167 HD
ATOM     58  C   UNL A   1      44.825  26.969  32.199  1.00  0.00     0.074 A 
ATOM     59  C   UNL A   1      45.561  25.872  31.604  1.00  0.00     0.031 C 
ATOM     60  C   UNL A   1      45.185  27.597  33.345  1.00  0.00     0.037 A 
BRANCH  47  61
ATOM     61  C   UNL A   1      41.396  32.196  35.003  1.00  0.00     0.058 A 
ATOM     62  C   UNL A   1      40.503  32.024  36.073  1.00  0.00     0.135 A 
ATOM     63  C   UNL A   1      42.029  33.443  34.875  1.00  0.00     0.135 A 
ATOM     64  F   UNL A   1      39.860  30.857  36.236  1.00  0.00    -0.206 F 
ATOM     65  C   UNL A   1      40.223  33.057  36.962  1.00  0.00     0.059 A 
ATOM     66  C   UNL A   1      41.785  34.483  35.769  1.00  0.00     0.059 A 
ATOM     67  F   UNL A   1      42.895  33.663  33.874  1.00  0.00    -0.206 F 
ATOM     68  C   UNL A   1      40.866  34.285  36.800  1.00  0.00     0.060 A 
BRANCH  68  69
ATOM     69  S   UNL A   1      40.488  35.617  37.958  1.00  0.00     0.124 S 
ATOM     70  O   UNL A   1      39.662  34.922  38.940  1.00  0.00    -0.237 OA
ATOM     71  O   UNL A   1      41.812  36.020  38.417  1.00  0.00    -0.237 OA
ATOM     72  O   UNL A   1      39.789  36.597  37.131  1.00  0.00    -0.744 OA
ENDBRANCH  68  69
ENDBRANCH  47  61
BRANCH  48  73
ATOM     73  C   UNL A   1      43.171  25.087  28.211  1.00  0.00     0.058 A 
ATOM     74  C   UNL A   1      43.786  25.415  26.995  1.00  0.00     0.135 A 
ATOM     75  C   UNL A   1      42.850  23.740  28.441  1.00  0.00     0.135 A 
ATOM     76  F   UNL A   1      44.107  26.691  26.728  1.00  0.00    -0.206 F 
ATOM     77  C   UNL A   1      44.065  24.448  26.035  1.00  0.00     0.059 A 
ATOM     78  C   UNL A   1      43.139  22.751  27.507  1.00  0.00     0.059 A 
ATOM     79  F   UNL A   1      42.276  23.374  29.597  1.00  0.00    -0.206 F 
ATOM     80  C   UNL A   1      43.739  23.117  26.302  1.00  0.00     0.060 A 
BRANCH  80  81
ATOM     81  S   UNL A   1      44.156  21.860  25.073  1.00  0.00     0.124 S 
ATOM     82  O   UNL A   1      43.240  20.784  25.432  1.00  0.00    -0.237 OA
ATOM     83  O   UNL A   1      43.872  22.549  23.818  1.00  0.00    -0.237 OA
ATOM     84  O   UNL A   1      45.570  21.599  25.328  1.00  0.00    -0.744 OA
ENDBRANCH  80  81
ENDBRANCH  48  73
BRANCH  60  85
ATOM     85  C   UNL A   1      46.408  27.090  34.056  1.00  0.00     0.058 A 
ATOM     86  C   UNL A   1      46.336  26.062  35.007  1.00  0.00     0.135 A 
ATOM     87  C   UNL A   1      47.674  27.611  33.745  1.00  0.00     0.135 A 
ATOM     88  F   UNL A   1      45.148  25.534  35.344  1.00  0.00    -0.206 F 
ATOM     89  C   UNL A   1      47.476  25.581  35.642  1.00  0.00     0.059 A 
ATOM     90  C   UNL A   1      48.830  27.128  34.351  1.00  0.00     0.059 A 
ATOM     91  F   UNL A   1      47.798  28.590  32.835  1.00  0.00    -0.206 F 
ATOM     92  C   UNL A   1      48.719  26.120  35.307  1.00  0.00     0.060 A 
BRANCH  92  93
ATOM     93  S   UNL A   1      50.196  25.467  36.114  1.00  0.00     0.124 S 
ATOM     94  O   UNL A   1      50.539  24.351  35.239  1.00  0.00    -0.237 OA
ATOM     95  O   UNL A   1      51.107  26.607  36.075  1.00  0.00    -0.237 OA
ATOM     96  O   UNL A   1      49.721  25.099  37.445  1.00  0.00    -0.744 OA
ENDBRANCH  92  93
ENDBRANCH  60  85
ENDBRANCH  34  35
ENDBRANCH  26  29
ENDBRANCH  24  25
ENDBRANCH   1  24
TORSDOF 18
ENDMDL
MODEL 2
REMARK VINA RESULT:     -10.2      0.210      1.418
REMARK SMILES C#CCN(CC(=O)NCCCNC(=O)c1ccc(-c2c3nc(c(-c4c(F)cc(S(=O)(=O)[O-])cc4F)c4ccc([nH]4)c(-c4c(F)cc(S(=O)(=O)[O-])cc4F)c4nc(c(-c5c(F)cc(S(=O)(=O)[O-])cc5F)c5ccc2[nH]5)C=C4)C=C3)cc1)C(=O)N1CC[N@@H+]2CCC[C@H]2C1
REMARK SMILES IDX 10 1 9 2 8 3 6 4 7 5 5 7 4 8 3 9 2 10 1 11 81 12 82 13 83 14
REMARK SMILES IDX 84 15 91 16 85 17 90 18 86 19 89 20 87 21 88 23 11 24 12 25
REMARK SMILES IDX 13 26 14 28 15 29 16 30 80 31 17 32 79 33 18 34 19 35 20 36
REMARK SMILES IDX 73 37 21 38 78 39 72 40 74 41 22 42 77 43 71 44 70 45 23 47
REMARK SMILES IDX 57 48 36 49 56 50 37 51 40 52 55 53 75 54 38 55 39 56 54 58
REMARK SMILES IDX 76 59 41 60 24 61 25 62 34 63 26 64 27 65 33 66 35 67 28 68
REMARK SMILES IDX 29 69 30 70 31 71 32 72 58 73 59 74 68 75 60 76 61 77 67 78
REMARK SMILES IDX 69 79 62 80 63 81 64 82 65 83 66 84 42 85 43 86 52 87 44 88
REMARK SMILES IDX 45 89 51 90 53 91 46 92 47 93 48 94 49 95 50 96
REMARK H PARENT 8 6 86 22 12 27 74 46 40 57
REMARK Flexibility Score: inf
ROOT
ATOM      1  C   UNL A   1      32.860  27.638  26.451  1.00  0.00     0.042 C 
ENDROOT
BRANCH   1   2
ATOM      2  C   UNL A   1      32.945  26.207  25.928  1.00  0.00     0.117 C 
BRANCH   2   3
ATOM      3  N   UNL A   1      31.832  25.365  26.312  1.00  0.00    -0.354 N 
ATOM      4  C   UNL A   1      31.803  24.071  26.738  1.00  0.00     0.239 C 
ATOM      5  O   UNL A   1      30.769  23.702  27.307  1.00  0.00    -0.273 OA
ATOM      6  H   UNL A   1      30.949  25.799  26.257  1.00  0.00     0.163 HD
BRANCH   4   7
ATOM      7  C   UNL A   1      33.016  23.127  26.659  1.00  0.00     0.222 C 
BRANCH   7   8
ATOM      8  N   UNL A   1      33.305  22.534  25.355  1.00  0.00    -0.304 N 
BRANCH   8   9
ATOM      9  C   UNL A   1      32.462  21.433  24.916  1.00  0.00     0.211 C 
BRANCH   9  10
ATOM     10  C   UNL A   1      33.231  20.135  24.727  1.00  0.00    -0.085 C 
ATOM     11  C   UNL A   1      33.891  19.022  24.565  1.00  0.00     0.006 C 
ENDBRANCH   9  10
ENDBRANCH   8   9
BRANCH   8  12
ATOM     12  C   UNL A   1      34.209  23.056  24.433  1.00  0.00     0.321 C 
ATOM     13  O   UNL A   1      33.865  23.791  23.509  1.00  0.00    -0.248 OA
BRANCH  12  14
ATOM     14  N   UNL A   1      35.538  22.842  24.707  1.00  0.00    -0.313 N 
ATOM     15  C   UNL A   1      36.356  21.897  23.938  1.00  0.00     0.183 C 
ATOM     16  C   UNL A   1      36.317  23.949  25.271  1.00  0.00     0.186 C 
ATOM     17  C   UNL A   1      37.500  21.324  24.808  1.00  0.00     0.284 C 
ATOM     18  C   UNL A   1      37.425  23.349  26.143  1.00  0.00     0.204 C 
ATOM     19  N   UNL A   1      38.286  22.426  25.377  1.00  0.00    -0.330 N 
ATOM     20  C   UNL A   1      38.465  24.301  26.704  1.00  0.00     0.073 C 
ATOM     21  C   UNL A   1      39.333  22.048  26.313  1.00  0.00     0.262 C 
ATOM     22  H   UNL A   1      38.713  22.838  24.548  1.00  0.00     0.348 HD
ATOM     23  C   UNL A   1      39.681  23.395  26.953  1.00  0.00     0.068 C 
ENDBRANCH  12  14
ENDBRANCH   8  12
ENDBRANCH   7   8
ENDBRANCH   4   7
ENDBRANCH   2   3
ENDBRANCH   1   2
BRANCH   1  24
ATOM     24  C   UNL A   1      34.106  28.491  26.231  1.00  0.00     0.118 C 
BRANCH  24  25
ATOM     25  N   UNL A   1      33.895  29.895  26.545  1.00  0.00    -0.352 N 
ATOM     26  C   UNL A   1      34.512  30.733  27.438  1.00  0.00     0.251 C 
ATOM     27  H   UNL A   1      33.178  30.321  26.021  1.00  0.00     0.163 HD
ATOM     28  O   UNL A   1      34.001  31.834  27.645  1.00  0.00    -0.269 OA
BRANCH  26  29
ATOM     29  C   UNL A   1      35.755  30.357  28.152  1.00  0.00     0.039 A 
ATOM     30  C   UNL A   1      36.980  30.742  27.594  1.00  0.00     0.014 A 
ATOM     31  C   UNL A   1      35.747  29.559  29.300  1.00  0.00     0.014 A 
ATOM     32  C   UNL A   1      38.182  30.368  28.203  1.00  0.00     0.010 A 
ATOM     33  C   UNL A   1      36.944  29.246  29.947  1.00  0.00     0.010 A 
ATOM     34  C   UNL A   1      38.176  29.634  29.399  1.00  0.00    -0.014 A 
BRANCH  34  35
ATOM     35  C   UNL A   1      39.447  29.258  30.072  1.00  0.00     0.031 A 
ATOM     36  C   UNL A   1      39.906  29.991  31.306  1.00  0.00     0.074 A 
ATOM     37  C   UNL A   1      40.214  28.282  29.547  1.00  0.00     0.049 A 
ATOM     38  N   UNL A   1      40.998  29.824  32.008  1.00  0.00    -0.248 NA
ATOM     39  C   UNL A   1      39.033  31.066  31.804  1.00  0.00     0.031 C 
ATOM     40  C   UNL A   1      39.907  27.530  28.328  1.00  0.00     0.029 A 
ATOM     41  N   UNL A   1      41.410  27.756  29.966  1.00  0.00    -0.354 N 
ATOM     42  C   UNL A   1      40.953  30.780  33.017  1.00  0.00     0.074 A 
ATOM     43  C   UNL A   1      39.748  31.554  32.808  1.00  0.00     0.031 C 
ATOM     44  C   UNL A   1      40.875  26.626  28.112  1.00  0.00     0.029 A 
ATOM     45  C   UNL A   1      41.887  26.751  29.157  1.00  0.00     0.049 A 
ATOM     46  H   UNL A   1      41.883  28.069  30.771  1.00  0.00     0.167 HD
ATOM     47  C   UNL A   1      41.824  30.982  34.035  1.00  0.00     0.037 A 
ATOM     48  C   UNL A   1      43.012  26.015  29.245  1.00  0.00     0.037 A 
ATOM     49  C   UNL A   1      43.007  30.191  34.256  1.00  0.00     0.049 A 
ATOM     50  C   UNL A   1      43.950  26.239  30.398  1.00  0.00     0.074 A 
ATOM     51  C   UNL A   1      43.924  30.281  35.290  1.00  0.00     0.029 A 
ATOM     52  N   UNL A   1      43.437  29.160  33.432  1.00  0.00    -0.354 N 
ATOM     53  N   UNL A   1      43.861  27.109  31.375  1.00  0.00    -0.248 NA
ATOM     54  C   UNL A   1      45.137  25.376  30.467  1.00  0.00     0.031 C 
ATOM     55  C   UNL A   1      44.925  29.328  35.073  1.00  0.00     0.029 A 
ATOM     56  C   UNL A   1      44.610  28.616  33.927  1.00  0.00     0.049 A 
ATOM     57  H   UNL A   1      42.977  28.863  32.615  1.00  0.00     0.167 HD
ATOM     58  C   UNL A   1      44.962  26.878  32.192  1.00  0.00     0.074 A 
ATOM     59  C   UNL A   1      45.700  25.783  31.597  1.00  0.00     0.031 C 
ATOM     60  C   UNL A   1      45.327  27.515  33.332  1.00  0.00     0.037 A 
BRANCH  47  61
ATOM     61  C   UNL A   1      41.525  32.101  34.995  1.00  0.00     0.058 A 
ATOM     62  C   UNL A   1      42.085  33.379  34.832  1.00  0.00     0.135 A 
ATOM     63  C   UNL A   1      40.648  31.905  36.074  1.00  0.00     0.135 A 
ATOM     64  F   UNL A   1      42.940  33.620  33.825  1.00  0.00    -0.206 F 
ATOM     65  C   UNL A   1      41.811  34.413  35.722  1.00  0.00     0.059 A 
ATOM     66  C   UNL A   1      40.339  32.933  36.961  1.00  0.00     0.059 A 
ATOM     67  F   UNL A   1      40.082  30.705  36.276  1.00  0.00    -0.206 F 
ATOM     68  C   UNL A   1      40.940  34.179  36.786  1.00  0.00     0.060 A 
BRANCH  68  69
ATOM     69  S   UNL A   1      40.599  35.529  37.935  1.00  0.00     0.124 S 
ATOM     70  O   UNL A   1      39.537  34.952  38.754  1.00  0.00    -0.237 OA
ATOM     71  O   UNL A   1      41.884  35.708  38.601  1.00  0.00    -0.237 OA
ATOM     72  O   UNL A   1      40.191  36.625  37.061  1.00  0.00    -0.744 OA
ENDBRANCH  68  69
ENDBRANCH  47  61
BRANCH  48  73
ATOM     73  C   UNL A   1      43.288  24.966  28.228  1.00  0.00     0.058 A 
ATOM     74  C   UNL A   1      43.913  25.287  27.015  1.00  0.00     0.135 A 
ATOM     75  C   UNL A   1      42.955  23.621  28.458  1.00  0.00     0.135 A 
ATOM     76  F   UNL A   1      44.245  26.559  26.747  1.00  0.00    -0.206 F 
ATOM     77  C   UNL A   1      44.190  24.315  26.058  1.00  0.00     0.059 A 
ATOM     78  C   UNL A   1      43.242  22.628  27.527  1.00  0.00     0.059 A 
ATOM     79  F   UNL A   1      42.371  23.262  29.611  1.00  0.00    -0.206 F 
ATOM     80  C   UNL A   1      43.852  22.987  26.325  1.00  0.00     0.060 A 
BRANCH  80  81
ATOM     81  S   UNL A   1      44.267  21.725  25.101  1.00  0.00     0.124 S 
ATOM     82  O   UNL A   1      44.119  22.466  23.855  1.00  0.00    -0.237 OA
ATOM     83  O   UNL A   1      45.632  21.370  25.475  1.00  0.00    -0.237 OA
ATOM     84  O   UNL A   1      43.270  20.686  25.341  1.00  0.00    -0.744 OA
ENDBRANCH  80  81
ENDBRANCH  48  73
BRANCH  60  85
ATOM     85  C   UNL A   1      46.559  27.019  34.036  1.00  0.00     0.058 A 
ATOM     86  C   UNL A   1      47.827  27.555  33.770  1.00  0.00     0.135 A 
ATOM     87  C   UNL A   1      46.457  26.027  35.025  1.00  0.00     0.135 A 
ATOM     88  F   UNL A   1      47.979  28.501  32.831  1.00  0.00    -0.206 F 
ATOM     89  C   UNL A   1      48.959  27.108  34.446  1.00  0.00     0.059 A 
ATOM     90  C   UNL A   1      47.572  25.583  35.729  1.00  0.00     0.059 A 
ATOM     91  F   UNL A   1      45.263  25.490  35.324  1.00  0.00    -0.206 F 
ATOM     92  C   UNL A   1      48.821  26.121  35.424  1.00  0.00     0.060 A 
BRANCH  92  93
ATOM     93  S   UNL A   1      50.290  25.571  36.316  1.00  0.00     0.124 S 
ATOM     94  O   UNL A   1      50.887  24.647  35.358  1.00  0.00    -0.237 OA
ATOM     95  O   UNL A   1      51.016  26.819  36.529  1.00  0.00    -0.237 OA
ATOM     96  O   UNL A   1      49.744  24.958  37.524  1.00  0.00    -0.744 OA
ENDBRANCH  92  93
ENDBRANCH  60  85
ENDBRANCH  34  35
ENDBRANCH  26  29
ENDBRANCH  24  25
ENDBRANCH   1  24
TORSDOF 18
ENDMDL
MODEL 3
REMARK VINA RESULT:     -10.2      5.285      6.845
REMARK SMILES C#CCN(CC(=O)NCCCNC(=O)c1ccc(-c2c3nc(c(-c4c(F)cc(S(=O)(=O)[O-])cc4F)c4ccc([nH]4)c(-c4c(F)cc(S(=O)(=O)[O-])cc4F)c4nc(c(-c5c(F)cc(S(=O)(=O)[O-])cc5F)c5ccc2[nH]5)C=C4)C=C3)cc1)C(=O)N1CC[N@@H+]2CCC[C@H]2C1
REMARK SMILES IDX 10 1 9 2 8 3 6 4 7 5 5 7 4 8 3 9 2 10 1 11 81 12 82 13 83 14
REMARK SMILES IDX 84 15 91 16 85 17 90 18 86 19 89 20 87 21 88 23 11 24 12 25
REMARK SMILES IDX 13 26 14 28 15 29 16 30 80 31 17 32 79 33 18 34 19 35 20 36
REMARK SMILES IDX 73 37 21 38 78 39 72 40 74 41 22 42 77 43 71 44 70 45 23 47
REMARK SMILES IDX 57 48 36 49 56 50 37 51 40 52 55 53 75 54 38 55 39 56 54 58
REMARK SMILES IDX 76 59 41 60 24 61 25 62 34 63 26 64 27 65 33 66 35 67 28 68
REMARK SMILES IDX 29 69 30 70 31 71 32 72 58 73 59 74 68 75 60 76 61 77 67 78
REMARK SMILES IDX 69 79 62 80 63 81 64 82 65 83 66 84 42 85 43 86 52 87 44 88
REMARK SMILES IDX 45 89 51 90 53 91 46 92 47 93 48 94 49 95 50 96
REMARK H PARENT 8 6 86 22 12 27 74 46 40 57
REMARK Flexibility Score: inf
ROOT
ATOM      1  C   UNL A   1      33.592  28.926  27.163  1.00  0.00     0.042 C 
ENDROOT
BRANCH   1   2
ATOM      2  C   UNL A   1      33.007  29.434  25.848  1.00  0.00     0.117 C 
BRANCH   2   3
ATOM      3  N   UNL A   1      33.695  28.958  24.667  1.00  0.00    -0.354 N 
ATOM      4  C   UNL A   1      33.260  28.815  23.384  1.00  0.00     0.239 C 
ATOM      5  O   UNL A   1      34.134  28.699  22.516  1.00  0.00    -0.273 OA
ATOM      6  H   UNL A   1      34.632  28.693  24.815  1.00  0.00     0.163 HD
BRANCH   4   7
ATOM      7  C   UNL A   1      31.780  28.922  22.975  1.00  0.00     0.222 C 
BRANCH   7   8
ATOM      8  N   UNL A   1      30.996  27.689  23.010  1.00  0.00    -0.304 N 
BRANCH   8   9
ATOM      9  C   UNL A   1      29.630  27.776  23.502  1.00  0.00     0.211 C 
BRANCH   9  10
ATOM     10  C   UNL A   1      28.802  28.822  22.774  1.00  0.00    -0.085 C 
ATOM     11  C   UNL A   1      28.092  29.720  22.149  1.00  0.00     0.006 C 
ENDBRANCH   9  10
ENDBRANCH   8   9
BRANCH   8  12
ATOM     12  C   UNL A   1      31.400  26.481  22.448  1.00  0.00     0.321 C 
ATOM     13  O   UNL A   1      31.568  26.334  21.239  1.00  0.00    -0.248 OA
BRANCH  12  14
ATOM     14  N   UNL A   1      31.764  25.497  23.335  1.00  0.00    -0.313 N 
ATOM     15  C   UNL A   1      30.912  24.334  23.611  1.00  0.00     0.183 C 
ATOM     16  C   UNL A   1      33.193  25.217  23.514  1.00  0.00     0.186 C 
ATOM     17  C   UNL A   1      31.153  23.804  25.045  1.00  0.00     0.284 C 
ATOM     18  C   UNL A   1      33.400  24.716  24.946  1.00  0.00     0.204 C 
ATOM     19  N   UNL A   1      32.582  23.520  25.233  1.00  0.00    -0.330 N 
ATOM     20  C   UNL A   1      34.779  24.206  25.315  1.00  0.00     0.073 C 
ATOM     21  C   UNL A   1      32.983  23.119  26.571  1.00  0.00     0.262 C 
ATOM     22  H   UNL A   1      32.734  22.742  24.591  1.00  0.00     0.348 HD
ATOM     23  C   UNL A   1      34.507  23.258  26.494  1.00  0.00     0.068 C 
ENDBRANCH  12  14
ENDBRANCH   8  12
ENDBRANCH   7   8
ENDBRANCH   4   7
ENDBRANCH   2   3
ENDBRANCH   1   2
BRANCH   1  24
ATOM     24  C   UNL A   1      35.034  29.340  27.442  1.00  0.00     0.118 C 
BRANCH  24  25
ATOM     25  N   UNL A   1      35.186  30.054  28.699  1.00  0.00    -0.352 N 
ATOM     26  C   UNL A   1      36.262  30.209  29.537  1.00  0.00     0.251 C 
ATOM     27  H   UNL A   1      34.368  30.507  29.007  1.00  0.00     0.163 HD
ATOM     28  O   UNL A   1      36.064  30.701  30.647  1.00  0.00    -0.269 OA
BRANCH  26  29
ATOM     29  C   UNL A   1      37.634  29.803  29.149  1.00  0.00     0.039 A 
ATOM     30  C   UNL A   1      38.543  29.490  30.168  1.00  0.00     0.014 A 
ATOM     31  C   UNL A   1      38.072  29.814  27.822  1.00  0.00     0.014 A 
ATOM     32  C   UNL A   1      39.864  29.152  29.857  1.00  0.00     0.010 A 
ATOM     33  C   UNL A   1      39.370  29.407  27.506  1.00  0.00     0.010 A 
ATOM     34  C   UNL A   1      40.285  29.085  28.519  1.00  0.00    -0.014 A 
BRANCH  34  35
ATOM     35  C   UNL A   1      41.678  28.694  28.176  1.00  0.00     0.031 A 
ATOM     36  C   UNL A   1      42.773  29.728  28.126  1.00  0.00     0.074 A 
ATOM     37  C   UNL A   1      41.951  27.411  27.868  1.00  0.00     0.049 A 
ATOM     38  N   UNL A   1      44.035  29.579  27.816  1.00  0.00    -0.248 NA
ATOM     39  C   UNL A   1      42.393  31.114  28.444  1.00  0.00     0.031 C 
ATOM     40  C   UNL A   1      40.971  26.323  27.831  1.00  0.00     0.029 A 
ATOM     41  N   UNL A   1      43.132  26.803  27.522  1.00  0.00    -0.354 N 
ATOM     42  C   UNL A   1      44.598  30.849  27.885  1.00  0.00     0.074 A 
ATOM     43  C   UNL A   1      43.527  31.764  28.221  1.00  0.00     0.031 C 
ATOM     44  C   UNL A   1      41.594  25.179  27.506  1.00  0.00     0.029 A 
ATOM     45  C   UNL A   1      43.010  25.454  27.281  1.00  0.00     0.049 A 
ATOM     46  H   UNL A   1      43.987  27.287  27.452  1.00  0.00     0.167 HD
ATOM     47  C   UNL A   1      45.889  31.218  27.706  1.00  0.00     0.037 A 
ATOM     48  C   UNL A   1      43.933  24.541  26.921  1.00  0.00     0.037 A 
ATOM     49  C   UNL A   1      46.957  30.301  27.401  1.00  0.00     0.049 A 
ATOM     50  C   UNL A   1      45.364  24.968  26.753  1.00  0.00     0.074 A 
ATOM     51  C   UNL A   1      48.308  30.569  27.255  1.00  0.00     0.029 A 
ATOM     52  N   UNL A   1      46.797  28.937  27.199  1.00  0.00    -0.354 N 
ATOM     53  N   UNL A   1      45.887  26.165  26.880  1.00  0.00    -0.248 NA
ATOM     54  C   UNL A   1      46.335  23.922  26.404  1.00  0.00     0.031 C 
ATOM     55  C   UNL A   1      48.959  29.373  26.932  1.00  0.00     0.029 A 
ATOM     56  C   UNL A   1      48.021  28.354  26.918  1.00  0.00     0.049 A 
ATOM     57  H   UNL A   1      45.939  28.457  27.246  1.00  0.00     0.167 HD
ATOM     58  C   UNL A   1      47.251  26.010  26.656  1.00  0.00     0.074 A 
ATOM     59  C   UNL A   1      47.473  24.603  26.392  1.00  0.00     0.031 C 
ATOM     60  C   UNL A   1      48.229  26.948  26.670  1.00  0.00     0.037 A 
BRANCH  47  61
ATOM     61  C   UNL A   1      46.222  32.679  27.843  1.00  0.00     0.058 A 
ATOM     62  C   UNL A   1      46.739  33.207  29.037  1.00  0.00     0.135 A 
ATOM     63  C   UNL A   1      46.049  33.558  26.761  1.00  0.00     0.135 A 
ATOM     64  F   UNL A   1      46.912  32.415  30.107  1.00  0.00    -0.206 F 
ATOM     65  C   UNL A   1      47.043  34.559  29.165  1.00  0.00     0.059 A 
ATOM     66  C   UNL A   1      46.372  34.909  26.857  1.00  0.00     0.059 A 
ATOM     67  F   UNL A   1      45.561  33.107  25.595  1.00  0.00    -0.206 F 
ATOM     68  C   UNL A   1      46.852  35.403  28.070  1.00  0.00     0.060 A 
BRANCH  68  69
ATOM     69  S   UNL A   1      47.246  37.156  28.253  1.00  0.00     0.124 S 
ATOM     70  O   UNL A   1      46.279  37.566  29.266  1.00  0.00    -0.237 OA
ATOM     71  O   UNL A   1      48.638  37.122  28.685  1.00  0.00    -0.237 OA
ATOM     72  O   UNL A   1      47.020  37.696  26.915  1.00  0.00    -0.744 OA
ENDBRANCH  68  69
ENDBRANCH  47  61
BRANCH  48  73
ATOM     73  C   UNL A   1      43.533  23.121  26.735  1.00  0.00     0.058 A 
ATOM     74  C   UNL A   1      43.473  22.552  25.455  1.00  0.00     0.135 A 
ATOM     75  C   UNL A   1      43.227  22.300  27.832  1.00  0.00     0.135 A 
ATOM     76  F   UNL A   1      43.751  23.299  24.375  1.00  0.00    -0.206 F 
ATOM     77  C   UNL A   1      43.112  21.222  25.265  1.00  0.00     0.059 A 
ATOM     78  C   UNL A   1      42.886  20.961  27.669  1.00  0.00     0.059 A 
ATOM     79  F   UNL A   1      43.287  22.793  29.078  1.00  0.00    -0.206 F 
ATOM     80  C   UNL A   1      42.823  20.434  26.380  1.00  0.00     0.060 A 
BRANCH  80  81
ATOM     81  S   UNL A   1      42.411  18.693  26.126  1.00  0.00     0.124 S 
ATOM     82  O   UNL A   1      41.008  18.777  25.740  1.00  0.00    -0.237 OA
ATOM     83  O   UNL A   1      43.343  18.307  25.071  1.00  0.00    -0.237 OA
ATOM     84  O   UNL A   1      42.673  18.094  27.431  1.00  0.00    -0.744 OA
ENDBRANCH  80  81
ENDBRANCH  48  73
BRANCH  60  85
ATOM     85  C   UNL A   1      49.638  26.481  26.432  1.00  0.00     0.058 A 
ATOM     86  C   UNL A   1      50.457  26.041  27.482  1.00  0.00     0.135 A 
ATOM     87  C   UNL A   1      50.155  26.430  25.127  1.00  0.00     0.135 A 
ATOM     88  F   UNL A   1      50.012  26.076  28.748  1.00  0.00    -0.206 F 
ATOM     89  C   UNL A   1      51.751  25.586  27.250  1.00  0.00     0.059 A 
ATOM     90  C   UNL A   1      51.438  25.956  24.870  1.00  0.00     0.059 A 
ATOM     91  F   UNL A   1      49.408  26.830  24.087  1.00  0.00    -0.206 F 
ATOM     92  C   UNL A   1      52.233  25.547  25.940  1.00  0.00     0.060 A 
BRANCH  92  93
ATOM     93  S   UNL A   1      53.902  24.925  25.646  1.00  0.00     0.124 S 
ATOM     94  O   UNL A   1      53.634  23.556  25.219  1.00  0.00    -0.237 OA
ATOM     95  O   UNL A   1      54.396  25.827  24.610  1.00  0.00    -0.237 OA
ATOM     96  O   UNL A   1      54.549  25.061  26.948  1.00  0.00    -0.744 OA
ENDBRANCH  92  93
ENDBRANCH  60  85
ENDBRANCH  34  35
ENDBRANCH  26  29
ENDBRANCH  24  25
ENDBRANCH   1  24
TORSDOF 18
ENDMDL
