MODEL 1
REMARK VINA RESULT:     -10.7      0.000      0.000
REMARK SMILES CC(C)C[C@@H](C[C@H](O)c1ccccc1)C(=O)NCCCNC(=O)c1ccc(-c2c3nc(c(-c4c(F)cc(S(=O)(=O)[O-])cc4F)c4ccc([nH]4)c(-c4c(F)cc(S(=O)(=O)[O-])cc4F)c4nc(c(-c5c(F)cc(S(=O)(=O)[O-])cc5F)c5ccc2[nH]5)C=C4)C=C3)cc1
REMARK SMILES IDX 19 1 18 2 17 3 15 4 16 5 5 7 4 8 2 9 1 10 3 11 6 12 7 13
REMARK SMILES IDX 9 14 10 15 14 16 11 17 13 18 12 19 8 20 20 22 21 23 22 24
REMARK SMILES IDX 23 26 24 27 25 28 89 29 26 30 88 31 27 32 28 33 29 34 82 35
REMARK SMILES IDX 30 36 87 37 81 38 83 39 31 40 86 41 80 42 79 43 32 45 66 46
REMARK SMILES IDX 45 47 65 48 46 49 49 50 64 51 84 52 47 53 48 54 63 56 85 57
REMARK SMILES IDX 50 58 33 59 34 60 43 61 35 62 36 63 42 64 44 65 37 66 38 67
REMARK SMILES IDX 39 68 40 69 41 70 67 71 68 72 77 73 69 74 70 75 76 76 78 77
REMARK SMILES IDX 71 78 72 79 73 80 74 81 75 82 51 83 52 84 61 85 53 86 54 87
REMARK SMILES IDX 60 88 62 89 55 90 56 91 57 92 58 93 59 94
REMARK H PARENT 17 6 8 21 21 25 83 44 49 55
REMARK Flexibility Score: inf
ROOT
ATOM      1  C   UNL A   1      33.757  28.126  26.034  1.00  0.00     0.042 C 
ENDROOT
BRANCH   1   2
ATOM      2  C   UNL A   1      33.294  29.137  25.009  1.00  0.00     0.117 C 
BRANCH   2   3
ATOM      3  N   UNL A   1      33.940  28.977  23.719  1.00  0.00    -0.356 N 
ATOM      4  C   UNL A   1      33.715  28.103  22.708  1.00  0.00     0.223 C 
ATOM      5  O   UNL A   1      34.247  28.343  21.621  1.00  0.00    -0.275 OA
ATOM      6  H   UNL A   1      34.669  29.617  23.548  1.00  0.00     0.163 HD
BRANCH   4   7
ATOM      7  C   UNL A   1      32.833  26.870  22.866  1.00  0.00     0.081 C 
BRANCH   7   8
ATOM      8  C   UNL A   1      31.378  27.161  22.436  1.00  0.00     0.016 C 
BRANCH   8   9
ATOM      9  C   UNL A   1      30.337  27.402  23.541  1.00  0.00    -0.017 C 
ATOM     10  C   UNL A   1      29.186  28.296  23.088  1.00  0.00     0.007 C 
ATOM     11  C   UNL A   1      29.784  26.047  24.005  1.00  0.00     0.007 C 
ENDBRANCH   8   9
ENDBRANCH   7   8
BRANCH   7  12
ATOM     12  C   UNL A   1      33.500  25.530  22.473  1.00  0.00     0.050 C 
BRANCH  12  13
ATOM     13  C   UNL A   1      34.087  24.562  23.519  1.00  0.00     0.145 C 
BRANCH  13  14
ATOM     14  C   UNL A   1      33.173  23.903  24.541  1.00  0.00    -0.020 A 
ATOM     15  C   UNL A   1      32.626  22.621  24.391  1.00  0.00     0.006 A 
ATOM     16  C   UNL A   1      32.828  24.630  25.701  1.00  0.00     0.006 A 
ATOM     17  C   UNL A   1      31.685  22.130  25.304  1.00  0.00     0.000 A 
ATOM     18  C   UNL A   1      31.899  24.133  26.620  1.00  0.00     0.000 A 
ATOM     19  C   UNL A   1      31.313  22.889  26.409  1.00  0.00     0.000 A 
ENDBRANCH  13  14
BRANCH  13  20
ATOM     20  O   UNL A   1      34.707  23.502  22.772  1.00  0.00    -0.388 OA
ATOM     21  H   UNL A   1      34.113  22.736  22.742  1.00  0.00     0.211 HD
ENDBRANCH  13  20
ENDBRANCH  12  13
ENDBRANCH   7  12
ENDBRANCH   4   7
ENDBRANCH   2   3
ENDBRANCH   1   2
BRANCH   1  22
ATOM     22  C   UNL A   1      33.328  28.508  27.443  1.00  0.00     0.118 C 
BRANCH  22  23
ATOM     23  N   UNL A   1      33.379  29.951  27.687  1.00  0.00    -0.352 N 
ATOM     24  C   UNL A   1      34.400  30.731  28.176  1.00  0.00     0.251 C 
ATOM     25  H   UNL A   1      32.553  30.440  27.464  1.00  0.00     0.163 HD
ATOM     26  O   UNL A   1      34.189  31.901  28.485  1.00  0.00    -0.269 OA
BRANCH  24  27
ATOM     27  C   UNL A   1      35.740  30.138  28.353  1.00  0.00     0.039 A 
ATOM     28  C   UNL A   1      36.635  30.120  27.282  1.00  0.00     0.014 A 
ATOM     29  C   UNL A   1      36.124  29.645  29.601  1.00  0.00     0.014 A 
ATOM     30  C   UNL A   1      37.951  29.701  27.497  1.00  0.00     0.010 A 
ATOM     31  C   UNL A   1      37.457  29.350  29.840  1.00  0.00     0.010 A 
ATOM     32  C   UNL A   1      38.387  29.366  28.790  1.00  0.00    -0.014 A 
BRANCH  32  33
ATOM     33  C   UNL A   1      39.800  29.015  29.081  1.00  0.00     0.031 A 
ATOM     34  C   UNL A   1      40.719  30.053  29.672  1.00  0.00     0.074 A 
ATOM     35  C   UNL A   1      40.281  27.808  28.723  1.00  0.00     0.049 A 
ATOM     36  N   UNL A   1      42.009  29.998  29.873  1.00  0.00    -0.248 NA
ATOM     37  C   UNL A   1      40.113  31.345  30.039  1.00  0.00     0.031 C 
ATOM     38  C   UNL A   1      39.512  26.743  28.075  1.00  0.00     0.029 A 
ATOM     39  N   UNL A   1      41.541  27.275  28.842  1.00  0.00    -0.354 N 
ATOM     40  C   UNL A   1      42.371  31.251  30.352  1.00  0.00     0.074 A 
ATOM     41  C   UNL A   1      41.177  32.067  30.353  1.00  0.00     0.031 C 
ATOM     42  C   UNL A   1      40.306  25.676  27.884  1.00  0.00     0.029 A 
ATOM     43  C   UNL A   1      41.649  25.993  28.359  1.00  0.00     0.049 A 
ATOM     44  H   UNL A   1      42.296  27.767  29.237  1.00  0.00     0.167 HD
ATOM     45  C   UNL A   1      43.581  31.678  30.784  1.00  0.00     0.037 A 
ATOM     46  C   UNL A   1      42.710  25.167  28.304  1.00  0.00     0.037 A 
ATOM     47  C   UNL A   1      44.750  30.841  30.841  1.00  0.00     0.049 A 
ATOM     48  C   UNL A   1      44.032  25.641  28.842  1.00  0.00     0.074 A 
ATOM     49  C   UNL A   1      46.005  31.147  31.336  1.00  0.00     0.029 A 
ATOM     50  N   UNL A   1      44.802  29.527  30.399  1.00  0.00    -0.354 N 
ATOM     51  N   UNL A   1      44.343  26.811  29.348  1.00  0.00    -0.248 NA
ATOM     52  C   UNL A   1      45.147  24.684  28.809  1.00  0.00     0.031 C 
ATOM     53  C   UNL A   1      46.824  30.024  31.169  1.00  0.00     0.029 A 
ATOM     54  C   UNL A   1      46.069  29.009  30.604  1.00  0.00     0.049 A 
ATOM     55  H   UNL A   1      44.048  29.036  29.999  1.00  0.00     0.167 HD
ATOM     56  C   UNL A   1      45.680  26.722  29.718  1.00  0.00     0.074 A 
ATOM     57  C   UNL A   1      46.115  25.381  29.386  1.00  0.00     0.031 C 
ATOM     58  C   UNL A   1      46.476  27.665  30.279  1.00  0.00     0.037 A 
BRANCH  45  59
ATOM     59  C   UNL A   1      43.690  33.102  31.249  1.00  0.00     0.058 A 
ATOM     60  C   UNL A   1      43.962  34.151  30.354  1.00  0.00     0.135 A 
ATOM     61  C   UNL A   1      43.509  33.430  32.603  1.00  0.00     0.135 A 
ATOM     62  F   UNL A   1      44.163  33.892  29.052  1.00  0.00    -0.206 F 
ATOM     63  C   UNL A   1      44.087  35.465  30.789  1.00  0.00     0.059 A 
ATOM     64  C   UNL A   1      43.599  34.743  33.055  1.00  0.00     0.059 A 
ATOM     65  F   UNL A   1      43.247  32.468  33.502  1.00  0.00    -0.206 F 
ATOM     66  C   UNL A   1      43.907  35.751  32.143  1.00  0.00     0.060 A 
BRANCH  66  67
ATOM     67  S   UNL A   1      44.076  37.463  32.692  1.00  0.00     0.124 S 
ATOM     68  O   UNL A   1      43.856  38.190  31.446  1.00  0.00    -0.237 OA
ATOM     69  O   UNL A   1      43.014  37.579  33.688  1.00  0.00    -0.237 OA
ATOM     70  O   UNL A   1      45.435  37.517  33.221  1.00  0.00    -0.744 OA
ENDBRANCH  66  67
ENDBRANCH  45  59
BRANCH  46  71
ATOM     71  C   UNL A   1      42.557  23.793  27.754  1.00  0.00     0.058 A 
ATOM     72  C   UNL A   1      42.556  23.572  26.369  1.00  0.00     0.135 A 
ATOM     73  C   UNL A   1      42.427  22.677  28.595  1.00  0.00     0.135 A 
ATOM     74  F   UNL A   1      42.673  24.609  25.525  1.00  0.00    -0.206 F 
ATOM     75  C   UNL A   1      42.414  22.296  25.834  1.00  0.00     0.059 A 
ATOM     76  C   UNL A   1      42.306  21.388  28.084  1.00  0.00     0.059 A 
ATOM     77  F   UNL A   1      42.442  22.833  29.927  1.00  0.00    -0.206 F 
ATOM     78  C   UNL A   1      42.290  21.209  26.701  1.00  0.00     0.060 A 
BRANCH  78  79
ATOM     79  S   UNL A   1      42.158  19.550  25.997  1.00  0.00     0.124 S 
ATOM     80  O   UNL A   1      43.070  19.640  24.863  1.00  0.00    -0.237 OA
ATOM     81  O   UNL A   1      42.597  18.709  27.106  1.00  0.00    -0.237 OA
ATOM     82  O   UNL A   1      40.741  19.442  25.662  1.00  0.00    -0.744 OA
ENDBRANCH  78  79
ENDBRANCH  46  71
BRANCH  58  83
ATOM     83  C   UNL A   1      47.888  27.271  30.603  1.00  0.00     0.058 A 
ATOM     84  C   UNL A   1      48.221  26.673  31.828  1.00  0.00     0.135 A 
ATOM     85  C   UNL A   1      48.908  27.441  29.654  1.00  0.00     0.135 A 
ATOM     86  F   UNL A   1      47.281  26.494  32.770  1.00  0.00    -0.206 F 
ATOM     87  C   UNL A   1      49.522  26.274  32.108  1.00  0.00     0.059 A 
ATOM     88  C   UNL A   1      50.212  27.029  29.904  1.00  0.00     0.059 A 
ATOM     89  F   UNL A   1      48.637  28.000  28.463  1.00  0.00    -0.206 F 
ATOM     90  C   UNL A   1      50.511  26.456  31.139  1.00  0.00     0.060 A 
BRANCH  90  91
ATOM     91  S   UNL A   1      52.191  25.901  31.500  1.00  0.00     0.124 S 
ATOM     92  O   UNL A   1      52.610  26.869  32.508  1.00  0.00    -0.237 OA
ATOM     93  O   UNL A   1      51.975  24.539  31.980  1.00  0.00    -0.237 OA
ATOM     94  O   UNL A   1      52.866  26.004  30.209  1.00  0.00    -0.744 OA
ENDBRANCH  90  91
ENDBRANCH  58  83
ENDBRANCH  32  33
ENDBRANCH  24  27
ENDBRANCH  22  23
ENDBRANCH   1  22
TORSDOF 19
ENDMDL
MODEL 2
REMARK VINA RESULT:     -10.7      1.346      2.933
REMARK SMILES CC(C)C[C@@H](C[C@H](O)c1ccccc1)C(=O)NCCCNC(=O)c1ccc(-c2c3nc(c(-c4c(F)cc(S(=O)(=O)[O-])cc4F)c4ccc([nH]4)c(-c4c(F)cc(S(=O)(=O)[O-])cc4F)c4nc(c(-c5c(F)cc(S(=O)(=O)[O-])cc5F)c5ccc2[nH]5)C=C4)C=C3)cc1
REMARK SMILES IDX 19 1 18 2 17 3 15 4 16 5 5 7 4 8 2 9 1 10 3 11 6 12 7 13
REMARK SMILES IDX 9 14 10 15 14 16 11 17 13 18 12 19 8 20 20 22 21 23 22 24
REMARK SMILES IDX 23 26 24 27 25 28 89 29 26 30 88 31 27 32 28 33 29 34 82 35
REMARK SMILES IDX 30 36 87 37 81 38 83 39 31 40 86 41 80 42 79 43 32 45 66 46
REMARK SMILES IDX 45 47 65 48 46 49 49 50 64 51 84 52 47 53 48 54 63 56 85 57
REMARK SMILES IDX 50 58 33 59 34 60 43 61 35 62 36 63 42 64 44 65 37 66 38 67
REMARK SMILES IDX 39 68 40 69 41 70 67 71 68 72 77 73 69 74 70 75 76 76 78 77
REMARK SMILES IDX 71 78 72 79 73 80 74 81 75 82 51 83 52 84 61 85 53 86 54 87
REMARK SMILES IDX 60 88 62 89 55 90 56 91 57 92 58 93 59 94
REMARK H PARENT 17 6 8 21 21 25 83 44 49 55
REMARK Flexibility Score: inf
ROOT
ATOM      1  C   UNL A   1      32.488  27.839  27.159  1.00  0.00     0.042 C 
ENDROOT
BRANCH   1   2
ATOM      2  C   UNL A   1      32.431  26.604  26.287  1.00  0.00     0.117 C 
BRANCH   2   3
ATOM      3  N   UNL A   1      31.462  25.626  26.746  1.00  0.00    -0.356 N 
ATOM      4  C   UNL A   1      31.398  24.283  26.578  1.00  0.00     0.223 C 
ATOM      5  O   UNL A   1      30.596  23.660  27.282  1.00  0.00    -0.275 OA
ATOM      6  H   UNL A   1      30.721  26.006  27.273  1.00  0.00     0.163 HD
BRANCH   4   7
ATOM      7  C   UNL A   1      32.276  23.533  25.583  1.00  0.00     0.081 C 
BRANCH   7   8
ATOM      8  C   UNL A   1      32.030  22.010  25.653  1.00  0.00     0.016 C 
BRANCH   8   9
ATOM      9  C   UNL A   1      33.125  21.134  26.284  1.00  0.00    -0.017 C 
ATOM     10  C   UNL A   1      34.005  20.445  25.244  1.00  0.00     0.007 C 
ATOM     11  C   UNL A   1      33.996  22.012  27.194  1.00  0.00     0.007 C 
ENDBRANCH   8   9
ENDBRANCH   7   8
BRANCH   7  12
ATOM     12  C   UNL A   1      32.450  24.224  24.210  1.00  0.00     0.050 C 
BRANCH  12  13
ATOM     13  C   UNL A   1      33.807  24.772  23.727  1.00  0.00     0.145 C 
BRANCH  13  14
ATOM     14  C   UNL A   1      35.094  24.054  24.106  1.00  0.00    -0.020 A 
ATOM     15  C   UNL A   1      35.667  23.022  23.350  1.00  0.00     0.006 A 
ATOM     16  C   UNL A   1      35.742  24.425  25.303  1.00  0.00     0.006 A 
ATOM     17  C   UNL A   1      36.776  22.313  23.826  1.00  0.00     0.000 A 
ATOM     18  C   UNL A   1      36.859  23.727  25.771  1.00  0.00     0.000 A 
ATOM     19  C   UNL A   1      37.364  22.656  25.040  1.00  0.00     0.000 A 
ENDBRANCH  13  14
BRANCH  13  20
ATOM     20  O   UNL A   1      33.742  24.778  22.291  1.00  0.00    -0.388 OA
ATOM     21  H   UNL A   1      33.052  24.164  21.995  1.00  0.00     0.211 HD
ENDBRANCH  13  20
ENDBRANCH  12  13
ENDBRANCH   7  12
ENDBRANCH   4   7
ENDBRANCH   2   3
ENDBRANCH   1   2
BRANCH   1  22
ATOM     22  C   UNL A   1      33.798  28.593  26.990  1.00  0.00     0.118 C 
BRANCH  22  23
ATOM     23  N   UNL A   1      33.774  29.927  27.595  1.00  0.00    -0.352 N 
ATOM     24  C   UNL A   1      34.730  30.580  28.335  1.00  0.00     0.251 C 
ATOM     25  H   UNL A   1      32.943  30.435  27.447  1.00  0.00     0.163 HD
ATOM     26  O   UNL A   1      34.452  31.627  28.916  1.00  0.00    -0.269 OA
BRANCH  24  27
ATOM     27  C   UNL A   1      36.081  29.995  28.448  1.00  0.00     0.039 A 
ATOM     28  C   UNL A   1      36.975  30.110  27.383  1.00  0.00     0.014 A 
ATOM     29  C   UNL A   1      36.474  29.377  29.636  1.00  0.00     0.014 A 
ATOM     30  C   UNL A   1      38.298  29.692  27.553  1.00  0.00     0.010 A 
ATOM     31  C   UNL A   1      37.813  29.082  29.843  1.00  0.00     0.010 A 
ATOM     32  C   UNL A   1      38.741  29.228  28.802  1.00  0.00    -0.014 A 
BRANCH  32  33
ATOM     33  C   UNL A   1      40.161  28.873  29.055  1.00  0.00     0.031 A 
ATOM     34  C   UNL A   1      41.096  29.905  29.628  1.00  0.00     0.074 A 
ATOM     35  C   UNL A   1      40.629  27.666  28.678  1.00  0.00     0.049 A 
ATOM     36  N   UNL A   1      42.391  29.847  29.796  1.00  0.00    -0.248 NA
ATOM     37  C   UNL A   1      40.502  31.196  30.018  1.00  0.00     0.031 C 
ATOM     38  C   UNL A   1      39.842  26.607  28.044  1.00  0.00     0.029 A 
ATOM     39  N   UNL A   1      41.891  27.131  28.762  1.00  0.00    -0.354 N 
ATOM     40  C   UNL A   1      42.768  31.097  30.273  1.00  0.00     0.074 A 
ATOM     41  C   UNL A   1      41.576  31.914  30.309  1.00  0.00     0.031 C 
ATOM     42  C   UNL A   1      40.629  25.540  27.826  1.00  0.00     0.029 A 
ATOM     43  C   UNL A   1      41.984  25.851  28.269  1.00  0.00     0.049 A 
ATOM     44  H   UNL A   1      42.657  27.619  29.140  1.00  0.00     0.167 HD
ATOM     45  C   UNL A   1      43.990  31.518  30.676  1.00  0.00     0.037 A 
ATOM     46  C   UNL A   1      43.042  25.023  28.182  1.00  0.00     0.037 A 
ATOM     47  C   UNL A   1      45.157  30.678  30.699  1.00  0.00     0.049 A 
ATOM     48  C   UNL A   1      44.378  25.492  28.689  1.00  0.00     0.074 A 
ATOM     49  C   UNL A   1      46.425  30.979  31.163  1.00  0.00     0.029 A 
ATOM     50  N   UNL A   1      45.195  29.367  30.248  1.00  0.00    -0.354 N 
ATOM     51  N   UNL A   1      44.704  26.658  29.194  1.00  0.00    -0.248 NA
ATOM     52  C   UNL A   1      45.490  24.533  28.622  1.00  0.00     0.031 C 
ATOM     53  C   UNL A   1      47.237  29.856  30.970  1.00  0.00     0.029 A 
ATOM     54  C   UNL A   1      46.466  28.846  30.418  1.00  0.00     0.049 A 
ATOM     55  H   UNL A   1      44.430  28.880  29.865  1.00  0.00     0.167 HD
ATOM     56  C   UNL A   1      46.050  26.564  29.529  1.00  0.00     0.074 A 
ATOM     57  C   UNL A   1      46.474  25.225  29.179  1.00  0.00     0.031 C 
ATOM     58  C   UNL A   1      46.862  27.503  30.075  1.00  0.00     0.037 A 
BRANCH  45  59
ATOM     59  C   UNL A   1      44.113  32.940  31.148  1.00  0.00     0.058 A 
ATOM     60  C   UNL A   1      43.840  33.300  32.478  1.00  0.00     0.135 A 
ATOM     61  C   UNL A   1      44.521  33.954  30.266  1.00  0.00     0.135 A 
ATOM     62  F   UNL A   1      43.427  32.374  33.358  1.00  0.00    -0.206 F 
ATOM     63  C   UNL A   1      43.930  34.619  32.907  1.00  0.00     0.059 A 
ATOM     64  C   UNL A   1      44.647  35.276  30.682  1.00  0.00     0.059 A 
ATOM     65  F   UNL A   1      44.794  33.666  28.984  1.00  0.00    -0.206 F 
ATOM     66  C   UNL A   1      44.331  35.602  32.001  1.00  0.00     0.060 A 
BRANCH  66  67
ATOM     67  S   UNL A   1      44.441  37.310  32.574  1.00  0.00     0.124 S 
ATOM     68  O   UNL A   1      43.855  37.207  33.907  1.00  0.00    -0.237 OA
ATOM     69  O   UNL A   1      45.878  37.564  32.532  1.00  0.00    -0.237 OA
ATOM     70  O   UNL A   1      43.649  38.047  31.594  1.00  0.00    -0.744 OA
ENDBRANCH  66  67
ENDBRANCH  45  59
BRANCH  46  71
ATOM     71  C   UNL A   1      42.872  23.653  27.628  1.00  0.00     0.058 A 
ATOM     72  C   UNL A   1      42.549  22.577  28.468  1.00  0.00     0.135 A 
ATOM     73  C   UNL A   1      43.011  23.393  26.257  1.00  0.00     0.135 A 
ATOM     74  F   UNL A   1      42.409  22.775  29.788  1.00  0.00    -0.206 F 
ATOM     75  C   UNL A   1      42.384  21.288  27.972  1.00  0.00     0.059 A 
ATOM     76  C   UNL A   1      42.830  22.117  25.733  1.00  0.00     0.059 A 
ATOM     77  F   UNL A   1      43.301  24.392  25.409  1.00  0.00    -0.206 F 
ATOM     78  C   UNL A   1      42.527  21.068  26.601  1.00  0.00     0.060 A 
BRANCH  78  79
ATOM     79  S   UNL A   1      42.262  19.400  25.959  1.00  0.00     0.124 S 
ATOM     80  O   UNL A   1      43.057  19.427  24.737  1.00  0.00    -0.237 OA
ATOM     81  O   UNL A   1      42.780  18.567  27.041  1.00  0.00    -0.237 OA
ATOM     82  O   UNL A   1      40.816  19.340  25.772  1.00  0.00    -0.744 OA
ENDBRANCH  78  79
ENDBRANCH  46  71
BRANCH  58  83
ATOM     83  C   UNL A   1      48.281  27.104  30.361  1.00  0.00     0.058 A 
ATOM     84  C   UNL A   1      49.324  27.414  29.476  1.00  0.00     0.135 A 
ATOM     85  C   UNL A   1      48.606  26.456  31.563  1.00  0.00     0.135 A 
ATOM     86  F   UNL A   1      49.062  28.029  28.311  1.00  0.00    -0.206 F 
ATOM     87  C   UNL A   1      50.641  27.077  29.764  1.00  0.00     0.059 A 
ATOM     88  C   UNL A   1      49.919  26.130  31.882  1.00  0.00     0.059 A 
ATOM     89  F   UNL A   1      47.644  26.147  32.447  1.00  0.00    -0.206 F 
ATOM     90  C   UNL A   1      50.929  26.436  30.970  1.00  0.00     0.060 A 
BRANCH  90  91
ATOM     91  S   UNL A   1      52.648  26.035  31.351  1.00  0.00     0.124 S 
ATOM     92  O   UNL A   1      52.506  24.760  32.045  1.00  0.00    -0.237 OA
ATOM     93  O   UNL A   1      53.255  25.970  30.024  1.00  0.00    -0.237 OA
ATOM     94  O   UNL A   1      53.082  27.158  32.177  1.00  0.00    -0.744 OA
ENDBRANCH  90  91
ENDBRANCH  58  83
ENDBRANCH  32  33
ENDBRANCH  24  27
ENDBRANCH  22  23
ENDBRANCH   1  22
TORSDOF 19
ENDMDL
MODEL 3
REMARK VINA RESULT:     -10.6      4.876     10.505
REMARK SMILES CC(C)C[C@@H](C[C@H](O)c1ccccc1)C(=O)NCCCNC(=O)c1ccc(-c2c3nc(c(-c4c(F)cc(S(=O)(=O)[O-])cc4F)c4ccc([nH]4)c(-c4c(F)cc(S(=O)(=O)[O-])cc4F)c4nc(c(-c5c(F)cc(S(=O)(=O)[O-])cc5F)c5ccc2[nH]5)C=C4)C=C3)cc1
REMARK SMILES IDX 19 1 18 2 17 3 15 4 16 5 5 7 4 8 2 9 1 10 3 11 6 12 7 13
REMARK SMILES IDX 9 14 10 15 14 16 11 17 13 18 12 19 8 20 20 22 21 23 22 24
REMARK SMILES IDX 23 26 24 27 25 28 89 29 26 30 88 31 27 32 28 33 29 34 82 35
REMARK SMILES IDX 30 36 87 37 81 38 83 39 31 40 86 41 80 42 79 43 32 45 66 46
REMARK SMILES IDX 45 47 65 48 46 49 49 50 64 51 84 52 47 53 48 54 63 56 85 57
REMARK SMILES IDX 50 58 33 59 34 60 43 61 35 62 36 63 42 64 44 65 37 66 38 67
REMARK SMILES IDX 39 68 40 69 41 70 67 71 68 72 77 73 69 74 70 75 76 76 78 77
REMARK SMILES IDX 71 78 72 79 73 80 74 81 75 82 51 83 52 84 61 85 53 86 54 87
REMARK SMILES IDX 60 88 62 89 55 90 56 91 57 92 58 93 59 94
REMARK H PARENT 17 6 8 21 21 25 83 44 49 55
REMARK Flexibility Score: inf
ROOT
ATOM      1  C   UNL A   1      37.432  23.639  25.196  1.00  0.00     0.042 C 
ENDROOT
BRANCH   1   2
ATOM      2  C   UNL A   1      36.548  22.428  25.402  1.00  0.00     0.117 C 
BRANCH   2   3
ATOM      3  N   UNL A   1      35.618  22.582  26.505  1.00  0.00    -0.356 N 
ATOM      4  C   UNL A   1      34.344  23.043  26.544  1.00  0.00     0.223 C 
ATOM      5  O   UNL A   1      33.698  22.839  27.576  1.00  0.00    -0.275 OA
ATOM      6  H   UNL A   1      35.976  22.302  27.379  1.00  0.00     0.163 HD
BRANCH   4   7
ATOM      7  C   UNL A   1      33.696  23.775  25.374  1.00  0.00     0.081 C 
BRANCH   7   8
ATOM      8  C   UNL A   1      34.285  25.193  25.202  1.00  0.00     0.016 C 
BRANCH   8   9
ATOM      9  C   UNL A   1      33.665  26.332  26.027  1.00  0.00    -0.017 C 
ATOM     10  C   UNL A   1      33.575  27.645  25.253  1.00  0.00     0.007 C 
ATOM     11  C   UNL A   1      32.261  25.907  26.481  1.00  0.00     0.007 C 
ENDBRANCH   8   9
ENDBRANCH   7   8
BRANCH   7  12
ATOM     12  C   UNL A   1      33.412  22.902  24.129  1.00  0.00     0.050 C 
BRANCH  12  13
ATOM     13  C   UNL A   1      32.146  23.080  23.268  1.00  0.00     0.145 C 
BRANCH  13  14
ATOM     14  C   UNL A   1      31.509  24.455  23.128  1.00  0.00    -0.020 A 
ATOM     15  C   UNL A   1      32.036  25.486  22.338  1.00  0.00     0.006 A 
ATOM     16  C   UNL A   1      30.331  24.726  23.857  1.00  0.00     0.006 A 
ATOM     17  C   UNL A   1      31.475  26.768  22.362  1.00  0.00     0.000 A 
ATOM     18  C   UNL A   1      29.763  26.003  23.869  1.00  0.00     0.000 A 
ATOM     19  C   UNL A   1      30.348  27.030  23.135  1.00  0.00     0.000 A 
ENDBRANCH  13  14
BRANCH  13  20
ATOM     20  O   UNL A   1      32.506  22.653  21.943  1.00  0.00    -0.388 OA
ATOM     21  H   UNL A   1      33.416  22.317  21.948  1.00  0.00     0.211 HD
ENDBRANCH  13  20
ENDBRANCH  12  13
ENDBRANCH   7  12
ENDBRANCH   4   7
ENDBRANCH   2   3
ENDBRANCH   1   2
BRANCH   1  22
ATOM     22  C   UNL A   1      38.265  23.950  26.430  1.00  0.00     0.118 C 
BRANCH  22  23
ATOM     23  N   UNL A   1      39.705  23.836  26.193  1.00  0.00    -0.352 N 
ATOM     24  C   UNL A   1      40.734  24.662  26.579  1.00  0.00     0.251 C 
ATOM     25  H   UNL A   1      39.980  23.044  25.676  1.00  0.00     0.163 HD
ATOM     26  O   UNL A   1      41.863  24.496  26.124  1.00  0.00    -0.269 OA
BRANCH  24  27
ATOM     27  C   UNL A   1      40.460  25.765  27.522  1.00  0.00     0.039 A 
ATOM     28  C   UNL A   1      39.529  25.584  28.546  1.00  0.00     0.014 A 
ATOM     29  C   UNL A   1      41.169  26.962  27.417  1.00  0.00     0.014 A 
ATOM     30  C   UNL A   1      39.388  26.572  29.524  1.00  0.00     0.010 A 
ATOM     31  C   UNL A   1      41.118  27.881  28.454  1.00  0.00     0.010 A 
ATOM     32  C   UNL A   1      40.222  27.702  29.517  1.00  0.00    -0.014 A 
BRANCH  32  33
ATOM     33  C   UNL A   1      40.177  28.724  30.593  1.00  0.00     0.031 A 
ATOM     34  C   UNL A   1      41.076  28.581  31.794  1.00  0.00     0.074 A 
ATOM     35  C   UNL A   1      39.265  29.716  30.542  1.00  0.00     0.049 A 
ATOM     36  N   UNL A   1      41.097  29.278  32.900  1.00  0.00    -0.248 NA
ATOM     37  C   UNL A   1      42.047  27.474  31.768  1.00  0.00     0.031 C 
ATOM     38  C   UNL A   1      38.287  29.920  29.471  1.00  0.00     0.029 A 
ATOM     39  N   UNL A   1      39.001  30.735  31.423  1.00  0.00    -0.354 N 
ATOM     40  C   UNL A   1      42.052  28.674  33.709  1.00  0.00     0.074 A 
ATOM     41  C   UNL A   1      42.543  27.517  32.996  1.00  0.00     0.031 C 
ATOM     42  C   UNL A   1      37.555  31.012  29.740  1.00  0.00     0.029 A 
ATOM     43  C   UNL A   1      37.982  31.565  31.021  1.00  0.00     0.049 A 
ATOM     44  H   UNL A   1      39.496  30.859  32.265  1.00  0.00     0.167 HD
ATOM     45  C   UNL A   1      42.503  29.064  34.924  1.00  0.00     0.037 A 
ATOM     46  C   UNL A   1      37.451  32.649  31.619  1.00  0.00     0.037 A 
ATOM     47  C   UNL A   1      42.056  30.253  35.599  1.00  0.00     0.049 A 
ATOM     48  C   UNL A   1      38.008  33.098  32.942  1.00  0.00     0.074 A 
ATOM     49  C   UNL A   1      42.505  30.785  36.795  1.00  0.00     0.029 A 
ATOM     50  N   UNL A   1      41.065  31.102  35.129  1.00  0.00    -0.354 N 
ATOM     51  N   UNL A   1      38.953  32.549  33.666  1.00  0.00    -0.248 NA
ATOM     52  C   UNL A   1      37.432  34.317  33.528  1.00  0.00     0.031 C 
ATOM     53  C   UNL A   1      41.766  31.944  37.060  1.00  0.00     0.029 A 
ATOM     54  C   UNL A   1      40.884  32.152  36.012  1.00  0.00     0.049 A 
ATOM     55  H   UNL A   1      40.566  30.977  34.290  1.00  0.00     0.167 HD
ATOM     56  C   UNL A   1      39.104  33.368  34.779  1.00  0.00     0.074 A 
ATOM     57  C   UNL A   1      38.160  34.455  34.627  1.00  0.00     0.031 C 
ATOM     58  C   UNL A   1      39.946  33.232  35.832  1.00  0.00     0.037 A 
BRANCH  45  59
ATOM     59  C   UNL A   1      43.549  28.210  35.584  1.00  0.00     0.058 A 
ATOM     60  C   UNL A   1      43.204  27.194  36.491  1.00  0.00     0.135 A 
ATOM     61  C   UNL A   1      44.911  28.396  35.298  1.00  0.00     0.135 A 
ATOM     62  F   UNL A   1      41.918  26.986  36.816  1.00  0.00    -0.206 F 
ATOM     63  C   UNL A   1      44.173  26.420  37.120  1.00  0.00     0.059 A 
ATOM     64  C   UNL A   1      45.896  27.613  35.892  1.00  0.00     0.059 A 
ATOM     65  F   UNL A   1      45.297  29.352  34.438  1.00  0.00    -0.206 F 
ATOM     66  C   UNL A   1      45.518  26.640  36.816  1.00  0.00     0.060 A 
BRANCH  66  67
ATOM     67  S   UNL A   1      46.764  25.628  37.643  1.00  0.00     0.124 S 
ATOM     68  O   UNL A   1      46.935  24.540  36.686  1.00  0.00    -0.237 OA
ATOM     69  O   UNL A   1      47.890  26.550  37.761  1.00  0.00    -0.237 OA
ATOM     70  O   UNL A   1      46.123  25.262  38.902  1.00  0.00    -0.744 OA
ENDBRANCH  66  67
ENDBRANCH  45  59
BRANCH  46  71
ATOM     71  C   UNL A   1      36.359  33.407  30.952  1.00  0.00     0.058 A 
ATOM     72  C   UNL A   1      35.051  33.373  31.458  1.00  0.00     0.135 A 
ATOM     73  C   UNL A   1      36.598  34.190  29.812  1.00  0.00     0.135 A 
ATOM     74  F   UNL A   1      34.772  32.635  32.543  1.00  0.00    -0.206 F 
ATOM     75  C   UNL A   1      34.014  34.074  30.850  1.00  0.00     0.059 A 
ATOM     76  C   UNL A   1      35.583  34.918  29.200  1.00  0.00     0.059 A 
ATOM     77  F   UNL A   1      37.836  34.271  29.301  1.00  0.00    -0.206 F 
ATOM     78  C   UNL A   1      34.291  34.845  29.720  1.00  0.00     0.060 A 
BRANCH  78  79
ATOM     79  S   UNL A   1      32.950  35.793  28.968  1.00  0.00     0.124 S 
ATOM     80  O   UNL A   1      32.373  34.811  28.057  1.00  0.00    -0.237 OA
ATOM     81  O   UNL A   1      32.134  36.146  30.126  1.00  0.00    -0.237 OA
ATOM     82  O   UNL A   1      33.644  36.910  28.337  1.00  0.00    -0.744 OA
ENDBRANCH  78  79
ENDBRANCH  46  71
BRANCH  58  83
ATOM     83  C   UNL A   1      39.912  34.302  36.885  1.00  0.00     0.058 A 
ATOM     84  C   UNL A   1      40.724  35.442  36.801  1.00  0.00     0.135 A 
ATOM     85  C   UNL A   1      39.012  34.211  37.959  1.00  0.00     0.135 A 
ATOM     86  F   UNL A   1      41.604  35.573  35.795  1.00  0.00    -0.206 F 
ATOM     87  C   UNL A   1      40.661  36.449  37.757  1.00  0.00     0.059 A 
ATOM     88  C   UNL A   1      38.915  35.216  38.915  1.00  0.00     0.059 A 
ATOM     89  F   UNL A   1      38.206  33.144  38.078  1.00  0.00    -0.206 F 
ATOM     90  C   UNL A   1      39.752  36.327  38.811  1.00  0.00     0.060 A 
BRANCH  90  91
ATOM     91  S   UNL A   1      39.652  37.657  40.028  1.00  0.00     0.124 S 
ATOM     92  O   UNL A   1      40.900  38.371  39.786  1.00  0.00    -0.237 OA
ATOM     93  O   UNL A   1      38.433  38.356  39.627  1.00  0.00    -0.237 OA
ATOM     94  O   UNL A   1      39.568  36.946  41.300  1.00  0.00    -0.744 OA
ENDBRANCH  90  91
ENDBRANCH  58  83
ENDBRANCH  32  33
ENDBRANCH  24  27
ENDBRANCH  22  23
ENDBRANCH   1  22
TORSDOF 19
ENDMDL
