MODEL 1
REMARK VINA RESULT:     -10.1      0.000      0.000
REMARK SMILES CN(CC(C)(C)O)S(=O)(=O)CCCC(=O)NCCCNC(=O)c1ccc(-c2c3nc(c(-c4c(F)cc(S(=O)(=O)[O-])cc4F)c4ccc([nH]4)c(-c4c(F)cc(S(=O)(=O)[O-])cc4F)c4nc(c(-c5c(F)cc(S(=O)(=O)[O-])cc5F)c5ccc2[nH]5)C=C4)C=C3)cc1
REMARK SMILES IDX 14 1 15 2 16 3 13 5 12 6 11 7 8 8 9 9 10 10 2 11 1 12 3 13
REMARK SMILES IDX 4 14 5 15 6 16 7 17 17 19 18 20 19 21 20 22 21 23 22 25
REMARK SMILES IDX 23 26 24 27 88 28 25 29 87 30 26 31 27 32 28 33 81 34 29 35
REMARK SMILES IDX 86 36 80 37 82 38 30 39 85 40 79 41 78 42 31 44 65 45 44 46
REMARK SMILES IDX 64 47 45 48 48 49 63 50 83 51 46 52 47 53 62 55 84 56 49 57
REMARK SMILES IDX 32 58 33 59 42 60 34 61 35 62 41 63 43 64 36 65 37 66 38 67
REMARK SMILES IDX 39 68 40 69 66 70 67 71 76 72 68 73 69 74 75 75 77 76 70 77
REMARK SMILES IDX 71 78 72 79 73 80 74 81 50 82 51 83 60 84 52 85 53 86 59 87
REMARK SMILES IDX 61 88 54 89 55 90 56 91 57 92 58 93
REMARK H PARENT 16 4 7 18 20 24 82 43 48 54
REMARK Flexibility Score: inf
ROOT
ATOM      1  C   UNL A   1      32.087  25.670  26.044  1.00  0.00     0.220 C 
ATOM      2  O   UNL A   1      31.295  25.222  26.875  1.00  0.00    -0.275 OA
ATOM      3  N   UNL A   1      31.941  26.971  25.672  1.00  0.00    -0.356 N 
ATOM      4  H   UNL A   1      31.091  27.388  25.941  1.00  0.00     0.163 HD
ENDROOT
BRANCH   1   5
ATOM      5  C   UNL A   1      33.199  24.790  25.485  1.00  0.00     0.101 C 
BRANCH   5   6
ATOM      6  C   UNL A   1      32.988  24.296  24.056  1.00  0.00     0.027 C 
BRANCH   6   7
ATOM      7  C   UNL A   1      33.522  22.920  23.691  1.00  0.00     0.155 C 
BRANCH   7   8
ATOM      8  S   UNL A   1      32.508  21.470  23.969  1.00  0.00     0.213 S 
ATOM      9  O   UNL A   1      32.062  21.032  22.664  1.00  0.00    -0.212 OA
ATOM     10  O   UNL A   1      31.520  21.863  24.955  1.00  0.00    -0.212 OA
BRANCH   8  11
ATOM     11  N   UNL A   1      33.381  20.206  24.657  1.00  0.00    -0.202 NA
ATOM     12  C   UNL A   1      34.485  20.698  25.529  1.00  0.00     0.124 C 
BRANCH  11  13
ATOM     13  C   UNL A   1      32.835  18.923  25.189  1.00  0.00     0.136 C 
BRANCH  13  14
ATOM     14  C   UNL A   1      32.959  17.590  24.406  1.00  0.00     0.073 C 
ATOM     15  C   UNL A   1      34.344  17.310  23.834  1.00  0.00     0.043 C 
ATOM     16  C   UNL A   1      32.574  16.448  25.371  1.00  0.00     0.043 C 
BRANCH  14  17
ATOM     17  O   UNL A   1      31.998  17.548  23.344  1.00  0.00    -0.389 OA
ATOM     18  H   UNL A   1      32.274  16.893  22.684  1.00  0.00     0.211 HD
ENDBRANCH  14  17
ENDBRANCH  13  14
ENDBRANCH  11  13
ENDBRANCH   8  11
ENDBRANCH   7   8
ENDBRANCH   6   7
ENDBRANCH   5   6
ENDBRANCH   1   5
BRANCH   3  19
ATOM     19  C   UNL A   1      32.838  27.830  24.943  1.00  0.00     0.117 C 
BRANCH  19  20
ATOM     20  C   UNL A   1      33.983  28.384  25.772  1.00  0.00     0.042 C 
BRANCH  20  21
ATOM     21  C   UNL A   1      33.628  28.508  27.242  1.00  0.00     0.118 C 
BRANCH  21  22
ATOM     22  N   UNL A   1      33.599  29.885  27.728  1.00  0.00    -0.352 N 
ATOM     23  C   UNL A   1      34.595  30.640  28.311  1.00  0.00     0.251 C 
ATOM     24  H   UNL A   1      32.734  30.345  27.625  1.00  0.00     0.163 HD
ATOM     25  O   UNL A   1      34.345  31.759  28.729  1.00  0.00    -0.269 OA
BRANCH  23  26
ATOM     26  C   UNL A   1      35.948  30.060  28.446  1.00  0.00     0.039 A 
ATOM     27  C   UNL A   1      36.828  30.095  27.362  1.00  0.00     0.014 A 
ATOM     28  C   UNL A   1      36.359  29.539  29.672  1.00  0.00     0.014 A 
ATOM     29  C   UNL A   1      38.153  29.693  27.543  1.00  0.00     0.010 A 
ATOM     30  C   UNL A   1      37.699  29.275  29.885  1.00  0.00     0.010 A 
ATOM     31  C   UNL A   1      38.608  29.329  28.820  1.00  0.00    -0.014 A 
BRANCH  31  32
ATOM     32  C   UNL A   1      40.015  28.952  29.091  1.00  0.00     0.031 A 
ATOM     33  C   UNL A   1      40.950  29.994  29.649  1.00  0.00     0.074 A 
ATOM     34  C   UNL A   1      40.471  27.740  28.719  1.00  0.00     0.049 A 
ATOM     35  N   UNL A   1      42.250  29.963  29.765  1.00  0.00    -0.248 NA
ATOM     36  C   UNL A   1      40.342  31.269  30.071  1.00  0.00     0.031 C 
ATOM     37  C   UNL A   1      39.669  26.681  28.100  1.00  0.00     0.029 A 
ATOM     38  N   UNL A   1      41.730  27.203  28.788  1.00  0.00    -0.354 N 
ATOM     39  C   UNL A   1      42.616  31.225  30.219  1.00  0.00     0.074 A 
ATOM     40  C   UNL A   1      41.410  32.018  30.294  1.00  0.00     0.031 C 
ATOM     41  C   UNL A   1      40.450  25.611  27.875  1.00  0.00     0.029 A 
ATOM     42  C   UNL A   1      41.812  25.922  28.292  1.00  0.00     0.049 A 
ATOM     43  H   UNL A   1      42.503  27.687  29.157  1.00  0.00     0.167 HD
ATOM     44  C   UNL A   1      43.843  31.671  30.577  1.00  0.00     0.037 A 
ATOM     45  C   UNL A   1      42.872  25.099  28.186  1.00  0.00     0.037 A 
ATOM     46  C   UNL A   1      45.016  30.841  30.572  1.00  0.00     0.049 A 
ATOM     47  C   UNL A   1      44.211  25.587  28.668  1.00  0.00     0.074 A 
ATOM     48  C   UNL A   1      46.295  31.152  30.990  1.00  0.00     0.029 A 
ATOM     49  N   UNL A   1      45.040  29.520  30.146  1.00  0.00    -0.354 N 
ATOM     50  N   UNL A   1      44.534  26.768  29.142  1.00  0.00    -0.248 NA
ATOM     51  C   UNL A   1      45.327  24.635  28.609  1.00  0.00     0.031 C 
ATOM     52  C   UNL A   1      47.100  30.023  30.799  1.00  0.00     0.029 A 
ATOM     53  C   UNL A   1      46.313  28.999  30.293  1.00  0.00     0.049 A 
ATOM     54  H   UNL A   1      44.266  29.026  29.791  1.00  0.00     0.167 HD
ATOM     55  C   UNL A   1      45.884  26.693  29.463  1.00  0.00     0.074 A 
ATOM     56  C   UNL A   1      46.313  25.346  29.139  1.00  0.00     0.031 C 
ATOM     57  C   UNL A   1      46.699  27.648  29.975  1.00  0.00     0.037 A 
BRANCH  44  58
ATOM     58  C   UNL A   1      43.960  33.103  31.022  1.00  0.00     0.058 A 
ATOM     59  C   UNL A   1      43.903  33.461  32.380  1.00  0.00     0.135 A 
ATOM     60  C   UNL A   1      44.128  34.135  30.083  1.00  0.00     0.135 A 
ATOM     61  F   UNL A   1      43.723  32.519  33.320  1.00  0.00    -0.206 F 
ATOM     62  C   UNL A   1      43.963  34.788  32.788  1.00  0.00     0.059 A 
ATOM     63  C   UNL A   1      44.223  35.468  30.472  1.00  0.00     0.059 A 
ATOM     64  F   UNL A   1      44.188  33.853  28.772  1.00  0.00    -0.206 F 
ATOM     65  C   UNL A   1      44.119  35.787  31.825  1.00  0.00     0.060 A 
BRANCH  65  66
ATOM     66  S   UNL A   1      44.185  37.506  32.370  1.00  0.00     0.124 S 
ATOM     67  O   UNL A   1      43.199  37.508  33.446  1.00  0.00    -0.237 OA
ATOM     68  O   UNL A   1      45.577  37.650  32.787  1.00  0.00    -0.237 OA
ATOM     69  O   UNL A   1      43.812  38.255  31.175  1.00  0.00    -0.744 OA
ENDBRANCH  65  66
ENDBRANCH  44  58
BRANCH  45  70
ATOM     70  C   UNL A   1      42.698  23.722  27.653  1.00  0.00     0.058 A 
ATOM     71  C   UNL A   1      42.456  22.645  28.519  1.00  0.00     0.135 A 
ATOM     72  C   UNL A   1      42.740  23.455  26.276  1.00  0.00     0.135 A 
ATOM     73  F   UNL A   1      42.407  22.850  29.844  1.00  0.00    -0.206 F 
ATOM     74  C   UNL A   1      42.280  21.350  28.043  1.00  0.00     0.059 A 
ATOM     75  C   UNL A   1      42.544  22.171  25.773  1.00  0.00     0.059 A 
ATOM     76  F   UNL A   1      42.945  24.454  25.403  1.00  0.00    -0.206 F 
ATOM     77  C   UNL A   1      42.325  21.123  26.667  1.00  0.00     0.060 A 
BRANCH  77  78
ATOM     78  S   UNL A   1      42.048  19.444  26.058  1.00  0.00     0.124 S 
ATOM     79  O   UNL A   1      40.616  19.464  25.785  1.00  0.00    -0.237 OA
ATOM     80  O   UNL A   1      42.922  19.394  24.889  1.00  0.00    -0.237 OA
ATOM     81  O   UNL A   1      42.466  18.610  27.180  1.00  0.00    -0.744 OA
ENDBRANCH  77  78
ENDBRANCH  45  70
BRANCH  57  82
ATOM     82  C   UNL A   1      48.120  27.258  30.254  1.00  0.00     0.058 A 
ATOM     83  C   UNL A   1      49.136  27.465  29.308  1.00  0.00     0.135 A 
ATOM     84  C   UNL A   1      48.478  26.731  31.506  1.00  0.00     0.135 A 
ATOM     85  F   UNL A   1      48.840  27.961  28.097  1.00  0.00    -0.206 F 
ATOM     86  C   UNL A   1      50.458  27.144  29.588  1.00  0.00     0.059 A 
ATOM     87  C   UNL A   1      49.798  26.426  31.815  1.00  0.00     0.059 A 
ATOM     88  F   UNL A   1      47.542  26.527  32.445  1.00  0.00    -0.206 F 
ATOM     89  C   UNL A   1      50.780  26.627  30.846  1.00  0.00     0.060 A 
BRANCH  89  90
ATOM     90  S   UNL A   1      52.507  26.255  31.212  1.00  0.00     0.124 S 
ATOM     91  O   UNL A   1      52.877  27.382  32.062  1.00  0.00    -0.237 OA
ATOM     92  O   UNL A   1      52.414  24.960  31.880  1.00  0.00    -0.237 OA
ATOM     93  O   UNL A   1      53.135  26.228  29.894  1.00  0.00    -0.744 OA
ENDBRANCH  89  90
ENDBRANCH  57  82
ENDBRANCH  31  32
ENDBRANCH  23  26
ENDBRANCH  21  22
ENDBRANCH  20  21
ENDBRANCH  19  20
ENDBRANCH   3  19
TORSDOF 20
ENDMDL
MODEL 2
REMARK VINA RESULT:      -9.9      1.708      2.537
REMARK SMILES CN(CC(C)(C)O)S(=O)(=O)CCCC(=O)NCCCNC(=O)c1ccc(-c2c3nc(c(-c4c(F)cc(S(=O)(=O)[O-])cc4F)c4ccc([nH]4)c(-c4c(F)cc(S(=O)(=O)[O-])cc4F)c4nc(c(-c5c(F)cc(S(=O)(=O)[O-])cc5F)c5ccc2[nH]5)C=C4)C=C3)cc1
REMARK SMILES IDX 14 1 15 2 16 3 13 5 12 6 11 7 8 8 9 9 10 10 2 11 1 12 3 13
REMARK SMILES IDX 4 14 5 15 6 16 7 17 17 19 18 20 19 21 20 22 21 23 22 25
REMARK SMILES IDX 23 26 24 27 88 28 25 29 87 30 26 31 27 32 28 33 81 34 29 35
REMARK SMILES IDX 86 36 80 37 82 38 30 39 85 40 79 41 78 42 31 44 65 45 44 46
REMARK SMILES IDX 64 47 45 48 48 49 63 50 83 51 46 52 47 53 62 55 84 56 49 57
REMARK SMILES IDX 32 58 33 59 42 60 34 61 35 62 41 63 43 64 36 65 37 66 38 67
REMARK SMILES IDX 39 68 40 69 66 70 67 71 76 72 68 73 69 74 75 75 77 76 70 77
REMARK SMILES IDX 71 78 72 79 73 80 74 81 50 82 51 83 60 84 52 85 53 86 59 87
REMARK SMILES IDX 61 88 54 89 55 90 56 91 57 92 58 93
REMARK H PARENT 16 4 7 18 20 24 82 43 48 54
REMARK Flexibility Score: inf
ROOT
ATOM      1  C   UNL A   1      30.554  28.639  23.370  1.00  0.00     0.220 C 
ATOM      2  O   UNL A   1      29.347  28.689  23.128  1.00  0.00    -0.275 OA
ATOM      3  N   UNL A   1      31.032  29.441  24.359  1.00  0.00    -0.356 N 
ATOM      4  H   UNL A   1      30.413  30.143  24.662  1.00  0.00     0.163 HD
ENDROOT
BRANCH   1   5
ATOM      5  C   UNL A   1      31.458  27.687  22.594  1.00  0.00     0.101 C 
BRANCH   5   6
ATOM      6  C   UNL A   1      31.082  26.210  22.680  1.00  0.00     0.027 C 
BRANCH   6   7
ATOM      7  C   UNL A   1      31.822  25.343  23.685  1.00  0.00     0.155 C 
BRANCH   7   8
ATOM      8  S   UNL A   1      33.540  24.920  23.401  1.00  0.00     0.213 S 
ATOM      9  O   UNL A   1      34.314  25.739  24.310  1.00  0.00    -0.212 OA
ATOM     10  O   UNL A   1      33.750  25.062  21.973  1.00  0.00    -0.212 OA
BRANCH   8  11
ATOM     11  N   UNL A   1      33.867  23.310  23.766  1.00  0.00    -0.202 NA
ATOM     12  C   UNL A   1      32.888  22.382  23.131  1.00  0.00     0.124 C 
BRANCH  11  13
ATOM     13  C   UNL A   1      35.210  22.664  23.850  1.00  0.00     0.136 C 
BRANCH  13  14
ATOM     14  C   UNL A   1      35.948  22.480  25.202  1.00  0.00     0.073 C 
ATOM     15  C   UNL A   1      36.428  23.773  25.850  1.00  0.00     0.043 C 
ATOM     16  C   UNL A   1      34.978  21.764  26.166  1.00  0.00     0.043 C 
BRANCH  14  17
ATOM     17  O   UNL A   1      37.065  21.597  25.040  1.00  0.00    -0.389 OA
ATOM     18  H   UNL A   1      37.808  22.084  24.649  1.00  0.00     0.211 HD
ENDBRANCH  14  17
ENDBRANCH  13  14
ENDBRANCH  11  13
ENDBRANCH   8  11
ENDBRANCH   7   8
ENDBRANCH   6   7
ENDBRANCH   5   6
ENDBRANCH   1   5
BRANCH   3  19
ATOM     19  C   UNL A   1      32.306  29.420  25.032  1.00  0.00     0.117 C 
BRANCH  19  20
ATOM     20  C   UNL A   1      32.439  28.334  26.084  1.00  0.00     0.042 C 
BRANCH  20  21
ATOM     21  C   UNL A   1      33.554  28.616  27.072  1.00  0.00     0.118 C 
BRANCH  21  22
ATOM     22  N   UNL A   1      33.503  29.954  27.655  1.00  0.00    -0.352 N 
ATOM     23  C   UNL A   1      34.480  30.670  28.316  1.00  0.00     0.251 C 
ATOM     24  H   UNL A   1      32.638  30.416  27.563  1.00  0.00     0.163 HD
ATOM     25  O   UNL A   1      34.212  31.755  28.807  1.00  0.00    -0.269 OA
BRANCH  23  26
ATOM     26  C   UNL A   1      35.832  30.088  28.444  1.00  0.00     0.039 A 
ATOM     27  C   UNL A   1      36.700  30.106  27.349  1.00  0.00     0.014 A 
ATOM     28  C   UNL A   1      36.256  29.584  29.672  1.00  0.00     0.014 A 
ATOM     29  C   UNL A   1      38.026  29.703  27.521  1.00  0.00     0.010 A 
ATOM     30  C   UNL A   1      37.598  29.319  29.874  1.00  0.00     0.010 A 
ATOM     31  C   UNL A   1      38.495  29.356  28.798  1.00  0.00    -0.014 A 
BRANCH  31  32
ATOM     32  C   UNL A   1      39.904  28.978  29.059  1.00  0.00     0.031 A 
ATOM     33  C   UNL A   1      40.846  30.023  29.598  1.00  0.00     0.074 A 
ATOM     34  C   UNL A   1      40.354  27.763  28.691  1.00  0.00     0.049 A 
ATOM     35  N   UNL A   1      42.147  29.991  29.702  1.00  0.00    -0.248 NA
ATOM     36  C   UNL A   1      40.244  31.303  30.016  1.00  0.00     0.031 C 
ATOM     37  C   UNL A   1      39.545  26.700  28.089  1.00  0.00     0.029 A 
ATOM     38  N   UNL A   1      41.613  27.224  28.752  1.00  0.00    -0.354 N 
ATOM     39  C   UNL A   1      42.519  31.256  30.142  1.00  0.00     0.074 A 
ATOM     40  C   UNL A   1      41.315  32.051  30.222  1.00  0.00     0.031 C 
ATOM     41  C   UNL A   1      40.321  25.627  27.865  1.00  0.00     0.029 A 
ATOM     42  C   UNL A   1      41.688  25.939  28.266  1.00  0.00     0.049 A 
ATOM     43  H   UNL A   1      42.390  27.710  29.110  1.00  0.00     0.167 HD
ATOM     44  C   UNL A   1      43.750  31.703  30.484  1.00  0.00     0.037 A 
ATOM     45  C   UNL A   1      42.745  25.113  28.157  1.00  0.00     0.037 A 
ATOM     46  C   UNL A   1      44.921  30.870  30.474  1.00  0.00     0.049 A 
ATOM     47  C   UNL A   1      44.090  25.603  28.621  1.00  0.00     0.074 A 
ATOM     48  C   UNL A   1      46.206  31.183  30.878  1.00  0.00     0.029 A 
ATOM     49  N   UNL A   1      44.939  29.546  30.059  1.00  0.00    -0.354 N 
ATOM     50  N   UNL A   1      44.420  26.788  29.082  1.00  0.00    -0.248 NA
ATOM     51  C   UNL A   1      45.204  24.648  28.559  1.00  0.00     0.031 C 
ATOM     52  C   UNL A   1      47.007  30.051  30.688  1.00  0.00     0.029 A 
ATOM     53  C   UNL A   1      46.213  29.025  30.198  1.00  0.00     0.049 A 
ATOM     54  H   UNL A   1      44.161  29.051  29.716  1.00  0.00     0.167 HD
ATOM     55  C   UNL A   1      45.772  26.713  29.391  1.00  0.00     0.074 A 
ATOM     56  C   UNL A   1      46.196  25.362  29.073  1.00  0.00     0.031 C 
ATOM     57  C   UNL A   1      46.594  27.670  29.887  1.00  0.00     0.037 A 
BRANCH  44  58
ATOM     58  C   UNL A   1      43.873  33.138  30.917  1.00  0.00     0.058 A 
ATOM     59  C   UNL A   1      44.056  34.177  29.989  1.00  0.00     0.135 A 
ATOM     60  C   UNL A   1      43.812  33.484  32.278  1.00  0.00     0.135 A 
ATOM     61  F   UNL A   1      44.142  33.902  28.677  1.00  0.00    -0.206 F 
ATOM     62  C   UNL A   1      44.218  35.497  30.393  1.00  0.00     0.059 A 
ATOM     63  C   UNL A   1      43.939  34.804  32.702  1.00  0.00     0.059 A 
ATOM     64  F   UNL A   1      43.640  32.535  33.210  1.00  0.00    -0.206 F 
ATOM     65  C   UNL A   1      44.163  35.801  31.754  1.00  0.00     0.060 A 
BRANCH  65  66
ATOM     66  S   UNL A   1      44.384  37.518  32.263  1.00  0.00     0.124 S 
ATOM     67  O   UNL A   1      44.044  38.230  31.035  1.00  0.00    -0.237 OA
ATOM     68  O   UNL A   1      43.425  37.648  33.355  1.00  0.00    -0.237 OA
ATOM     69  O   UNL A   1      45.789  37.577  32.655  1.00  0.00    -0.744 OA
ENDBRANCH  65  66
ENDBRANCH  44  58
BRANCH  45  70
ATOM     70  C   UNL A   1      42.564  23.733  27.636  1.00  0.00     0.058 A 
ATOM     71  C   UNL A   1      42.631  23.474  26.259  1.00  0.00     0.135 A 
ATOM     72  C   UNL A   1      42.350  22.643  28.494  1.00  0.00     0.135 A 
ATOM     73  F   UNL A   1      42.834  24.483  25.397  1.00  0.00    -0.206 F 
ATOM     74  C   UNL A   1      42.475  22.190  25.748  1.00  0.00     0.059 A 
ATOM     75  C   UNL A   1      42.214  21.345  28.009  1.00  0.00     0.059 A 
ATOM     76  F   UNL A   1      42.301  22.833  29.822  1.00  0.00    -0.206 F 
ATOM     77  C   UNL A   1      42.268  21.130  26.632  1.00  0.00     0.060 A 
BRANCH  77  78
ATOM     78  S   UNL A   1      42.113  19.460  25.960  1.00  0.00     0.124 S 
ATOM     79  O   UNL A   1      42.999  19.527  24.803  1.00  0.00    -0.237 OA
ATOM     80  O   UNL A   1      42.576  18.637  27.073  1.00  0.00    -0.237 OA
ATOM     81  O   UNL A   1      40.688  19.352  25.659  1.00  0.00    -0.744 OA
ENDBRANCH  77  78
ENDBRANCH  45  70
BRANCH  57  82
ATOM     82  C   UNL A   1      48.017  27.280  30.155  1.00  0.00     0.058 A 
ATOM     83  C   UNL A   1      49.034  27.531  29.222  1.00  0.00     0.135 A 
ATOM     84  C   UNL A   1      48.375  26.708  31.386  1.00  0.00     0.135 A 
ATOM     85  F   UNL A   1      48.738  28.072  28.029  1.00  0.00    -0.206 F 
ATOM     86  C   UNL A   1      50.358  27.209  29.493  1.00  0.00     0.059 A 
ATOM     87  C   UNL A   1      49.697  26.401  31.688  1.00  0.00     0.059 A 
ATOM     88  F   UNL A   1      47.438  26.461  32.314  1.00  0.00    -0.206 F 
ATOM     89  C   UNL A   1      50.680  26.647  30.731  1.00  0.00     0.060 A 
BRANCH  89  90
ATOM     90  S   UNL A   1      52.408  26.273  31.088  1.00  0.00     0.124 S 
ATOM     91  O   UNL A   1      52.292  25.015  31.818  1.00  0.00    -0.237 OA
ATOM     92  O   UNL A   1      52.991  26.179  29.752  1.00  0.00    -0.237 OA
ATOM     93  O   UNL A   1      52.847  27.421  31.876  1.00  0.00    -0.744 OA
ENDBRANCH  89  90
ENDBRANCH  57  82
ENDBRANCH  31  32
ENDBRANCH  23  26
ENDBRANCH  21  22
ENDBRANCH  20  21
ENDBRANCH  19  20
ENDBRANCH   3  19
TORSDOF 20
ENDMDL
MODEL 3
REMARK VINA RESULT:      -9.9      2.749      3.717
REMARK SMILES CN(CC(C)(C)O)S(=O)(=O)CCCC(=O)NCCCNC(=O)c1ccc(-c2c3nc(c(-c4c(F)cc(S(=O)(=O)[O-])cc4F)c4ccc([nH]4)c(-c4c(F)cc(S(=O)(=O)[O-])cc4F)c4nc(c(-c5c(F)cc(S(=O)(=O)[O-])cc5F)c5ccc2[nH]5)C=C4)C=C3)cc1
REMARK SMILES IDX 14 1 15 2 16 3 13 5 12 6 11 7 8 8 9 9 10 10 2 11 1 12 3 13
REMARK SMILES IDX 4 14 5 15 6 16 7 17 17 19 18 20 19 21 20 22 21 23 22 25
REMARK SMILES IDX 23 26 24 27 88 28 25 29 87 30 26 31 27 32 28 33 81 34 29 35
REMARK SMILES IDX 86 36 80 37 82 38 30 39 85 40 79 41 78 42 31 44 65 45 44 46
REMARK SMILES IDX 64 47 45 48 48 49 63 50 83 51 46 52 47 53 62 55 84 56 49 57
REMARK SMILES IDX 32 58 33 59 42 60 34 61 35 62 41 63 43 64 36 65 37 66 38 67
REMARK SMILES IDX 39 68 40 69 66 70 67 71 76 72 68 73 69 74 75 75 77 76 70 77
REMARK SMILES IDX 71 78 72 79 73 80 74 81 50 82 51 83 60 84 52 85 53 86 59 87
REMARK SMILES IDX 61 88 54 89 55 90 56 91 57 92 58 93
REMARK H PARENT 16 4 7 18 20 24 82 43 48 54
REMARK Flexibility Score: inf
ROOT
ATOM      1  C   UNL A   1      31.966  28.217  27.333  1.00  0.00     0.220 C 
ATOM      2  O   UNL A   1      31.045  27.861  28.069  1.00  0.00    -0.275 OA
ATOM      3  N   UNL A   1      32.429  29.489  27.474  1.00  0.00    -0.356 N 
ATOM      4  H   UNL A   1      31.855  30.084  28.009  1.00  0.00     0.163 HD
ENDROOT
BRANCH   1   5
ATOM      5  C   UNL A   1      32.570  27.246  26.325  1.00  0.00     0.101 C 
BRANCH   5   6
ATOM      6  C   UNL A   1      31.826  25.923  26.164  1.00  0.00     0.027 C 
BRANCH   6   7
ATOM      7  C   UNL A   1      32.516  24.805  25.398  1.00  0.00     0.155 C 
BRANCH   7   8
ATOM      8  S   UNL A   1      32.391  23.117  25.985  1.00  0.00     0.213 S 
ATOM      9  O   UNL A   1      30.988  22.766  25.911  1.00  0.00    -0.212 OA
ATOM     10  O   UNL A   1      33.054  23.097  27.275  1.00  0.00    -0.212 OA
BRANCH   8  11
ATOM     11  N   UNL A   1      33.235  22.039  25.006  1.00  0.00    -0.202 NA
ATOM     12  C   UNL A   1      32.390  21.511  23.898  1.00  0.00     0.124 C 
BRANCH  11  13
ATOM     13  C   UNL A   1      34.655  22.153  24.563  1.00  0.00     0.136 C 
BRANCH  13  14
ATOM     14  C   UNL A   1      35.840  21.936  25.541  1.00  0.00     0.073 C 
ATOM     15  C   UNL A   1      36.975  21.079  24.991  1.00  0.00     0.043 C 
ATOM     16  C   UNL A   1      36.396  23.328  25.911  1.00  0.00     0.043 C 
BRANCH  14  17
ATOM     17  O   UNL A   1      35.372  21.361  26.766  1.00  0.00    -0.389 OA
ATOM     18  H   UNL A   1      35.326  22.048  27.449  1.00  0.00     0.211 HD
ENDBRANCH  14  17
ENDBRANCH  13  14
ENDBRANCH  11  13
ENDBRANCH   8  11
ENDBRANCH   7   8
ENDBRANCH   6   7
ENDBRANCH   5   6
ENDBRANCH   1   5
BRANCH   3  19
ATOM     19  C   UNL A   1      33.629  30.099  26.961  1.00  0.00     0.117 C 
BRANCH  19  20
ATOM     20  C   UNL A   1      34.914  29.517  27.522  1.00  0.00     0.042 C 
BRANCH  20  21
ATOM     21  C   UNL A   1      35.796  30.570  28.165  1.00  0.00     0.118 C 
BRANCH  21  22
ATOM     22  N   UNL A   1      35.576  30.730  29.599  1.00  0.00    -0.352 N 
ATOM     23  C   UNL A   1      36.464  30.619  30.649  1.00  0.00     0.251 C 
ATOM     24  H   UNL A   1      34.652  30.950  29.857  1.00  0.00     0.163 HD
ATOM     25  O   UNL A   1      36.063  30.710  31.798  1.00  0.00    -0.269 OA
BRANCH  23  26
ATOM     26  C   UNL A   1      37.890  30.359  30.358  1.00  0.00     0.039 A 
ATOM     27  C   UNL A   1      38.708  29.805  31.344  1.00  0.00     0.014 A 
ATOM     28  C   UNL A   1      38.392  30.608  29.081  1.00  0.00     0.014 A 
ATOM     29  C   UNL A   1      40.008  29.414  31.014  1.00  0.00     0.010 A 
ATOM     30  C   UNL A   1      39.624  30.095  28.722  1.00  0.00     0.010 A 
ATOM     31  C   UNL A   1      40.455  29.510  29.687  1.00  0.00    -0.014 A 
BRANCH  31  32
ATOM     32  C   UNL A   1      41.799  29.056  29.260  1.00  0.00     0.031 A 
ATOM     33  C   UNL A   1      42.920  30.062  29.206  1.00  0.00     0.074 A 
ATOM     34  C   UNL A   1      41.973  27.801  28.802  1.00  0.00     0.049 A 
ATOM     35  N   UNL A   1      44.106  29.954  28.671  1.00  0.00    -0.248 NA
ATOM     36  C   UNL A   1      42.641  31.393  29.776  1.00  0.00     0.031 C 
ATOM     37  C   UNL A   1      40.936  26.767  28.738  1.00  0.00     0.029 A 
ATOM     38  N   UNL A   1      43.083  27.188  28.284  1.00  0.00    -0.354 N 
ATOM     39  C   UNL A   1      44.688  31.210  28.792  1.00  0.00     0.074 A 
ATOM     40  C   UNL A   1      43.703  32.081  29.390  1.00  0.00     0.031 C 
ATOM     41  C   UNL A   1      41.469  25.639  28.239  1.00  0.00     0.029 A 
ATOM     42  C   UNL A   1      42.869  25.882  27.909  1.00  0.00     0.049 A 
ATOM     43  H   UNL A   1      43.953  27.639  28.189  1.00  0.00     0.167 HD
ATOM     44  C   UNL A   1      45.945  31.593  28.467  1.00  0.00     0.037 A 
ATOM     45  C   UNL A   1      43.711  24.987  27.359  1.00  0.00     0.037 A 
ATOM     46  C   UNL A   1      46.935  30.689  27.949  1.00  0.00     0.049 A 
ATOM     47  C   UNL A   1      45.128  25.411  27.082  1.00  0.00     0.074 A 
ATOM     48  C   UNL A   1      48.264  30.937  27.660  1.00  0.00     0.029 A 
ATOM     49  N   UNL A   1      46.704  29.350  27.666  1.00  0.00    -0.354 N 
ATOM     50  N   UNL A   1      45.680  26.591  27.247  1.00  0.00    -0.248 NA
ATOM     51  C   UNL A   1      46.038  24.387  26.555  1.00  0.00     0.031 C 
ATOM     52  C   UNL A   1      48.832  29.751  27.183  1.00  0.00     0.029 A 
ATOM     53  C   UNL A   1      47.866  28.757  27.207  1.00  0.00     0.049 A 
ATOM     54  H   UNL A   1      45.840  28.891  27.775  1.00  0.00     0.167 HD
ATOM     55  C   UNL A   1      47.009  26.445  26.869  1.00  0.00     0.074 A 
ATOM     56  C   UNL A   1      47.179  25.059  26.477  1.00  0.00     0.031 C 
ATOM     57  C   UNL A   1      48.001  27.369  26.843  1.00  0.00     0.037 A 
BRANCH  44  58
ATOM     58  C   UNL A   1      46.313  33.034  28.690  1.00  0.00     0.058 A 
ATOM     59  C   UNL A   1      46.894  33.471  29.892  1.00  0.00     0.135 A 
ATOM     60  C   UNL A   1      46.081  33.996  27.692  1.00  0.00     0.135 A 
ATOM     61  F   UNL A   1      47.119  32.600  30.889  1.00  0.00    -0.206 F 
ATOM     62  C   UNL A   1      47.188  34.811  30.116  1.00  0.00     0.059 A 
ATOM     63  C   UNL A   1      46.399  35.338  27.881  1.00  0.00     0.059 A 
ATOM     64  F   UNL A   1      45.528  33.638  26.522  1.00  0.00    -0.206 F 
ATOM     65  C   UNL A   1      46.933  35.739  29.105  1.00  0.00     0.060 A 
BRANCH  65  66
ATOM     66  S   UNL A   1      47.313  37.476  29.414  1.00  0.00     0.124 S 
ATOM     67  O   UNL A   1      47.754  37.915  28.094  1.00  0.00    -0.237 OA
ATOM     68  O   UNL A   1      46.028  38.004  29.860  1.00  0.00    -0.237 OA
ATOM     69  O   UNL A   1      48.353  37.419  30.437  1.00  0.00    -0.744 OA
ENDBRANCH  65  66
ENDBRANCH  44  58
BRANCH  45  70
ATOM     70  C   UNL A   1      43.252  23.601  27.083  1.00  0.00     0.058 A 
ATOM     71  C   UNL A   1      42.943  23.196  25.776  1.00  0.00     0.135 A 
ATOM     72  C   UNL A   1      43.140  22.645  28.105  1.00  0.00     0.135 A 
ATOM     73  F   UNL A   1      43.035  24.074  24.765  1.00  0.00    -0.206 F 
ATOM     74  C   UNL A   1      42.522  21.902  25.491  1.00  0.00     0.059 A 
ATOM     75  C   UNL A   1      42.742  21.336  27.842  1.00  0.00     0.059 A 
ATOM     76  F   UNL A   1      43.446  22.974  29.369  1.00  0.00    -0.206 F 
ATOM     77  C   UNL A   1      42.425  20.978  26.532  1.00  0.00     0.060 A 
BRANCH  77  78
ATOM     78  S   UNL A   1      41.922  19.286  26.143  1.00  0.00     0.124 S 
ATOM     79  O   UNL A   1      42.732  19.003  24.964  1.00  0.00    -0.237 OA
ATOM     80  O   UNL A   1      42.291  18.569  27.360  1.00  0.00    -0.237 OA
ATOM     81  O   UNL A   1      40.487  19.411  25.909  1.00  0.00    -0.744 OA
ENDBRANCH  77  78
ENDBRANCH  45  70
BRANCH  57  82
ATOM     82  C   UNL A   1      49.361  26.902  26.416  1.00  0.00     0.058 A 
ATOM     83  C   UNL A   1      50.260  26.328  27.328  1.00  0.00     0.135 A 
ATOM     84  C   UNL A   1      49.742  26.971  25.066  1.00  0.00     0.135 A 
ATOM     85  F   UNL A   1      49.940  26.246  28.629  1.00  0.00    -0.206 F 
ATOM     86  C   UNL A   1      51.500  25.856  26.919  1.00  0.00     0.059 A 
ATOM     87  C   UNL A   1      50.968  26.483  24.631  1.00  0.00     0.059 A 
ATOM     88  F   UNL A   1      48.910  27.501  24.156  1.00  0.00    -0.206 F 
ATOM     89  C   UNL A   1      51.845  25.935  25.567  1.00  0.00     0.060 A 
BRANCH  89  90
ATOM     90  S   UNL A   1      53.441  25.280  25.041  1.00  0.00     0.124 S 
ATOM     91  O   UNL A   1      54.354  25.964  25.951  1.00  0.00    -0.237 OA
ATOM     92  O   UNL A   1      53.280  23.846  25.265  1.00  0.00    -0.237 OA
ATOM     93  O   UNL A   1      53.528  25.682  23.641  1.00  0.00    -0.744 OA
ENDBRANCH  89  90
ENDBRANCH  57  82
ENDBRANCH  31  32
ENDBRANCH  23  26
ENDBRANCH  21  22
ENDBRANCH  20  21
ENDBRANCH  19  20
ENDBRANCH   3  19
TORSDOF 20
ENDMDL
