MODEL 1
REMARK VINA RESULT:     -10.4      0.000      0.000
REMARK SMILES CC(C)(Br)[C@H](Br)C(=O)NCCCNC(=O)c1ccc(-c2c3nc(c(-c4c(F)cc(S(=O)(=O)[O-])cc4F)c4ccc([nH]4)c(-c4c(F)cc(S(=O)(=O)[O-])cc4F)c4nc(c(-c5c(F)cc(S(=O)(=O)[O-])cc5F)c5ccc2[nH]5)C=C4)C=C3)cc1
REMARK SMILES IDX 12 1 11 2 10 3 9 4 7 5 8 6 5 8 6 9 2 10 1 11 3 12 4 13 13 14
REMARK SMILES IDX 14 15 15 17 16 18 17 19 81 20 18 21 80 22 19 23 20 24 21 25
REMARK SMILES IDX 74 26 22 27 79 28 73 29 75 30 23 31 78 32 72 33 71 34 24 36
REMARK SMILES IDX 58 37 37 38 57 39 38 40 41 41 56 42 76 43 39 44 40 45 55 47
REMARK SMILES IDX 77 48 42 49 25 50 26 51 35 52 27 53 28 54 34 55 36 56 29 57
REMARK SMILES IDX 30 58 31 59 32 60 33 61 59 62 60 63 69 64 61 65 62 66 68 67
REMARK SMILES IDX 70 68 63 69 64 70 65 71 66 72 67 73 43 74 44 75 53 76 45 77
REMARK SMILES IDX 46 78 52 79 54 80 47 81 48 82 49 83 50 84 51 85
REMARK H PARENT 9 7 13 16 75 35 41 46
REMARK Flexibility Score: inf
ROOT
ATOM      1  C   UNL A   1      33.489  28.445  27.232  1.00  0.00     0.118 C 
ENDROOT
BRANCH   1   2
ATOM      2  C   UNL A   1      32.093  27.859  27.069  1.00  0.00     0.042 C 
BRANCH   2   3
ATOM      3  C   UNL A   1      32.038  26.644  26.158  1.00  0.00     0.117 C 
BRANCH   3   4
ATOM      4  N   UNL A   1      31.432  25.486  26.791  1.00  0.00    -0.355 N 
ATOM      5  C   UNL A   1      31.784  24.175  26.823  1.00  0.00     0.235 C 
ATOM      6  O   UNL A   1      31.027  23.432  27.461  1.00  0.00    -0.274 OA
ATOM      7  H   UNL A   1      30.610  25.690  27.293  1.00  0.00     0.163 HD
BRANCH   5   8
ATOM      8  C   UNL A   1      33.029  23.590  26.160  1.00  0.00     0.162 C 
ATOM      9  Br  UNL A   1      33.803  22.253  27.367  1.00  0.00    -0.077 Br
BRANCH   8  10
ATOM     10  C   UNL A   1      32.967  23.158  24.683  1.00  0.00     0.042 C 
ATOM     11  C   UNL A   1      31.602  23.155  23.996  1.00  0.00     0.025 C 
ATOM     12  C   UNL A   1      33.638  21.791  24.459  1.00  0.00     0.025 C 
ATOM     13  Br  UNL A   1      34.089  24.453  23.633  1.00  0.00    -0.084 Br
ENDBRANCH   8  10
ENDBRANCH   5   8
ENDBRANCH   3   4
ENDBRANCH   2   3
ENDBRANCH   1   2
BRANCH   1  14
ATOM     14  N   UNL A   1      33.476  29.854  27.611  1.00  0.00    -0.352 N 
ATOM     15  C   UNL A   1      34.437  30.629  28.220  1.00  0.00     0.251 C 
ATOM     16  H   UNL A   1      32.642  30.328  27.395  1.00  0.00     0.163 HD
ATOM     17  O   UNL A   1      34.144  31.750  28.616  1.00  0.00    -0.269 OA
BRANCH  15  18
ATOM     18  C   UNL A   1      35.807  30.104  28.418  1.00  0.00     0.039 A 
ATOM     19  C   UNL A   1      36.718  30.156  27.359  1.00  0.00     0.014 A 
ATOM     20  C   UNL A   1      36.194  29.558  29.642  1.00  0.00     0.014 A 
ATOM     21  C   UNL A   1      38.038  29.743  27.560  1.00  0.00     0.010 A 
ATOM     22  C   UNL A   1      37.530  29.255  29.873  1.00  0.00     0.010 A 
ATOM     23  C   UNL A   1      38.468  29.336  28.833  1.00  0.00    -0.014 A 
BRANCH  23  24
ATOM     24  C   UNL A   1      39.882  28.972  29.110  1.00  0.00     0.031 A 
ATOM     25  C   UNL A   1      40.823  30.004  29.674  1.00  0.00     0.074 A 
ATOM     26  C   UNL A   1      40.341  27.751  28.768  1.00  0.00     0.049 A 
ATOM     27  N   UNL A   1      42.117  29.933  29.855  1.00  0.00    -0.248 NA
ATOM     28  C   UNL A   1      40.239  31.305  30.043  1.00  0.00     0.031 C 
ATOM     29  C   UNL A   1      39.543  26.683  28.160  1.00  0.00     0.029 A 
ATOM     30  N   UNL A   1      41.597  27.206  28.867  1.00  0.00    -0.354 N 
ATOM     31  C   UNL A   1      42.502  31.183  30.326  1.00  0.00     0.074 A 
ATOM     32  C   UNL A   1      41.316  32.010  30.349  1.00  0.00     0.031 C 
ATOM     33  C   UNL A   1      40.322  25.607  27.965  1.00  0.00     0.029 A 
ATOM     34  C   UNL A   1      41.682  25.919  28.390  1.00  0.00     0.049 A 
ATOM     35  H   UNL A   1      42.365  27.694  29.244  1.00  0.00     0.167 HD
ATOM     36  C   UNL A   1      43.726  31.597  30.730  1.00  0.00     0.037 A 
ATOM     37  C   UNL A   1      42.738  25.089  28.299  1.00  0.00     0.037 A 
ATOM     38  C   UNL A   1      44.891  30.752  30.752  1.00  0.00     0.049 A 
ATOM     39  C   UNL A   1      44.084  25.560  28.780  1.00  0.00     0.074 A 
ATOM     40  C   UNL A   1      46.163  31.051  31.211  1.00  0.00     0.029 A 
ATOM     41  N   UNL A   1      44.925  29.440  30.305  1.00  0.00    -0.354 N 
ATOM     42  N   UNL A   1      44.417  26.728  29.276  1.00  0.00    -0.248 NA
ATOM     43  C   UNL A   1      45.193  24.601  28.696  1.00  0.00     0.031 C 
ATOM     44  C   UNL A   1      46.974  29.929  31.009  1.00  0.00     0.029 A 
ATOM     45  C   UNL A   1      46.198  28.918  30.465  1.00  0.00     0.049 A 
ATOM     46  H   UNL A   1      44.157  28.951  29.929  1.00  0.00     0.167 HD
ATOM     47  C   UNL A   1      45.770  26.635  29.587  1.00  0.00     0.074 A 
ATOM     48  C   UNL A   1      46.188  25.295  29.234  1.00  0.00     0.031 C 
ATOM     49  C   UNL A   1      46.591  27.576  30.117  1.00  0.00     0.037 A 
BRANCH  36  50
ATOM     50  C   UNL A   1      43.862  33.022  31.194  1.00  0.00     0.058 A 
ATOM     51  C   UNL A   1      43.723  33.372  32.546  1.00  0.00     0.135 A 
ATOM     52  C   UNL A   1      44.156  34.047  30.280  1.00  0.00     0.135 A 
ATOM     53  F   UNL A   1      43.425  32.435  33.461  1.00  0.00    -0.206 F 
ATOM     54  C   UNL A   1      43.833  34.691  32.972  1.00  0.00     0.059 A 
ATOM     55  C   UNL A   1      44.301  35.370  30.688  1.00  0.00     0.059 A 
ATOM     56  F   UNL A   1      44.300  33.768  28.974  1.00  0.00    -0.206 F 
ATOM     57  C   UNL A   1      44.120  35.684  32.034  1.00  0.00     0.060 A 
BRANCH  57  58
ATOM     58  S   UNL A   1      44.260  37.392  32.602  1.00  0.00     0.124 S 
ATOM     59  O   UNL A   1      45.592  37.392  33.197  1.00  0.00    -0.237 OA
ATOM     60  O   UNL A   1      44.121  38.148  31.361  1.00  0.00    -0.237 OA
ATOM     61  O   UNL A   1      43.152  37.528  33.543  1.00  0.00    -0.744 OA
ENDBRANCH  57  58
ENDBRANCH  36  50
BRANCH  37  62
ATOM     62  C   UNL A   1      42.560  23.717  27.753  1.00  0.00     0.058 A 
ATOM     63  C   UNL A   1      42.533  23.493  26.368  1.00  0.00     0.135 A 
ATOM     64  C   UNL A   1      42.429  22.604  28.597  1.00  0.00     0.135 A 
ATOM     65  F   UNL A   1      42.650  24.526  25.520  1.00  0.00    -0.206 F 
ATOM     66  C   UNL A   1      42.367  22.217  25.838  1.00  0.00     0.059 A 
ATOM     67  C   UNL A   1      42.286  21.314  28.091  1.00  0.00     0.059 A 
ATOM     68  F   UNL A   1      42.465  22.761  29.929  1.00  0.00    -0.206 F 
ATOM     69  C   UNL A   1      42.247  21.134  26.709  1.00  0.00     0.060 A 
BRANCH  69  70
ATOM     70  S   UNL A   1      42.083  19.476  26.010  1.00  0.00     0.124 S 
ATOM     71  O   UNL A   1      42.914  19.578  24.815  1.00  0.00    -0.237 OA
ATOM     72  O   UNL A   1      42.607  18.638  27.083  1.00  0.00    -0.237 OA
ATOM     73  O   UNL A   1      40.647  19.352  25.774  1.00  0.00    -0.744 OA
ENDBRANCH  69  70
ENDBRANCH  37  62
BRANCH  49  74
ATOM     74  C   UNL A   1      48.016  27.179  30.379  1.00  0.00     0.058 A 
ATOM     75  C   UNL A   1      49.032  27.415  29.440  1.00  0.00     0.135 A 
ATOM     76  C   UNL A   1      48.377  26.607  31.610  1.00  0.00     0.135 A 
ATOM     77  F   UNL A   1      48.737  27.954  28.247  1.00  0.00    -0.206 F 
ATOM     78  C   UNL A   1      50.355  27.078  29.704  1.00  0.00     0.059 A 
ATOM     79  C   UNL A   1      49.698  26.286  31.905  1.00  0.00     0.059 A 
ATOM     80  F   UNL A   1      47.444  26.371  32.545  1.00  0.00    -0.206 F 
ATOM     81  C   UNL A   1      50.678  26.515  30.941  1.00  0.00     0.060 A 
BRANCH  81  82
ATOM     82  S   UNL A   1      52.405  26.118  31.286  1.00  0.00     0.124 S 
ATOM     83  O   UNL A   1      52.986  26.152  29.948  1.00  0.00    -0.237 OA
ATOM     84  O   UNL A   1      52.805  27.201  32.179  1.00  0.00    -0.237 OA
ATOM     85  O   UNL A   1      52.333  24.798  31.907  1.00  0.00    -0.744 OA
ENDBRANCH  81  82
ENDBRANCH  49  74
ENDBRANCH  23  24
ENDBRANCH  15  18
ENDBRANCH   1  14
TORSDOF 14
ENDMDL
MODEL 2
REMARK VINA RESULT:     -10.4      5.195     10.849
REMARK SMILES CC(C)(Br)[C@H](Br)C(=O)NCCCNC(=O)c1ccc(-c2c3nc(c(-c4c(F)cc(S(=O)(=O)[O-])cc4F)c4ccc([nH]4)c(-c4c(F)cc(S(=O)(=O)[O-])cc4F)c4nc(c(-c5c(F)cc(S(=O)(=O)[O-])cc5F)c5ccc2[nH]5)C=C4)C=C3)cc1
REMARK SMILES IDX 12 1 11 2 10 3 9 4 7 5 8 6 5 8 6 9 2 10 1 11 3 12 4 13 13 14
REMARK SMILES IDX 14 15 15 17 16 18 17 19 81 20 18 21 80 22 19 23 20 24 21 25
REMARK SMILES IDX 74 26 22 27 79 28 73 29 75 30 23 31 78 32 72 33 71 34 24 36
REMARK SMILES IDX 58 37 37 38 57 39 38 40 41 41 56 42 76 43 39 44 40 45 55 47
REMARK SMILES IDX 77 48 42 49 25 50 26 51 35 52 27 53 28 54 34 55 36 56 29 57
REMARK SMILES IDX 30 58 31 59 32 60 33 61 59 62 60 63 69 64 61 65 62 66 68 67
REMARK SMILES IDX 70 68 63 69 64 70 65 71 66 72 67 73 43 74 44 75 53 76 45 77
REMARK SMILES IDX 46 78 52 79 54 80 47 81 48 82 49 83 50 84 51 85
REMARK H PARENT 9 7 13 16 75 35 41 46
REMARK Flexibility Score: inf
ROOT
ATOM      1  C   UNL A   1      38.179  24.088  26.341  1.00  0.00     0.118 C 
ENDROOT
BRANCH   1   2
ATOM      2  C   UNL A   1      37.331  23.412  25.273  1.00  0.00     0.042 C 
BRANCH   2   3
ATOM      3  C   UNL A   1      37.064  21.940  25.539  1.00  0.00     0.117 C 
BRANCH   3   4
ATOM      4  N   UNL A   1      36.009  21.720  26.511  1.00  0.00    -0.355 N 
ATOM      5  C   UNL A   1      34.656  21.662  26.395  1.00  0.00     0.235 C 
ATOM      6  O   UNL A   1      34.035  21.463  27.446  1.00  0.00    -0.274 OA
ATOM      7  H   UNL A   1      36.335  21.587  27.430  1.00  0.00     0.163 HD
BRANCH   5   8
ATOM      8  C   UNL A   1      33.888  21.799  25.082  1.00  0.00     0.162 C 
ATOM      9  Br  UNL A   1      32.764  20.210  24.853  1.00  0.00    -0.077 Br
BRANCH   8  10
ATOM     10  C   UNL A   1      33.188  23.131  24.752  1.00  0.00     0.042 C 
ATOM     11  C   UNL A   1      33.692  24.395  25.445  1.00  0.00     0.025 C 
ATOM     12  C   UNL A   1      31.663  23.036  24.942  1.00  0.00     0.025 C 
ATOM     13  Br  UNL A   1      33.435  23.466  22.786  1.00  0.00    -0.084 Br
ENDBRANCH   8  10
ENDBRANCH   5   8
ENDBRANCH   3   4
ENDBRANCH   2   3
ENDBRANCH   1   2
BRANCH   1  14
ATOM     14  N   UNL A   1      39.611  23.881  26.149  1.00  0.00    -0.352 N 
ATOM     15  C   UNL A   1      40.691  24.613  26.587  1.00  0.00     0.251 C 
ATOM     16  H   UNL A   1      39.842  23.085  25.618  1.00  0.00     0.163 HD
ATOM     17  O   UNL A   1      41.807  24.361  26.150  1.00  0.00    -0.269 OA
BRANCH  15  18
ATOM     18  C   UNL A   1      40.504  25.715  27.558  1.00  0.00     0.039 A 
ATOM     19  C   UNL A   1      39.533  25.587  28.555  1.00  0.00     0.014 A 
ATOM     20  C   UNL A   1      41.280  26.872  27.486  1.00  0.00     0.014 A 
ATOM     21  C   UNL A   1      39.407  26.582  29.529  1.00  0.00     0.010 A 
ATOM     22  C   UNL A   1      41.231  27.803  28.516  1.00  0.00     0.010 A 
ATOM     23  C   UNL A   1      40.288  27.674  29.547  1.00  0.00    -0.014 A 
BRANCH  23  24
ATOM     24  C   UNL A   1      40.244  28.708  30.614  1.00  0.00     0.031 A 
ATOM     25  C   UNL A   1      41.138  28.578  31.819  1.00  0.00     0.074 A 
ATOM     26  C   UNL A   1      39.339  29.705  30.547  1.00  0.00     0.049 A 
ATOM     27  N   UNL A   1      41.155  29.288  32.918  1.00  0.00    -0.248 NA
ATOM     28  C   UNL A   1      42.115  27.476  31.805  1.00  0.00     0.031 C 
ATOM     29  C   UNL A   1      38.377  29.906  29.460  1.00  0.00     0.029 A 
ATOM     30  N   UNL A   1      39.067  30.729  31.419  1.00  0.00    -0.354 N 
ATOM     31  C   UNL A   1      42.116  28.701  33.733  1.00  0.00     0.074 A 
ATOM     32  C   UNL A   1      42.620  27.543  33.027  1.00  0.00     0.031 C 
ATOM     33  C   UNL A   1      37.640  30.999  29.720  1.00  0.00     0.029 A 
ATOM     34  C   UNL A   1      38.044  31.551  31.009  1.00  0.00     0.049 A 
ATOM     35  H   UNL A   1      39.560  30.861  32.262  1.00  0.00     0.167 HD
ATOM     36  C   UNL A   1      42.559  29.103  34.947  1.00  0.00     0.037 A 
ATOM     37  C   UNL A   1      37.489  32.622  31.607  1.00  0.00     0.037 A 
ATOM     38  C   UNL A   1      42.089  30.285  35.620  1.00  0.00     0.049 A 
ATOM     39  C   UNL A   1      38.018  33.069  32.943  1.00  0.00     0.074 A 
ATOM     40  C   UNL A   1      42.524  30.823  36.820  1.00  0.00     0.029 A 
ATOM     41  N   UNL A   1      41.085  31.117  35.149  1.00  0.00    -0.354 N 
ATOM     42  N   UNL A   1      38.967  32.534  33.673  1.00  0.00    -0.248 NA
ATOM     43  C   UNL A   1      37.405  34.268  33.533  1.00  0.00     0.031 C 
ATOM     44  C   UNL A   1      41.758  31.962  37.089  1.00  0.00     0.029 A 
ATOM     45  C   UNL A   1      40.876  32.158  36.038  1.00  0.00     0.049 A 
ATOM     46  H   UNL A   1      40.593  30.988  34.306  1.00  0.00     0.167 HD
ATOM     47  C   UNL A   1      39.083  33.345  34.797  1.00  0.00     0.074 A 
ATOM     48  C   UNL A   1      38.116  34.412  34.644  1.00  0.00     0.031 C 
ATOM     49  C   UNL A   1      39.915  33.217  35.860  1.00  0.00     0.037 A 
BRANCH  36  50
ATOM     50  C   UNL A   1      43.616  28.267  35.616  1.00  0.00     0.058 A 
ATOM     51  C   UNL A   1      43.283  27.240  36.513  1.00  0.00     0.135 A 
ATOM     52  C   UNL A   1      44.977  28.478  35.339  1.00  0.00     0.135 A 
ATOM     53  F   UNL A   1      41.999  27.005  36.827  1.00  0.00    -0.206 F 
ATOM     54  C   UNL A   1      44.262  26.477  37.142  1.00  0.00     0.059 A 
ATOM     55  C   UNL A   1      45.972  27.707  35.934  1.00  0.00     0.059 A 
ATOM     56  F   UNL A   1      45.351  29.446  34.488  1.00  0.00    -0.206 F 
ATOM     57  C   UNL A   1      45.604  26.720  36.847  1.00  0.00     0.060 A 
BRANCH  57  58
ATOM     58  S   UNL A   1      46.861  25.722  37.672  1.00  0.00     0.124 S 
ATOM     59  O   UNL A   1      46.356  25.691  39.041  1.00  0.00    -0.237 OA
ATOM     60  O   UNL A   1      46.789  24.460  36.941  1.00  0.00    -0.237 OA
ATOM     61  O   UNL A   1      48.088  26.488  37.473  1.00  0.00    -0.744 OA
ENDBRANCH  57  58
ENDBRANCH  36  50
BRANCH  37  62
ATOM     62  C   UNL A   1      36.389  33.362  30.934  1.00  0.00     0.058 A 
ATOM     63  C   UNL A   1      35.063  33.233  31.374  1.00  0.00     0.135 A 
ATOM     64  C   UNL A   1      36.637  34.222  29.853  1.00  0.00     0.135 A 
ATOM     65  F   UNL A   1      34.774  32.419  32.401  1.00  0.00    -0.206 F 
ATOM     66  C   UNL A   1      34.019  33.917  30.758  1.00  0.00     0.059 A 
ATOM     67  C   UNL A   1      35.613  34.936  29.236  1.00  0.00     0.059 A 
ATOM     68  F   UNL A   1      37.890  34.396  29.405  1.00  0.00    -0.206 F 
ATOM     69  C   UNL A   1      34.306  34.768  29.691  1.00  0.00     0.060 A 
BRANCH  69  70
ATOM     70  S   UNL A   1      32.951  35.690  28.931  1.00  0.00     0.124 S 
ATOM     71  O   UNL A   1      32.358  34.679  28.063  1.00  0.00    -0.237 OA
ATOM     72  O   UNL A   1      32.157  36.081  30.092  1.00  0.00    -0.237 OA
ATOM     73  O   UNL A   1      33.633  36.788  28.250  1.00  0.00    -0.744 OA
ENDBRANCH  69  70
ENDBRANCH  37  62
BRANCH  49  74
ATOM     74  C   UNL A   1      39.842  34.275  36.925  1.00  0.00     0.058 A 
ATOM     75  C   UNL A   1      40.476  35.518  36.775  1.00  0.00     0.135 A 
ATOM     76  C   UNL A   1      39.081  34.061  38.087  1.00  0.00     0.135 A 
ATOM     77  F   UNL A   1      41.221  35.769  35.686  1.00  0.00    -0.206 F 
ATOM     78  C   UNL A   1      40.375  36.506  37.748  1.00  0.00     0.059 A 
ATOM     79  C   UNL A   1      38.945  35.045  39.060  1.00  0.00     0.059 A 
ATOM     80  F   UNL A   1      38.447  32.893  38.273  1.00  0.00    -0.206 F 
ATOM     81  C   UNL A   1      39.605  36.260  38.887  1.00  0.00     0.060 A 
BRANCH  81  82
ATOM     82  S   UNL A   1      39.450  37.564  40.126  1.00  0.00     0.124 S 
ATOM     83  O   UNL A   1      39.037  36.805  41.301  1.00  0.00    -0.237 OA
ATOM     84  O   UNL A   1      40.800  38.117  40.171  1.00  0.00    -0.237 OA
ATOM     85  O   UNL A   1      38.437  38.450  39.561  1.00  0.00    -0.744 OA
ENDBRANCH  81  82
ENDBRANCH  49  74
ENDBRANCH  23  24
ENDBRANCH  15  18
ENDBRANCH   1  14
TORSDOF 14
ENDMDL
MODEL 3
REMARK VINA RESULT:     -10.2      3.260      4.969
REMARK SMILES CC(C)(Br)[C@H](Br)C(=O)NCCCNC(=O)c1ccc(-c2c3nc(c(-c4c(F)cc(S(=O)(=O)[O-])cc4F)c4ccc([nH]4)c(-c4c(F)cc(S(=O)(=O)[O-])cc4F)c4nc(c(-c5c(F)cc(S(=O)(=O)[O-])cc5F)c5ccc2[nH]5)C=C4)C=C3)cc1
REMARK SMILES IDX 12 1 11 2 10 3 9 4 7 5 8 6 5 8 6 9 2 10 1 11 3 12 4 13 13 14
REMARK SMILES IDX 14 15 15 17 16 18 17 19 81 20 18 21 80 22 19 23 20 24 21 25
REMARK SMILES IDX 74 26 22 27 79 28 73 29 75 30 23 31 78 32 72 33 71 34 24 36
REMARK SMILES IDX 58 37 37 38 57 39 38 40 41 41 56 42 76 43 39 44 40 45 55 47
REMARK SMILES IDX 77 48 42 49 25 50 26 51 35 52 27 53 28 54 34 55 36 56 29 57
REMARK SMILES IDX 30 58 31 59 32 60 33 61 59 62 60 63 69 64 61 65 62 66 68 67
REMARK SMILES IDX 70 68 63 69 64 70 65 71 66 72 67 73 43 74 44 75 53 76 45 77
REMARK SMILES IDX 46 78 52 79 54 80 47 81 48 82 49 83 50 84 51 85
REMARK H PARENT 9 7 13 16 75 35 41 46
REMARK Flexibility Score: inf
ROOT
ATOM      1  C   UNL A   1      34.466  32.373  28.959  1.00  0.00     0.118 C 
ENDROOT
BRANCH   1   2
ATOM      2  C   UNL A   1      34.142  33.602  28.123  1.00  0.00     0.042 C 
BRANCH   2   3
ATOM      3  C   UNL A   1      34.190  34.906  28.900  1.00  0.00     0.117 C 
BRANCH   3   4
ATOM      4  N   UNL A   1      33.126  35.025  29.880  1.00  0.00    -0.355 N 
ATOM      5  C   UNL A   1      33.138  35.245  31.220  1.00  0.00     0.235 C 
ATOM      6  O   UNL A   1      32.029  35.282  31.769  1.00  0.00    -0.274 OA
ATOM      7  H   UNL A   1      32.222  34.929  29.501  1.00  0.00     0.163 HD
BRANCH   5   8
ATOM      8  C   UNL A   1      34.397  35.465  32.056  1.00  0.00     0.162 C 
ATOM      9  Br  UNL A   1      33.980  36.745  33.480  1.00  0.00    -0.077 Br
BRANCH   8  10
ATOM     10  C   UNL A   1      35.224  34.247  32.511  1.00  0.00     0.042 C 
ATOM     11  C   UNL A   1      36.586  34.022  31.858  1.00  0.00     0.025 C 
ATOM     12  C   UNL A   1      34.412  32.942  32.426  1.00  0.00     0.025 C 
ATOM     13  Br  UNL A   1      35.604  34.481  34.470  1.00  0.00    -0.084 Br
ENDBRANCH   8  10
ENDBRANCH   5   8
ENDBRANCH   3   4
ENDBRANCH   2   3
ENDBRANCH   1   2
BRANCH   1  14
ATOM     14  N   UNL A   1      33.963  31.134  28.374  1.00  0.00    -0.352 N 
ATOM     15  C   UNL A   1      34.624  29.992  27.982  1.00  0.00     0.251 C 
ATOM     16  H   UNL A   1      32.989  31.113  28.237  1.00  0.00     0.163 HD
ATOM     17  O   UNL A   1      34.025  29.140  27.338  1.00  0.00    -0.269 OA
BRANCH  15  18
ATOM     18  C   UNL A   1      36.055  29.806  28.312  1.00  0.00     0.039 A 
ATOM     19  C   UNL A   1      36.409  29.363  29.590  1.00  0.00     0.014 A 
ATOM     20  C   UNL A   1      37.048  30.069  27.367  1.00  0.00     0.014 A 
ATOM     21  C   UNL A   1      37.750  29.101  29.885  1.00  0.00     0.010 A 
ATOM     22  C   UNL A   1      38.363  29.702  27.625  1.00  0.00     0.010 A 
ATOM     23  C   UNL A   1      38.732  29.220  28.889  1.00  0.00    -0.014 A 
BRANCH  23  24
ATOM     24  C   UNL A   1      40.155  28.868  29.138  1.00  0.00     0.031 A 
ATOM     25  C   UNL A   1      41.094  29.903  29.699  1.00  0.00     0.074 A 
ATOM     26  C   UNL A   1      40.621  27.658  28.772  1.00  0.00     0.049 A 
ATOM     27  N   UNL A   1      42.391  29.845  29.857  1.00  0.00    -0.248 NA
ATOM     28  C   UNL A   1      40.502  31.192  30.096  1.00  0.00     0.031 C 
ATOM     29  C   UNL A   1      39.825  26.589  28.163  1.00  0.00     0.029 A 
ATOM     30  N   UNL A   1      41.885  27.125  28.842  1.00  0.00    -0.354 N 
ATOM     31  C   UNL A   1      42.771  31.092  30.339  1.00  0.00     0.074 A 
ATOM     32  C   UNL A   1      41.576  31.906  30.393  1.00  0.00     0.031 C 
ATOM     33  C   UNL A   1      40.612  25.524  27.940  1.00  0.00     0.029 A 
ATOM     34  C   UNL A   1      41.976  25.846  28.347  1.00  0.00     0.049 A 
ATOM     35  H   UNL A   1      42.654  27.617  29.213  1.00  0.00     0.167 HD
ATOM     36  C   UNL A   1      43.997  31.515  30.727  1.00  0.00     0.037 A 
ATOM     37  C   UNL A   1      43.039  25.029  28.226  1.00  0.00     0.037 A 
ATOM     38  C   UNL A   1      45.171  30.683  30.719  1.00  0.00     0.049 A 
ATOM     39  C   UNL A   1      44.388  25.509  28.692  1.00  0.00     0.074 A 
ATOM     40  C   UNL A   1      46.447  30.990  31.160  1.00  0.00     0.029 A 
ATOM     41  N   UNL A   1      45.212  29.377  30.253  1.00  0.00    -0.354 N 
ATOM     42  N   UNL A   1      44.716  26.673  29.198  1.00  0.00    -0.248 NA
ATOM     43  C   UNL A   1      45.506  24.563  28.576  1.00  0.00     0.031 C 
ATOM     44  C   UNL A   1      47.267  29.880  30.929  1.00  0.00     0.029 A 
ATOM     45  C   UNL A   1      46.493  28.868  30.385  1.00  0.00     0.049 A 
ATOM     46  H   UNL A   1      44.443  28.885  29.885  1.00  0.00     0.167 HD
ATOM     47  C   UNL A   1      46.075  26.592  29.484  1.00  0.00     0.074 A 
ATOM     48  C   UNL A   1      46.503  25.261  29.106  1.00  0.00     0.031 C 
ATOM     49  C   UNL A   1      46.895  27.534  30.012  1.00  0.00     0.037 A 
BRANCH  36  50
ATOM     50  C   UNL A   1      44.125  32.935  31.208  1.00  0.00     0.058 A 
ATOM     51  C   UNL A   1      44.544  33.967  30.354  1.00  0.00     0.135 A 
ATOM     52  C   UNL A   1      43.803  33.273  32.533  1.00  0.00     0.135 A 
ATOM     53  F   UNL A   1      44.881  33.698  29.082  1.00  0.00    -0.206 F 
ATOM     54  C   UNL A   1      44.676  35.276  30.803  1.00  0.00     0.059 A 
ATOM     55  C   UNL A   1      43.898  34.582  32.997  1.00  0.00     0.059 A 
ATOM     56  F   UNL A   1      43.396  32.326  33.393  1.00  0.00    -0.206 F 
ATOM     57  C   UNL A   1      44.353  35.573  32.128  1.00  0.00     0.060 A 
BRANCH  57  58
ATOM     58  S   UNL A   1      44.530  37.277  32.696  1.00  0.00     0.124 S 
ATOM     59  O   UNL A   1      44.079  37.171  34.080  1.00  0.00    -0.237 OA
ATOM     60  O   UNL A   1      45.958  37.522  32.513  1.00  0.00    -0.237 OA
ATOM     61  O   UNL A   1      43.650  38.026  31.804  1.00  0.00    -0.744 OA
ENDBRANCH  57  58
ENDBRANCH  36  50
BRANCH  37  62
ATOM     62  C   UNL A   1      42.867  23.662  27.665  1.00  0.00     0.058 A 
ATOM     63  C   UNL A   1      42.573  22.575  28.502  1.00  0.00     0.135 A 
ATOM     64  C   UNL A   1      42.976  23.416  26.288  1.00  0.00     0.135 A 
ATOM     65  F   UNL A   1      42.464  22.758  29.826  1.00  0.00    -0.206 F 
ATOM     66  C   UNL A   1      42.409  21.288  27.997  1.00  0.00     0.059 A 
ATOM     67  C   UNL A   1      42.792  22.143  25.756  1.00  0.00     0.059 A 
ATOM     68  F   UNL A   1      43.238  24.424  25.443  1.00  0.00    -0.206 F 
ATOM     69  C   UNL A   1      42.518  21.084  26.621  1.00  0.00     0.060 A 
BRANCH  69  70
ATOM     70  S   UNL A   1      42.252  19.420  25.970  1.00  0.00     0.124 S 
ATOM     71  O   UNL A   1      40.807  19.409  25.772  1.00  0.00    -0.237 OA
ATOM     72  O   UNL A   1      43.064  19.432  24.757  1.00  0.00    -0.237 OA
ATOM     73  O   UNL A   1      42.751  18.558  27.039  1.00  0.00    -0.744 OA
ENDBRANCH  69  70
ENDBRANCH  37  62
BRANCH  49  74
ATOM     74  C   UNL A   1      48.328  27.150  30.245  1.00  0.00     0.058 A 
ATOM     75  C   UNL A   1      49.338  27.476  29.326  1.00  0.00     0.135 A 
ATOM     76  C   UNL A   1      48.704  26.498  31.432  1.00  0.00     0.135 A 
ATOM     77  F   UNL A   1      49.030  28.093  28.175  1.00  0.00    -0.206 F 
ATOM     78  C   UNL A   1      50.668  27.149  29.565  1.00  0.00     0.059 A 
ATOM     79  C   UNL A   1      50.032  26.185  31.702  1.00  0.00     0.059 A 
ATOM     80  F   UNL A   1      47.777  26.174  32.347  1.00  0.00    -0.206 F 
ATOM     81  C   UNL A   1      51.005  26.505  30.757  1.00  0.00     0.060 A 
BRANCH  81  82
ATOM     82  S   UNL A   1      52.741  26.120  31.073  1.00  0.00     0.124 S 
ATOM     83  O   UNL A   1      52.633  24.870  31.817  1.00  0.00    -0.237 OA
ATOM     84  O   UNL A   1      53.289  26.011  29.725  1.00  0.00    -0.237 OA
ATOM     85  O   UNL A   1      53.209  27.271  31.841  1.00  0.00    -0.744 OA
ENDBRANCH  81  82
ENDBRANCH  49  74
ENDBRANCH  23  24
ENDBRANCH  15  18
ENDBRANCH   1  14
TORSDOF 14
ENDMDL
