MODEL 1
REMARK VINA RESULT:     -13.0      0.000      0.000
REMARK SMILES COc1ccc(-c2ccc3n(c2=O)C[C@H]2C[C@@H]3CN(C(=O)CCCC(=O)NCCCNC(=O)c3ccc(-c4c5nc(c(-c6c(F)cc(S(=O)(=O)[O-])cc6F)c6ccc([nH]6)c(-c6c(F)cc(S(=O)(=O)[O-])cc6F)c6nc(c(-c7c(F)cc(S(=O)(=O)[O-])cc7F)c7ccc4[nH]7)C=C6)C=C5)cc3)C2)cc1
REMARK SMILES IDX 25 1 26 2 27 3 24 5 23 6 22 7 20 8 21 9 19 10 7 11 8 12
REMARK SMILES IDX 12 13 9 14 11 15 13 16 10 17 14 18 17 19 15 20 16 21 18 22
REMARK SMILES IDX 100 23 6 24 3 25 4 26 102 27 5 28 101 29 2 30 1 31 28 32
REMARK SMILES IDX 29 33 30 34 31 35 32 36 33 38 34 39 35 40 99 41 36 42 98 43
REMARK SMILES IDX 37 44 38 45 39 46 92 47 40 48 97 49 91 50 93 51 41 52 96 53
REMARK SMILES IDX 90 54 89 55 42 57 76 58 55 59 75 60 56 61 59 62 74 63 94 64
REMARK SMILES IDX 57 65 58 66 73 68 95 69 60 70 43 71 44 72 53 73 45 74 46 75
REMARK SMILES IDX 52 76 54 77 47 78 48 79 49 80 50 81 51 82 77 83 78 84 87 85
REMARK SMILES IDX 79 86 80 87 86 88 88 89 81 90 82 91 83 92 84 93 85 94 61 95
REMARK SMILES IDX 62 96 71 97 63 98 64 99 70 100 72 101 65 102 66 103 67 104
REMARK SMILES IDX 68 105 69 106
REMARK H PARENT 27 4 31 37 93 56 59 67
REMARK Flexibility Score: inf
ROOT
ATOM      1  C   UNL A   1      32.831  28.916  27.085  1.00  0.00     0.220 C 
ATOM      2  O   UNL A   1      31.739  28.579  27.560  1.00  0.00    -0.275 OA
ATOM      3  N   UNL A   1      33.430  29.970  27.692  1.00  0.00    -0.356 N 
ATOM      4  H   UNL A   1      32.843  30.463  28.310  1.00  0.00     0.163 HD
ENDROOT
BRANCH   1   5
ATOM      5  C   UNL A   1      33.441  28.082  25.956  1.00  0.00     0.100 C 
BRANCH   5   6
ATOM      6  C   UNL A   1      33.618  26.575  26.088  1.00  0.00     0.020 C 
BRANCH   6   7
ATOM      7  C   UNL A   1      34.347  25.738  25.037  1.00  0.00     0.101 C 
BRANCH   7   8
ATOM      8  C   UNL A   1      34.897  24.334  25.320  1.00  0.00     0.222 C 
ATOM      9  O   UNL A   1      36.123  24.241  25.475  1.00  0.00    -0.275 OA
BRANCH   8  10
ATOM     10  N   UNL A   1      34.081  23.232  25.565  1.00  0.00    -0.342 N 
ATOM     11  C   UNL A   1      30.366  26.062  23.867  1.00  0.00     0.047 A 
ATOM     12  C   UNL A   1      30.853  25.384  22.816  1.00  0.00     0.016 A 
ATOM     13  C   UNL A   1      30.461  25.449  25.235  1.00  0.00     0.258 A 
ATOM     14  C   UNL A   1      31.435  24.082  22.971  1.00  0.00     0.023 A 
ATOM     15  N   UNL A   1      31.046  24.177  25.308  1.00  0.00    -0.311 N 
ATOM     16  O   UNL A   1      30.023  26.041  26.222  1.00  0.00    -0.269 OA
ATOM     17  C   UNL A   1      31.517  23.502  24.179  1.00  0.00     0.026 A 
ATOM     18  C   UNL A   1      31.087  23.565  26.632  1.00  0.00     0.131 C 
ATOM     19  C   UNL A   1      32.210  22.158  24.333  1.00  0.00     0.056 C 
ATOM     20  C   UNL A   1      32.016  22.356  26.765  1.00  0.00     0.029 C 
ATOM     21  C   UNL A   1      31.755  21.424  25.594  1.00  0.00     0.019 C 
ATOM     22  C   UNL A   1      33.729  22.389  24.416  1.00  0.00     0.129 C 
ATOM     23  C   UNL A   1      33.504  22.757  26.821  1.00  0.00     0.125 C 
BRANCH  11  24
ATOM     24  C   UNL A   1      29.705  27.357  23.660  1.00  0.00    -0.013 A 
ATOM     25  C   UNL A   1      28.508  29.847  23.170  1.00  0.00     0.118 A 
ATOM     26  C   UNL A   1      27.736  28.684  23.179  1.00  0.00     0.047 A 
ATOM     27  C   UNL A   1      29.873  29.772  23.445  1.00  0.00     0.047 A 
ATOM     28  C   UNL A   1      28.331  27.441  23.410  1.00  0.00     0.013 A 
ATOM     29  C   UNL A   1      30.468  28.533  23.684  1.00  0.00     0.013 A 
BRANCH  25  30
ATOM     30  O   UNL A   1      27.833  31.010  22.917  1.00  0.00    -0.497 OA
ATOM     31  C   UNL A   1      28.574  32.196  23.189  1.00  0.00     0.278 C 
ENDBRANCH  25  30
ENDBRANCH  11  24
ENDBRANCH   8  10
ENDBRANCH   7   8
ENDBRANCH   6   7
ENDBRANCH   5   6
ENDBRANCH   1   5
BRANCH   3  32
ATOM     32  C   UNL A   1      34.763  30.503  27.601  1.00  0.00     0.117 C 
BRANCH  32  33
ATOM     33  C   UNL A   1      34.889  31.961  27.981  1.00  0.00     0.042 C 
BRANCH  33  34
ATOM     34  C   UNL A   1      35.966  32.172  29.019  1.00  0.00     0.118 C 
BRANCH  34  35
ATOM     35  N   UNL A   1      35.692  31.472  30.276  1.00  0.00    -0.352 N 
ATOM     36  C   UNL A   1      36.507  30.614  30.982  1.00  0.00     0.251 C 
ATOM     37  H   UNL A   1      34.805  31.637  30.670  1.00  0.00     0.163 HD
ATOM     38  O   UNL A   1      36.070  30.021  31.964  1.00  0.00    -0.269 OA
BRANCH  36  39
ATOM     39  C   UNL A   1      37.889  30.387  30.511  1.00  0.00     0.039 A 
ATOM     40  C   UNL A   1      38.924  30.249  31.438  1.00  0.00     0.014 A 
ATOM     41  C   UNL A   1      38.141  30.229  29.148  1.00  0.00     0.014 A 
ATOM     42  C   UNL A   1      40.193  29.866  30.996  1.00  0.00     0.010 A 
ATOM     43  C   UNL A   1      39.353  29.704  28.733  1.00  0.00     0.010 A 
ATOM     44  C   UNL A   1      40.406  29.546  29.644  1.00  0.00    -0.014 A 
BRANCH  44  45
ATOM     45  C   UNL A   1      41.726  29.103  29.133  1.00  0.00     0.031 A 
ATOM     46  C   UNL A   1      42.848  30.110  29.029  1.00  0.00     0.074 A 
ATOM     47  C   UNL A   1      41.893  27.843  28.683  1.00  0.00     0.049 A 
ATOM     48  N   UNL A   1      44.033  29.975  28.497  1.00  0.00    -0.248 NA
ATOM     49  C   UNL A   1      42.581  31.467  29.542  1.00  0.00     0.031 C 
ATOM     50  C   UNL A   1      40.861  26.802  28.655  1.00  0.00     0.029 A 
ATOM     51  N   UNL A   1      42.996  27.223  28.151  1.00  0.00    -0.354 N 
ATOM     52  C   UNL A   1      44.625  31.231  28.570  1.00  0.00     0.074 A 
ATOM     53  C   UNL A   1      43.651  32.132  29.136  1.00  0.00     0.031 C 
ATOM     54  C   UNL A   1      41.390  25.667  28.166  1.00  0.00     0.029 A 
ATOM     55  C   UNL A   1      42.783  25.906  27.811  1.00  0.00     0.049 A 
ATOM     56  H   UNL A   1      43.859  27.678  28.023  1.00  0.00     0.167 HD
ATOM     57  C   UNL A   1      45.882  31.595  28.229  1.00  0.00     0.037 A 
ATOM     58  C   UNL A   1      43.623  24.999  27.275  1.00  0.00     0.037 A 
ATOM     59  C   UNL A   1      46.876  30.669  27.758  1.00  0.00     0.049 A 
ATOM     60  C   UNL A   1      45.043  25.413  26.984  1.00  0.00     0.074 A 
ATOM     61  C   UNL A   1      48.211  30.905  27.489  1.00  0.00     0.029 A 
ATOM     62  N   UNL A   1      46.644  29.325  27.507  1.00  0.00    -0.354 N 
ATOM     63  N   UNL A   1      45.609  26.586  27.139  1.00  0.00    -0.248 NA
ATOM     64  C   UNL A   1      45.943  24.375  26.461  1.00  0.00     0.031 C 
ATOM     65  C   UNL A   1      48.781  29.711  27.040  1.00  0.00     0.029 A 
ATOM     66  C   UNL A   1      47.811  28.721  27.077  1.00  0.00     0.049 A 
ATOM     67  H   UNL A   1      45.778  28.870  27.617  1.00  0.00     0.167 HD
ATOM     68  C   UNL A   1      46.940  26.417  26.773  1.00  0.00     0.074 A 
ATOM     69  C   UNL A   1      47.096  25.027  26.398  1.00  0.00     0.031 C 
ATOM     70  C   UNL A   1      47.945  27.327  26.746  1.00  0.00     0.037 A 
BRANCH  57  71
ATOM     71  C   UNL A   1      46.273  33.037  28.387  1.00  0.00     0.058 A 
ATOM     72  C   UNL A   1      46.116  33.965  27.345  1.00  0.00     0.135 A 
ATOM     73  C   UNL A   1      46.750  33.511  29.621  1.00  0.00     0.135 A 
ATOM     74  F   UNL A   1      45.689  33.562  26.138  1.00  0.00    -0.206 F 
ATOM     75  C   UNL A   1      46.425  35.310  27.517  1.00  0.00     0.059 A 
ATOM     76  C   UNL A   1      47.036  34.858  29.823  1.00  0.00     0.059 A 
ATOM     77  F   UNL A   1      46.928  32.665  30.646  1.00  0.00    -0.206 F 
ATOM     78  C   UNL A   1      46.877  35.749  28.763  1.00  0.00     0.060 A 
BRANCH  78  79
ATOM     79  S   UNL A   1      47.216  37.507  28.983  1.00  0.00     0.124 S 
ATOM     80  O   UNL A   1      47.080  37.650  30.430  1.00  0.00    -0.237 OA
ATOM     81  O   UNL A   1      48.573  37.630  28.460  1.00  0.00    -0.237 OA
ATOM     82  O   UNL A   1      46.180  38.156  28.188  1.00  0.00    -0.744 OA
ENDBRANCH  78  79
ENDBRANCH  57  71
BRANCH  58  83
ATOM     83  C   UNL A   1      43.171  23.607  27.007  1.00  0.00     0.058 A 
ATOM     84  C   UNL A   1      43.124  22.653  28.035  1.00  0.00     0.135 A 
ATOM     85  C   UNL A   1      42.814  23.189  25.715  1.00  0.00     0.135 A 
ATOM     86  F   UNL A   1      43.453  23.002  29.288  1.00  0.00    -0.206 F 
ATOM     87  C   UNL A   1      42.791  21.325  27.787  1.00  0.00     0.059 A 
ATOM     88  C   UNL A   1      42.448  21.872  25.447  1.00  0.00     0.059 A 
ATOM     89  F   UNL A   1      42.816  24.065  24.699  1.00  0.00    -0.206 F 
ATOM     90  C   UNL A   1      42.463  20.942  26.485  1.00  0.00     0.060 A 
BRANCH  90  91
ATOM     91  S   UNL A   1      42.041  19.215  26.168  1.00  0.00     0.124 S 
ATOM     92  O   UNL A   1      42.427  18.585  27.426  1.00  0.00    -0.237 OA
ATOM     93  O   UNL A   1      40.607  19.290  25.905  1.00  0.00    -0.237 OA
ATOM     94  O   UNL A   1      42.865  18.877  25.012  1.00  0.00    -0.744 OA
ENDBRANCH  90  91
ENDBRANCH  58  83
BRANCH  70  95
ATOM     95  C   UNL A   1      49.313  26.834  26.371  1.00  0.00     0.058 A 
ATOM     96  C   UNL A   1      50.158  26.213  27.301  1.00  0.00     0.135 A 
ATOM     97  C   UNL A   1      49.761  26.944  25.044  1.00  0.00     0.135 A 
ATOM     98  F   UNL A   1      49.776  26.084  28.583  1.00  0.00    -0.206 F 
ATOM     99  C   UNL A   1      51.417  25.747  26.938  1.00  0.00     0.059 A 
ATOM    100  C   UNL A   1      51.002  26.459  24.652  1.00  0.00     0.059 A 
ATOM    101  F   UNL A   1      48.981  27.516  24.112  1.00  0.00    -0.206 F 
ATOM    102  C   UNL A   1      51.829  25.876  25.610  1.00  0.00     0.060 A 
BRANCH 102 103
ATOM    103  S   UNL A   1      53.457  25.251  25.144  1.00  0.00     0.124 S 
ATOM    104  O   UNL A   1      53.569  25.726  23.769  1.00  0.00    -0.237 OA
ATOM    105  O   UNL A   1      54.333  25.902  26.113  1.00  0.00    -0.237 OA
ATOM    106  O   UNL A   1      53.323  23.807  25.301  1.00  0.00    -0.744 OA
ENDBRANCH 102 103
ENDBRANCH  70  95
ENDBRANCH  44  45
ENDBRANCH  36  39
ENDBRANCH  34  35
ENDBRANCH  33  34
ENDBRANCH  32  33
ENDBRANCH   3  32
TORSDOF 19
ENDMDL
MODEL 2
REMARK VINA RESULT:     -12.2      1.625      4.059
REMARK SMILES COc1ccc(-c2ccc3n(c2=O)C[C@H]2C[C@@H]3CN(C(=O)CCCC(=O)NCCCNC(=O)c3ccc(-c4c5nc(c(-c6c(F)cc(S(=O)(=O)[O-])cc6F)c6ccc([nH]6)c(-c6c(F)cc(S(=O)(=O)[O-])cc6F)c6nc(c(-c7c(F)cc(S(=O)(=O)[O-])cc7F)c7ccc4[nH]7)C=C6)C=C5)cc3)C2)cc1
REMARK SMILES IDX 25 1 26 2 27 3 24 5 23 6 22 7 20 8 21 9 19 10 7 11 8 12
REMARK SMILES IDX 12 13 9 14 11 15 13 16 10 17 14 18 17 19 15 20 16 21 18 22
REMARK SMILES IDX 100 23 6 24 3 25 4 26 102 27 5 28 101 29 2 30 1 31 28 32
REMARK SMILES IDX 29 33 30 34 31 35 32 36 33 38 34 39 35 40 99 41 36 42 98 43
REMARK SMILES IDX 37 44 38 45 39 46 92 47 40 48 97 49 91 50 93 51 41 52 96 53
REMARK SMILES IDX 90 54 89 55 42 57 76 58 55 59 75 60 56 61 59 62 74 63 94 64
REMARK SMILES IDX 57 65 58 66 73 68 95 69 60 70 43 71 44 72 53 73 45 74 46 75
REMARK SMILES IDX 52 76 54 77 47 78 48 79 49 80 50 81 51 82 77 83 78 84 87 85
REMARK SMILES IDX 79 86 80 87 86 88 88 89 81 90 82 91 83 92 84 93 85 94 61 95
REMARK SMILES IDX 62 96 71 97 63 98 64 99 70 100 72 101 65 102 66 103 67 104
REMARK SMILES IDX 68 105 69 106
REMARK H PARENT 27 4 31 37 93 56 59 67
REMARK Flexibility Score: inf
ROOT
ATOM      1  C   UNL A   1      34.264  30.057  27.027  1.00  0.00     0.220 C 
ATOM      2  O   UNL A   1      34.911  29.135  26.516  1.00  0.00    -0.275 OA
ATOM      3  N   UNL A   1      34.995  30.980  27.699  1.00  0.00    -0.356 N 
ATOM      4  H   UNL A   1      35.927  30.709  27.866  1.00  0.00     0.163 HD
ENDROOT
BRANCH   1   5
ATOM      5  C   UNL A   1      32.755  30.132  26.782  1.00  0.00     0.100 C 
BRANCH   5   6
ATOM      6  C   UNL A   1      31.791  29.173  27.469  1.00  0.00     0.020 C 
BRANCH   6   7
ATOM      7  C   UNL A   1      31.830  27.663  27.238  1.00  0.00     0.101 C 
BRANCH   7   8
ATOM      8  C   UNL A   1      32.499  27.020  26.016  1.00  0.00     0.222 C 
ATOM      9  O   UNL A   1      33.163  25.996  26.224  1.00  0.00    -0.275 OA
BRANCH   8  10
ATOM     10  N   UNL A   1      32.256  27.436  24.709  1.00  0.00    -0.342 N 
ATOM     11  C   UNL A   1      32.309  22.606  23.546  1.00  0.00     0.047 A 
ATOM     12  C   UNL A   1      31.033  22.929  23.816  1.00  0.00     0.016 A 
ATOM     13  C   UNL A   1      33.226  23.661  22.998  1.00  0.00     0.258 A 
ATOM     14  C   UNL A   1      30.529  24.249  23.566  1.00  0.00     0.023 A 
ATOM     15  N   UNL A   1      32.663  24.926  22.785  1.00  0.00    -0.311 N 
ATOM     16  O   UNL A   1      34.400  23.399  22.737  1.00  0.00    -0.269 OA
ATOM     17  C   UNL A   1      31.322  25.206  23.059  1.00  0.00     0.026 A 
ATOM     18  C   UNL A   1      33.545  25.932  22.202  1.00  0.00     0.131 C 
ATOM     19  C   UNL A   1      30.789  26.619  22.878  1.00  0.00     0.056 C 
ATOM     20  C   UNL A   1      33.043  27.374  22.291  1.00  0.00     0.029 C 
ATOM     21  C   UNL A   1      31.592  27.401  21.839  1.00  0.00     0.019 C 
ATOM     22  C   UNL A   1      30.873  27.358  24.226  1.00  0.00     0.129 C 
ATOM     23  C   UNL A   1      33.182  27.963  23.709  1.00  0.00     0.125 C 
BRANCH  11  24
ATOM     24  C   UNL A   1      32.769  21.224  23.739  1.00  0.00    -0.013 A 
ATOM     25  C   UNL A   1      33.619  18.594  24.218  1.00  0.00     0.118 A 
ATOM     26  C   UNL A   1      32.600  18.848  23.299  1.00  0.00     0.047 A 
ATOM     27  C   UNL A   1      34.241  19.657  24.871  1.00  0.00     0.047 A 
ATOM     28  C   UNL A   1      32.166  20.156  23.067  1.00  0.00     0.013 A 
ATOM     29  C   UNL A   1      33.815  20.965  24.635  1.00  0.00     0.013 A 
BRANCH  25  30
ATOM     30  O   UNL A   1      33.959  17.279  24.386  1.00  0.00    -0.497 OA
ATOM     31  C   UNL A   1      33.066  16.537  25.211  1.00  0.00     0.278 C 
ENDBRANCH  25  30
ENDBRANCH  11  24
ENDBRANCH   8  10
ENDBRANCH   7   8
ENDBRANCH   6   7
ENDBRANCH   5   6
ENDBRANCH   1   5
BRANCH   3  32
ATOM     32  C   UNL A   1      34.664  32.282  28.214  1.00  0.00     0.117 C 
BRANCH  32  33
ATOM     33  C   UNL A   1      35.833  33.236  28.323  1.00  0.00     0.042 C 
BRANCH  33  34
ATOM     34  C   UNL A   1      36.595  33.032  29.612  1.00  0.00     0.118 C 
BRANCH  34  35
ATOM     35  N   UNL A   1      36.059  31.940  30.425  1.00  0.00    -0.352 N 
ATOM     36  C   UNL A   1      36.643  30.733  30.743  1.00  0.00     0.251 C 
ATOM     37  H   UNL A   1      35.158  32.087  30.795  1.00  0.00     0.163 HD
ATOM     38  O   UNL A   1      35.998  29.878  31.345  1.00  0.00    -0.269 OA
BRANCH  36  39
ATOM     39  C   UNL A   1      38.031  30.470  30.309  1.00  0.00     0.039 A 
ATOM     40  C   UNL A   1      39.037  30.305  31.262  1.00  0.00     0.014 A 
ATOM     41  C   UNL A   1      38.314  30.306  28.952  1.00  0.00     0.014 A 
ATOM     42  C   UNL A   1      40.306  29.890  30.853  1.00  0.00     0.010 A 
ATOM     43  C   UNL A   1      39.523  29.750  28.569  1.00  0.00     0.010 A 
ATOM     44  C   UNL A   1      40.546  29.565  29.507  1.00  0.00    -0.014 A 
BRANCH  44  45
ATOM     45  C   UNL A   1      41.868  29.088  29.030  1.00  0.00     0.031 A 
ATOM     46  C   UNL A   1      43.010  30.072  28.931  1.00  0.00     0.074 A 
ATOM     47  C   UNL A   1      42.020  27.817  28.606  1.00  0.00     0.049 A 
ATOM     48  N   UNL A   1      44.203  29.905  28.426  1.00  0.00    -0.248 NA
ATOM     49  C   UNL A   1      42.759  31.443  29.415  1.00  0.00     0.031 C 
ATOM     50  C   UNL A   1      40.969  26.795  28.575  1.00  0.00     0.029 A 
ATOM     51  N   UNL A   1      43.121  27.167  28.107  1.00  0.00    -0.354 N 
ATOM     52  C   UNL A   1      44.818  31.151  28.488  1.00  0.00     0.074 A 
ATOM     53  C   UNL A   1      43.849  32.081  29.020  1.00  0.00     0.031 C 
ATOM     54  C   UNL A   1      41.486  25.642  28.117  1.00  0.00     0.029 A 
ATOM     55  C   UNL A   1      42.890  25.849  27.786  1.00  0.00     0.049 A 
ATOM     56  H   UNL A   1      43.995  27.604  27.989  1.00  0.00     0.167 HD
ATOM     57  C   UNL A   1      46.088  31.485  28.167  1.00  0.00     0.037 A 
ATOM     58  C   UNL A   1      43.723  24.917  27.283  1.00  0.00     0.037 A 
ATOM     59  C   UNL A   1      47.073  30.533  27.732  1.00  0.00     0.049 A 
ATOM     60  C   UNL A   1      45.156  25.299  27.013  1.00  0.00     0.074 A 
ATOM     61  C   UNL A   1      48.417  30.740  27.486  1.00  0.00     0.029 A 
ATOM     62  N   UNL A   1      46.821  29.190  27.499  1.00  0.00    -0.354 N 
ATOM     63  N   UNL A   1      45.741  26.464  27.159  1.00  0.00    -0.248 NA
ATOM     64  C   UNL A   1      46.046  24.236  26.527  1.00  0.00     0.031 C 
ATOM     65  C   UNL A   1      48.973  29.527  27.069  1.00  0.00     0.029 A 
ATOM     66  C   UNL A   1      47.984  28.556  27.104  1.00  0.00     0.049 A 
ATOM     67  H   UNL A   1      45.944  28.752  27.600  1.00  0.00     0.167 HD
ATOM     68  C   UNL A   1      47.076  26.264  26.822  1.00  0.00     0.074 A 
ATOM     69  C   UNL A   1      47.212  24.865  26.475  1.00  0.00     0.031 C 
ATOM     70  C   UNL A   1      48.098  27.154  26.800  1.00  0.00     0.037 A 
BRANCH  57  71
ATOM     71  C   UNL A   1      46.503  32.923  28.307  1.00  0.00     0.058 A 
ATOM     72  C   UNL A   1      47.145  33.399  29.462  1.00  0.00     0.135 A 
ATOM     73  C   UNL A   1      46.316  33.821  27.244  1.00  0.00     0.135 A 
ATOM     74  F   UNL A   1      47.327  32.590  30.517  1.00  0.00    -0.206 F 
ATOM     75  C   UNL A   1      47.579  34.716  29.561  1.00  0.00     0.059 A 
ATOM     76  C   UNL A   1      46.769  35.136  27.311  1.00  0.00     0.059 A 
ATOM     77  F   UNL A   1      45.699  33.421  26.121  1.00  0.00    -0.206 F 
ATOM     78  C   UNL A   1      47.394  35.575  28.477  1.00  0.00     0.060 A 
BRANCH  78  79
ATOM     79  S   UNL A   1      48.016  37.264  28.602  1.00  0.00     0.124 S 
ATOM     80  O   UNL A   1      49.457  37.053  28.486  1.00  0.00    -0.237 OA
ATOM     81  O   UNL A   1      47.378  37.916  27.463  1.00  0.00    -0.237 OA
ATOM     82  O   UNL A   1      47.549  37.702  29.914  1.00  0.00    -0.744 OA
ENDBRANCH  78  79
ENDBRANCH  57  71
BRANCH  58  83
ATOM     83  C   UNL A   1      43.250  23.529  27.030  1.00  0.00     0.058 A 
ATOM     84  C   UNL A   1      43.064  22.626  28.088  1.00  0.00     0.135 A 
ATOM     85  C   UNL A   1      43.011  23.063  25.728  1.00  0.00     0.135 A 
ATOM     86  F   UNL A   1      43.276  23.023  29.352  1.00  0.00    -0.206 F 
ATOM     87  C   UNL A   1      42.709  21.299  27.865  1.00  0.00     0.059 A 
ATOM     88  C   UNL A   1      42.626  21.747  25.480  1.00  0.00     0.059 A 
ATOM     89  F   UNL A   1      43.148  23.890  24.680  1.00  0.00    -0.206 F 
ATOM     90  C   UNL A   1      42.501  20.867  26.554  1.00  0.00     0.060 A 
BRANCH  90  91
ATOM     91  S   UNL A   1      42.051  19.141  26.271  1.00  0.00     0.124 S 
ATOM     92  O   UNL A   1      42.277  18.560  27.589  1.00  0.00    -0.237 OA
ATOM     93  O   UNL A   1      40.656  19.250  25.851  1.00  0.00    -0.237 OA
ATOM     94  O   UNL A   1      42.980  18.721  25.226  1.00  0.00    -0.744 OA
ENDBRANCH  90  91
ENDBRANCH  58  83
BRANCH  70  95
ATOM     95  C   UNL A   1      49.463  26.629  26.461  1.00  0.00     0.058 A 
ATOM     96  C   UNL A   1      49.964  26.660  25.151  1.00  0.00     0.135 A 
ATOM     97  C   UNL A   1      50.299  26.133  27.475  1.00  0.00     0.135 A 
ATOM     98  F   UNL A   1      49.204  27.124  24.146  1.00  0.00    -0.206 F 
ATOM     99  C   UNL A   1      51.236  26.185  24.851  1.00  0.00     0.059 A 
ATOM    100  C   UNL A   1      51.584  25.681  27.204  1.00  0.00     0.059 A 
ATOM    101  F   UNL A   1      49.871  26.099  28.748  1.00  0.00    -0.206 F 
ATOM    102  C   UNL A   1      52.038  25.697  25.885  1.00  0.00     0.060 A 
BRANCH 102 103
ATOM    103  S   UNL A   1      53.694  25.100  25.489  1.00  0.00     0.124 S 
ATOM    104  O   UNL A   1      54.426  25.443  26.704  1.00  0.00    -0.237 OA
ATOM    105  O   UNL A   1      53.470  23.675  25.265  1.00  0.00    -0.237 OA
ATOM    106  O   UNL A   1      54.056  25.865  24.301  1.00  0.00    -0.744 OA
ENDBRANCH 102 103
ENDBRANCH  70  95
ENDBRANCH  44  45
ENDBRANCH  36  39
ENDBRANCH  34  35
ENDBRANCH  33  34
ENDBRANCH  32  33
ENDBRANCH   3  32
TORSDOF 19
ENDMDL
MODEL 3
REMARK VINA RESULT:     -12.2      6.338      9.193
REMARK SMILES COc1ccc(-c2ccc3n(c2=O)C[C@H]2C[C@@H]3CN(C(=O)CCCC(=O)NCCCNC(=O)c3ccc(-c4c5nc(c(-c6c(F)cc(S(=O)(=O)[O-])cc6F)c6ccc([nH]6)c(-c6c(F)cc(S(=O)(=O)[O-])cc6F)c6nc(c(-c7c(F)cc(S(=O)(=O)[O-])cc7F)c7ccc4[nH]7)C=C6)C=C5)cc3)C2)cc1
REMARK SMILES IDX 25 1 26 2 27 3 24 5 23 6 22 7 20 8 21 9 19 10 7 11 8 12
REMARK SMILES IDX 12 13 9 14 11 15 13 16 10 17 14 18 17 19 15 20 16 21 18 22
REMARK SMILES IDX 100 23 6 24 3 25 4 26 102 27 5 28 101 29 2 30 1 31 28 32
REMARK SMILES IDX 29 33 30 34 31 35 32 36 33 38 34 39 35 40 99 41 36 42 98 43
REMARK SMILES IDX 37 44 38 45 39 46 92 47 40 48 97 49 91 50 93 51 41 52 96 53
REMARK SMILES IDX 90 54 89 55 42 57 76 58 55 59 75 60 56 61 59 62 74 63 94 64
REMARK SMILES IDX 57 65 58 66 73 68 95 69 60 70 43 71 44 72 53 73 45 74 46 75
REMARK SMILES IDX 52 76 54 77 47 78 48 79 49 80 50 81 51 82 77 83 78 84 87 85
REMARK SMILES IDX 79 86 80 87 86 88 88 89 81 90 82 91 83 92 84 93 85 94 61 95
REMARK SMILES IDX 62 96 71 97 63 98 64 99 70 100 72 101 65 102 66 103 67 104
REMARK SMILES IDX 68 105 69 106
REMARK H PARENT 27 4 31 37 93 56 59 67
REMARK Flexibility Score: inf
ROOT
ATOM      1  C   UNL A   1      35.487  32.244  28.057  1.00  0.00     0.220 C 
ATOM      2  O   UNL A   1      36.566  31.644  28.140  1.00  0.00    -0.275 OA
ATOM      3  N   UNL A   1      35.578  33.589  27.908  1.00  0.00    -0.356 N 
ATOM      4  H   UNL A   1      36.479  33.951  28.076  1.00  0.00     0.163 HD
ENDROOT
BRANCH   1   5
ATOM      5  C   UNL A   1      34.187  31.438  28.029  1.00  0.00     0.100 C 
BRANCH   5   6
ATOM      6  C   UNL A   1      33.891  30.445  26.912  1.00  0.00     0.020 C 
BRANCH   6   7
ATOM      7  C   UNL A   1      33.995  28.933  27.108  1.00  0.00     0.101 C 
BRANCH   7   8
ATOM      8  C   UNL A   1      33.569  27.920  26.038  1.00  0.00     0.222 C 
ATOM      9  O   UNL A   1      33.867  26.736  26.248  1.00  0.00    -0.275 OA
BRANCH   8  10
ATOM     10  N   UNL A   1      32.745  28.248  24.964  1.00  0.00    -0.342 N 
ATOM     11  C   UNL A   1      32.390  23.350  24.207  1.00  0.00     0.047 A 
ATOM     12  C   UNL A   1      31.370  23.696  25.009  1.00  0.00     0.016 A 
ATOM     13  C   UNL A   1      32.926  24.362  23.236  1.00  0.00     0.258 A 
ATOM     14  C   UNL A   1      30.772  24.999  24.938  1.00  0.00     0.023 A 
ATOM     15  N   UNL A   1      32.295  25.613  23.226  1.00  0.00    -0.311 N 
ATOM     16  O   UNL A   1      33.858  24.078  22.483  1.00  0.00    -0.269 OA
ATOM     17  C   UNL A   1      31.220  25.917  24.066  1.00  0.00     0.026 A 
ATOM     18  C   UNL A   1      32.786  26.573  22.243  1.00  0.00     0.131 C 
ATOM     19  C   UNL A   1      30.626  27.316  24.062  1.00  0.00     0.056 C 
ATOM     20  C   UNL A   1      32.341  28.020  22.463  1.00  0.00     0.029 C 
ATOM     21  C   UNL A   1      30.845  28.023  22.725  1.00  0.00     0.019 C 
ATOM     22  C   UNL A   1      31.297  28.144  25.174  1.00  0.00     0.129 C 
ATOM     23  C   UNL A   1      33.098  28.702  23.620  1.00  0.00     0.125 C 
BRANCH  11  24
ATOM     24  C   UNL A   1      32.923  21.983  24.252  1.00  0.00    -0.013 A 
ATOM     25  C   UNL A   1      33.937  19.375  24.455  1.00  0.00     0.118 A 
ATOM     26  C   UNL A   1      32.750  19.617  23.762  1.00  0.00     0.047 A 
ATOM     27  C   UNL A   1      34.640  20.441  25.014  1.00  0.00     0.047 A 
ATOM     28  C   UNL A   1      32.236  20.913  23.670  1.00  0.00     0.013 A 
ATOM     29  C   UNL A   1      34.134  21.737  24.917  1.00  0.00     0.013 A 
BRANCH  25  30
ATOM     30  O   UNL A   1      34.346  18.069  24.502  1.00  0.00    -0.497 OA
ATOM     31  C   UNL A   1      33.822  17.246  23.464  1.00  0.00     0.278 C 
ENDBRANCH  25  30
ENDBRANCH  11  24
ENDBRANCH   8  10
ENDBRANCH   7   8
ENDBRANCH   6   7
ENDBRANCH   5   6
ENDBRANCH   1   5
BRANCH   3  32
ATOM     32  C   UNL A   1      34.605  34.586  27.551  1.00  0.00     0.117 C 
BRANCH  32  33
ATOM     33  C   UNL A   1      34.132  35.449  28.699  1.00  0.00     0.042 C 
BRANCH  33  34
ATOM     34  C   UNL A   1      33.218  34.683  29.627  1.00  0.00     0.118 C 
BRANCH  34  35
ATOM     35  N   UNL A   1      32.530  35.544  30.590  1.00  0.00    -0.352 N 
ATOM     36  C   UNL A   1      32.779  35.706  31.936  1.00  0.00     0.251 C 
ATOM     37  H   UNL A   1      31.789  36.081  30.227  1.00  0.00     0.163 HD
ATOM     38  O   UNL A   1      32.024  36.388  32.622  1.00  0.00    -0.269 OA
BRANCH  36  39
ATOM     39  C   UNL A   1      33.935  35.011  32.540  1.00  0.00     0.039 A 
ATOM     40  C   UNL A   1      33.774  33.730  33.070  1.00  0.00     0.014 A 
ATOM     41  C   UNL A   1      35.198  35.603  32.503  1.00  0.00     0.014 A 
ATOM     42  C   UNL A   1      34.900  33.014  33.483  1.00  0.00     0.010 A 
ATOM     43  C   UNL A   1      36.320  34.836  32.769  1.00  0.00     0.010 A 
ATOM     44  C   UNL A   1      36.187  33.544  33.293  1.00  0.00    -0.014 A 
BRANCH  44  45
ATOM     45  C   UNL A   1      37.414  32.808  33.685  1.00  0.00     0.031 A 
ATOM     46  C   UNL A   1      38.096  33.159  34.986  1.00  0.00     0.074 A 
ATOM     47  C   UNL A   1      37.961  31.903  32.848  1.00  0.00     0.049 A 
ATOM     48  N   UNL A   1      39.238  32.738  35.461  1.00  0.00    -0.248 NA
ATOM     49  C   UNL A   1      37.432  34.161  35.843  1.00  0.00     0.031 C 
ATOM     50  C   UNL A   1      37.440  31.538  31.527  1.00  0.00     0.029 A 
ATOM     51  N   UNL A   1      39.087  31.130  32.979  1.00  0.00    -0.354 N 
ATOM     52  C   UNL A   1      39.446  33.454  36.636  1.00  0.00     0.074 A 
ATOM     53  C   UNL A   1      38.349  34.382  36.772  1.00  0.00     0.031 C 
ATOM     54  C   UNL A   1      38.225  30.589  30.988  1.00  0.00     0.029 A 
ATOM     55  C   UNL A   1      39.324  30.305  31.904  1.00  0.00     0.049 A 
ATOM     56  H   UNL A   1      39.672  31.163  33.770  1.00  0.00     0.167 HD
ATOM     57  C   UNL A   1      40.442  33.324  37.540  1.00  0.00     0.037 A 
ATOM     58  C   UNL A   1      40.315  29.420  31.688  1.00  0.00     0.037 A 
ATOM     59  C   UNL A   1      41.476  32.330  37.444  1.00  0.00     0.049 A 
ATOM     60  C   UNL A   1      41.367  29.238  32.752  1.00  0.00     0.074 A 
ATOM     61  C   UNL A   1      42.471  32.035  38.358  1.00  0.00     0.029 A 
ATOM     62  N   UNL A   1      41.632  31.456  36.380  1.00  0.00    -0.354 N 
ATOM     63  N   UNL A   1      41.499  29.866  33.897  1.00  0.00    -0.248 NA
ATOM     64  C   UNL A   1      42.393  28.216  32.505  1.00  0.00     0.031 C 
ATOM     65  C   UNL A   1      43.252  31.004  37.829  1.00  0.00     0.029 A 
ATOM     66  C   UNL A   1      42.713  30.626  36.610  1.00  0.00     0.049 A 
ATOM     67  H   UNL A   1      41.059  31.430  35.579  1.00  0.00     0.167 HD
ATOM     68  C   UNL A   1      42.597  29.286  34.523  1.00  0.00     0.074 A 
ATOM     69  C   UNL A   1      43.086  28.253  33.635  1.00  0.00     0.031 C 
ATOM     70  C   UNL A   1      43.154  29.581  35.724  1.00  0.00     0.037 A 
BRANCH  57  71
ATOM     71  C   UNL A   1      40.449  34.244  38.728  1.00  0.00     0.058 A 
ATOM     72  C   UNL A   1      41.139  35.467  38.714  1.00  0.00     0.135 A 
ATOM     73  C   UNL A   1      39.699  33.928  39.873  1.00  0.00     0.135 A 
ATOM     74  F   UNL A   1      41.891  35.808  37.656  1.00  0.00    -0.206 F 
ATOM     75  C   UNL A   1      41.093  36.340  39.795  1.00  0.00     0.059 A 
ATOM     76  C   UNL A   1      39.616  34.801  40.954  1.00  0.00     0.059 A 
ATOM     77  F   UNL A   1      39.029  32.768  39.944  1.00  0.00    -0.206 F 
ATOM     78  C   UNL A   1      40.321  36.002  40.908  1.00  0.00     0.060 A 
BRANCH  78  79
ATOM     79  S   UNL A   1      40.227  37.174  42.277  1.00  0.00     0.124 S 
ATOM     80  O   UNL A   1      41.640  37.372  42.588  1.00  0.00    -0.237 OA
ATOM     81  O   UNL A   1      39.547  38.312  41.666  1.00  0.00    -0.237 OA
ATOM     82  O   UNL A   1      39.456  36.456  43.287  1.00  0.00    -0.744 OA
ENDBRANCH  78  79
ENDBRANCH  57  71
BRANCH  58  83
ATOM     83  C   UNL A   1      40.357  28.611  30.438  1.00  0.00     0.058 A 
ATOM     84  C   UNL A   1      39.564  27.461  30.297  1.00  0.00     0.135 A 
ATOM     85  C   UNL A   1      41.215  28.944  29.379  1.00  0.00     0.135 A 
ATOM     86  F   UNL A   1      38.726  27.101  31.280  1.00  0.00    -0.206 F 
ATOM     87  C   UNL A   1      39.655  26.643  29.175  1.00  0.00     0.059 A 
ATOM     88  C   UNL A   1      41.302  28.158  28.232  1.00  0.00     0.059 A 
ATOM     89  F   UNL A   1      41.976  30.047  29.449  1.00  0.00    -0.206 F 
ATOM     90  C   UNL A   1      40.535  26.996  28.151  1.00  0.00     0.060 A 
BRANCH  90  91
ATOM     91  S   UNL A   1      40.656  25.925  26.702  1.00  0.00     0.124 S 
ATOM     92  O   UNL A   1      40.990  26.884  25.656  1.00  0.00    -0.237 OA
ATOM     93  O   UNL A   1      41.722  25.003  27.088  1.00  0.00    -0.237 OA
ATOM     94  O   UNL A   1      39.326  25.330  26.614  1.00  0.00    -0.744 OA
ENDBRANCH  90  91
ENDBRANCH  58  83
BRANCH  70  95
ATOM     95  C   UNL A   1      44.305  28.729  36.179  1.00  0.00     0.058 A 
ATOM     96  C   UNL A   1      44.107  27.514  36.851  1.00  0.00     0.135 A 
ATOM     97  C   UNL A   1      45.623  29.116  35.891  1.00  0.00     0.135 A 
ATOM     98  F   UNL A   1      42.865  27.101  37.150  1.00  0.00    -0.206 F 
ATOM     99  C   UNL A   1      45.180  26.727  37.254  1.00  0.00     0.059 A 
ATOM    100  C   UNL A   1      46.709  28.331  36.256  1.00  0.00     0.059 A 
ATOM    101  F   UNL A   1      45.864  30.263  35.233  1.00  0.00    -0.206 F 
ATOM    102  C   UNL A   1      46.477  27.145  36.952  1.00  0.00     0.060 A 
BRANCH 102 103
ATOM    103  S   UNL A   1      47.863  26.107  37.462  1.00  0.00     0.124 S 
ATOM    104  O   UNL A   1      48.981  27.038  37.349  1.00  0.00    -0.237 OA
ATOM    105  O   UNL A   1      47.488  25.728  38.821  1.00  0.00    -0.237 OA
ATOM    106  O   UNL A   1      47.849  25.020  36.489  1.00  0.00    -0.744 OA
ENDBRANCH 102 103
ENDBRANCH  70  95
ENDBRANCH  44  45
ENDBRANCH  36  39
ENDBRANCH  34  35
ENDBRANCH  33  34
ENDBRANCH  32  33
ENDBRANCH   3  32
TORSDOF 19
ENDMDL
