MODEL 1
REMARK VINA RESULT:     -11.6      0.000      0.000
REMARK SMILES Cc1cc(Oc2ccnc(C(=O)NCCCNC(=O)c3ccc(-c4c5nc(c(-c6c(F)cc(S(=O)(=O)[O-])cc6F)c6ccc([nH]6)c(-c6c(F)cc(S(=O)(=O)[O-])cc6F)c6nc(c(-c7c(F)cc(S(=O)(=O)[O-])cc7F)c7ccc4[nH]7)C=C6)C=C5)cc3)c2)cc(C)c1Cl
REMARK SMILES IDX 15 1 14 2 13 3 11 4 12 5 10 7 6 8 7 9 86 10 8 11 9 12 5 13
REMARK SMILES IDX 4 14 1 15 2 16 3 17 90 18 88 19 91 20 87 21 89 22 16 23
REMARK SMILES IDX 17 24 18 25 19 27 20 28 21 29 85 30 22 31 84 32 23 33 24 34
REMARK SMILES IDX 25 35 78 36 26 37 83 38 77 39 79 40 27 41 82 42 76 43 75 44
REMARK SMILES IDX 28 46 62 47 41 48 61 49 42 50 45 51 60 52 80 53 43 54 44 55
REMARK SMILES IDX 59 57 81 58 46 59 29 60 30 61 39 62 31 63 32 64 38 65 40 66
REMARK SMILES IDX 33 67 34 68 35 69 36 70 37 71 63 72 64 73 73 74 65 75 66 76
REMARK SMILES IDX 72 77 74 78 67 79 68 80 69 81 70 82 71 83 47 84 48 85 57 86
REMARK SMILES IDX 49 87 50 88 56 89 58 90 51 91 52 92 53 93 54 94 55 95
REMARK H PARENT 13 6 17 26 79 45 45 56
REMARK Flexibility Score: inf
ROOT
ATOM      1  C   UNL A   1      40.810  21.156  27.536  1.00  0.00     0.042 C 
ENDROOT
BRANCH   1   2
ATOM      2  C   UNL A   1      41.996  20.235  27.824  1.00  0.00     0.118 C 
BRANCH   2   3
ATOM      3  N   UNL A   1      41.911  19.014  27.046  1.00  0.00    -0.351 N 
ATOM      4  C   UNL A   1      42.711  18.447  26.080  1.00  0.00     0.270 C 
ATOM      5  O   UNL A   1      42.341  17.351  25.650  1.00  0.00    -0.268 OA
ATOM      6  H   UNL A   1      41.113  18.476  27.255  1.00  0.00     0.163 HD
BRANCH   4   7
ATOM      7  C   UNL A   1      43.989  19.055  25.570  1.00  0.00     0.131 A 
ATOM      8  C   UNL A   1      45.361  20.798  24.705  1.00  0.00     0.131 A 
ATOM      9  C   UNL A   1      46.475  19.976  24.800  1.00  0.00     0.067 A 
ATOM     10  C   UNL A   1      44.097  20.339  25.067  1.00  0.00     0.081 A 
ATOM     11  C   UNL A   1      46.269  18.688  25.242  1.00  0.00     0.116 A 
ATOM     12  N   UNL A   1      45.068  18.221  25.637  1.00  0.00    -0.251 NA
BRANCH   8  13
ATOM     13  O   UNL A   1      45.502  22.120  24.371  1.00  0.00    -0.457 OA
BRANCH  13  14
ATOM     14  C   UNL A   1      45.888  23.013  25.345  1.00  0.00     0.128 A 
ATOM     15  C   UNL A   1      48.239  25.903  26.078  1.00  0.00     0.046 C 
ATOM     16  C   UNL A   1      47.181  24.851  26.275  1.00  0.00    -0.028 A 
ATOM     17  C   UNL A   1      46.846  24.016  25.196  1.00  0.00     0.052 A 
ATOM     18  C   UNL A   1      46.525  24.674  27.510  1.00  0.00     0.047 A 
ATOM     19  C   UNL A   1      45.536  23.686  27.662  1.00  0.00    -0.028 A 
ATOM     20  Cl  UNL A   1      46.957  25.674  28.861  1.00  0.00    -0.084 Cl
ATOM     21  C   UNL A   1      45.238  22.856  26.571  1.00  0.00     0.052 A 
ATOM     22  C   UNL A   1      44.796  23.486  28.956  1.00  0.00     0.046 C 
ENDBRANCH  13  14
ENDBRANCH   8  13
ENDBRANCH   4   7
ENDBRANCH   2   3
ENDBRANCH   1   2
BRANCH   1  23
ATOM     23  C   UNL A   1      40.960  21.943  26.232  1.00  0.00     0.118 C 
BRANCH  23  24
ATOM     24  N   UNL A   1      39.667  22.304  25.667  1.00  0.00    -0.352 N 
ATOM     25  C   UNL A   1      38.825  23.345  25.970  1.00  0.00     0.251 C 
ATOM     26  H   UNL A   1      39.346  21.706  24.954  1.00  0.00     0.163 HD
ATOM     27  O   UNL A   1      37.670  23.319  25.552  1.00  0.00    -0.269 OA
BRANCH  25  28
ATOM     28  C   UNL A   1      39.291  24.487  26.787  1.00  0.00     0.039 A 
ATOM     29  C   UNL A   1      40.122  25.444  26.195  1.00  0.00     0.014 A 
ATOM     30  C   UNL A   1      38.967  24.589  28.142  1.00  0.00     0.014 A 
ATOM     31  C   UNL A   1      40.585  26.527  26.947  1.00  0.00     0.010 A 
ATOM     32  C   UNL A   1      39.376  25.703  28.874  1.00  0.00     0.010 A 
ATOM     33  C   UNL A   1      40.193  26.680  28.287  1.00  0.00    -0.014 A 
BRANCH  33  34
ATOM     34  C   UNL A   1      40.623  27.856  29.087  1.00  0.00     0.031 A 
ATOM     35  C   UNL A   1      41.937  27.832  29.823  1.00  0.00     0.074 A 
ATOM     36  C   UNL A   1      39.796  28.913  29.209  1.00  0.00     0.049 A 
ATOM     37  N   UNL A   1      42.439  28.717  30.644  1.00  0.00    -0.248 NA
ATOM     38  C   UNL A   1      42.786  26.645  29.630  1.00  0.00     0.031 C 
ATOM     39  C   UNL A   1      38.476  29.031  28.585  1.00  0.00     0.029 A 
ATOM     40  N   UNL A   1      39.933  30.082  29.915  1.00  0.00    -0.354 N 
ATOM     41  C   UNL A   1      43.647  28.187  31.083  1.00  0.00     0.074 A 
ATOM     42  C   UNL A   1      43.785  26.885  30.469  1.00  0.00     0.031 C 
ATOM     43  C   UNL A   1      37.931  30.209  28.927  1.00  0.00     0.029 A 
ATOM     44  C   UNL A   1      38.841  30.914  29.823  1.00  0.00     0.049 A 
ATOM     45  H   UNL A   1      40.737  30.305  30.438  1.00  0.00     0.167 HD
ATOM     46  C   UNL A   1      44.565  28.744  31.909  1.00  0.00     0.037 A 
ATOM     47  C   UNL A   1      38.595  32.104  30.405  1.00  0.00     0.037 A 
ATOM     48  C   UNL A   1      44.437  30.057  32.487  1.00  0.00     0.049 A 
ATOM     49  C   UNL A   1      39.640  32.710  31.303  1.00  0.00     0.074 A 
ATOM     50  C   UNL A   1      45.345  30.741  33.278  1.00  0.00     0.029 A 
ATOM     51  N   UNL A   1      43.336  30.886  32.337  1.00  0.00    -0.354 N 
ATOM     52  N   UNL A   1      40.807  32.223  31.652  1.00  0.00    -0.248 NA
ATOM     53  C   UNL A   1      39.341  34.028  31.879  1.00  0.00     0.031 C 
ATOM     54  C   UNL A   1      44.775  31.966  33.639  1.00  0.00     0.029 A 
ATOM     55  C   UNL A   1      43.532  32.065  33.035  1.00  0.00     0.049 A 
ATOM     56  H   UNL A   1      42.532  30.667  31.811  1.00  0.00     0.167 HD
ATOM     57  C   UNL A   1      41.391  33.185  32.468  1.00  0.00     0.074 A 
ATOM     58  C   UNL A   1      40.455  34.288  32.548  1.00  0.00     0.031 C 
ATOM     59  C   UNL A   1      42.593  33.158  33.095  1.00  0.00     0.037 A 
BRANCH  46  60
ATOM     60  C   UNL A   1      45.797  27.944  32.234  1.00  0.00     0.058 A 
ATOM     61  C   UNL A   1      45.797  26.965  33.240  1.00  0.00     0.135 A 
ATOM     62  C   UNL A   1      46.977  28.119  31.492  1.00  0.00     0.135 A 
ATOM     63  F   UNL A   1      44.701  26.765  33.989  1.00  0.00    -0.206 F 
ATOM     64  C   UNL A   1      46.927  26.202  33.513  1.00  0.00     0.059 A 
ATOM     65  C   UNL A   1      48.113  27.348  31.731  1.00  0.00     0.059 A 
ATOM     66  F   UNL A   1      47.034  29.042  30.519  1.00  0.00    -0.206 F 
ATOM     67  C   UNL A   1      48.081  26.400  32.752  1.00  0.00     0.060 A 
BRANCH  67  68
ATOM     68  S   UNL A   1      49.532  25.385  33.105  1.00  0.00     0.124 S 
ATOM     69  O   UNL A   1      50.408  26.350  33.760  1.00  0.00    -0.237 OA
ATOM     70  O   UNL A   1      48.982  24.343  33.967  1.00  0.00    -0.237 OA
ATOM     71  O   UNL A   1      49.965  24.939  31.785  1.00  0.00    -0.744 OA
ENDBRANCH  67  68
ENDBRANCH  46  60
BRANCH  47  72
ATOM     72  C   UNL A   1      37.309  32.806  30.149  1.00  0.00     0.058 A 
ATOM     73  C   UNL A   1      36.179  32.553  30.939  1.00  0.00     0.135 A 
ATOM     74  C   UNL A   1      37.186  33.746  29.115  1.00  0.00     0.135 A 
ATOM     75  F   UNL A   1      36.246  31.659  31.939  1.00  0.00    -0.206 F 
ATOM     76  C   UNL A   1      34.964  33.188  30.701  1.00  0.00     0.059 A 
ATOM     77  C   UNL A   1      35.990  34.415  28.872  1.00  0.00     0.059 A 
ATOM     78  F   UNL A   1      38.244  34.039  28.342  1.00  0.00    -0.206 F 
ATOM     79  C   UNL A   1      34.881  34.118  29.663  1.00  0.00     0.060 A 
BRANCH  79  80
ATOM     80  S   UNL A   1      33.310  34.966  29.384  1.00  0.00     0.124 S 
ATOM     81  O   UNL A   1      32.726  34.948  30.720  1.00  0.00    -0.237 OA
ATOM     82  O   UNL A   1      33.748  36.269  28.894  1.00  0.00    -0.237 OA
ATOM     83  O   UNL A   1      32.648  34.124  28.392  1.00  0.00    -0.744 OA
ENDBRANCH  79  80
ENDBRANCH  47  72
BRANCH  59  84
ATOM     84  C   UNL A   1      42.984  34.370  33.893  1.00  0.00     0.058 A 
ATOM     85  C   UNL A   1      42.741  34.455  35.272  1.00  0.00     0.135 A 
ATOM     86  C   UNL A   1      43.661  35.436  33.278  1.00  0.00     0.135 A 
ATOM     87  F   UNL A   1      42.092  33.465  35.906  1.00  0.00    -0.206 F 
ATOM     88  C   UNL A   1      43.137  35.564  36.012  1.00  0.00     0.059 A 
ATOM     89  C   UNL A   1      44.089  36.543  34.003  1.00  0.00     0.059 A 
ATOM     90  F   UNL A   1      43.926  35.400  31.963  1.00  0.00    -0.206 F 
ATOM     91  C   UNL A   1      43.813  36.603  35.368  1.00  0.00     0.060 A 
BRANCH  91  92
ATOM     92  S   UNL A   1      44.354  38.020  36.346  1.00  0.00     0.124 S 
ATOM     93  O   UNL A   1      45.761  37.707  36.564  1.00  0.00    -0.237 OA
ATOM     94  O   UNL A   1      44.086  39.141  35.449  1.00  0.00    -0.237 OA
ATOM     95  O   UNL A   1      43.504  37.959  37.532  1.00  0.00    -0.744 OA
ENDBRANCH  91  92
ENDBRANCH  59  84
ENDBRANCH  33  34
ENDBRANCH  25  28
ENDBRANCH  23  24
ENDBRANCH   1  23
TORSDOF 15
ENDMDL
MODEL 2
REMARK VINA RESULT:     -11.5      4.768     13.126
REMARK SMILES Cc1cc(Oc2ccnc(C(=O)NCCCNC(=O)c3ccc(-c4c5nc(c(-c6c(F)cc(S(=O)(=O)[O-])cc6F)c6ccc([nH]6)c(-c6c(F)cc(S(=O)(=O)[O-])cc6F)c6nc(c(-c7c(F)cc(S(=O)(=O)[O-])cc7F)c7ccc4[nH]7)C=C6)C=C5)cc3)c2)cc(C)c1Cl
REMARK SMILES IDX 15 1 14 2 13 3 11 4 12 5 10 7 6 8 7 9 86 10 8 11 9 12 5 13
REMARK SMILES IDX 4 14 1 15 2 16 3 17 90 18 88 19 91 20 87 21 89 22 16 23
REMARK SMILES IDX 17 24 18 25 19 27 20 28 21 29 85 30 22 31 84 32 23 33 24 34
REMARK SMILES IDX 25 35 78 36 26 37 83 38 77 39 79 40 27 41 82 42 76 43 75 44
REMARK SMILES IDX 28 46 62 47 41 48 61 49 42 50 45 51 60 52 80 53 43 54 44 55
REMARK SMILES IDX 59 57 81 58 46 59 29 60 30 61 39 62 31 63 32 64 38 65 40 66
REMARK SMILES IDX 33 67 34 68 35 69 36 70 37 71 63 72 64 73 73 74 65 75 66 76
REMARK SMILES IDX 72 77 74 78 67 79 68 80 69 81 70 82 71 83 47 84 48 85 57 86
REMARK SMILES IDX 49 87 50 88 56 89 58 90 51 91 52 92 53 93 54 94 55 95
REMARK H PARENT 13 6 17 26 79 45 45 56
REMARK Flexibility Score: inf
ROOT
ATOM      1  C   UNL A   1      35.243  33.560  28.065  1.00  0.00     0.042 C 
ENDROOT
BRANCH   1   2
ATOM      2  C   UNL A   1      33.768  33.494  28.466  1.00  0.00     0.118 C 
BRANCH   2   3
ATOM      3  N   UNL A   1      33.121  34.781  28.292  1.00  0.00    -0.351 N 
ATOM      4  C   UNL A   1      32.901  35.853  29.127  1.00  0.00     0.270 C 
ATOM      5  O   UNL A   1      32.335  36.824  28.619  1.00  0.00    -0.268 OA
ATOM      6  H   UNL A   1      32.764  34.916  27.384  1.00  0.00     0.163 HD
BRANCH   4   7
ATOM      7  C   UNL A   1      33.339  35.914  30.566  1.00  0.00     0.131 A 
ATOM      8  C   UNL A   1      34.464  35.146  32.518  1.00  0.00     0.131 A 
ATOM      9  C   UNL A   1      34.121  36.315  33.183  1.00  0.00     0.067 A 
ATOM     10  C   UNL A   1      34.057  34.919  31.207  1.00  0.00     0.081 A 
ATOM     11  C   UNL A   1      33.342  37.221  32.497  1.00  0.00     0.116 A 
ATOM     12  N   UNL A   1      32.962  37.054  31.214  1.00  0.00    -0.251 NA
BRANCH   8  13
ATOM     13  O   UNL A   1      35.318  34.245  33.099  1.00  0.00    -0.457 OA
BRANCH  13  14
ATOM     14  C   UNL A   1      36.651  34.277  32.755  1.00  0.00     0.128 A 
ATOM     15  C   UNL A   1      39.066  33.875  29.854  1.00  0.00     0.046 C 
ATOM     16  C   UNL A   1      38.552  34.111  31.248  1.00  0.00    -0.028 A 
ATOM     17  C   UNL A   1      37.166  34.087  31.473  1.00  0.00     0.052 A 
ATOM     18  C   UNL A   1      39.421  34.345  32.333  1.00  0.00     0.047 A 
ATOM     19  C   UNL A   1      38.911  34.568  33.625  1.00  0.00    -0.028 A 
ATOM     20  Cl  UNL A   1      41.137  34.338  32.076  1.00  0.00    -0.084 Cl
ATOM     21  C   UNL A   1      37.522  34.519  33.820  1.00  0.00     0.052 A 
ATOM     22  C   UNL A   1      39.804  34.848  34.802  1.00  0.00     0.046 C 
ENDBRANCH  13  14
ENDBRANCH   8  13
ENDBRANCH   4   7
ENDBRANCH   2   3
ENDBRANCH   1   2
BRANCH   1  23
ATOM     23  C   UNL A   1      35.982  32.236  28.268  1.00  0.00     0.118 C 
BRANCH  23  24
ATOM     24  N   UNL A   1      35.727  31.672  29.586  1.00  0.00    -0.352 N 
ATOM     25  C   UNL A   1      36.428  30.733  30.301  1.00  0.00     0.251 C 
ATOM     26  H   UNL A   1      34.922  32.019  30.036  1.00  0.00     0.163 HD
ATOM     27  O   UNL A   1      35.900  30.213  31.281  1.00  0.00    -0.269 OA
BRANCH  25  28
ATOM     28  C   UNL A   1      37.800  30.346  29.907  1.00  0.00     0.039 A 
ATOM     29  C   UNL A   1      38.798  30.313  30.887  1.00  0.00     0.014 A 
ATOM     30  C   UNL A   1      38.124  30.077  28.575  1.00  0.00     0.014 A 
ATOM     31  C   UNL A   1      40.106  29.962  30.539  1.00  0.00     0.010 A 
ATOM     32  C   UNL A   1      39.413  29.664  28.241  1.00  0.00     0.010 A 
ATOM     33  C   UNL A   1      40.418  29.608  29.218  1.00  0.00    -0.014 A 
BRANCH  33  34
ATOM     34  C   UNL A   1      41.787  29.172  28.838  1.00  0.00     0.031 A 
ATOM     35  C   UNL A   1      42.907  30.175  28.759  1.00  0.00     0.074 A 
ATOM     36  C   UNL A   1      42.002  27.886  28.495  1.00  0.00     0.049 A 
ATOM     37  N   UNL A   1      44.140  30.006  28.358  1.00  0.00    -0.248 NA
ATOM     38  C   UNL A   1      42.593  31.557  29.160  1.00  0.00     0.031 C 
ATOM     39  C   UNL A   1      40.985  26.832  28.483  1.00  0.00     0.029 A 
ATOM     40  N   UNL A   1      43.141  27.250  28.069  1.00  0.00    -0.354 N 
ATOM     41  C   UNL A   1      44.741  31.257  28.434  1.00  0.00     0.074 A 
ATOM     42  C   UNL A   1      43.727  32.185  28.882  1.00  0.00     0.031 C 
ATOM     43  C   UNL A   1      41.547  25.681  28.083  1.00  0.00     0.029 A 
ATOM     44  C   UNL A   1      42.952  25.920  27.773  1.00  0.00     0.049 A 
ATOM     45  H   UNL A   1      44.011  27.702  27.986  1.00  0.00     0.167 HD
ATOM     46  C   UNL A   1      46.026  31.596  28.171  1.00  0.00     0.037 A 
ATOM     47  C   UNL A   1      43.811  25.000  27.291  1.00  0.00     0.037 A 
ATOM     48  C   UNL A   1      47.039  30.658  27.761  1.00  0.00     0.049 A 
ATOM     49  C   UNL A   1      45.238  25.398  27.027  1.00  0.00     0.074 A 
ATOM     50  C   UNL A   1      48.386  30.888  27.540  1.00  0.00     0.029 A 
ATOM     51  N   UNL A   1      46.819  29.312  27.511  1.00  0.00    -0.354 N 
ATOM     52  N   UNL A   1      45.805  26.572  27.170  1.00  0.00    -0.248 NA
ATOM     53  C   UNL A   1      46.145  24.347  26.543  1.00  0.00     0.031 C 
ATOM     54  C   UNL A   1      48.972  29.690  27.118  1.00  0.00     0.029 A 
ATOM     55  C   UNL A   1      48.000  28.703  27.120  1.00  0.00     0.049 A 
ATOM     56  H   UNL A   1      45.950  28.856  27.598  1.00  0.00     0.167 HD
ATOM     57  C   UNL A   1      47.138  26.396  26.818  1.00  0.00     0.074 A 
ATOM     58  C   UNL A   1      47.296  24.999  26.470  1.00  0.00     0.031 C 
ATOM     59  C   UNL A   1      48.141  27.308  26.787  1.00  0.00     0.037 A 
BRANCH  46  60
ATOM     60  C   UNL A   1      46.419  33.039  28.327  1.00  0.00     0.058 A 
ATOM     61  C   UNL A   1      46.328  33.948  27.261  1.00  0.00     0.135 A 
ATOM     62  C   UNL A   1      46.839  33.535  29.574  1.00  0.00     0.135 A 
ATOM     63  F   UNL A   1      45.946  33.527  26.045  1.00  0.00    -0.206 F 
ATOM     64  C   UNL A   1      46.658  35.290  27.418  1.00  0.00     0.059 A 
ATOM     65  C   UNL A   1      47.149  34.880  29.760  1.00  0.00     0.059 A 
ATOM     66  F   UNL A   1      46.945  32.710  30.627  1.00  0.00    -0.206 F 
ATOM     67  C   UNL A   1      47.066  35.747  28.673  1.00  0.00     0.060 A 
BRANCH  67  68
ATOM     68  S   UNL A   1      47.469  37.497  28.864  1.00  0.00     0.124 S 
ATOM     69  O   UNL A   1      46.144  38.106  28.824  1.00  0.00    -0.237 OA
ATOM     70  O   UNL A   1      48.139  37.524  30.160  1.00  0.00    -0.237 OA
ATOM     71  O   UNL A   1      48.324  37.777  27.714  1.00  0.00    -0.744 OA
ENDBRANCH  67  68
ENDBRANCH  46  60
BRANCH  47  72
ATOM     72  C   UNL A   1      43.348  23.609  27.039  1.00  0.00     0.058 A 
ATOM     73  C   UNL A   1      43.061  23.169  25.738  1.00  0.00     0.135 A 
ATOM     74  C   UNL A   1      43.186  22.693  28.089  1.00  0.00     0.135 A 
ATOM     75  F   UNL A   1      43.197  24.010  24.700  1.00  0.00    -0.206 F 
ATOM     76  C   UNL A   1      42.610  21.877  25.488  1.00  0.00     0.059 A 
ATOM     77  C   UNL A   1      42.761  21.387  27.862  1.00  0.00     0.059 A 
ATOM     78  F   UNL A   1      43.466  23.059  29.350  1.00  0.00    -0.206 F 
ATOM     79  C   UNL A   1      42.463  20.993  26.558  1.00  0.00     0.060 A 
BRANCH  79  80
ATOM     80  S   UNL A   1      41.912  19.307  26.221  1.00  0.00     0.124 S 
ATOM     81  O   UNL A   1      42.319  18.616  27.438  1.00  0.00    -0.237 OA
ATOM     82  O   UNL A   1      40.475  19.485  26.037  1.00  0.00    -0.237 OA
ATOM     83  O   UNL A   1      42.649  18.950  25.012  1.00  0.00    -0.744 OA
ENDBRANCH  79  80
ENDBRANCH  47  72
BRANCH  59  84
ATOM     84  C   UNL A   1      49.508  26.819  26.397  1.00  0.00     0.058 A 
ATOM     85  C   UNL A   1      50.404  26.301  27.345  1.00  0.00     0.135 A 
ATOM     86  C   UNL A   1      49.902  26.816  25.049  1.00  0.00     0.135 A 
ATOM     87  F   UNL A   1      50.077  26.287  28.647  1.00  0.00    -0.206 F 
ATOM     88  C   UNL A   1      51.653  25.817  26.972  1.00  0.00     0.059 A 
ATOM     89  C   UNL A   1      51.136  26.313  24.651  1.00  0.00     0.059 A 
ATOM     90  F   UNL A   1      49.078  27.291  24.102  1.00  0.00    -0.206 F 
ATOM     91  C   UNL A   1      52.010  25.824  25.622  1.00  0.00     0.060 A 
BRANCH  91  92
ATOM     92  S   UNL A   1      53.619  25.159  25.148  1.00  0.00     0.124 S 
ATOM     93  O   UNL A   1      54.459  25.604  26.254  1.00  0.00    -0.237 OA
ATOM     94  O   UNL A   1      53.360  23.724  25.085  1.00  0.00    -0.237 OA
ATOM     95  O   UNL A   1      53.885  25.798  23.861  1.00  0.00    -0.744 OA
ENDBRANCH  91  92
ENDBRANCH  59  84
ENDBRANCH  33  34
ENDBRANCH  25  28
ENDBRANCH  23  24
ENDBRANCH   1  23
TORSDOF 15
ENDMDL
MODEL 3
REMARK VINA RESULT:     -11.4      4.489      7.058
REMARK SMILES Cc1cc(Oc2ccnc(C(=O)NCCCNC(=O)c3ccc(-c4c5nc(c(-c6c(F)cc(S(=O)(=O)[O-])cc6F)c6ccc([nH]6)c(-c6c(F)cc(S(=O)(=O)[O-])cc6F)c6nc(c(-c7c(F)cc(S(=O)(=O)[O-])cc7F)c7ccc4[nH]7)C=C6)C=C5)cc3)c2)cc(C)c1Cl
REMARK SMILES IDX 15 1 14 2 13 3 11 4 12 5 10 7 6 8 7 9 86 10 8 11 9 12 5 13
REMARK SMILES IDX 4 14 1 15 2 16 3 17 90 18 88 19 91 20 87 21 89 22 16 23
REMARK SMILES IDX 17 24 18 25 19 27 20 28 21 29 85 30 22 31 84 32 23 33 24 34
REMARK SMILES IDX 25 35 78 36 26 37 83 38 77 39 79 40 27 41 82 42 76 43 75 44
REMARK SMILES IDX 28 46 62 47 41 48 61 49 42 50 45 51 60 52 80 53 43 54 44 55
REMARK SMILES IDX 59 57 81 58 46 59 29 60 30 61 39 62 31 63 32 64 38 65 40 66
REMARK SMILES IDX 33 67 34 68 35 69 36 70 37 71 63 72 64 73 73 74 65 75 66 76
REMARK SMILES IDX 72 77 74 78 67 79 68 80 69 81 70 82 71 83 47 84 48 85 57 86
REMARK SMILES IDX 49 87 50 88 56 89 58 90 51 91 52 92 53 93 54 94 55 95
REMARK H PARENT 13 6 17 26 79 45 45 56
REMARK Flexibility Score: inf
ROOT
ATOM      1  C   UNL A   1      37.268  23.695  25.414  1.00  0.00     0.042 C 
ENDROOT
BRANCH   1   2
ATOM      2  C   UNL A   1      37.007  22.199  25.592  1.00  0.00     0.118 C 
BRANCH   2   3
ATOM      3  N   UNL A   1      35.984  21.962  26.594  1.00  0.00    -0.351 N 
ATOM      4  C   UNL A   1      34.624  21.764  26.533  1.00  0.00     0.270 C 
ATOM      5  O   UNL A   1      34.061  21.550  27.609  1.00  0.00    -0.268 OA
ATOM      6  H   UNL A   1      36.340  21.937  27.513  1.00  0.00     0.163 HD
BRANCH   4   7
ATOM      7  C   UNL A   1      33.822  21.756  25.259  1.00  0.00     0.131 A 
ATOM      8  C   UNL A   1      33.018  22.648  23.203  1.00  0.00     0.131 A 
ATOM      9  C   UNL A   1      32.377  21.449  22.927  1.00  0.00     0.067 A 
ATOM     10  C   UNL A   1      33.730  22.826  24.386  1.00  0.00     0.081 A 
ATOM     11  C   UNL A   1      32.456  20.459  23.882  1.00  0.00     0.116 A 
ATOM     12  N   UNL A   1      33.169  20.581  25.020  1.00  0.00    -0.251 NA
BRANCH   8  13
ATOM     13  O   UNL A   1      33.067  23.640  22.259  1.00  0.00    -0.457 OA
BRANCH  13  14
ATOM     14  C   UNL A   1      32.540  24.875  22.565  1.00  0.00     0.128 A 
ATOM     15  C   UNL A   1      29.388  26.646  23.723  1.00  0.00     0.046 C 
ATOM     16  C   UNL A   1      30.804  26.428  23.265  1.00  0.00    -0.028 A 
ATOM     17  C   UNL A   1      31.242  25.117  23.014  1.00  0.00     0.052 A 
ATOM     18  C   UNL A   1      31.699  27.500  23.071  1.00  0.00     0.047 A 
ATOM     19  C   UNL A   1      33.019  27.264  22.647  1.00  0.00    -0.028 A 
ATOM     20  Cl  UNL A   1      31.160  29.127  23.339  1.00  0.00    -0.084 Cl
ATOM     21  C   UNL A   1      33.420  25.945  22.388  1.00  0.00     0.052 A 
ATOM     22  C   UNL A   1      34.011  28.379  22.455  1.00  0.00     0.046 C 
ENDBRANCH  13  14
ENDBRANCH   8  13
ENDBRANCH   4   7
ENDBRANCH   2   3
ENDBRANCH   1   2
BRANCH   1  23
ATOM     23  C   UNL A   1      38.201  24.275  26.479  1.00  0.00     0.118 C 
BRANCH  23  24
ATOM     24  N   UNL A   1      39.602  24.080  26.133  1.00  0.00    -0.352 N 
ATOM     25  C   UNL A   1      40.714  24.802  26.489  1.00  0.00     0.251 C 
ATOM     26  H   UNL A   1      39.781  23.306  25.550  1.00  0.00     0.163 HD
ATOM     27  O   UNL A   1      41.766  24.617  25.881  1.00  0.00    -0.269 OA
BRANCH  25  28
ATOM     28  C   UNL A   1      40.659  25.791  27.588  1.00  0.00     0.039 A 
ATOM     29  C   UNL A   1      41.629  26.798  27.638  1.00  0.00     0.014 A 
ATOM     30  C   UNL A   1      39.700  25.698  28.599  1.00  0.00     0.014 A 
ATOM     31  C   UNL A   1      41.606  27.737  28.672  1.00  0.00     0.010 A 
ATOM     32  C   UNL A   1      39.639  26.673  29.594  1.00  0.00     0.010 A 
ATOM     33  C   UNL A   1      40.594  27.700  29.644  1.00  0.00    -0.014 A 
BRANCH  33  34
ATOM     34  C   UNL A   1      40.515  28.725  30.716  1.00  0.00     0.031 A 
ATOM     35  C   UNL A   1      41.383  28.610  31.941  1.00  0.00     0.074 A 
ATOM     36  C   UNL A   1      39.608  29.718  30.618  1.00  0.00     0.049 A 
ATOM     37  N   UNL A   1      41.390  29.348  33.020  1.00  0.00    -0.248 NA
ATOM     38  C   UNL A   1      42.353  27.503  31.967  1.00  0.00     0.031 C 
ATOM     39  C   UNL A   1      38.677  29.906  29.503  1.00  0.00     0.029 A 
ATOM     40  N   UNL A   1      39.307  30.745  31.476  1.00  0.00    -0.354 N 
ATOM     41  C   UNL A   1      42.343  28.785  33.861  1.00  0.00     0.074 A 
ATOM     42  C   UNL A   1      42.866  27.619  33.184  1.00  0.00     0.031 C 
ATOM     43  C   UNL A   1      37.917  30.987  29.741  1.00  0.00     0.029 A 
ATOM     44  C   UNL A   1      38.278  31.547  31.039  1.00  0.00     0.049 A 
ATOM     45  H   UNL A   1      39.782  30.895  32.325  1.00  0.00     0.167 HD
ATOM     46  C   UNL A   1      42.757  29.212  35.078  1.00  0.00     0.037 A 
ATOM     47  C   UNL A   1      37.683  32.605  31.623  1.00  0.00     0.037 A 
ATOM     48  C   UNL A   1      42.256  30.396  35.729  1.00  0.00     0.049 A 
ATOM     49  C   UNL A   1      38.174  33.072  32.967  1.00  0.00     0.074 A 
ATOM     50  C   UNL A   1      42.662  30.954  36.929  1.00  0.00     0.029 A 
ATOM     51  N   UNL A   1      41.244  31.205  35.235  1.00  0.00    -0.354 N 
ATOM     52  N   UNL A   1      39.124  32.565  33.716  1.00  0.00    -0.248 NA
ATOM     53  C   UNL A   1      37.521  34.256  33.541  1.00  0.00     0.031 C 
ATOM     54  C   UNL A   1      41.867  32.077  37.180  1.00  0.00     0.029 A 
ATOM     55  C   UNL A   1      40.998  32.246  36.114  1.00  0.00     0.049 A 
ATOM     56  H   UNL A   1      40.770  31.060  34.384  1.00  0.00     0.167 HD
ATOM     57  C   UNL A   1      39.199  33.383  34.838  1.00  0.00     0.074 A 
ATOM     58  C   UNL A   1      38.209  34.425  34.662  1.00  0.00     0.031 C 
ATOM     59  C   UNL A   1      40.014  33.281  35.917  1.00  0.00     0.037 A 
BRANCH  46  60
ATOM     60  C   UNL A   1      43.808  28.405  35.788  1.00  0.00     0.058 A 
ATOM     61  C   UNL A   1      43.471  27.373  36.678  1.00  0.00     0.135 A 
ATOM     62  C   UNL A   1      45.172  28.627  35.532  1.00  0.00     0.135 A 
ATOM     63  F   UNL A   1      42.184  27.126  36.969  1.00  0.00    -0.206 F 
ATOM     64  C   UNL A   1      44.446  26.604  37.305  1.00  0.00     0.059 A 
ATOM     65  C   UNL A   1      46.165  27.853  36.129  1.00  0.00     0.059 A 
ATOM     66  F   UNL A   1      45.552  29.602  34.691  1.00  0.00    -0.206 F 
ATOM     67  C   UNL A   1      45.791  26.851  37.022  1.00  0.00     0.060 A 
BRANCH  67  68
ATOM     68  S   UNL A   1      47.042  25.829  37.828  1.00  0.00     0.124 S 
ATOM     69  O   UNL A   1      46.353  25.439  39.054  1.00  0.00    -0.237 OA
ATOM     70  O   UNL A   1      47.251  24.763  36.853  1.00  0.00    -0.237 OA
ATOM     71  O   UNL A   1      48.167  26.743  38.004  1.00  0.00    -0.744 OA
ENDBRANCH  67  68
ENDBRANCH  46  60
BRANCH  47  72
ATOM     72  C   UNL A   1      36.563  33.303  30.936  1.00  0.00     0.058 A 
ATOM     73  C   UNL A   1      35.249  33.205  31.416  1.00  0.00     0.135 A 
ATOM     74  C   UNL A   1      36.784  34.084  29.792  1.00  0.00     0.135 A 
ATOM     75  F   UNL A   1      34.986  32.467  32.506  1.00  0.00    -0.206 F 
ATOM     76  C   UNL A   1      34.189  33.837  30.774  1.00  0.00     0.059 A 
ATOM     77  C   UNL A   1      35.745  34.747  29.146  1.00  0.00     0.059 A 
ATOM     78  F   UNL A   1      38.027  34.226  29.304  1.00  0.00    -0.206 F 
ATOM     79  C   UNL A   1      34.448  34.606  29.638  1.00  0.00     0.060 A 
BRANCH  79  80
ATOM     80  S   UNL A   1      33.071  35.453  28.833  1.00  0.00     0.124 S 
ATOM     81  O   UNL A   1      32.536  34.398  27.981  1.00  0.00    -0.237 OA
ATOM     82  O   UNL A   1      32.242  35.841  29.969  1.00  0.00    -0.237 OA
ATOM     83  O   UNL A   1      33.721  36.560  28.136  1.00  0.00    -0.744 OA
ENDBRANCH  79  80
ENDBRANCH  47  72
BRANCH  59  84
ATOM     84  C   UNL A   1      39.897  34.342  36.975  1.00  0.00     0.058 A 
ATOM     85  C   UNL A   1      40.613  35.546  36.895  1.00  0.00     0.135 A 
ATOM     86  C   UNL A   1      39.011  34.174  38.052  1.00  0.00     0.135 A 
ATOM     87  F   UNL A   1      41.477  35.752  35.889  1.00  0.00    -0.206 F 
ATOM     88  C   UNL A   1      40.473  36.539  37.859  1.00  0.00     0.059 A 
ATOM     89  C   UNL A   1      38.835  35.165  39.013  1.00  0.00     0.059 A 
ATOM     90  F   UNL A   1      38.294  33.046  38.169  1.00  0.00    -0.206 F 
ATOM     91  C   UNL A   1      39.579  36.340  38.913  1.00  0.00     0.060 A 
BRANCH  91  92
ATOM     92  S   UNL A   1      39.378  37.651  40.137  1.00  0.00     0.124 S 
ATOM     93  O   UNL A   1      39.119  36.884  41.350  1.00  0.00    -0.237 OA
ATOM     94  O   UNL A   1      40.668  38.333  40.081  1.00  0.00    -0.237 OA
ATOM     95  O   UNL A   1      38.247  38.422  39.627  1.00  0.00    -0.744 OA
ENDBRANCH  91  92
ENDBRANCH  59  84
ENDBRANCH  33  34
ENDBRANCH  25  28
ENDBRANCH  23  24
ENDBRANCH   1  23
TORSDOF 15
ENDMDL
