MODEL 1
REMARK VINA RESULT:     -10.7      0.000      0.000
REMARK SMILES O=C(CCCCCn1cc(Cl)c(I)n1)NCCCNC(=O)c1ccc(-c2c3nc(c(-c4c(F)cc(S(=O)(=O)[O-])cc4F)c4ccc([nH]4)c(-c4c(F)cc(S(=O)(=O)[O-])cc4F)c4nc(c(-c5c(F)cc(S(=O)(=O)[O-])cc5F)c5ccc2[nH]5)C=C4)C=C3)cc1
REMARK SMILES IDX 16 1 15 2 1 3 2 4 3 6 4 7 5 8 6 9 7 10 8 11 9 12 14 13 10 14
REMARK SMILES IDX 12 15 11 16 13 17 17 18 18 19 19 20 20 21 21 23 22 24 23 25
REMARK SMILES IDX 87 26 24 27 86 28 25 29 26 30 27 31 80 32 28 33 85 34 79 35
REMARK SMILES IDX 81 36 29 37 84 38 78 39 77 40 30 42 64 43 43 44 63 45 44 46
REMARK SMILES IDX 47 47 62 48 82 49 45 50 46 51 61 53 83 54 48 55 31 56 32 57
REMARK SMILES IDX 41 58 33 59 34 60 40 61 42 62 35 63 36 64 37 65 38 66 39 67
REMARK SMILES IDX 65 68 66 69 75 70 67 71 68 72 74 73 76 74 69 75 70 76 71 77
REMARK SMILES IDX 72 78 73 79 49 80 50 81 59 82 51 83 52 84 58 85 60 86 53 87
REMARK SMILES IDX 54 88 55 89 56 90 57 91
REMARK H PARENT 15 5 19 22 81 41 47 52
REMARK Flexibility Score: inf
ROOT
ATOM      1  C   UNL A   1      43.518  19.409  25.673  1.00  0.00     0.117 C 
ENDROOT
BRANCH   1   2
ATOM      2  N   UNL A   1      43.724  20.697  25.027  1.00  0.00    -0.356 N 
ATOM      3  O   UNL A   1      45.990  20.797  25.387  1.00  0.00    -0.275 OA
ATOM      4  C   UNL A   1      44.976  21.252  24.867  1.00  0.00     0.219 C 
ATOM      5  H   UNL A   1      42.940  21.189  24.693  1.00  0.00     0.163 HD
BRANCH   4   6
ATOM      6  C   UNL A   1      45.015  22.478  23.967  1.00  0.00     0.100 C 
BRANCH   6   7
ATOM      7  C   UNL A   1      45.377  23.761  24.722  1.00  0.00     0.010 C 
BRANCH   7   8
ATOM      8  C   UNL A   1      44.329  24.270  25.719  1.00  0.00     0.002 C 
BRANCH   8   9
ATOM      9  C   UNL A   1      44.890  24.870  27.016  1.00  0.00     0.024 C 
BRANCH   9  10
ATOM     10  C   UNL A   1      46.006  24.044  27.665  1.00  0.00     0.144 C 
BRANCH  10  11
ATOM     11  N   UNL A   1      47.215  24.819  27.882  1.00  0.00    -0.270 N 
ATOM     12  C   UNL A   1      47.330  25.952  28.637  1.00  0.00     0.130 A 
ATOM     13  N   UNL A   1      48.330  24.522  27.186  1.00  0.00    -0.165 NA
ATOM     14  C   UNL A   1      48.596  26.436  28.406  1.00  0.00     0.092 A 
ATOM     15  C   UNL A   1      49.177  25.500  27.526  1.00  0.00     0.141 A 
ATOM     16  Cl  UNL A   1      49.260  27.864  29.030  1.00  0.00    -0.080 Cl
ATOM     17  I   UNL A   1      51.069  25.581  26.763  1.00  0.00    -0.018 I 
ENDBRANCH  10  11
ENDBRANCH   9  10
ENDBRANCH   8   9
ENDBRANCH   7   8
ENDBRANCH   6   7
ENDBRANCH   4   6
ENDBRANCH   1   2
BRANCH   1  18
ATOM     18  C   UNL A   1      42.331  19.377  26.638  1.00  0.00     0.042 C 
BRANCH  18  19
ATOM     19  C   UNL A   1      41.740  20.746  26.939  1.00  0.00     0.118 C 
BRANCH  19  20
ATOM     20  N   UNL A   1      40.515  21.064  26.192  1.00  0.00    -0.352 N 
ATOM     21  C   UNL A   1      39.590  22.075  26.444  1.00  0.00     0.251 C 
ATOM     22  H   UNL A   1      40.324  20.489  25.416  1.00  0.00     0.163 HD
ATOM     23  O   UNL A   1      38.459  22.012  25.998  1.00  0.00    -0.269 OA
BRANCH  21  24
ATOM     24  C   UNL A   1      40.017  23.232  27.262  1.00  0.00     0.039 A 
ATOM     25  C   UNL A   1      41.291  23.346  27.828  1.00  0.00     0.014 A 
ATOM     26  C   UNL A   1      39.092  24.253  27.419  1.00  0.00     0.014 A 
ATOM     27  C   UNL A   1      41.634  24.539  28.473  1.00  0.00     0.010 A 
ATOM     28  C   UNL A   1      39.513  25.492  27.800  1.00  0.00     0.010 A 
ATOM     29  C   UNL A   1      40.738  25.618  28.435  1.00  0.00    -0.014 A 
BRANCH  29  30
ATOM     30  C   UNL A   1      41.050  26.938  28.975  1.00  0.00     0.031 A 
ATOM     31  C   UNL A   1      42.201  27.600  28.317  1.00  0.00     0.074 A 
ATOM     32  C   UNL A   1      40.203  27.598  29.799  1.00  0.00     0.049 A 
ATOM     33  N   UNL A   1      43.383  27.785  28.803  1.00  0.00    -0.248 NA
ATOM     34  C   UNL A   1      42.086  27.949  26.891  1.00  0.00     0.031 C 
ATOM     35  C   UNL A   1      38.876  27.155  30.267  1.00  0.00     0.029 A 
ATOM     36  N   UNL A   1      40.284  28.857  30.316  1.00  0.00    -0.354 N 
ATOM     37  C   UNL A   1      44.062  28.532  27.845  1.00  0.00     0.074 A 
ATOM     38  C   UNL A   1      43.323  28.377  26.622  1.00  0.00     0.031 C 
ATOM     39  C   UNL A   1      38.199  28.199  30.791  1.00  0.00     0.029 A 
ATOM     40  C   UNL A   1      39.098  29.330  30.873  1.00  0.00     0.049 A 
ATOM     41  H   UNL A   1      41.113  29.388  30.296  1.00  0.00     0.167 HD
ATOM     42  C   UNL A   1      44.969  29.477  28.222  1.00  0.00     0.037 A 
ATOM     43  C   UNL A   1      38.865  30.556  31.404  1.00  0.00     0.037 A 
ATOM     44  C   UNL A   1      45.254  29.366  29.631  1.00  0.00     0.049 A 
ATOM     45  C   UNL A   1      40.181  31.105  31.797  1.00  0.00     0.074 A 
ATOM     46  C   UNL A   1      45.940  28.492  30.447  1.00  0.00     0.029 A 
ATOM     47  N   UNL A   1      44.410  30.096  30.428  1.00  0.00    -0.354 N 
ATOM     48  N   UNL A   1      40.924  30.574  32.730  1.00  0.00    -0.248 NA
ATOM     49  C   UNL A   1      40.869  32.027  30.903  1.00  0.00     0.031 C 
ATOM     50  C   UNL A   1      45.318  28.579  31.727  1.00  0.00     0.029 A 
ATOM     51  C   UNL A   1      44.303  29.533  31.672  1.00  0.00     0.049 A 
ATOM     52  H   UNL A   1      43.943  30.915  30.145  1.00  0.00     0.167 HD
ATOM     53  C   UNL A   1      42.217  30.744  32.277  1.00  0.00     0.074 A 
ATOM     54  C   UNL A   1      42.133  31.785  31.262  1.00  0.00     0.031 C 
ATOM     55  C   UNL A   1      43.172  29.806  32.535  1.00  0.00     0.037 A 
BRANCH  42  56
ATOM     56  C   UNL A   1      45.233  30.779  27.492  1.00  0.00     0.058 A 
ATOM     57  C   UNL A   1      46.528  31.023  26.981  1.00  0.00     0.135 A 
ATOM     58  C   UNL A   1      44.381  31.904  27.537  1.00  0.00     0.135 A 
ATOM     59  F   UNL A   1      47.427  30.030  26.897  1.00  0.00    -0.206 F 
ATOM     60  C   UNL A   1      46.960  32.299  26.612  1.00  0.00     0.059 A 
ATOM     61  C   UNL A   1      44.773  33.172  27.123  1.00  0.00     0.059 A 
ATOM     62  F   UNL A   1      43.159  31.858  28.080  1.00  0.00    -0.206 F 
ATOM     63  C   UNL A   1      46.078  33.370  26.702  1.00  0.00     0.060 A 
BRANCH  63  64
ATOM     64  S   UNL A   1      46.654  35.034  26.322  1.00  0.00     0.124 S 
ATOM     65  O   UNL A   1      47.471  35.331  27.492  1.00  0.00    -0.237 OA
ATOM     66  O   UNL A   1      47.374  34.826  25.070  1.00  0.00    -0.237 OA
ATOM     67  O   UNL A   1      45.415  35.798  26.207  1.00  0.00    -0.744 OA
ENDBRANCH  63  64
ENDBRANCH  42  56
BRANCH  43  68
ATOM     68  C   UNL A   1      37.620  31.363  31.421  1.00  0.00     0.058 A 
ATOM     69  C   UNL A   1      36.804  31.431  32.565  1.00  0.00     0.135 A 
ATOM     70  C   UNL A   1      37.372  32.321  30.419  1.00  0.00     0.135 A 
ATOM     71  F   UNL A   1      36.979  30.559  33.569  1.00  0.00    -0.206 F 
ATOM     72  C   UNL A   1      35.842  32.431  32.736  1.00  0.00     0.059 A 
ATOM     73  C   UNL A   1      36.420  33.329  30.568  1.00  0.00     0.059 A 
ATOM     74  F   UNL A   1      38.119  32.354  29.303  1.00  0.00    -0.206 F 
ATOM     75  C   UNL A   1      35.677  33.395  31.741  1.00  0.00     0.060 A 
BRANCH  75  76
ATOM     76  S   UNL A   1      34.576  34.801  32.045  1.00  0.00     0.124 S 
ATOM     77  O   UNL A   1      33.478  34.173  32.771  1.00  0.00    -0.237 OA
ATOM     78  O   UNL A   1      35.427  35.696  32.823  1.00  0.00    -0.237 OA
ATOM     79  O   UNL A   1      34.250  35.268  30.700  1.00  0.00    -0.744 OA
ENDBRANCH  75  76
ENDBRANCH  43  68
BRANCH  55  80
ATOM     80  C   UNL A   1      42.951  28.907  33.717  1.00  0.00     0.058 A 
ATOM     81  C   UNL A   1      43.230  29.242  35.052  1.00  0.00     0.135 A 
ATOM     82  C   UNL A   1      42.349  27.663  33.477  1.00  0.00     0.135 A 
ATOM     83  F   UNL A   1      43.733  30.441  35.372  1.00  0.00    -0.206 F 
ATOM     84  C   UNL A   1      42.953  28.362  36.100  1.00  0.00     0.059 A 
ATOM     85  C   UNL A   1      42.037  26.783  34.507  1.00  0.00     0.059 A 
ATOM     86  F   UNL A   1      42.017  27.308  32.224  1.00  0.00    -0.206 F 
ATOM     87  C   UNL A   1      42.356  27.134  35.817  1.00  0.00     0.060 A 
BRANCH  87  88
ATOM     88  S   UNL A   1      41.939  26.020  37.175  1.00  0.00     0.124 S 
ATOM     89  O   UNL A   1      42.894  26.420  38.202  1.00  0.00    -0.237 OA
ATOM     90  O   UNL A   1      40.544  26.356  37.441  1.00  0.00    -0.237 OA
ATOM     91  O   UNL A   1      42.153  24.692  36.604  1.00  0.00    -0.744 OA
ENDBRANCH  87  88
ENDBRANCH  55  80
ENDBRANCH  29  30
ENDBRANCH  21  24
ENDBRANCH  19  20
ENDBRANCH  18  19
ENDBRANCH   1  18
TORSDOF 18
ENDMDL
MODEL 2
REMARK VINA RESULT:     -10.5      4.449      6.561
REMARK SMILES O=C(CCCCCn1cc(Cl)c(I)n1)NCCCNC(=O)c1ccc(-c2c3nc(c(-c4c(F)cc(S(=O)(=O)[O-])cc4F)c4ccc([nH]4)c(-c4c(F)cc(S(=O)(=O)[O-])cc4F)c4nc(c(-c5c(F)cc(S(=O)(=O)[O-])cc5F)c5ccc2[nH]5)C=C4)C=C3)cc1
REMARK SMILES IDX 16 1 15 2 1 3 2 4 3 6 4 7 5 8 6 9 7 10 8 11 9 12 14 13 10 14
REMARK SMILES IDX 12 15 11 16 13 17 17 18 18 19 19 20 20 21 21 23 22 24 23 25
REMARK SMILES IDX 87 26 24 27 86 28 25 29 26 30 27 31 80 32 28 33 85 34 79 35
REMARK SMILES IDX 81 36 29 37 84 38 78 39 77 40 30 42 64 43 43 44 63 45 44 46
REMARK SMILES IDX 47 47 62 48 82 49 45 50 46 51 61 53 83 54 48 55 31 56 32 57
REMARK SMILES IDX 41 58 33 59 34 60 40 61 42 62 35 63 36 64 37 65 38 66 39 67
REMARK SMILES IDX 65 68 66 69 75 70 67 71 68 72 74 73 76 74 69 75 70 76 71 77
REMARK SMILES IDX 72 78 73 79 49 80 50 81 59 82 51 83 52 84 58 85 60 86 53 87
REMARK SMILES IDX 54 88 55 89 56 90 57 91
REMARK H PARENT 15 5 19 22 81 41 47 52
REMARK Flexibility Score: inf
ROOT
ATOM      1  C   UNL A   1      40.655  21.260  26.376  1.00  0.00     0.117 C 
ENDROOT
BRANCH   1   2
ATOM      2  N   UNL A   1      39.315  21.369  25.820  1.00  0.00    -0.356 N 
ATOM      3  O   UNL A   1      38.807  23.390  26.786  1.00  0.00    -0.275 OA
ATOM      4  C   UNL A   1      38.523  22.481  26.012  1.00  0.00     0.219 C 
ATOM      5  H   UNL A   1      38.962  20.621  25.288  1.00  0.00     0.163 HD
BRANCH   4   6
ATOM      6  C   UNL A   1      37.259  22.513  25.165  1.00  0.00     0.100 C 
BRANCH   6   7
ATOM      7  C   UNL A   1      36.547  23.868  25.209  1.00  0.00     0.010 C 
BRANCH   7   8
ATOM      8  C   UNL A   1      35.015  23.822  25.136  1.00  0.00     0.002 C 
BRANCH   8   9
ATOM      9  C   UNL A   1      34.314  25.188  25.128  1.00  0.00     0.024 C 
BRANCH   9  10
ATOM     10  C   UNL A   1      33.027  25.233  24.298  1.00  0.00     0.144 C 
BRANCH  10  11
ATOM     11  N   UNL A   1      32.435  26.560  24.266  1.00  0.00    -0.270 N 
ATOM     12  C   UNL A   1      32.713  27.595  25.113  1.00  0.00     0.130 A 
ATOM     13  N   UNL A   1      31.405  26.809  23.433  1.00  0.00    -0.165 NA
ATOM     14  C   UNL A   1      31.795  28.577  24.826  1.00  0.00     0.092 A 
ATOM     15  C   UNL A   1      31.033  28.050  23.764  1.00  0.00     0.141 A 
ATOM     16  Cl  UNL A   1      31.626  30.064  25.622  1.00  0.00    -0.080 Cl
ATOM     17  I   UNL A   1      29.482  28.983  22.819  1.00  0.00    -0.018 I 
ENDBRANCH  10  11
ENDBRANCH   9  10
ENDBRANCH   8   9
ENDBRANCH   7   8
ENDBRANCH   6   7
ENDBRANCH   4   6
ENDBRANCH   1   2
BRANCH   1  18
ATOM     18  C   UNL A   1      41.337  19.917  26.103  1.00  0.00     0.042 C 
BRANCH  18  19
ATOM     19  C   UNL A   1      42.690  19.760  26.780  1.00  0.00     0.118 C 
BRANCH  19  20
ATOM     20  N   UNL A   1      43.818  19.554  25.860  1.00  0.00    -0.352 N 
ATOM     21  C   UNL A   1      44.465  20.498  25.065  1.00  0.00     0.251 C 
ATOM     22  H   UNL A   1      44.158  18.632  25.799  1.00  0.00     0.163 HD
ATOM     23  O   UNL A   1      45.119  20.155  24.097  1.00  0.00    -0.269 OA
BRANCH  21  24
ATOM     24  C   UNL A   1      44.343  21.927  25.428  1.00  0.00     0.039 A 
ATOM     25  C   UNL A   1      43.488  22.818  24.769  1.00  0.00     0.014 A 
ATOM     26  C   UNL A   1      45.100  22.358  26.506  1.00  0.00     0.014 A 
ATOM     27  C   UNL A   1      43.352  24.115  25.276  1.00  0.00     0.010 A 
ATOM     28  C   UNL A   1      44.764  23.513  27.148  1.00  0.00     0.010 A 
ATOM     29  C   UNL A   1      43.985  24.446  26.484  1.00  0.00    -0.014 A 
BRANCH  29  30
ATOM     30  C   UNL A   1      43.811  25.732  27.153  1.00  0.00     0.031 A 
ATOM     31  C   UNL A   1      44.857  26.728  26.825  1.00  0.00     0.074 A 
ATOM     32  C   UNL A   1      42.660  26.064  27.786  1.00  0.00     0.049 A 
ATOM     33  N   UNL A   1      45.813  27.142  27.587  1.00  0.00    -0.248 NA
ATOM     34  C   UNL A   1      44.964  27.198  25.433  1.00  0.00     0.031 C 
ATOM     35  C   UNL A   1      41.431  25.257  27.899  1.00  0.00     0.029 A 
ATOM     36  N   UNL A   1      42.290  27.237  28.374  1.00  0.00    -0.354 N 
ATOM     37  C   UNL A   1      46.459  28.138  26.861  1.00  0.00     0.074 A 
ATOM     38  C   UNL A   1      46.071  27.946  25.490  1.00  0.00     0.031 C 
ATOM     39  C   UNL A   1      40.404  26.034  28.302  1.00  0.00     0.029 A 
ATOM     40  C   UNL A   1      40.929  27.336  28.657  1.00  0.00     0.049 A 
ATOM     41  H   UNL A   1      42.931  27.954  28.581  1.00  0.00     0.167 HD
ATOM     42  C   UNL A   1      46.978  29.228  27.493  1.00  0.00     0.037 A 
ATOM     43  C   UNL A   1      40.269  28.397  29.182  1.00  0.00     0.037 A 
ATOM     44  C   UNL A   1      46.971  29.031  28.922  1.00  0.00     0.049 A 
ATOM     45  C   UNL A   1      41.274  29.206  29.906  1.00  0.00     0.074 A 
ATOM     46  C   UNL A   1      47.671  28.266  29.830  1.00  0.00     0.029 A 
ATOM     47  N   UNL A   1      45.811  29.435  29.533  1.00  0.00    -0.354 N 
ATOM     48  N   UNL A   1      41.911  28.772  30.960  1.00  0.00    -0.248 NA
ATOM     49  C   UNL A   1      41.868  30.365  29.253  1.00  0.00     0.031 C 
ATOM     50  C   UNL A   1      46.787  28.050  30.927  1.00  0.00     0.029 A 
ATOM     51  C   UNL A   1      45.592  28.724  30.683  1.00  0.00     0.049 A 
ATOM     52  H   UNL A   1      45.215  30.140  29.191  1.00  0.00     0.167 HD
ATOM     53  C   UNL A   1      43.179  29.306  30.838  1.00  0.00     0.074 A 
ATOM     54  C   UNL A   1      43.042  30.403  29.890  1.00  0.00     0.031 C 
ATOM     55  C   UNL A   1      44.271  28.609  31.265  1.00  0.00     0.037 A 
BRANCH  42  56
ATOM     56  C   UNL A   1      47.037  30.630  26.919  1.00  0.00     0.058 A 
ATOM     57  C   UNL A   1      48.259  31.337  26.972  1.00  0.00     0.135 A 
ATOM     58  C   UNL A   1      45.902  31.409  26.603  1.00  0.00     0.135 A 
ATOM     59  F   UNL A   1      49.403  30.701  27.270  1.00  0.00    -0.206 F 
ATOM     60  C   UNL A   1      48.333  32.721  26.796  1.00  0.00     0.059 A 
ATOM     61  C   UNL A   1      45.962  32.779  26.370  1.00  0.00     0.059 A 
ATOM     62  F   UNL A   1      44.662  30.907  26.606  1.00  0.00    -0.206 F 
ATOM     63  C   UNL A   1      47.174  33.434  26.510  1.00  0.00     0.060 A 
BRANCH  63  64
ATOM     64  S   UNL A   1      47.242  35.229  26.378  1.00  0.00     0.124 S 
ATOM     65  O   UNL A   1      48.260  35.405  25.349  1.00  0.00    -0.237 OA
ATOM     66  O   UNL A   1      45.874  35.556  25.993  1.00  0.00    -0.237 OA
ATOM     67  O   UNL A   1      47.627  35.648  27.723  1.00  0.00    -0.744 OA
ENDBRANCH  63  64
ENDBRANCH  42  56
BRANCH  43  68
ATOM     68  C   UNL A   1      38.881  28.865  28.946  1.00  0.00     0.058 A 
ATOM     69  C   UNL A   1      37.968  29.022  30.005  1.00  0.00     0.135 A 
ATOM     70  C   UNL A   1      38.522  29.455  27.719  1.00  0.00     0.135 A 
ATOM     71  F   UNL A   1      38.237  28.497  31.209  1.00  0.00    -0.206 F 
ATOM     72  C   UNL A   1      36.798  29.777  29.874  1.00  0.00     0.059 A 
ATOM     73  C   UNL A   1      37.362  30.213  27.565  1.00  0.00     0.059 A 
ATOM     74  F   UNL A   1      39.343  29.384  26.658  1.00  0.00    -0.206 F 
ATOM     75  C   UNL A   1      36.517  30.393  28.655  1.00  0.00     0.060 A 
BRANCH  75  76
ATOM     76  S   UNL A   1      35.111  31.529  28.540  1.00  0.00     0.124 S 
ATOM     77  O   UNL A   1      34.076  30.671  27.975  1.00  0.00    -0.237 OA
ATOM     78  O   UNL A   1      34.922  31.926  29.931  1.00  0.00    -0.237 OA
ATOM     79  O   UNL A   1      35.602  32.583  27.656  1.00  0.00    -0.744 OA
ENDBRANCH  75  76
ENDBRANCH  43  68
BRANCH  55  80
ATOM     80  C   UNL A   1      44.047  27.554  32.310  1.00  0.00     0.058 A 
ATOM     81  C   UNL A   1      44.026  26.170  32.072  1.00  0.00     0.135 A 
ATOM     82  C   UNL A   1      43.927  27.980  33.641  1.00  0.00     0.135 A 
ATOM     83  F   UNL A   1      44.212  25.679  30.839  1.00  0.00    -0.206 F 
ATOM     84  C   UNL A   1      43.856  25.251  33.109  1.00  0.00     0.059 A 
ATOM     85  C   UNL A   1      43.787  27.084  34.694  1.00  0.00     0.059 A 
ATOM     86  F   UNL A   1      43.988  29.290  33.934  1.00  0.00    -0.206 F 
ATOM     87  C   UNL A   1      43.737  25.719  34.418  1.00  0.00     0.060 A 
BRANCH  87  88
ATOM     88  S   UNL A   1      43.580  24.532  35.769  1.00  0.00     0.124 S 
ATOM     89  O   UNL A   1      43.022  25.356  36.836  1.00  0.00    -0.237 OA
ATOM     90  O   UNL A   1      42.682  23.529  35.206  1.00  0.00    -0.237 OA
ATOM     91  O   UNL A   1      44.952  24.077  35.982  1.00  0.00    -0.744 OA
ENDBRANCH  87  88
ENDBRANCH  55  80
ENDBRANCH  29  30
ENDBRANCH  21  24
ENDBRANCH  19  20
ENDBRANCH  18  19
ENDBRANCH   1  18
TORSDOF 18
ENDMDL
MODEL 3
REMARK VINA RESULT:     -10.5      4.239      6.586
REMARK SMILES O=C(CCCCCn1cc(Cl)c(I)n1)NCCCNC(=O)c1ccc(-c2c3nc(c(-c4c(F)cc(S(=O)(=O)[O-])cc4F)c4ccc([nH]4)c(-c4c(F)cc(S(=O)(=O)[O-])cc4F)c4nc(c(-c5c(F)cc(S(=O)(=O)[O-])cc5F)c5ccc2[nH]5)C=C4)C=C3)cc1
REMARK SMILES IDX 16 1 15 2 1 3 2 4 3 6 4 7 5 8 6 9 7 10 8 11 9 12 14 13 10 14
REMARK SMILES IDX 12 15 11 16 13 17 17 18 18 19 19 20 20 21 21 23 22 24 23 25
REMARK SMILES IDX 87 26 24 27 86 28 25 29 26 30 27 31 80 32 28 33 85 34 79 35
REMARK SMILES IDX 81 36 29 37 84 38 78 39 77 40 30 42 64 43 43 44 63 45 44 46
REMARK SMILES IDX 47 47 62 48 82 49 45 50 46 51 61 53 83 54 48 55 31 56 32 57
REMARK SMILES IDX 41 58 33 59 34 60 40 61 42 62 35 63 36 64 37 65 38 66 39 67
REMARK SMILES IDX 65 68 66 69 75 70 67 71 68 72 74 73 76 74 69 75 70 76 71 77
REMARK SMILES IDX 72 78 73 79 49 80 50 81 59 82 51 83 52 84 58 85 60 86 53 87
REMARK SMILES IDX 54 88 55 89 56 90 57 91
REMARK H PARENT 15 5 19 22 81 41 47 52
REMARK Flexibility Score: inf
ROOT
ATOM      1  C   UNL A   1      40.666  20.874  26.332  1.00  0.00     0.117 C 
ENDROOT
BRANCH   1   2
ATOM      2  N   UNL A   1      39.261  20.808  25.959  1.00  0.00    -0.356 N 
ATOM      3  O   UNL A   1      38.819  23.042  26.260  1.00  0.00    -0.275 OA
ATOM      4  C   UNL A   1      38.465  21.931  25.878  1.00  0.00     0.219 C 
ATOM      5  H   UNL A   1      38.866  19.930  25.759  1.00  0.00     0.163 HD
BRANCH   4   6
ATOM      6  C   UNL A   1      37.100  21.695  25.248  1.00  0.00     0.100 C 
BRANCH   6   7
ATOM      7  C   UNL A   1      36.097  22.807  25.568  1.00  0.00     0.010 C 
BRANCH   7   8
ATOM      8  C   UNL A   1      35.345  23.397  24.368  1.00  0.00     0.002 C 
BRANCH   8   9
ATOM      9  C   UNL A   1      33.824  23.185  24.373  1.00  0.00     0.024 C 
BRANCH   9  10
ATOM     10  C   UNL A   1      33.351  22.025  25.256  1.00  0.00     0.144 C 
BRANCH  10  11
ATOM     11  N   UNL A   1      33.323  20.760  24.541  1.00  0.00    -0.270 N 
ATOM     12  C   UNL A   1      32.594  20.475  23.421  1.00  0.00     0.130 A 
ATOM     13  N   UNL A   1      33.947  19.687  25.064  1.00  0.00    -0.165 NA
ATOM     14  C   UNL A   1      32.737  19.124  23.209  1.00  0.00     0.092 A 
ATOM     15  C   UNL A   1      33.604  18.695  24.235  1.00  0.00     0.141 A 
ATOM     16  Cl  UNL A   1      31.990  18.209  21.995  1.00  0.00    -0.080 Cl
ATOM     17  I   UNL A   1      34.264  16.785  24.530  1.00  0.00    -0.018 I 
ENDBRANCH  10  11
ENDBRANCH   9  10
ENDBRANCH   8   9
ENDBRANCH   7   8
ENDBRANCH   6   7
ENDBRANCH   4   6
ENDBRANCH   1   2
BRANCH   1  18
ATOM     18  C   UNL A   1      41.452  19.594  26.033  1.00  0.00     0.042 C 
BRANCH  18  19
ATOM     19  C   UNL A   1      42.827  19.545  26.681  1.00  0.00     0.118 C 
BRANCH  19  20
ATOM     20  N   UNL A   1      43.944  19.371  25.741  1.00  0.00    -0.352 N 
ATOM     21  C   UNL A   1      44.558  20.335  24.944  1.00  0.00     0.251 C 
ATOM     22  H   UNL A   1      44.302  18.457  25.665  1.00  0.00     0.163 HD
ATOM     23  O   UNL A   1      45.203  20.015  23.962  1.00  0.00    -0.269 OA
BRANCH  21  24
ATOM     24  C   UNL A   1      44.412  21.758  25.323  1.00  0.00     0.039 A 
ATOM     25  C   UNL A   1      43.482  22.620  24.732  1.00  0.00     0.014 A 
ATOM     26  C   UNL A   1      45.230  22.213  26.346  1.00  0.00     0.014 A 
ATOM     27  C   UNL A   1      43.338  23.910  25.253  1.00  0.00     0.010 A 
ATOM     28  C   UNL A   1      44.902  23.353  27.015  1.00  0.00     0.010 A 
ATOM     29  C   UNL A   1      44.045  24.260  26.414  1.00  0.00    -0.014 A 
BRANCH  29  30
ATOM     30  C   UNL A   1      43.874  25.537  27.101  1.00  0.00     0.031 A 
ATOM     31  C   UNL A   1      44.940  26.524  26.811  1.00  0.00     0.074 A 
ATOM     32  C   UNL A   1      42.716  25.875  27.716  1.00  0.00     0.049 A 
ATOM     33  N   UNL A   1      45.886  26.912  27.598  1.00  0.00    -0.248 NA
ATOM     34  C   UNL A   1      45.082  27.015  25.429  1.00  0.00     0.031 C 
ATOM     35  C   UNL A   1      41.473  25.084  27.792  1.00  0.00     0.029 A 
ATOM     36  N   UNL A   1      42.349  27.044  28.316  1.00  0.00    -0.354 N 
ATOM     37  C   UNL A   1      46.560  27.911  26.902  1.00  0.00     0.074 A 
ATOM     38  C   UNL A   1      46.197  27.746  25.520  1.00  0.00     0.031 C 
ATOM     39  C   UNL A   1      40.449  25.869  28.187  1.00  0.00     0.029 A 
ATOM     40  C   UNL A   1      40.985  27.157  28.573  1.00  0.00     0.049 A 
ATOM     41  H   UNL A   1      42.996  27.748  28.548  1.00  0.00     0.167 HD
ATOM     42  C   UNL A   1      47.081  28.983  27.562  1.00  0.00     0.037 A 
ATOM     43  C   UNL A   1      40.328  28.218  29.103  1.00  0.00     0.037 A 
ATOM     44  C   UNL A   1      47.042  28.763  28.987  1.00  0.00     0.049 A 
ATOM     45  C   UNL A   1      41.330  29.001  29.860  1.00  0.00     0.074 A 
ATOM     46  C   UNL A   1      47.713  27.974  29.896  1.00  0.00     0.029 A 
ATOM     47  N   UNL A   1      45.876  29.173  29.581  1.00  0.00    -0.354 N 
ATOM     48  N   UNL A   1      41.939  28.541  30.919  1.00  0.00    -0.248 NA
ATOM     49  C   UNL A   1      41.952  30.162  29.238  1.00  0.00     0.031 C 
ATOM     50  C   UNL A   1      46.805  27.752  30.972  1.00  0.00     0.029 A 
ATOM     51  C   UNL A   1      45.624  28.447  30.715  1.00  0.00     0.049 A 
ATOM     52  H   UNL A   1      45.297  29.891  29.239  1.00  0.00     0.167 HD
ATOM     53  C   UNL A   1      43.216  29.060  30.831  1.00  0.00     0.074 A 
ATOM     54  C   UNL A   1      43.114  30.174  29.898  1.00  0.00     0.031 C 
ATOM     55  C   UNL A   1      44.290  28.341  31.268  1.00  0.00     0.037 A 
BRANCH  42  56
ATOM     56  C   UNL A   1      47.170  30.393  27.012  1.00  0.00     0.058 A 
ATOM     57  C   UNL A   1      48.396  31.088  27.116  1.00  0.00     0.135 A 
ATOM     58  C   UNL A   1      46.053  31.188  26.673  1.00  0.00     0.135 A 
ATOM     59  F   UNL A   1      49.524  30.437  27.440  1.00  0.00    -0.206 F 
ATOM     60  C   UNL A   1      48.488  32.473  26.964  1.00  0.00     0.059 A 
ATOM     61  C   UNL A   1      46.133  32.560  26.464  1.00  0.00     0.059 A 
ATOM     62  F   UNL A   1      44.810  30.697  26.628  1.00  0.00    -0.206 F 
ATOM     63  C   UNL A   1      47.345  33.202  26.652  1.00  0.00     0.060 A 
BRANCH  63  64
ATOM     64  S   UNL A   1      47.434  34.998  26.551  1.00  0.00     0.124 S 
ATOM     65  O   UNL A   1      46.039  35.369  26.760  1.00  0.00    -0.237 OA
ATOM     66  O   UNL A   1      48.354  35.317  27.638  1.00  0.00    -0.237 OA
ATOM     67  O   UNL A   1      47.955  35.231  25.207  1.00  0.00    -0.744 OA
ENDBRANCH  63  64
ENDBRANCH  42  56
BRANCH  43  68
ATOM     68  C   UNL A   1      38.952  28.709  28.846  1.00  0.00     0.058 A 
ATOM     69  C   UNL A   1      37.999  28.796  29.878  1.00  0.00     0.135 A 
ATOM     70  C   UNL A   1      38.643  29.386  27.651  1.00  0.00     0.135 A 
ATOM     71  F   UNL A   1      38.219  28.185  31.051  1.00  0.00    -0.206 F 
ATOM     72  C   UNL A   1      36.836  29.564  29.755  1.00  0.00     0.059 A 
ATOM     73  C   UNL A   1      37.491  30.160  27.506  1.00  0.00     0.059 A 
ATOM     74  F   UNL A   1      39.504  29.386  26.621  1.00  0.00    -0.206 F 
ATOM     75  C   UNL A   1      36.605  30.267  28.573  1.00  0.00     0.060 A 
BRANCH  75  76
ATOM     76  S   UNL A   1      35.208  31.416  28.485  1.00  0.00     0.124 S 
ATOM     77  O   UNL A   1      35.734  32.464  27.617  1.00  0.00    -0.237 OA
ATOM     78  O   UNL A   1      34.158  30.580  27.912  1.00  0.00    -0.237 OA
ATOM     79  O   UNL A   1      35.003  31.802  29.878  1.00  0.00    -0.744 OA
ENDBRANCH  75  76
ENDBRANCH  43  68
BRANCH  55  80
ATOM     80  C   UNL A   1      44.031  27.273  32.291  1.00  0.00     0.058 A 
ATOM     81  C   UNL A   1      44.033  25.891  32.037  1.00  0.00     0.135 A 
ATOM     82  C   UNL A   1      43.848  27.683  33.620  1.00  0.00     0.135 A 
ATOM     83  F   UNL A   1      44.278  25.416  30.809  1.00  0.00    -0.206 F 
ATOM     84  C   UNL A   1      43.827  24.959  33.056  1.00  0.00     0.059 A 
ATOM     85  C   UNL A   1      43.670  26.773  34.656  1.00  0.00     0.059 A 
ATOM     86  F   UNL A   1      43.884  28.990  33.929  1.00  0.00    -0.206 F 
ATOM     87  C   UNL A   1      43.646  25.411  34.363  1.00  0.00     0.060 A 
BRANCH  87  88
ATOM     88  S   UNL A   1      43.442  24.208  35.693  1.00  0.00     0.124 S 
ATOM     89  O   UNL A   1      44.369  23.154  35.296  1.00  0.00    -0.237 OA
ATOM     90  O   UNL A   1      43.823  24.975  36.875  1.00  0.00    -0.237 OA
ATOM     91  O   UNL A   1      42.026  23.856  35.619  1.00  0.00    -0.744 OA
ENDBRANCH  87  88
ENDBRANCH  55  80
ENDBRANCH  29  30
ENDBRANCH  21  24
ENDBRANCH  19  20
ENDBRANCH  18  19
ENDBRANCH   1  18
TORSDOF 18
ENDMDL
