MODEL 1
REMARK VINA RESULT:     -13.6      0.000      0.000
REMARK SMILES O=C(NCCCNC(=O)[C@@H]1CCCC[C@H]1C(=O)Nc1ccccc1C(=O)N1CCOCC1)c1ccc(-c2c3nc(c(-c4c(F)cc(S(=O)(=O)[O-])cc4F)c4ccc([nH]4)c(-c4c(F)cc(S(=O)(=O)[O-])cc4F)c4nc(c(-c5c(F)cc(S(=O)(=O)[O-])cc5F)c5ccc2[nH]5)C=C4)C=C3)cc1
REMARK SMILES IDX 5 1 4 2 3 3 1 4 2 5 33 7 34 8 98 9 35 10 97 11 36 12 37 13
REMARK SMILES IDX 38 14 91 15 39 16 96 17 90 18 92 19 40 20 95 21 89 22 88 23
REMARK SMILES IDX 41 25 75 26 54 27 74 28 55 29 58 30 73 31 93 32 56 33 57 34
REMARK SMILES IDX 72 36 94 37 59 38 42 39 43 40 52 41 44 42 45 43 51 44 53 45
REMARK SMILES IDX 46 46 47 47 48 48 49 49 50 50 76 51 77 52 86 53 78 54 79 55
REMARK SMILES IDX 85 56 87 57 80 58 81 59 82 60 83 61 84 62 60 63 61 64 70 65
REMARK SMILES IDX 62 66 63 67 69 68 71 69 64 70 65 71 66 72 67 73 68 74 6 75
REMARK SMILES IDX 7 76 8 77 9 79 10 80 11 81 15 82 12 83 14 84 13 85 16 86
REMARK SMILES IDX 17 87 18 88 19 90 20 91 24 92 21 93 23 94 22 95 25 96 26 97
REMARK SMILES IDX 27 98 28 99 32 100 29 101 31 102 30 103
REMARK H PARENT 3 6 92 24 58 35 7 78 18 89
REMARK Flexibility Score: inf
ROOT
ATOM      1  C   UNL A   1      37.291  23.331  25.985  1.00  0.00     0.042 C 
ENDROOT
BRANCH   1   2
ATOM      2  C   UNL A   1      38.236  24.353  26.614  1.00  0.00     0.118 C 
BRANCH   2   3
ATOM      3  N   UNL A   1      39.604  24.217  26.134  1.00  0.00    -0.352 N 
ATOM      4  O   UNL A   1      41.748  24.838  25.816  1.00  0.00    -0.269 OA
ATOM      5  C   UNL A   1      40.724  24.952  26.467  1.00  0.00     0.251 C 
ATOM      6  H   UNL A   1      39.751  23.499  25.477  1.00  0.00     0.163 HD
BRANCH   5   7
ATOM      7  C   UNL A   1      40.662  25.891  27.613  1.00  0.00     0.039 A 
ATOM      8  C   UNL A   1      39.769  25.663  28.659  1.00  0.00     0.014 A 
ATOM      9  C   UNL A   1      41.505  27.006  27.644  1.00  0.00     0.014 A 
ATOM     10  C   UNL A   1      39.597  26.629  29.641  1.00  0.00     0.010 A 
ATOM     11  C   UNL A   1      41.411  27.922  28.699  1.00  0.00     0.010 A 
ATOM     12  C   UNL A   1      40.436  27.755  29.694  1.00  0.00    -0.014 A 
BRANCH  12  13
ATOM     13  C   UNL A   1      40.319  28.669  30.862  1.00  0.00     0.031 A 
ATOM     14  C   UNL A   1      41.230  28.556  32.054  1.00  0.00     0.074 A 
ATOM     15  C   UNL A   1      39.406  29.661  30.796  1.00  0.00     0.049 A 
ATOM     16  N   UNL A   1      41.285  29.318  33.118  1.00  0.00    -0.248 NA
ATOM     17  C   UNL A   1      42.196  27.446  32.066  1.00  0.00     0.031 C 
ATOM     18  C   UNL A   1      38.451  29.850  29.698  1.00  0.00     0.029 A 
ATOM     19  N   UNL A   1      39.147  30.710  31.638  1.00  0.00    -0.354 N 
ATOM     20  C   UNL A   1      42.282  28.783  33.925  1.00  0.00     0.074 A 
ATOM     21  C   UNL A   1      42.786  27.608  33.244  1.00  0.00     0.031 C 
ATOM     22  C   UNL A   1      37.762  30.979  29.899  1.00  0.00     0.029 A 
ATOM     23  C   UNL A   1      38.164  31.555  31.176  1.00  0.00     0.049 A 
ATOM     24  H   UNL A   1      39.618  30.847  32.491  1.00  0.00     0.167 HD
ATOM     25  C   UNL A   1      42.740  29.238  35.117  1.00  0.00     0.037 A 
ATOM     26  C   UNL A   1      37.626  32.659  31.725  1.00  0.00     0.037 A 
ATOM     27  C   UNL A   1      42.233  30.416  35.782  1.00  0.00     0.049 A 
ATOM     28  C   UNL A   1      38.146  33.130  33.051  1.00  0.00     0.074 A 
ATOM     29  C   UNL A   1      42.635  30.964  36.988  1.00  0.00     0.029 A 
ATOM     30  N   UNL A   1      41.217  31.228  35.298  1.00  0.00    -0.354 N 
ATOM     31  N   UNL A   1      39.100  32.615  33.789  1.00  0.00    -0.248 NA
ATOM     32  C   UNL A   1      37.515  34.326  33.623  1.00  0.00     0.031 C 
ATOM     33  C   UNL A   1      41.836  32.082  37.252  1.00  0.00     0.029 A 
ATOM     34  C   UNL A   1      40.970  32.262  36.187  1.00  0.00     0.049 A 
ATOM     35  H   UNL A   1      40.742  31.090  34.446  1.00  0.00     0.167 HD
ATOM     36  C   UNL A   1      39.189  33.429  34.912  1.00  0.00     0.074 A 
ATOM     37  C   UNL A   1      38.216  34.489  34.734  1.00  0.00     0.031 C 
ATOM     38  C   UNL A   1      39.991  33.304  35.997  1.00  0.00     0.037 A 
BRANCH  25  39
ATOM     39  C   UNL A   1      43.845  28.470  35.794  1.00  0.00     0.058 A 
ATOM     40  C   UNL A   1      43.573  27.406  36.668  1.00  0.00     0.135 A 
ATOM     41  C   UNL A   1      45.193  28.746  35.501  1.00  0.00     0.135 A 
ATOM     42  F   UNL A   1      42.306  27.107  36.995  1.00  0.00    -0.206 F 
ATOM     43  C   UNL A   1      44.595  26.649  37.235  1.00  0.00     0.059 A 
ATOM     44  C   UNL A   1      46.229  27.986  36.038  1.00  0.00     0.059 A 
ATOM     45  F   UNL A   1      45.512  29.752  34.673  1.00  0.00    -0.206 F 
ATOM     46  C   UNL A   1      45.920  26.943  36.910  1.00  0.00     0.060 A 
BRANCH  46  47
ATOM     47  S   UNL A   1      47.230  25.928  37.630  1.00  0.00     0.124 S 
ATOM     48  O   UNL A   1      46.630  25.538  38.903  1.00  0.00    -0.237 OA
ATOM     49  O   UNL A   1      47.374  24.861  36.645  1.00  0.00    -0.237 OA
ATOM     50  O   UNL A   1      48.360  26.846  37.725  1.00  0.00    -0.744 OA
ENDBRANCH  46  47
ENDBRANCH  25  39
BRANCH  26  51
ATOM     51  C   UNL A   1      36.513  33.365  31.035  1.00  0.00     0.058 A 
ATOM     52  C   UNL A   1      35.196  33.298  31.511  1.00  0.00     0.135 A 
ATOM     53  C   UNL A   1      36.752  34.125  29.878  1.00  0.00     0.135 A 
ATOM     54  F   UNL A   1      34.917  32.583  32.612  1.00  0.00    -0.206 F 
ATOM     55  C   UNL A   1      34.150  33.932  30.849  1.00  0.00     0.059 A 
ATOM     56  C   UNL A   1      35.730  34.797  29.220  1.00  0.00     0.059 A 
ATOM     57  F   UNL A   1      37.999  34.240  29.393  1.00  0.00    -0.206 F 
ATOM     58  C   UNL A   1      34.428  34.679  29.702  1.00  0.00     0.060 A 
BRANCH  58  59
ATOM     59  S   UNL A   1      33.070  35.514  28.855  1.00  0.00     0.124 S 
ATOM     60  O   UNL A   1      33.784  36.530  28.090  1.00  0.00    -0.237 OA
ATOM     61  O   UNL A   1      32.475  34.430  28.081  1.00  0.00    -0.237 OA
ATOM     62  O   UNL A   1      32.248  36.012  29.954  1.00  0.00    -0.744 OA
ENDBRANCH  58  59
ENDBRANCH  26  51
BRANCH  38  63
ATOM     63  C   UNL A   1      39.853  34.355  37.064  1.00  0.00     0.058 A 
ATOM     64  C   UNL A   1      39.024  34.164  38.181  1.00  0.00     0.135 A 
ATOM     65  C   UNL A   1      40.554  35.568  36.966  1.00  0.00     0.135 A 
ATOM     66  F   UNL A   1      38.325  33.026  38.317  1.00  0.00    -0.206 F 
ATOM     67  C   UNL A   1      38.861  35.156  39.142  1.00  0.00     0.059 A 
ATOM     68  C   UNL A   1      40.429  36.560  37.932  1.00  0.00     0.059 A 
ATOM     69  F   UNL A   1      41.368  35.796  35.923  1.00  0.00    -0.206 F 
ATOM     70  C   UNL A   1      39.565  36.354  39.006  1.00  0.00     0.060 A 
BRANCH  70  71
ATOM     71  S   UNL A   1      39.341  37.635  40.256  1.00  0.00     0.124 S 
ATOM     72  O   UNL A   1      38.296  38.455  39.654  1.00  0.00    -0.237 OA
ATOM     73  O   UNL A   1      38.944  36.861  41.429  1.00  0.00    -0.237 OA
ATOM     74  O   UNL A   1      40.658  38.259  40.343  1.00  0.00    -0.744 OA
ENDBRANCH  70  71
ENDBRANCH  38  63
ENDBRANCH  12  13
ENDBRANCH   5   7
ENDBRANCH   2   3
ENDBRANCH   1   2
BRANCH   1  75
ATOM     75  C   UNL A   1      35.960  23.938  25.542  1.00  0.00     0.117 C 
BRANCH  75  76
ATOM     76  N   UNL A   1      35.885  23.942  24.090  1.00  0.00    -0.356 N 
ATOM     77  C   UNL A   1      34.801  23.697  23.299  1.00  0.00     0.223 C 
ATOM     78  H   UNL A   1      36.723  24.149  23.617  1.00  0.00     0.163 HD
ATOM     79  O   UNL A   1      34.952  22.982  22.309  1.00  0.00    -0.275 OA
BRANCH  77  80
ATOM     80  C   UNL A   1      33.450  24.286  23.686  1.00  0.00     0.091 C 
ATOM     81  C   UNL A   1      32.697  23.103  24.335  1.00  0.00     0.014 C 
ATOM     82  C   UNL A   1      32.624  24.838  22.484  1.00  0.00     0.091 C 
ATOM     83  C   UNL A   1      31.290  23.474  24.763  1.00  0.00     0.001 C 
ATOM     84  C   UNL A   1      31.184  25.168  22.937  1.00  0.00     0.014 C 
ATOM     85  C   UNL A   1      30.492  23.976  23.575  1.00  0.00     0.001 C 
BRANCH  82  86
ATOM     86  C   UNL A   1      32.992  26.034  21.572  1.00  0.00     0.228 C 
ATOM     87  O   UNL A   1      33.251  25.815  20.379  1.00  0.00    -0.274 OA
ATOM     88  N   UNL A   1      32.785  27.344  21.891  1.00  0.00    -0.325 N 
ATOM     89  H   UNL A   1      32.729  27.966  21.130  1.00  0.00     0.169 HD
BRANCH  88  90
ATOM     90  C   UNL A   1      32.641  27.917  23.148  1.00  0.00     0.054 A 
ATOM     91  C   UNL A   1      33.655  27.632  24.074  1.00  0.00     0.027 A 
ATOM     92  C   UNL A   1      31.585  28.773  23.486  1.00  0.00     0.063 A 
ATOM     93  C   UNL A   1      33.760  28.383  25.240  1.00  0.00     0.002 A 
ATOM     94  C   UNL A   1      31.731  29.556  24.644  1.00  0.00     0.016 A 
ATOM     95  C   UNL A   1      32.833  29.391  25.493  1.00  0.00     0.001 A 
BRANCH  92  96
ATOM     96  C   UNL A   1      30.272  28.842  22.746  1.00  0.00     0.256 C 
ATOM     97  O   UNL A   1      29.962  27.948  21.961  1.00  0.00    -0.269 OA
ATOM     98  N   UNL A   1      29.500  30.001  22.877  1.00  0.00    -0.334 N 
ATOM     99  C   UNL A   1      29.524  30.922  21.751  1.00  0.00     0.148 C 
ATOM    100  C   UNL A   1      28.150  29.869  23.433  1.00  0.00     0.148 C 
ATOM    101  C   UNL A   1      28.867  32.251  22.129  1.00  0.00     0.181 C 
ATOM    102  C   UNL A   1      27.437  31.205  23.666  1.00  0.00     0.181 C 
ATOM    103  O   UNL A   1      27.497  32.044  22.506  1.00  0.00    -0.378 OA
ENDBRANCH  92  96
ENDBRANCH  88  90
ENDBRANCH  82  86
ENDBRANCH  77  80
ENDBRANCH  75  76
ENDBRANCH   1  75
TORSDOF 16
ENDMDL
MODEL 2
REMARK VINA RESULT:     -13.3      1.635      2.731
REMARK SMILES O=C(NCCCNC(=O)[C@@H]1CCCC[C@H]1C(=O)Nc1ccccc1C(=O)N1CCOCC1)c1ccc(-c2c3nc(c(-c4c(F)cc(S(=O)(=O)[O-])cc4F)c4ccc([nH]4)c(-c4c(F)cc(S(=O)(=O)[O-])cc4F)c4nc(c(-c5c(F)cc(S(=O)(=O)[O-])cc5F)c5ccc2[nH]5)C=C4)C=C3)cc1
REMARK SMILES IDX 5 1 4 2 3 3 1 4 2 5 33 7 34 8 98 9 35 10 97 11 36 12 37 13
REMARK SMILES IDX 38 14 91 15 39 16 96 17 90 18 92 19 40 20 95 21 89 22 88 23
REMARK SMILES IDX 41 25 75 26 54 27 74 28 55 29 58 30 73 31 93 32 56 33 57 34
REMARK SMILES IDX 72 36 94 37 59 38 42 39 43 40 52 41 44 42 45 43 51 44 53 45
REMARK SMILES IDX 46 46 47 47 48 48 49 49 50 50 76 51 77 52 86 53 78 54 79 55
REMARK SMILES IDX 85 56 87 57 80 58 81 59 82 60 83 61 84 62 60 63 61 64 70 65
REMARK SMILES IDX 62 66 63 67 69 68 71 69 64 70 65 71 66 72 67 73 68 74 6 75
REMARK SMILES IDX 7 76 8 77 9 79 10 80 11 81 15 82 12 83 14 84 13 85 16 86
REMARK SMILES IDX 17 87 18 88 19 90 20 91 24 92 21 93 23 94 22 95 25 96 26 97
REMARK SMILES IDX 27 98 28 99 32 100 29 101 31 102 30 103
REMARK H PARENT 3 6 92 24 58 35 7 78 18 89
REMARK Flexibility Score: inf
ROOT
ATOM      1  C   UNL A   1      38.562  22.662  26.221  1.00  0.00     0.042 C 
ENDROOT
BRANCH   1   2
ATOM      2  C   UNL A   1      39.601  23.509  26.953  1.00  0.00     0.118 C 
BRANCH   2   3
ATOM      3  N   UNL A   1      40.586  24.088  26.049  1.00  0.00    -0.352 N 
ATOM      4  O   UNL A   1      41.810  25.737  25.118  1.00  0.00    -0.269 OA
ATOM      5  C   UNL A   1      41.159  25.344  26.070  1.00  0.00     0.251 C 
ATOM      6  H   UNL A   1      40.886  23.500  25.320  1.00  0.00     0.163 HD
BRANCH   5   7
ATOM      7  C   UNL A   1      40.957  26.214  27.254  1.00  0.00     0.039 A 
ATOM      8  C   UNL A   1      41.768  27.331  27.449  1.00  0.00     0.014 A 
ATOM      9  C   UNL A   1      39.947  25.915  28.172  1.00  0.00     0.014 A 
ATOM     10  C   UNL A   1      41.687  28.043  28.638  1.00  0.00     0.010 A 
ATOM     11  C   UNL A   1      39.789  26.706  29.318  1.00  0.00     0.010 A 
ATOM     12  C   UNL A   1      40.677  27.762  29.574  1.00  0.00    -0.014 A 
BRANCH  12  13
ATOM     13  C   UNL A   1      40.531  28.664  30.748  1.00  0.00     0.031 A 
ATOM     14  C   UNL A   1      41.437  28.563  31.945  1.00  0.00     0.074 A 
ATOM     15  C   UNL A   1      39.595  29.634  30.685  1.00  0.00     0.049 A 
ATOM     16  N   UNL A   1      41.468  29.318  33.015  1.00  0.00    -0.248 NA
ATOM     17  C   UNL A   1      42.430  27.477  31.953  1.00  0.00     0.031 C 
ATOM     18  C   UNL A   1      38.642  29.808  29.582  1.00  0.00     0.029 A 
ATOM     19  N   UNL A   1      39.306  30.669  31.533  1.00  0.00    -0.354 N 
ATOM     20  C   UNL A   1      42.473  28.800  33.823  1.00  0.00     0.074 A 
ATOM     21  C   UNL A   1      43.009  27.644  33.136  1.00  0.00     0.031 C 
ATOM     22  C   UNL A   1      37.924  30.919  29.788  1.00  0.00     0.029 A 
ATOM     23  C   UNL A   1      38.305  31.494  31.072  1.00  0.00     0.049 A 
ATOM     24  H   UNL A   1      39.769  30.811  32.390  1.00  0.00     0.167 HD
ATOM     25  C   UNL A   1      42.913  29.257  35.021  1.00  0.00     0.037 A 
ATOM     26  C   UNL A   1      37.738  32.581  31.626  1.00  0.00     0.037 A 
ATOM     27  C   UNL A   1      42.374  30.416  35.692  1.00  0.00     0.049 A 
ATOM     28  C   UNL A   1      38.238  33.053  32.959  1.00  0.00     0.074 A 
ATOM     29  C   UNL A   1      42.756  30.965  36.906  1.00  0.00     0.029 A 
ATOM     30  N   UNL A   1      41.341  31.208  35.209  1.00  0.00    -0.354 N 
ATOM     31  N   UNL A   1      39.201  32.556  33.699  1.00  0.00    -0.248 NA
ATOM     32  C   UNL A   1      37.576  34.229  33.536  1.00  0.00     0.031 C 
ATOM     33  C   UNL A   1      41.929  32.061  37.174  1.00  0.00     0.029 A 
ATOM     34  C   UNL A   1      41.064  32.229  36.105  1.00  0.00     0.049 A 
ATOM     35  H   UNL A   1      40.874  31.066  34.354  1.00  0.00     0.167 HD
ATOM     36  C   UNL A   1      39.263  33.362  34.829  1.00  0.00     0.074 A 
ATOM     37  C   UNL A   1      38.266  34.401  34.653  1.00  0.00     0.031 C 
ATOM     38  C   UNL A   1      40.062  33.248  35.917  1.00  0.00     0.037 A 
BRANCH  25  39
ATOM     39  C   UNL A   1      44.033  28.511  35.699  1.00  0.00     0.058 A 
ATOM     40  C   UNL A   1      45.378  28.853  35.490  1.00  0.00     0.135 A 
ATOM     41  C   UNL A   1      43.755  27.497  36.633  1.00  0.00     0.135 A 
ATOM     42  F   UNL A   1      45.703  29.804  34.599  1.00  0.00    -0.206 F 
ATOM     43  C   UNL A   1      46.408  28.213  36.174  1.00  0.00     0.059 A 
ATOM     44  C   UNL A   1      44.769  26.860  37.345  1.00  0.00     0.059 A 
ATOM     45  F   UNL A   1      42.488  27.128  36.873  1.00  0.00    -0.206 F 
ATOM     46  C   UNL A   1      46.094  27.221  37.104  1.00  0.00     0.060 A 
BRANCH  46  47
ATOM     47  S   UNL A   1      47.442  26.425  38.004  1.00  0.00     0.124 S 
ATOM     48  O   UNL A   1      47.643  27.356  39.112  1.00  0.00    -0.237 OA
ATOM     49  O   UNL A   1      46.859  25.134  38.360  1.00  0.00    -0.237 OA
ATOM     50  O   UNL A   1      48.523  26.372  37.026  1.00  0.00    -0.744 OA
ENDBRANCH  46  47
ENDBRANCH  25  39
BRANCH  26  51
ATOM     51  C   UNL A   1      36.612  33.265  30.935  1.00  0.00     0.058 A 
ATOM     52  C   UNL A   1      36.829  34.092  29.824  1.00  0.00     0.135 A 
ATOM     53  C   UNL A   1      35.290  33.101  31.380  1.00  0.00     0.135 A 
ATOM     54  F   UNL A   1      38.075  34.282  29.362  1.00  0.00    -0.206 F 
ATOM     55  C   UNL A   1      35.781  34.757  29.196  1.00  0.00     0.059 A 
ATOM     56  C   UNL A   1      34.222  33.726  30.747  1.00  0.00     0.059 A 
ATOM     57  F   UNL A   1      35.025  32.303  32.426  1.00  0.00    -0.206 F 
ATOM     58  C   UNL A   1      34.480  34.568  29.667  1.00  0.00     0.060 A 
BRANCH  58  59
ATOM     59  S   UNL A   1      33.121  35.420  28.840  1.00  0.00     0.124 S 
ATOM     60  O   UNL A   1      32.368  35.939  29.975  1.00  0.00    -0.237 OA
ATOM     61  O   UNL A   1      33.823  36.410  28.031  1.00  0.00    -0.237 OA
ATOM     62  O   UNL A   1      32.470  34.354  28.083  1.00  0.00    -0.744 OA
ENDBRANCH  58  59
ENDBRANCH  26  51
BRANCH  38  63
ATOM     63  C   UNL A   1      39.892  34.287  36.991  1.00  0.00     0.058 A 
ATOM     64  C   UNL A   1      39.065  34.066  38.104  1.00  0.00     0.135 A 
ATOM     65  C   UNL A   1      40.561  35.519  36.906  1.00  0.00     0.135 A 
ATOM     66  F   UNL A   1      38.396  32.908  38.229  1.00  0.00    -0.206 F 
ATOM     67  C   UNL A   1      38.872  35.046  39.072  1.00  0.00     0.059 A 
ATOM     68  C   UNL A   1      40.407  36.500  37.878  1.00  0.00     0.059 A 
ATOM     69  F   UNL A   1      41.373  35.776  35.867  1.00  0.00    -0.206 F 
ATOM     70  C   UNL A   1      39.545  36.262  38.947  1.00  0.00     0.060 A 
BRANCH  70  71
ATOM     71  S   UNL A   1      39.283  37.528  40.207  1.00  0.00     0.124 S 
ATOM     72  O   UNL A   1      40.600  38.151  40.276  1.00  0.00    -0.237 OA
ATOM     73  O   UNL A   1      38.226  38.344  39.615  1.00  0.00    -0.237 OA
ATOM     74  O   UNL A   1      38.888  36.759  41.383  1.00  0.00    -0.744 OA
ENDBRANCH  70  71
ENDBRANCH  38  63
ENDBRANCH  12  13
ENDBRANCH   5   7
ENDBRANCH   2   3
ENDBRANCH   1   2
BRANCH   1  75
ATOM     75  C   UNL A   1      37.197  23.342  26.120  1.00  0.00     0.117 C 
BRANCH  75  76
ATOM     76  N   UNL A   1      36.946  23.733  24.742  1.00  0.00    -0.356 N 
ATOM     77  C   UNL A   1      36.218  23.073  23.796  1.00  0.00     0.223 C 
ATOM     78  H   UNL A   1      37.353  24.582  24.457  1.00  0.00     0.163 HD
ATOM     79  O   UNL A   1      36.678  22.996  22.657  1.00  0.00    -0.275 OA
BRANCH  77  80
ATOM     80  C   UNL A   1      34.891  22.437  24.189  1.00  0.00     0.091 C 
ATOM     81  C   UNL A   1      35.273  20.998  24.600  1.00  0.00     0.014 C 
ATOM     82  C   UNL A   1      33.837  22.392  23.040  1.00  0.00     0.091 C 
ATOM     83  C   UNL A   1      34.067  20.168  24.997  1.00  0.00     0.001 C 
ATOM     84  C   UNL A   1      32.640  21.506  23.453  1.00  0.00     0.014 C 
ATOM     85  C   UNL A   1      33.070  20.107  23.856  1.00  0.00     0.001 C 
BRANCH  82  86
ATOM     86  C   UNL A   1      33.161  23.602  22.348  1.00  0.00     0.228 C 
ATOM     87  O   UNL A   1      33.365  23.784  21.138  1.00  0.00    -0.274 OA
ATOM     88  N   UNL A   1      32.136  24.326  22.882  1.00  0.00    -0.325 N 
ATOM     89  H   UNL A   1      31.578  24.818  22.237  1.00  0.00     0.169 HD
BRANCH  88  90
ATOM     90  C   UNL A   1      31.776  24.463  24.217  1.00  0.00     0.054 A 
ATOM     91  C   UNL A   1      30.833  23.542  24.697  1.00  0.00     0.027 A 
ATOM     92  C   UNL A   1      32.338  25.420  25.070  1.00  0.00     0.063 A 
ATOM     93  C   UNL A   1      30.634  23.405  26.067  1.00  0.00     0.002 A 
ATOM     94  C   UNL A   1      32.163  25.239  26.453  1.00  0.00     0.016 A 
ATOM     95  C   UNL A   1      31.349  24.212  26.948  1.00  0.00     0.001 A 
BRANCH  92  96
ATOM     96  C   UNL A   1      33.037  26.675  24.604  1.00  0.00     0.256 C 
ATOM     97  O   UNL A   1      33.789  26.633  23.632  1.00  0.00    -0.269 OA
ATOM     98  N   UNL A   1      32.909  27.830  25.382  1.00  0.00    -0.334 N 
ATOM     99  C   UNL A   1      34.057  28.186  26.201  1.00  0.00     0.148 C 
ATOM    100  C   UNL A   1      32.306  29.014  24.761  1.00  0.00     0.148 C 
ATOM    101  C   UNL A   1      33.690  29.295  27.188  1.00  0.00     0.181 C 
ATOM    102  C   UNL A   1      32.082  30.180  25.728  1.00  0.00     0.181 C 
ATOM    103  O   UNL A   1      33.264  30.472  26.485  1.00  0.00    -0.378 OA
ENDBRANCH  92  96
ENDBRANCH  88  90
ENDBRANCH  82  86
ENDBRANCH  77  80
ENDBRANCH  75  76
ENDBRANCH   1  75
TORSDOF 16
ENDMDL
MODEL 3
REMARK VINA RESULT:     -13.1      4.764     11.587
REMARK SMILES O=C(NCCCNC(=O)[C@@H]1CCCC[C@H]1C(=O)Nc1ccccc1C(=O)N1CCOCC1)c1ccc(-c2c3nc(c(-c4c(F)cc(S(=O)(=O)[O-])cc4F)c4ccc([nH]4)c(-c4c(F)cc(S(=O)(=O)[O-])cc4F)c4nc(c(-c5c(F)cc(S(=O)(=O)[O-])cc5F)c5ccc2[nH]5)C=C4)C=C3)cc1
REMARK SMILES IDX 5 1 4 2 3 3 1 4 2 5 33 7 34 8 98 9 35 10 97 11 36 12 37 13
REMARK SMILES IDX 38 14 91 15 39 16 96 17 90 18 92 19 40 20 95 21 89 22 88 23
REMARK SMILES IDX 41 25 75 26 54 27 74 28 55 29 58 30 73 31 93 32 56 33 57 34
REMARK SMILES IDX 72 36 94 37 59 38 42 39 43 40 52 41 44 42 45 43 51 44 53 45
REMARK SMILES IDX 46 46 47 47 48 48 49 49 50 50 76 51 77 52 86 53 78 54 79 55
REMARK SMILES IDX 85 56 87 57 80 58 81 59 82 60 83 61 84 62 60 63 61 64 70 65
REMARK SMILES IDX 62 66 63 67 69 68 71 69 64 70 65 71 66 72 67 73 68 74 6 75
REMARK SMILES IDX 7 76 8 77 9 79 10 80 11 81 15 82 12 83 14 84 13 85 16 86
REMARK SMILES IDX 17 87 18 88 19 90 20 91 24 92 21 93 23 94 22 95 25 96 26 97
REMARK SMILES IDX 27 98 28 99 32 100 29 101 31 102 30 103
REMARK H PARENT 3 6 92 24 58 35 7 78 18 89
REMARK Flexibility Score: inf
ROOT
ATOM      1  C   UNL A   1      42.150  23.210  25.676  1.00  0.00     0.042 C 
ENDROOT
BRANCH   1   2
ATOM      2  C   UNL A   1      41.085  22.572  26.564  1.00  0.00     0.118 C 
BRANCH   2   3
ATOM      3  N   UNL A   1      39.737  22.766  26.047  1.00  0.00    -0.352 N 
ATOM      4  O   UNL A   1      37.661  23.643  25.982  1.00  0.00    -0.269 OA
ATOM      5  C   UNL A   1      38.817  23.749  26.352  1.00  0.00     0.251 C 
ATOM      6  H   UNL A   1      39.440  22.102  25.384  1.00  0.00     0.163 HD
BRANCH   5   7
ATOM      7  C   UNL A   1      39.247  24.922  27.151  1.00  0.00     0.039 A 
ATOM      8  C   UNL A   1      39.075  24.931  28.534  1.00  0.00     0.014 A 
ATOM      9  C   UNL A   1      39.829  26.021  26.512  1.00  0.00     0.014 A 
ATOM     10  C   UNL A   1      39.323  26.091  29.253  1.00  0.00     0.010 A 
ATOM     11  C   UNL A   1      40.187  27.152  27.258  1.00  0.00     0.010 A 
ATOM     12  C   UNL A   1      39.912  27.207  28.633  1.00  0.00    -0.014 A 
BRANCH  12  13
ATOM     13  C   UNL A   1      40.310  28.360  29.484  1.00  0.00     0.031 A 
ATOM     14  C   UNL A   1      39.394  29.531  29.715  1.00  0.00     0.074 A 
ATOM     15  C   UNL A   1      41.505  28.299  30.108  1.00  0.00     0.049 A 
ATOM     16  N   UNL A   1      39.581  30.579  30.479  1.00  0.00    -0.248 NA
ATOM     17  C   UNL A   1      38.110  29.539  28.997  1.00  0.00     0.031 C 
ATOM     18  C   UNL A   1      42.487  27.221  29.936  1.00  0.00     0.029 A 
ATOM     19  N   UNL A   1      42.088  29.127  31.029  1.00  0.00    -0.354 N 
ATOM     20  C   UNL A   1      38.448  31.370  30.332  1.00  0.00     0.074 A 
ATOM     21  C   UNL A   1      37.589  30.698  29.379  1.00  0.00     0.031 C 
ATOM     22  C   UNL A   1      43.513  27.419  30.771  1.00  0.00     0.029 A 
ATOM     23  C   UNL A   1      43.307  28.674  31.481  1.00  0.00     0.049 A 
ATOM     24  H   UNL A   1      41.676  29.966  31.340  1.00  0.00     0.167 HD
ATOM     25  C   UNL A   1      38.150  32.542  30.946  1.00  0.00     0.037 A 
ATOM     26  C   UNL A   1      44.177  29.216  32.354  1.00  0.00     0.037 A 
ATOM     27  C   UNL A   1      39.013  33.197  31.900  1.00  0.00     0.049 A 
ATOM     28  C   UNL A   1      43.823  30.520  33.006  1.00  0.00     0.074 A 
ATOM     29  C   UNL A   1      38.799  34.383  32.583  1.00  0.00     0.029 A 
ATOM     30  N   UNL A   1      40.252  32.723  32.310  1.00  0.00    -0.354 N 
ATOM     31  N   UNL A   1      42.738  31.243  32.863  1.00  0.00    -0.248 NA
ATOM     32  C   UNL A   1      44.810  31.084  33.934  1.00  0.00     0.031 C 
ATOM     33  C   UNL A   1      39.923  34.646  33.373  1.00  0.00     0.029 A 
ATOM     34  C   UNL A   1      40.818  33.599  33.223  1.00  0.00     0.049 A 
ATOM     35  H   UNL A   1      40.668  31.887  31.998  1.00  0.00     0.167 HD
ATOM     36  C   UNL A   1      42.910  32.348  33.688  1.00  0.00     0.074 A 
ATOM     37  C   UNL A   1      44.187  32.175  34.353  1.00  0.00     0.031 C 
ATOM     38  C   UNL A   1      42.094  33.415  33.869  1.00  0.00     0.037 A 
BRANCH  25  39
ATOM     39  C   UNL A   1      36.839  33.205  30.613  1.00  0.00     0.058 A 
ATOM     40  C   UNL A   1      35.775  33.232  31.529  1.00  0.00     0.135 A 
ATOM     41  C   UNL A   1      36.673  33.895  29.400  1.00  0.00     0.135 A 
ATOM     42  F   UNL A   1      35.872  32.578  32.697  1.00  0.00    -0.206 F 
ATOM     43  C   UNL A   1      34.590  33.910  31.250  1.00  0.00     0.059 A 
ATOM     44  C   UNL A   1      35.506  34.599  29.111  1.00  0.00     0.059 A 
ATOM     45  F   UNL A   1      37.656  33.903  28.487  1.00  0.00    -0.206 F 
ATOM     46  C   UNL A   1      34.467  34.595  30.041  1.00  0.00     0.060 A 
BRANCH  46  47
ATOM     47  S   UNL A   1      32.936  35.495  29.712  1.00  0.00     0.124 S 
ATOM     48  O   UNL A   1      33.434  36.853  29.509  1.00  0.00    -0.237 OA
ATOM     49  O   UNL A   1      32.429  34.822  28.520  1.00  0.00    -0.237 OA
ATOM     50  O   UNL A   1      32.152  35.291  30.925  1.00  0.00    -0.744 OA
ENDBRANCH  46  47
ENDBRANCH  25  39
BRANCH  26  51
ATOM     51  C   UNL A   1      45.474  28.541  32.625  1.00  0.00     0.058 A 
ATOM     52  C   UNL A   1      45.630  27.660  33.705  1.00  0.00     0.135 A 
ATOM     53  C   UNL A   1      46.588  28.769  31.802  1.00  0.00     0.135 A 
ATOM     54  F   UNL A   1      44.595  27.411  34.522  1.00  0.00    -0.206 F 
ATOM     55  C   UNL A   1      46.851  27.052  33.978  1.00  0.00     0.059 A 
ATOM     56  C   UNL A   1      47.809  28.145  32.033  1.00  0.00     0.059 A 
ATOM     57  F   UNL A   1      46.487  29.586  30.742  1.00  0.00    -0.206 F 
ATOM     58  C   UNL A   1      47.936  27.304  33.135  1.00  0.00     0.060 A 
BRANCH  58  59
ATOM     59  S   UNL A   1      49.514  26.500  33.483  1.00  0.00     0.124 S 
ATOM     60  O   UNL A   1      49.105  25.435  34.392  1.00  0.00    -0.237 OA
ATOM     61  O   UNL A   1      49.946  26.078  32.156  1.00  0.00    -0.237 OA
ATOM     62  O   UNL A   1      50.309  27.570  34.081  1.00  0.00    -0.744 OA
ENDBRANCH  58  59
ENDBRANCH  26  51
BRANCH  38  63
ATOM     63  C   UNL A   1      42.561  34.465  34.839  1.00  0.00     0.058 A 
ATOM     64  C   UNL A   1      43.249  35.610  34.408  1.00  0.00     0.135 A 
ATOM     65  C   UNL A   1      42.320  34.323  36.215  1.00  0.00     0.135 A 
ATOM     66  F   UNL A   1      43.513  35.789  33.103  1.00  0.00    -0.206 F 
ATOM     67  C   UNL A   1      43.721  36.557  35.311  1.00  0.00     0.059 A 
ATOM     68  C   UNL A   1      42.755  35.272  37.132  1.00  0.00     0.059 A 
ATOM     69  F   UNL A   1      41.656  33.251  36.678  1.00  0.00    -0.206 F 
ATOM     70  C   UNL A   1      43.473  36.376  36.673  1.00  0.00     0.060 A 
BRANCH  70  71
ATOM     71  S   UNL A   1      44.094  37.608  37.836  1.00  0.00     0.124 S 
ATOM     72  O   UNL A   1      45.060  36.829  38.602  1.00  0.00    -0.237 OA
ATOM     73  O   UNL A   1      44.659  38.620  36.947  1.00  0.00    -0.237 OA
ATOM     74  O   UNL A   1      42.899  38.020  38.564  1.00  0.00    -0.744 OA
ENDBRANCH  70  71
ENDBRANCH  38  63
ENDBRANCH  12  13
ENDBRANCH   5   7
ENDBRANCH   2   3
ENDBRANCH   1   2
BRANCH   1  75
ATOM     75  C   UNL A   1      42.668  24.541  26.222  1.00  0.00     0.117 C 
BRANCH  75  76
ATOM     76  N   UNL A   1      42.910  25.459  25.121  1.00  0.00    -0.356 N 
ATOM     77  C   UNL A   1      43.303  26.764  25.179  1.00  0.00     0.223 C 
ATOM     78  H   UNL A   1      42.773  25.091  24.218  1.00  0.00     0.163 HD
ATOM     79  O   UNL A   1      42.745  27.574  24.439  1.00  0.00    -0.275 OA
BRANCH  77  80
ATOM     80  C   UNL A   1      44.384  27.171  26.172  1.00  0.00     0.091 C 
ATOM     81  C   UNL A   1      43.853  28.484  26.788  1.00  0.00     0.014 C 
ATOM     82  C   UNL A   1      45.783  27.421  25.528  1.00  0.00     0.091 C 
ATOM     83  C   UNL A   1      44.817  29.086  27.792  1.00  0.00     0.001 C 
ATOM     84  C   UNL A   1      46.732  28.073  26.559  1.00  0.00     0.014 C 
ATOM     85  C   UNL A   1      46.160  29.354  27.139  1.00  0.00     0.001 C 
BRANCH  82  86
ATOM     86  C   UNL A   1      46.685  26.376  24.826  1.00  0.00     0.228 C 
ATOM     87  O   UNL A   1      47.240  26.689  23.762  1.00  0.00    -0.274 OA
ATOM     88  N   UNL A   1      47.154  25.237  25.414  1.00  0.00    -0.325 N 
ATOM     89  H   UNL A   1      47.965  24.851  25.012  1.00  0.00     0.169 HD
BRANCH  88  90
ATOM     90  C   UNL A   1      46.637  24.550  26.504  1.00  0.00     0.054 A 
ATOM     91  C   UNL A   1      46.848  25.139  27.759  1.00  0.00     0.027 A 
ATOM     92  C   UNL A   1      45.900  23.365  26.386  1.00  0.00     0.063 A 
ATOM     93  C   UNL A   1      46.126  24.696  28.863  1.00  0.00     0.002 A 
ATOM     94  C   UNL A   1      45.142  22.959  27.498  1.00  0.00     0.016 A 
ATOM     95  C   UNL A   1      45.223  23.646  28.716  1.00  0.00     0.001 A 
BRANCH  92  96
ATOM     96  C   UNL A   1      45.939  22.452  25.185  1.00  0.00     0.256 C 
ATOM     97  O   UNL A   1      46.182  22.913  24.071  1.00  0.00    -0.269 OA
ATOM     98  N   UNL A   1      45.561  21.116  25.358  1.00  0.00    -0.334 N 
ATOM     99  C   UNL A   1      44.239  20.752  24.871  1.00  0.00     0.148 C 
ATOM    100  C   UNL A   1      46.549  20.077  25.053  1.00  0.00     0.148 C 
ATOM    101  C   UNL A   1      43.852  19.355  25.358  1.00  0.00     0.181 C 
ATOM    102  C   UNL A   1      46.091  18.658  25.404  1.00  0.00     0.181 C 
ATOM    103  O   UNL A   1      44.789  18.379  24.877  1.00  0.00    -0.378 OA
ENDBRANCH  92  96
ENDBRANCH  88  90
ENDBRANCH  82  86
ENDBRANCH  77  80
ENDBRANCH  75  76
ENDBRANCH   1  75
TORSDOF 16
ENDMDL
