MODEL 1
REMARK VINA RESULT:     -10.0      0.000      0.000
REMARK SMILES COc1cccc([C@@]([NH3+])(C(=O)NCCCNC(=O)c2ccc(-c3c4nc(c(-c5c(F)cc(S(=O)(=O)[O-])cc5F)c5ccc([nH]5)c(-c5c(F)cc(S(=O)(=O)[O-])cc5F)c5nc(c(-c6c(F)cc(S(=O)(=O)[O-])cc6F)c6ccc3[nH]6)C=C5)C=C4)cc2)C(F)(F)F)c1
REMARK SMILES IDX 14 1 13 2 12 3 10 4 11 5 8 7 7 8 3 9 4 10 89 11 5 12 6 13
REMARK SMILES IDX 2 14 1 15 9 16 85 20 86 21 87 22 88 23 15 24 16 25 17 26
REMARK SMILES IDX 18 28 19 29 20 30 84 31 21 32 83 33 22 34 23 35 24 36 77 37
REMARK SMILES IDX 25 38 82 39 76 40 78 41 26 42 81 43 75 44 74 45 27 47 61 48
REMARK SMILES IDX 40 49 60 50 41 51 44 52 59 53 79 54 42 55 43 56 58 58 80 59
REMARK SMILES IDX 45 60 28 61 29 62 38 63 30 64 31 65 37 66 39 67 32 68 33 69
REMARK SMILES IDX 34 70 35 71 36 72 62 73 63 74 72 75 64 76 65 77 71 78 73 79
REMARK SMILES IDX 66 80 67 81 68 82 69 83 70 84 46 85 47 86 56 87 48 88 49 89
REMARK SMILES IDX 55 90 57 91 50 92 51 93 52 94 53 95 54 96
REMARK H PARENT 12 6 9 17 9 18 9 19 16 27 78 46 44 57
REMARK Flexibility Score: inf
ROOT
ATOM      1  C   UNL A   1      34.362  33.323  29.414  1.00  0.00     0.042 C 
ENDROOT
BRANCH   1   2
ATOM      2  C   UNL A   1      34.952  32.368  30.450  1.00  0.00     0.118 C 
BRANCH   2   3
ATOM      3  N   UNL A   1      34.423  32.629  31.779  1.00  0.00    -0.350 N 
ATOM      4  C   UNL A   1      35.005  33.011  32.956  1.00  0.00     0.296 C 
ATOM      5  O   UNL A   1      34.233  33.010  33.922  1.00  0.00    -0.267 OA
ATOM      6  H   UNL A   1      33.448  32.508  31.845  1.00  0.00     0.163 HD
BRANCH   4   7
ATOM      7  C   UNL A   1      36.507  33.412  33.112  1.00  0.00     0.295 C 
BRANCH   7   8
ATOM      8  C   UNL A   1      37.425  32.166  33.208  1.00  0.00     0.035 A 
ATOM      9  C   UNL A   1      37.808  29.741  33.106  1.00  0.00     0.119 A 
ATOM     10  C   UNL A   1      39.158  29.933  33.380  1.00  0.00     0.046 A 
ATOM     11  C   UNL A   1      36.958  30.851  32.992  1.00  0.00     0.057 A 
ATOM     12  C   UNL A   1      39.652  31.213  33.593  1.00  0.00     0.004 A 
ATOM     13  C   UNL A   1      38.788  32.308  33.535  1.00  0.00     0.011 A 
BRANCH   9  14
ATOM     14  O   UNL A   1      37.442  28.429  32.976  1.00  0.00    -0.497 OA
ATOM     15  C   UNL A   1      38.409  27.527  32.457  1.00  0.00     0.278 C 
ENDBRANCH   9  14
ENDBRANCH   7   8
BRANCH   7  16
ATOM     16  N   UNL A   1      36.941  34.270  31.933  1.00  0.00    -0.333 N 
ATOM     17  H   UNL A   1      36.787  35.253  32.155  1.00  0.00     0.345 HD
ATOM     18  H   UNL A   1      36.394  34.018  31.110  1.00  0.00     0.345 HD
ATOM     19  H   UNL A   1      37.931  34.114  31.746  1.00  0.00     0.345 HD
ENDBRANCH   7  16
BRANCH   7  20
ATOM     20  C   UNL A   1      36.529  34.307  34.407  1.00  0.00     0.458 C 
ATOM     21  F   UNL A   1      35.510  35.178  34.543  1.00  0.00    -0.164 F 
ATOM     22  F   UNL A   1      36.517  33.516  35.518  1.00  0.00    -0.164 F 
ATOM     23  F   UNL A   1      37.691  35.013  34.484  1.00  0.00    -0.164 F 
ENDBRANCH   7  20
ENDBRANCH   4   7
ENDBRANCH   2   3
ENDBRANCH   1   2
BRANCH   1  24
ATOM     24  C   UNL A   1      34.502  32.834  27.978  1.00  0.00     0.118 C 
BRANCH  24  25
ATOM     25  N   UNL A   1      33.749  31.611  27.739  1.00  0.00    -0.352 N 
ATOM     26  C   UNL A   1      34.184  30.313  27.609  1.00  0.00     0.251 C 
ATOM     27  H   UNL A   1      32.776  31.733  27.656  1.00  0.00     0.163 HD
ATOM     28  O   UNL A   1      33.402  29.464  27.190  1.00  0.00    -0.269 OA
BRANCH  26  29
ATOM     29  C   UNL A   1      35.575  29.932  27.951  1.00  0.00     0.039 A 
ATOM     30  C   UNL A   1      36.566  30.056  26.972  1.00  0.00     0.014 A 
ATOM     31  C   UNL A   1      35.904  29.403  29.203  1.00  0.00     0.014 A 
ATOM     32  C   UNL A   1      37.887  29.700  27.263  1.00  0.00     0.010 A 
ATOM     33  C   UNL A   1      37.233  29.119  29.516  1.00  0.00     0.010 A 
ATOM     34  C   UNL A   1      38.238  29.255  28.547  1.00  0.00    -0.014 A 
BRANCH  34  35
ATOM     35  C   UNL A   1      39.642  28.903  28.887  1.00  0.00     0.031 A 
ATOM     36  C   UNL A   1      40.546  29.933  29.514  1.00  0.00     0.074 A 
ATOM     37  C   UNL A   1      40.119  27.679  28.590  1.00  0.00     0.049 A 
ATOM     38  N   UNL A   1      41.820  29.853  29.796  1.00  0.00    -0.248 NA
ATOM     39  C   UNL A   1      39.940  31.233  29.850  1.00  0.00     0.031 C 
ATOM     40  C   UNL A   1      39.355  26.604  27.950  1.00  0.00     0.029 A 
ATOM     41  N   UNL A   1      41.365  27.132  28.774  1.00  0.00    -0.354 N 
ATOM     42  C   UNL A   1      42.170  31.086  30.334  1.00  0.00     0.074 A 
ATOM     43  C   UNL A   1      40.986  31.918  30.288  1.00  0.00     0.031 C 
ATOM     44  C   UNL A   1      40.145  25.527  27.807  1.00  0.00     0.029 A 
ATOM     45  C   UNL A   1      41.478  25.842  28.309  1.00  0.00     0.049 A 
ATOM     46  H   UNL A   1      42.107  27.618  29.200  1.00  0.00     0.167 HD
ATOM     47  C   UNL A   1      43.360  31.484  30.845  1.00  0.00     0.037 A 
ATOM     48  C   UNL A   1      42.540  25.013  28.280  1.00  0.00     0.037 A 
ATOM     49  C   UNL A   1      44.531  30.649  30.910  1.00  0.00     0.049 A 
ATOM     50  C   UNL A   1      43.854  25.483  28.845  1.00  0.00     0.074 A 
ATOM     51  C   UNL A   1      45.780  30.953  31.423  1.00  0.00     0.029 A 
ATOM     52  N   UNL A   1      44.594  29.339  30.458  1.00  0.00    -0.354 N 
ATOM     53  N   UNL A   1      44.156  26.644  29.375  1.00  0.00    -0.248 NA
ATOM     54  C   UNL A   1      44.972  24.528  28.814  1.00  0.00     0.031 C 
ATOM     55  C   UNL A   1      46.606  29.836  31.260  1.00  0.00     0.029 A 
ATOM     56  C   UNL A   1      45.860  28.822  30.680  1.00  0.00     0.049 A 
ATOM     57  H   UNL A   1      43.849  28.848  30.042  1.00  0.00     0.167 HD
ATOM     58  C   UNL A   1      45.487  26.548  29.766  1.00  0.00     0.074 A 
ATOM     59  C   UNL A   1      45.929  25.213  29.424  1.00  0.00     0.031 C 
ATOM     60  C   UNL A   1      46.274  27.482  30.353  1.00  0.00     0.037 A 
BRANCH  47  61
ATOM     61  C   UNL A   1      43.450  32.877  31.403  1.00  0.00     0.058 A 
ATOM     62  C   UNL A   1      43.168  33.140  32.753  1.00  0.00     0.135 A 
ATOM     63  C   UNL A   1      43.870  33.950  30.601  1.00  0.00     0.135 A 
ATOM     64  F   UNL A   1      42.746  32.154  33.560  1.00  0.00    -0.206 F 
ATOM     65  C   UNL A   1      43.280  34.420  33.284  1.00  0.00     0.059 A 
ATOM     66  C   UNL A   1      44.013  35.236  31.117  1.00  0.00     0.059 A 
ATOM     67  F   UNL A   1      44.152  33.754  29.303  1.00  0.00    -0.206 F 
ATOM     68  C   UNL A   1      43.706  35.462  32.458  1.00  0.00     0.060 A 
BRANCH  68  69
ATOM     69  S   UNL A   1      43.866  37.113  33.170  1.00  0.00     0.124 S 
ATOM     70  O   UNL A   1      42.758  37.128  34.121  1.00  0.00    -0.237 OA
ATOM     71  O   UNL A   1      45.202  37.074  33.755  1.00  0.00    -0.237 OA
ATOM     72  O   UNL A   1      43.715  37.996  32.018  1.00  0.00    -0.744 OA
ENDBRANCH  68  69
ENDBRANCH  47  61
BRANCH  48  73
ATOM     73  C   UNL A   1      42.413  23.649  27.701  1.00  0.00     0.058 A 
ATOM     74  C   UNL A   1      42.302  22.520  28.526  1.00  0.00     0.135 A 
ATOM     75  C   UNL A   1      42.429  23.443  26.313  1.00  0.00     0.135 A 
ATOM     76  F   UNL A   1      42.286  22.666  29.861  1.00  0.00    -0.206 F 
ATOM     77  C   UNL A   1      42.249  21.234  28.000  1.00  0.00     0.059 A 
ATOM     78  C   UNL A   1      42.351  22.168  25.762  1.00  0.00     0.059 A 
ATOM     79  F   UNL A   1      42.512  24.491  25.478  1.00  0.00    -0.206 F 
ATOM     80  C   UNL A   1      42.280  21.068  26.615  1.00  0.00     0.060 A 
BRANCH  80  81
ATOM     81  S   UNL A   1      42.204  19.396  25.937  1.00  0.00     0.124 S 
ATOM     82  O   UNL A   1      43.072  19.514  24.772  1.00  0.00    -0.237 OA
ATOM     83  O   UNL A   1      42.720  18.590  27.039  1.00  0.00    -0.237 OA
ATOM     84  O   UNL A   1      40.783  19.217  25.653  1.00  0.00    -0.744 OA
ENDBRANCH  80  81
ENDBRANCH  48  73
BRANCH  60  85
ATOM     85  C   UNL A   1      47.678  27.080  30.706  1.00  0.00     0.058 A 
ATOM     86  C   UNL A   1      48.764  27.389  29.875  1.00  0.00     0.135 A 
ATOM     87  C   UNL A   1      47.943  26.417  31.916  1.00  0.00     0.135 A 
ATOM     88  F   UNL A   1      48.563  28.016  28.705  1.00  0.00    -0.206 F 
ATOM     89  C   UNL A   1      50.066  27.037  30.220  1.00  0.00     0.059 A 
ATOM     90  C   UNL A   1      49.238  26.077  32.292  1.00  0.00     0.059 A 
ATOM     91  F   UNL A   1      46.938  26.106  32.751  1.00  0.00    -0.206 F 
ATOM     92  C   UNL A   1      50.292  26.381  31.431  1.00  0.00     0.060 A 
BRANCH  92  93
ATOM     93  S   UNL A   1      51.988  25.960  31.885  1.00  0.00     0.124 S 
ATOM     94  O   UNL A   1      52.270  26.953  32.917  1.00  0.00    -0.237 OA
ATOM     95  O   UNL A   1      51.857  24.583  32.350  1.00  0.00    -0.237 OA
ATOM     96  O   UNL A   1      52.724  26.125  30.635  1.00  0.00    -0.744 OA
ENDBRANCH  92  93
ENDBRANCH  60  85
ENDBRANCH  34  35
ENDBRANCH  26  29
ENDBRANCH  24  25
ENDBRANCH   1  24
TORSDOF 17
ENDMDL
MODEL 2
REMARK VINA RESULT:      -9.9      3.601      5.888
REMARK SMILES COc1cccc([C@@]([NH3+])(C(=O)NCCCNC(=O)c2ccc(-c3c4nc(c(-c5c(F)cc(S(=O)(=O)[O-])cc5F)c5ccc([nH]5)c(-c5c(F)cc(S(=O)(=O)[O-])cc5F)c5nc(c(-c6c(F)cc(S(=O)(=O)[O-])cc6F)c6ccc3[nH]6)C=C5)C=C4)cc2)C(F)(F)F)c1
REMARK SMILES IDX 14 1 13 2 12 3 10 4 11 5 8 7 7 8 3 9 4 10 89 11 5 12 6 13
REMARK SMILES IDX 2 14 1 15 9 16 85 20 86 21 87 22 88 23 15 24 16 25 17 26
REMARK SMILES IDX 18 28 19 29 20 30 84 31 21 32 83 33 22 34 23 35 24 36 77 37
REMARK SMILES IDX 25 38 82 39 76 40 78 41 26 42 81 43 75 44 74 45 27 47 61 48
REMARK SMILES IDX 40 49 60 50 41 51 44 52 59 53 79 54 42 55 43 56 58 58 80 59
REMARK SMILES IDX 45 60 28 61 29 62 38 63 30 64 31 65 37 66 39 67 32 68 33 69
REMARK SMILES IDX 34 70 35 71 36 72 62 73 63 74 72 75 64 76 65 77 71 78 73 79
REMARK SMILES IDX 66 80 67 81 68 82 69 83 70 84 46 85 47 86 56 87 48 88 49 89
REMARK SMILES IDX 55 90 57 91 50 92 51 93 52 94 53 95 54 96
REMARK H PARENT 12 6 9 17 9 18 9 19 16 27 78 46 44 57
REMARK Flexibility Score: inf
ROOT
ATOM      1  C   UNL A   1      33.643  27.805  25.335  1.00  0.00     0.042 C 
ENDROOT
BRANCH   1   2
ATOM      2  C   UNL A   1      32.283  27.535  24.695  1.00  0.00     0.118 C 
BRANCH   2   3
ATOM      3  N   UNL A   1      31.327  27.032  25.667  1.00  0.00    -0.350 N 
ATOM      4  C   UNL A   1      30.717  25.819  25.836  1.00  0.00     0.296 C 
ATOM      5  O   UNL A   1      29.852  25.810  26.720  1.00  0.00    -0.267 OA
ATOM      6  H   UNL A   1      31.064  27.700  26.342  1.00  0.00     0.163 HD
BRANCH   4   7
ATOM      7  C   UNL A   1      31.049  24.539  25.005  1.00  0.00     0.295 C 
BRANCH   7   8
ATOM      8  C   UNL A   1      32.571  24.248  24.985  1.00  0.00     0.035 A 
ATOM      9  C   UNL A   1      34.647  23.635  23.821  1.00  0.00     0.119 A 
ATOM     10  C   UNL A   1      35.359  23.745  25.012  1.00  0.00     0.046 A 
ATOM     11  C   UNL A   1      33.272  23.913  23.806  1.00  0.00     0.057 A 
ATOM     12  C   UNL A   1      34.701  24.077  26.189  1.00  0.00     0.004 A 
ATOM     13  C   UNL A   1      33.323  24.296  26.175  1.00  0.00     0.011 A 
BRANCH   9  14
ATOM     14  O   UNL A   1      35.403  23.244  22.749  1.00  0.00    -0.497 OA
ATOM     15  C   UNL A   1      36.726  22.797  23.008  1.00  0.00     0.278 C 
ENDBRANCH   9  14
ENDBRANCH   7   8
BRANCH   7  16
ATOM     16  N   UNL A   1      30.311  23.340  25.581  1.00  0.00    -0.333 N 
ATOM     17  H   UNL A   1      29.371  23.300  25.188  1.00  0.00     0.345 HD
ATOM     18  H   UNL A   1      30.253  23.432  26.595  1.00  0.00     0.345 HD
ATOM     19  H   UNL A   1      30.815  22.486  25.344  1.00  0.00     0.345 HD
ENDBRANCH   7  16
BRANCH   7  20
ATOM     20  C   UNL A   1      30.452  24.846  23.580  1.00  0.00     0.458 C 
ATOM     21  F   UNL A   1      29.382  25.665  23.549  1.00  0.00    -0.164 F 
ATOM     22  F   UNL A   1      31.406  25.420  22.791  1.00  0.00    -0.164 F 
ATOM     23  F   UNL A   1      30.109  23.692  22.944  1.00  0.00    -0.164 F 
ENDBRANCH   7  20
ENDBRANCH   4   7
ENDBRANCH   2   3
ENDBRANCH   1   2
BRANCH   1  24
ATOM     24  C   UNL A   1      33.573  28.081  26.833  1.00  0.00     0.118 C 
BRANCH  24  25
ATOM     25  N   UNL A   1      33.412  29.498  27.123  1.00  0.00    -0.352 N 
ATOM     26  C   UNL A   1      34.250  30.369  27.778  1.00  0.00     0.251 C 
ATOM     27  H   UNL A   1      32.571  29.894  26.802  1.00  0.00     0.163 HD
ATOM     28  O   UNL A   1      33.821  31.471  28.107  1.00  0.00    -0.269 OA
BRANCH  26  29
ATOM     29  C   UNL A   1      35.648  29.994  28.100  1.00  0.00     0.039 A 
ATOM     30  C   UNL A   1      36.614  30.070  27.091  1.00  0.00     0.014 A 
ATOM     31  C   UNL A   1      36.006  29.518  29.365  1.00  0.00     0.014 A 
ATOM     32  C   UNL A   1      37.940  29.719  27.364  1.00  0.00     0.010 A 
ATOM     33  C   UNL A   1      37.342  29.240  29.655  1.00  0.00     0.010 A 
ATOM     34  C   UNL A   1      38.322  29.328  28.656  1.00  0.00    -0.014 A 
BRANCH  34  35
ATOM     35  C   UNL A   1      39.733  28.983  28.975  1.00  0.00     0.031 A 
ATOM     36  C   UNL A   1      40.638  30.014  29.599  1.00  0.00     0.074 A 
ATOM     37  C   UNL A   1      40.214  27.764  28.662  1.00  0.00     0.049 A 
ATOM     38  N   UNL A   1      41.917  29.940  29.863  1.00  0.00    -0.248 NA
ATOM     39  C   UNL A   1      40.028  31.307  29.952  1.00  0.00     0.031 C 
ATOM     40  C   UNL A   1      39.449  26.689  28.023  1.00  0.00     0.029 A 
ATOM     41  N   UNL A   1      41.465  27.224  28.826  1.00  0.00    -0.354 N 
ATOM     42  C   UNL A   1      42.265  31.171  30.405  1.00  0.00     0.074 A 
ATOM     43  C   UNL A   1      41.076  31.995  30.382  1.00  0.00     0.031 C 
ATOM     44  C   UNL A   1      40.243  25.619  27.862  1.00  0.00     0.029 A 
ATOM     45  C   UNL A   1      41.581  25.939  28.349  1.00  0.00     0.049 A 
ATOM     46  H   UNL A   1      42.210  27.712  29.245  1.00  0.00     0.167 HD
ATOM     47  C   UNL A   1      43.459  31.573  30.904  1.00  0.00     0.037 A 
ATOM     48  C   UNL A   1      42.648  25.117  28.300  1.00  0.00     0.037 A 
ATOM     49  C   UNL A   1      44.637  30.745  30.947  1.00  0.00     0.049 A 
ATOM     50  C   UNL A   1      43.966  25.591  28.850  1.00  0.00     0.074 A 
ATOM     51  C   UNL A   1      45.891  31.054  31.445  1.00  0.00     0.029 A 
ATOM     52  N   UNL A   1      44.702  29.439  30.484  1.00  0.00    -0.354 N 
ATOM     53  N   UNL A   1      44.267  26.750  29.386  1.00  0.00    -0.248 NA
ATOM     54  C   UNL A   1      45.089  24.644  28.797  1.00  0.00     0.031 C 
ATOM     55  C   UNL A   1      46.721  29.943  31.263  1.00  0.00     0.029 A 
ATOM     56  C   UNL A   1      45.974  28.929  30.686  1.00  0.00     0.049 A 
ATOM     57  H   UNL A   1      43.955  28.947  30.074  1.00  0.00     0.167 HD
ATOM     58  C   UNL A   1      45.604  26.660  29.759  1.00  0.00     0.074 A 
ATOM     59  C   UNL A   1      46.050  25.330  29.400  1.00  0.00     0.031 C 
ATOM     60  C   UNL A   1      46.393  27.594  30.343  1.00  0.00     0.037 A 
BRANCH  47  61
ATOM     61  C   UNL A   1      43.548  32.962  31.472  1.00  0.00     0.058 A 
ATOM     62  C   UNL A   1      43.336  33.205  32.838  1.00  0.00     0.135 A 
ATOM     63  C   UNL A   1      43.897  34.053  30.660  1.00  0.00     0.135 A 
ATOM     64  F   UNL A   1      42.984  32.201  33.657  1.00  0.00    -0.206 F 
ATOM     65  C   UNL A   1      43.447  34.482  33.377  1.00  0.00     0.059 A 
ATOM     66  C   UNL A   1      44.039  35.337  31.181  1.00  0.00     0.059 A 
ATOM     67  F   UNL A   1      44.110  33.877  29.346  1.00  0.00    -0.206 F 
ATOM     68  C   UNL A   1      43.802  35.542  32.539  1.00  0.00     0.060 A 
BRANCH  68  69
ATOM     69  S   UNL A   1      43.962  37.189  33.260  1.00  0.00     0.124 S 
ATOM     70  O   UNL A   1      42.742  37.279  34.057  1.00  0.00    -0.237 OA
ATOM     71  O   UNL A   1      45.205  37.081  34.016  1.00  0.00    -0.237 OA
ATOM     72  O   UNL A   1      44.015  38.066  32.095  1.00  0.00    -0.744 OA
ENDBRANCH  68  69
ENDBRANCH  47  61
BRANCH  48  73
ATOM     73  C   UNL A   1      42.522  23.757  27.711  1.00  0.00     0.058 A 
ATOM     74  C   UNL A   1      42.346  22.629  28.527  1.00  0.00     0.135 A 
ATOM     75  C   UNL A   1      42.604  23.552  26.326  1.00  0.00     0.135 A 
ATOM     76  F   UNL A   1      42.266  22.773  29.859  1.00  0.00    -0.206 F 
ATOM     77  C   UNL A   1      42.293  21.345  27.996  1.00  0.00     0.059 A 
ATOM     78  C   UNL A   1      42.527  22.280  25.768  1.00  0.00     0.059 A 
ATOM     79  F   UNL A   1      42.751  24.599  25.498  1.00  0.00    -0.206 F 
ATOM     80  C   UNL A   1      42.391  21.180  26.614  1.00  0.00     0.060 A 
BRANCH  80  81
ATOM     81  S   UNL A   1      42.315  19.511  25.929  1.00  0.00     0.124 S 
ATOM     82  O   UNL A   1      43.241  19.613  24.808  1.00  0.00    -0.237 OA
ATOM     83  O   UNL A   1      42.760  18.694  27.053  1.00  0.00    -0.237 OA
ATOM     84  O   UNL A   1      40.906  19.361  25.575  1.00  0.00    -0.744 OA
ENDBRANCH  80  81
ENDBRANCH  48  73
BRANCH  60  85
ATOM     85  C   UNL A   1      47.804  27.198  30.674  1.00  0.00     0.058 A 
ATOM     86  C   UNL A   1      48.115  26.490  31.844  1.00  0.00     0.135 A 
ATOM     87  C   UNL A   1      48.850  27.492  29.783  1.00  0.00     0.135 A 
ATOM     88  F   UNL A   1      47.152  26.191  32.729  1.00  0.00    -0.206 F 
ATOM     89  C   UNL A   1      49.421  26.104  32.132  1.00  0.00     0.059 A 
ATOM     90  C   UNL A   1      50.158  27.094  30.040  1.00  0.00     0.059 A 
ATOM     91  F   UNL A   1      48.602  28.160  28.645  1.00  0.00    -0.206 F 
ATOM     92  C   UNL A   1      50.436  26.410  31.223  1.00  0.00     0.060 A 
BRANCH  92  93
ATOM     93  S   UNL A   1      52.119  25.873  31.591  1.00  0.00     0.124 S 
ATOM     94  O   UNL A   1      52.762  26.015  30.289  1.00  0.00    -0.237 OA
ATOM     95  O   UNL A   1      52.539  26.827  32.612  1.00  0.00    -0.237 OA
ATOM     96  O   UNL A   1      51.942  24.501  32.059  1.00  0.00    -0.744 OA
ENDBRANCH  92  93
ENDBRANCH  60  85
ENDBRANCH  34  35
ENDBRANCH  26  29
ENDBRANCH  24  25
ENDBRANCH   1  24
TORSDOF 17
ENDMDL
MODEL 3
REMARK VINA RESULT:      -9.8      5.476     11.418
REMARK SMILES COc1cccc([C@@]([NH3+])(C(=O)NCCCNC(=O)c2ccc(-c3c4nc(c(-c5c(F)cc(S(=O)(=O)[O-])cc5F)c5ccc([nH]5)c(-c5c(F)cc(S(=O)(=O)[O-])cc5F)c5nc(c(-c6c(F)cc(S(=O)(=O)[O-])cc6F)c6ccc3[nH]6)C=C5)C=C4)cc2)C(F)(F)F)c1
REMARK SMILES IDX 14 1 13 2 12 3 10 4 11 5 8 7 7 8 3 9 4 10 89 11 5 12 6 13
REMARK SMILES IDX 2 14 1 15 9 16 85 20 86 21 87 22 88 23 15 24 16 25 17 26
REMARK SMILES IDX 18 28 19 29 20 30 84 31 21 32 83 33 22 34 23 35 24 36 77 37
REMARK SMILES IDX 25 38 82 39 76 40 78 41 26 42 81 43 75 44 74 45 27 47 61 48
REMARK SMILES IDX 40 49 60 50 41 51 44 52 59 53 79 54 42 55 43 56 58 58 80 59
REMARK SMILES IDX 45 60 28 61 29 62 38 63 30 64 31 65 37 66 39 67 32 68 33 69
REMARK SMILES IDX 34 70 35 71 36 72 62 73 63 74 72 75 64 76 65 77 71 78 73 79
REMARK SMILES IDX 66 80 67 81 68 82 69 83 70 84 46 85 47 86 56 87 48 88 49 89
REMARK SMILES IDX 55 90 57 91 50 92 51 93 52 94 53 95 54 96
REMARK H PARENT 12 6 9 17 9 18 9 19 16 27 78 46 44 57
REMARK Flexibility Score: inf
ROOT
ATOM      1  C   UNL A   1      39.222  22.694  26.546  1.00  0.00     0.042 C 
ENDROOT
BRANCH   1   2
ATOM      2  C   UNL A   1      38.133  23.672  26.111  1.00  0.00     0.118 C 
BRANCH   2   3
ATOM      3  N   UNL A   1      37.649  23.371  24.774  1.00  0.00    -0.350 N 
ATOM      4  C   UNL A   1      36.447  22.930  24.293  1.00  0.00     0.296 C 
ATOM      5  O   UNL A   1      36.454  22.666  23.085  1.00  0.00    -0.267 OA
ATOM      6  H   UNL A   1      38.324  23.515  24.071  1.00  0.00     0.163 HD
BRANCH   4   7
ATOM      7  C   UNL A   1      35.158  22.756  25.159  1.00  0.00     0.295 C 
BRANCH   7   8
ATOM      8  C   UNL A   1      34.253  21.620  24.617  1.00  0.00     0.035 A 
ATOM      9  C   UNL A   1      33.647  19.248  24.399  1.00  0.00     0.119 A 
ATOM     10  C   UNL A   1      32.552  19.591  23.610  1.00  0.00     0.046 A 
ATOM     11  C   UNL A   1      34.470  20.257  24.920  1.00  0.00     0.057 A 
ATOM     12  C   UNL A   1      32.308  20.922  23.298  1.00  0.00     0.004 A 
ATOM     13  C   UNL A   1      33.165  21.915  23.773  1.00  0.00     0.011 A 
BRANCH   9  14
ATOM     14  O   UNL A   1      33.807  17.902  24.582  1.00  0.00    -0.497 OA
ATOM     15  C   UNL A   1      33.995  17.100  23.424  1.00  0.00     0.278 C 
ENDBRANCH   9  14
ENDBRANCH   7   8
BRANCH   7  16
ATOM     16  N   UNL A   1      35.538  22.456  26.601  1.00  0.00    -0.333 N 
ATOM     17  H   UNL A   1      36.375  22.983  26.848  1.00  0.00     0.345 HD
ATOM     18  H   UNL A   1      35.721  21.458  26.704  1.00  0.00     0.345 HD
ATOM     19  H   UNL A   1      34.772  22.727  27.217  1.00  0.00     0.345 HD
ENDBRANCH   7  16
BRANCH   7  20
ATOM     20  C   UNL A   1      34.476  24.174  25.115  1.00  0.00     0.458 C 
ATOM     21  F   UNL A   1      34.275  24.698  23.889  1.00  0.00    -0.164 F 
ATOM     22  F   UNL A   1      33.254  24.120  25.721  1.00  0.00    -0.164 F 
ATOM     23  F   UNL A   1      35.194  25.076  25.839  1.00  0.00    -0.164 F 
ENDBRANCH   7  20
ENDBRANCH   4   7
ENDBRANCH   2   3
ENDBRANCH   1   2
BRANCH   1  24
ATOM     24  C   UNL A   1      40.471  23.371  27.098  1.00  0.00     0.118 C 
BRANCH  24  25
ATOM     25  N   UNL A   1      41.170  24.144  26.082  1.00  0.00    -0.352 N 
ATOM     26  C   UNL A   1      41.458  25.487  26.032  1.00  0.00     0.251 C 
ATOM     27  H   UNL A   1      41.485  23.624  25.309  1.00  0.00     0.163 HD
ATOM     28  O   UNL A   1      41.864  25.969  24.978  1.00  0.00    -0.269 OA
BRANCH  26  29
ATOM     29  C   UNL A   1      41.275  26.357  27.219  1.00  0.00     0.039 A 
ATOM     30  C   UNL A   1      40.224  26.080  28.099  1.00  0.00     0.014 A 
ATOM     31  C   UNL A   1      42.090  27.471  27.445  1.00  0.00     0.014 A 
ATOM     32  C   UNL A   1      40.024  26.884  29.225  1.00  0.00     0.010 A 
ATOM     33  C   UNL A   1      41.935  28.226  28.607  1.00  0.00     0.010 A 
ATOM     34  C   UNL A   1      40.894  27.948  29.505  1.00  0.00    -0.014 A 
BRANCH  34  35
ATOM     35  C   UNL A   1      40.719  28.795  30.715  1.00  0.00     0.031 A 
ATOM     36  C   UNL A   1      39.680  29.887  30.726  1.00  0.00     0.074 A 
ATOM     37  C   UNL A   1      41.522  28.617  31.781  1.00  0.00     0.049 A 
ATOM     38  N   UNL A   1      39.438  30.789  31.641  1.00  0.00    -0.248 NA
ATOM     39  C   UNL A   1      38.811  29.990  29.541  1.00  0.00     0.031 C 
ATOM     40  C   UNL A   1      42.590  27.618  31.881  1.00  0.00     0.029 A 
ATOM     41  N   UNL A   1      41.577  29.278  32.984  1.00  0.00    -0.354 N 
ATOM     42  C   UNL A   1      38.400  31.567  31.144  1.00  0.00     0.074 A 
ATOM     43  C   UNL A   1      38.092  31.067  29.822  1.00  0.00     0.031 C 
ATOM     44  C   UNL A   1      43.183  27.726  33.081  1.00  0.00     0.029 A 
ATOM     45  C   UNL A   1      42.566  28.821  33.823  1.00  0.00     0.049 A 
ATOM     46  H   UNL A   1      40.964  30.011  33.222  1.00  0.00     0.167 HD
ATOM     47  C   UNL A   1      37.741  32.588  31.744  1.00  0.00     0.037 A 
ATOM     48  C   UNL A   1      42.942  29.245  35.045  1.00  0.00     0.037 A 
ATOM     49  C   UNL A   1      38.033  33.071  33.069  1.00  0.00     0.049 A 
ATOM     50  C   UNL A   1      42.201  30.389  35.685  1.00  0.00     0.074 A 
ATOM     51  C   UNL A   1      37.413  34.091  33.771  1.00  0.00     0.029 A 
ATOM     52  N   UNL A   1      39.021  32.559  33.897  1.00  0.00    -0.354 N 
ATOM     53  N   UNL A   1      41.202  31.093  35.209  1.00  0.00    -0.248 NA
ATOM     54  C   UNL A   1      42.633  30.793  37.031  1.00  0.00     0.031 C 
ATOM     55  C   UNL A   1      38.041  34.211  35.015  1.00  0.00     0.029 A 
ATOM     56  C   UNL A   1      39.027  33.242  35.102  1.00  0.00     0.049 A 
ATOM     57  H   UNL A   1      39.627  31.820  33.663  1.00  0.00     0.167 HD
ATOM     58  C   UNL A   1      40.868  32.002  36.208  1.00  0.00     0.074 A 
ATOM     59  C   UNL A   1      41.762  31.751  37.318  1.00  0.00     0.031 C 
ATOM     60  C   UNL A   1      39.910  32.961  36.205  1.00  0.00     0.037 A 
BRANCH  47  61
ATOM     61  C   UNL A   1      36.618  33.237  30.984  1.00  0.00     0.058 A 
ATOM     62  C   UNL A   1      35.276  33.001  31.324  1.00  0.00     0.135 A 
ATOM     63  C   UNL A   1      36.879  34.141  29.942  1.00  0.00     0.135 A 
ATOM     64  F   UNL A   1      34.970  32.133  32.301  1.00  0.00    -0.206 F 
ATOM     65  C   UNL A   1      34.233  33.621  30.646  1.00  0.00     0.059 A 
ATOM     66  C   UNL A   1      35.851  34.794  29.266  1.00  0.00     0.059 A 
ATOM     67  F   UNL A   1      38.144  34.403  29.575  1.00  0.00    -0.206 F 
ATOM     68  C   UNL A   1      34.531  34.519  29.619  1.00  0.00     0.060 A 
BRANCH  68  69
ATOM     69  S   UNL A   1      33.164  35.332  28.765  1.00  0.00     0.124 S 
ATOM     70  O   UNL A   1      33.875  36.290  27.924  1.00  0.00    -0.237 OA
ATOM     71  O   UNL A   1      32.529  34.222  28.062  1.00  0.00    -0.237 OA
ATOM     72  O   UNL A   1      32.381  35.912  29.852  1.00  0.00    -0.744 OA
ENDBRANCH  68  69
ENDBRANCH  47  61
BRANCH  48  73
ATOM     73  C   UNL A   1      44.072  28.588  35.755  1.00  0.00     0.058 A 
ATOM     74  C   UNL A   1      43.846  27.539  36.658  1.00  0.00     0.135 A 
ATOM     75  C   UNL A   1      45.395  29.014  35.567  1.00  0.00     0.135 A 
ATOM     76  F   UNL A   1      42.596  27.099  36.874  1.00  0.00    -0.206 F 
ATOM     77  C   UNL A   1      44.885  26.960  37.378  1.00  0.00     0.059 A 
ATOM     78  C   UNL A   1      46.455  28.433  36.256  1.00  0.00     0.059 A 
ATOM     79  F   UNL A   1      45.668  30.001  34.699  1.00  0.00    -0.206 F 
ATOM     80  C   UNL A   1      46.187  27.419  37.174  1.00  0.00     0.060 A 
BRANCH  80  81
ATOM     81  S   UNL A   1      47.534  26.658  38.107  1.00  0.00     0.124 S 
ATOM     82  O   UNL A   1      48.525  26.438  37.060  1.00  0.00    -0.237 OA
ATOM     83  O   UNL A   1      47.857  27.692  39.085  1.00  0.00    -0.237 OA
ATOM     84  O   UNL A   1      46.918  25.455  38.659  1.00  0.00    -0.744 OA
ENDBRANCH  80  81
ENDBRANCH  48  73
BRANCH  60  85
ATOM     85  C   UNL A   1      39.747  33.777  37.456  1.00  0.00     0.058 A 
ATOM     86  C   UNL A   1      40.444  34.979  37.648  1.00  0.00     0.135 A 
ATOM     87  C   UNL A   1      38.843  33.373  38.453  1.00  0.00     0.135 A 
ATOM     88  F   UNL A   1      41.323  35.404  36.728  1.00  0.00    -0.206 F 
ATOM     89  C   UNL A   1      40.269  35.744  38.797  1.00  0.00     0.059 A 
ATOM     90  C   UNL A   1      38.634  34.135  39.598  1.00  0.00     0.059 A 
ATOM     91  F   UNL A   1      38.144  32.236  38.312  1.00  0.00    -0.206 F 
ATOM     92  C   UNL A   1      39.360  35.313  39.767  1.00  0.00     0.060 A 
BRANCH  92  93
ATOM     93  S   UNL A   1      39.114  36.332  41.236  1.00  0.00     0.124 S 
ATOM     94  O   UNL A   1      38.863  37.643  40.646  1.00  0.00    -0.237 OA
ATOM     95  O   UNL A   1      37.966  35.694  41.873  1.00  0.00    -0.237 OA
ATOM     96  O   UNL A   1      40.376  36.198  41.957  1.00  0.00    -0.744 OA
ENDBRANCH  92  93
ENDBRANCH  60  85
ENDBRANCH  34  35
ENDBRANCH  26  29
ENDBRANCH  24  25
ENDBRANCH   1  24
TORSDOF 17
ENDMDL
