MODEL 1
REMARK VINA RESULT:      -9.2      0.000      0.000
REMARK SMILES CC/C=C/C/C=C/C/C=C/C/C=C/CCSCCCC(=O)NCCCNC(=O)c1ccc(-c2c3nc(c(-c4c(F)cc(S(=O)(=O)[O-])cc4F)c4ccc([nH]4)c(-c4c(F)cc(S(=O)(=O)[O-])cc4F)c4nc(c(-c5c(F)cc(S(=O)(=O)[O-])cc5F)c5ccc2[nH]5)C=C4)C=C3)cc1
REMARK SMILES IDX 17 1 16 2 15 3 14 4 13 5 12 6 11 7 10 8 9 9 8 10 7 11 6 12
REMARK SMILES IDX 5 13 4 14 3 15 2 16 1 17 18 18 19 19 20 20 21 21 22 22 23 24
REMARK SMILES IDX 24 25 25 26 26 27 27 28 28 30 29 31 30 32 94 33 31 34 93 35
REMARK SMILES IDX 32 36 33 37 34 38 87 39 35 40 92 41 86 42 88 43 36 44 91 45
REMARK SMILES IDX 85 46 84 47 37 49 71 50 50 51 70 52 51 53 54 54 69 55 89 56
REMARK SMILES IDX 52 57 53 58 68 60 90 61 55 62 38 63 39 64 48 65 40 66 41 67
REMARK SMILES IDX 47 68 49 69 42 70 43 71 44 72 45 73 46 74 72 75 73 76 82 77
REMARK SMILES IDX 74 78 75 79 81 80 83 81 76 82 77 83 78 84 79 85 80 86 56 87
REMARK SMILES IDX 57 88 66 89 58 90 59 91 65 92 67 93 60 94 61 95 62 96 63 97
REMARK SMILES IDX 64 98
REMARK H PARENT 22 23 26 29 88 48 54 59
REMARK Flexibility Score: inf
ROOT
ATOM      1  C   UNL A   1      39.575  21.840  26.549  1.00  0.00     0.070 C 
ENDROOT
BRANCH   1   2
ATOM      2  S   UNL A   1      38.137  21.486  25.444  1.00  0.00    -0.162 SA
BRANCH   2   3
ATOM      3  C   UNL A   1      37.111  23.000  25.244  1.00  0.00     0.073 C 
BRANCH   3   4
ATOM      4  C   UNL A   1      36.601  23.356  23.824  1.00  0.00     0.038 C 
BRANCH   4   5
ATOM      5  C   UNL A   1      35.188  22.910  23.527  1.00  0.00    -0.030 C 
ATOM      6  C   UNL A   1      34.063  23.609  23.761  1.00  0.00    -0.027 C 
BRANCH   6   7
ATOM      7  C   UNL A   1      32.699  23.290  23.178  1.00  0.00     0.054 C 
BRANCH   7   8
ATOM      8  C   UNL A   1      31.861  24.462  22.744  1.00  0.00    -0.027 C 
ATOM      9  C   UNL A   1      32.198  25.734  23.016  1.00  0.00    -0.027 C 
BRANCH   9  10
ATOM     10  C   UNL A   1      31.360  26.930  22.666  1.00  0.00     0.054 C 
BRANCH  10  11
ATOM     11  C   UNL A   1      31.127  27.731  23.915  1.00  0.00    -0.027 C 
ATOM     12  C   UNL A   1      31.665  28.936  24.159  1.00  0.00    -0.027 C 
BRANCH  12  13
ATOM     13  C   UNL A   1      31.578  29.624  25.490  1.00  0.00     0.054 C 
BRANCH  13  14
ATOM     14  C   UNL A   1      32.957  30.016  25.942  1.00  0.00    -0.027 C 
ATOM     15  C   UNL A   1      33.262  30.407  27.189  1.00  0.00    -0.031 C 
BRANCH  15  16
ATOM     16  C   UNL A   1      34.622  30.892  27.597  1.00  0.00     0.023 C 
ATOM     17  C   UNL A   1      35.560  29.719  27.834  1.00  0.00     0.008 C 
ENDBRANCH  15  16
ENDBRANCH  13  14
ENDBRANCH  12  13
ENDBRANCH  10  11
ENDBRANCH   9  10
ENDBRANCH   7   8
ENDBRANCH   6   7
ENDBRANCH   4   5
ENDBRANCH   3   4
ENDBRANCH   2   3
ENDBRANCH   1   2
BRANCH   1  18
ATOM     18  C   UNL A   1      41.044  21.837  26.129  1.00  0.00     0.021 C 
BRANCH  18  19
ATOM     19  C   UNL A   1      41.978  20.755  26.642  1.00  0.00     0.101 C 
BRANCH  19  20
ATOM     20  C   UNL A   1      43.141  20.301  25.776  1.00  0.00     0.220 C 
ATOM     21  O   UNL A   1      42.989  19.357  24.994  1.00  0.00    -0.275 OA
ATOM     22  N   UNL A   1      44.338  20.937  25.749  1.00  0.00    -0.356 N 
ATOM     23  H   UNL A   1      45.020  20.487  25.201  1.00  0.00     0.163 HD
BRANCH  22  24
ATOM     24  C   UNL A   1      44.794  22.158  26.377  1.00  0.00     0.117 C 
BRANCH  24  25
ATOM     25  C   UNL A   1      44.862  23.320  25.402  1.00  0.00     0.042 C 
BRANCH  25  26
ATOM     26  C   UNL A   1      44.100  24.523  25.930  1.00  0.00     0.118 C 
BRANCH  26  27
ATOM     27  N   UNL A   1      42.828  24.742  25.242  1.00  0.00    -0.352 N 
ATOM     28  C   UNL A   1      41.763  25.517  25.670  1.00  0.00     0.251 C 
ATOM     29  H   UNL A   1      42.716  24.286  24.377  1.00  0.00     0.163 HD
ATOM     30  O   UNL A   1      40.706  25.536  25.073  1.00  0.00    -0.269 OA
BRANCH  28  31
ATOM     31  C   UNL A   1      41.955  26.292  26.916  1.00  0.00     0.039 A 
ATOM     32  C   UNL A   1      42.658  27.499  26.874  1.00  0.00     0.014 A 
ATOM     33  C   UNL A   1      41.262  25.903  28.062  1.00  0.00     0.014 A 
ATOM     34  C   UNL A   1      42.571  28.375  27.959  1.00  0.00     0.010 A 
ATOM     35  C   UNL A   1      41.088  26.823  29.085  1.00  0.00     0.010 A 
ATOM     36  C   UNL A   1      41.733  28.072  29.045  1.00  0.00    -0.014 A 
BRANCH  36  37
ATOM     37  C   UNL A   1      41.491  29.018  30.167  1.00  0.00     0.031 A 
ATOM     38  C   UNL A   1      42.313  28.882  31.419  1.00  0.00     0.074 A 
ATOM     39  C   UNL A   1      40.452  29.876  30.131  1.00  0.00     0.049 A 
ATOM     40  N   UNL A   1      42.113  29.393  32.604  1.00  0.00    -0.248 NA
ATOM     41  C   UNL A   1      43.484  27.992  31.335  1.00  0.00     0.031 C 
ATOM     42  C   UNL A   1      39.539  30.066  29.002  1.00  0.00     0.029 A 
ATOM     43  N   UNL A   1      39.967  30.730  31.092  1.00  0.00    -0.354 N 
ATOM     44  C   UNL A   1      43.091  28.837  33.419  1.00  0.00     0.074 A 
ATOM     45  C   UNL A   1      43.847  27.912  32.604  1.00  0.00     0.031 C 
ATOM     46  C   UNL A   1      38.612  30.980  29.332  1.00  0.00     0.029 A 
ATOM     47  C   UNL A   1      38.831  31.408  30.710  1.00  0.00     0.049 A 
ATOM     48  H   UNL A   1      40.392  30.847  31.973  1.00  0.00     0.167 HD
ATOM     49  C   UNL A   1      43.349  29.088  34.725  1.00  0.00     0.037 A 
ATOM     50  C   UNL A   1      38.043  32.257  31.399  1.00  0.00     0.037 A 
ATOM     51  C   UNL A   1      42.636  30.061  35.505  1.00  0.00     0.049 A 
ATOM     52  C   UNL A   1      38.389  32.586  32.825  1.00  0.00     0.074 A 
ATOM     53  C   UNL A   1      42.870  30.460  36.808  1.00  0.00     0.029 A 
ATOM     54  N   UNL A   1      41.555  30.800  35.046  1.00  0.00    -0.354 N 
ATOM     55  N   UNL A   1      39.348  32.091  33.571  1.00  0.00    -0.248 NA
ATOM     56  C   UNL A   1      37.557  33.589  33.503  1.00  0.00     0.031 C 
ATOM     57  C   UNL A   1      41.914  31.424  37.146  1.00  0.00     0.029 A 
ATOM     58  C   UNL A   1      41.109  31.653  36.040  1.00  0.00     0.049 A 
ATOM     59  H   UNL A   1      41.163  30.729  34.145  1.00  0.00     0.167 HD
ATOM     60  C   UNL A   1      39.251  32.740  34.797  1.00  0.00     0.074 A 
ATOM     61  C   UNL A   1      38.140  33.663  34.694  1.00  0.00     0.031 C 
ATOM     62  C   UNL A   1      40.015  32.584  35.906  1.00  0.00     0.037 A 
BRANCH  49  63
ATOM     63  C   UNL A   1      44.449  28.292  35.371  1.00  0.00     0.058 A 
ATOM     64  C   UNL A   1      44.197  27.072  36.022  1.00  0.00     0.135 A 
ATOM     65  C   UNL A   1      45.768  28.774  35.376  1.00  0.00     0.135 A 
ATOM     66  F   UNL A   1      42.951  26.571  36.060  1.00  0.00    -0.206 F 
ATOM     67  C   UNL A   1      45.196  26.395  36.712  1.00  0.00     0.059 A 
ATOM     68  C   UNL A   1      46.791  28.094  36.032  1.00  0.00     0.059 A 
ATOM     69  F   UNL A   1      46.069  29.930  34.765  1.00  0.00    -0.206 F 
ATOM     70  C   UNL A   1      46.487  26.923  36.723  1.00  0.00     0.060 A 
BRANCH  70  71
ATOM     71  S   UNL A   1      47.763  26.067  37.670  1.00  0.00     0.124 S 
ATOM     72  O   UNL A   1      48.130  27.088  38.647  1.00  0.00    -0.237 OA
ATOM     73  O   UNL A   1      47.043  24.914  38.202  1.00  0.00    -0.237 OA
ATOM     74  O   UNL A   1      48.780  25.760  36.669  1.00  0.00    -0.744 OA
ENDBRANCH  70  71
ENDBRANCH  49  63
BRANCH  50  75
ATOM     75  C   UNL A   1      36.869  32.874  30.725  1.00  0.00     0.058 A 
ATOM     76  C   UNL A   1      35.566  32.450  31.022  1.00  0.00     0.135 A 
ATOM     77  C   UNL A   1      37.020  33.943  29.828  1.00  0.00     0.135 A 
ATOM     78  F   UNL A   1      35.371  31.427  31.868  1.00  0.00    -0.206 F 
ATOM     79  C   UNL A   1      34.452  33.067  30.461  1.00  0.00     0.059 A 
ATOM     80  C   UNL A   1      35.920  34.590  29.268  1.00  0.00     0.059 A 
ATOM     81  F   UNL A   1      38.246  34.398  29.524  1.00  0.00    -0.206 F 
ATOM     82  C   UNL A   1      34.640  34.144  29.593  1.00  0.00     0.060 A 
BRANCH  82  83
ATOM     83  S   UNL A   1      33.185  35.002  28.951  1.00  0.00     0.124 S 
ATOM     84  O   UNL A   1      32.671  34.033  27.991  1.00  0.00    -0.237 OA
ATOM     85  O   UNL A   1      32.385  35.192  30.158  1.00  0.00    -0.237 OA
ATOM     86  O   UNL A   1      33.742  36.224  28.381  1.00  0.00    -0.744 OA
ENDBRANCH  82  83
ENDBRANCH  50  75
BRANCH  62  87
ATOM     87  C   UNL A   1      39.722  33.459  37.090  1.00  0.00     0.058 A 
ATOM     88  C   UNL A   1      38.764  33.102  38.050  1.00  0.00     0.135 A 
ATOM     89  C   UNL A   1      40.496  34.608  37.325  1.00  0.00     0.135 A 
ATOM     90  F   UNL A   1      37.994  32.017  37.866  1.00  0.00    -0.206 F 
ATOM     91  C   UNL A   1      38.588  33.851  39.209  1.00  0.00     0.059 A 
ATOM     92  C   UNL A   1      40.351  35.359  38.486  1.00  0.00     0.059 A 
ATOM     93  F   UNL A   1      41.431  34.985  36.439  1.00  0.00    -0.206 F 
ATOM     94  C   UNL A   1      39.394  34.972  39.423  1.00  0.00     0.060 A 
BRANCH  94  95
ATOM     95  S   UNL A   1      39.218  35.883  40.972  1.00  0.00     0.124 S 
ATOM     96  O   UNL A   1      40.321  35.342  41.758  1.00  0.00    -0.237 OA
ATOM     97  O   UNL A   1      39.366  37.269  40.539  1.00  0.00    -0.237 OA
ATOM     98  O   UNL A   1      37.881  35.516  41.431  1.00  0.00    -0.744 OA
ENDBRANCH  94  95
ENDBRANCH  62  87
ENDBRANCH  36  37
ENDBRANCH  28  31
ENDBRANCH  26  27
ENDBRANCH  25  26
ENDBRANCH  24  25
ENDBRANCH  22  24
ENDBRANCH  19  20
ENDBRANCH  18  19
ENDBRANCH   1  18
TORSDOF 26
ENDMDL
MODEL 2
REMARK VINA RESULT:      -7.9      6.164     13.815
REMARK SMILES CC/C=C/C/C=C/C/C=C/C/C=C/CCSCCCC(=O)NCCCNC(=O)c1ccc(-c2c3nc(c(-c4c(F)cc(S(=O)(=O)[O-])cc4F)c4ccc([nH]4)c(-c4c(F)cc(S(=O)(=O)[O-])cc4F)c4nc(c(-c5c(F)cc(S(=O)(=O)[O-])cc5F)c5ccc2[nH]5)C=C4)C=C3)cc1
REMARK SMILES IDX 17 1 16 2 15 3 14 4 13 5 12 6 11 7 10 8 9 9 8 10 7 11 6 12
REMARK SMILES IDX 5 13 4 14 3 15 2 16 1 17 18 18 19 19 20 20 21 21 22 22 23 24
REMARK SMILES IDX 24 25 25 26 26 27 27 28 28 30 29 31 30 32 94 33 31 34 93 35
REMARK SMILES IDX 32 36 33 37 34 38 87 39 35 40 92 41 86 42 88 43 36 44 91 45
REMARK SMILES IDX 85 46 84 47 37 49 71 50 50 51 70 52 51 53 54 54 69 55 89 56
REMARK SMILES IDX 52 57 53 58 68 60 90 61 55 62 38 63 39 64 48 65 40 66 41 67
REMARK SMILES IDX 47 68 49 69 42 70 43 71 44 72 45 73 46 74 72 75 73 76 82 77
REMARK SMILES IDX 74 78 75 79 81 80 83 81 76 82 77 83 78 84 79 85 80 86 56 87
REMARK SMILES IDX 57 88 66 89 58 90 59 91 65 92 67 93 60 94 61 95 62 96 63 97
REMARK SMILES IDX 64 98
REMARK H PARENT 22 23 26 29 88 48 54 59
REMARK Flexibility Score: inf
ROOT
ATOM      1  C   UNL A   1      37.626  32.823  33.202  1.00  0.00     0.070 C 
ENDROOT
BRANCH   1   2
ATOM      2  S   UNL A   1      38.360  34.073  32.057  1.00  0.00    -0.162 SA
BRANCH   2   3
ATOM      3  C   UNL A   1      40.196  33.955  32.090  1.00  0.00     0.073 C 
BRANCH   3   4
ATOM      4  C   UNL A   1      40.899  33.872  33.470  1.00  0.00     0.038 C 
BRANCH   4   5
ATOM      5  C   UNL A   1      41.066  35.195  34.178  1.00  0.00    -0.030 C 
ATOM      6  C   UNL A   1      42.212  35.701  34.667  1.00  0.00    -0.027 C 
BRANCH   6   7
ATOM      7  C   UNL A   1      42.421  37.145  35.086  1.00  0.00     0.054 C 
BRANCH   7   8
ATOM      8  C   UNL A   1      43.209  38.012  34.143  1.00  0.00    -0.027 C 
ATOM      9  C   UNL A   1      44.462  37.713  33.759  1.00  0.00    -0.027 C 
BRANCH   9  10
ATOM     10  C   UNL A   1      45.313  38.582  32.876  1.00  0.00     0.054 C 
BRANCH  10  11
ATOM     11  C   UNL A   1      45.142  38.130  31.455  1.00  0.00    -0.027 C 
ATOM     12  C   UNL A   1      44.959  36.856  31.077  1.00  0.00    -0.027 C 
BRANCH  12  13
ATOM     13  C   UNL A   1      44.989  36.406  29.645  1.00  0.00     0.054 C 
BRANCH  13  14
ATOM     14  C   UNL A   1      43.601  36.031  29.208  1.00  0.00    -0.027 C 
ATOM     15  C   UNL A   1      42.989  36.532  28.124  1.00  0.00    -0.031 C 
BRANCH  15  16
ATOM     16  C   UNL A   1      41.566  36.224  27.759  1.00  0.00     0.023 C 
ATOM     17  C   UNL A   1      40.958  35.244  28.751  1.00  0.00     0.008 C 
ENDBRANCH  15  16
ENDBRANCH  13  14
ENDBRANCH  12  13
ENDBRANCH  10  11
ENDBRANCH   9  10
ENDBRANCH   7   8
ENDBRANCH   6   7
ENDBRANCH   4   5
ENDBRANCH   3   4
ENDBRANCH   2   3
ENDBRANCH   1   2
BRANCH   1  18
ATOM     18  C   UNL A   1      36.140  32.673  33.525  1.00  0.00     0.021 C 
BRANCH  18  19
ATOM     19  C   UNL A   1      35.367  33.846  34.102  1.00  0.00     0.101 C 
BRANCH  19  20
ATOM     20  C   UNL A   1      34.804  34.902  33.166  1.00  0.00     0.220 C 
ATOM     21  O   UNL A   1      34.743  36.078  33.537  1.00  0.00    -0.275 OA
ATOM     22  N   UNL A   1      34.435  34.639  31.888  1.00  0.00    -0.356 N 
ATOM     23  H   UNL A   1      34.018  35.401  31.426  1.00  0.00     0.163 HD
BRANCH  22  24
ATOM     24  C   UNL A   1      34.545  33.444  31.081  1.00  0.00     0.117 C 
BRANCH  24  25
ATOM     25  C   UNL A   1      35.302  33.687  29.786  1.00  0.00     0.042 C 
BRANCH  25  26
ATOM     26  C   UNL A   1      36.084  32.454  29.370  1.00  0.00     0.118 C 
BRANCH  26  27
ATOM     27  N   UNL A   1      35.816  31.293  30.219  1.00  0.00    -0.352 N 
ATOM     28  C   UNL A   1      36.688  30.265  30.537  1.00  0.00     0.251 C 
ATOM     29  H   UNL A   1      34.914  31.237  30.610  1.00  0.00     0.163 HD
ATOM     30  O   UNL A   1      36.323  29.288  31.160  1.00  0.00    -0.269 OA
BRANCH  28  31
ATOM     31  C   UNL A   1      38.078  30.387  30.045  1.00  0.00     0.039 A 
ATOM     32  C   UNL A   1      39.129  30.456  30.963  1.00  0.00     0.014 A 
ATOM     33  C   UNL A   1      38.324  30.230  28.681  1.00  0.00     0.014 A 
ATOM     34  C   UNL A   1      40.437  30.255  30.516  1.00  0.00     0.010 A 
ATOM     35  C   UNL A   1      39.609  29.919  28.263  1.00  0.00     0.010 A 
ATOM     36  C   UNL A   1      40.680  29.919  29.173  1.00  0.00    -0.014 A 
BRANCH  36  37
ATOM     37  C   UNL A   1      42.030  29.561  28.662  1.00  0.00     0.031 A 
ATOM     38  C   UNL A   1      42.276  28.155  28.189  1.00  0.00     0.074 A 
ATOM     39  C   UNL A   1      43.058  30.428  28.767  1.00  0.00     0.049 A 
ATOM     40  N   UNL A   1      43.406  27.540  27.961  1.00  0.00    -0.248 NA
ATOM     41  C   UNL A   1      41.083  27.309  28.015  1.00  0.00     0.031 C 
ATOM     42  C   UNL A   1      42.968  31.802  29.265  1.00  0.00     0.029 A 
ATOM     43  N   UNL A   1      44.393  30.265  28.491  1.00  0.00    -0.354 N 
ATOM     44  C   UNL A   1      43.063  26.223  27.682  1.00  0.00     0.074 A 
ATOM     45  C   UNL A   1      41.628  26.119  27.821  1.00  0.00     0.031 C 
ATOM     46  C   UNL A   1      44.191  32.357  29.252  1.00  0.00     0.029 A 
ATOM     47  C   UNL A   1      45.161  31.367  28.793  1.00  0.00     0.049 A 
ATOM     48  H   UNL A   1      44.768  29.437  28.112  1.00  0.00     0.167 HD
ATOM     49  C   UNL A   1      43.870  25.196  27.322  1.00  0.00     0.037 A 
ATOM     50  C   UNL A   1      46.494  31.552  28.730  1.00  0.00     0.037 A 
ATOM     51  C   UNL A   1      45.286  25.329  27.119  1.00  0.00     0.049 A 
ATOM     52  C   UNL A   1      47.369  30.425  28.254  1.00  0.00     0.074 A 
ATOM     53  C   UNL A   1      46.185  24.378  26.670  1.00  0.00     0.029 A 
ATOM     54  N   UNL A   1      46.008  26.494  27.339  1.00  0.00    -0.354 N 
ATOM     55  N   UNL A   1      47.028  29.196  27.944  1.00  0.00    -0.248 NA
ATOM     56  C   UNL A   1      48.805  30.704  28.111  1.00  0.00     0.031 C 
ATOM     57  C   UNL A   1      47.456  24.962  26.642  1.00  0.00     0.029 A 
ATOM     58  C   UNL A   1      47.342  26.287  27.036  1.00  0.00     0.049 A 
ATOM     59  H   UNL A   1      45.627  27.342  27.662  1.00  0.00     0.167 HD
ATOM     60  C   UNL A   1      48.200  28.563  27.546  1.00  0.00     0.074 A 
ATOM     61  C   UNL A   1      49.261  29.544  27.654  1.00  0.00     0.031 C 
ATOM     62  C   UNL A   1      48.378  27.286  27.127  1.00  0.00     0.037 A 
BRANCH  49  63
ATOM     63  C   UNL A   1      43.223  23.852  27.130  1.00  0.00     0.058 A 
ATOM     64  C   UNL A   1      42.877  23.373  25.856  1.00  0.00     0.135 A 
ATOM     65  C   UNL A   1      42.907  23.049  28.238  1.00  0.00     0.135 A 
ATOM     66  F   UNL A   1      43.143  24.105  24.762  1.00  0.00    -0.206 F 
ATOM     67  C   UNL A   1      42.180  22.181  25.691  1.00  0.00     0.059 A 
ATOM     68  C   UNL A   1      42.241  21.835  28.094  1.00  0.00     0.059 A 
ATOM     69  F   UNL A   1      43.221  23.453  29.479  1.00  0.00    -0.206 F 
ATOM     70  C   UNL A   1      41.854  21.426  26.818  1.00  0.00     0.060 A 
BRANCH  70  71
ATOM     71  S   UNL A   1      40.899  19.911  26.599  1.00  0.00     0.124 S 
ATOM     72  O   UNL A   1      39.649  20.434  26.057  1.00  0.00    -0.237 OA
ATOM     73  O   UNL A   1      41.724  19.150  25.665  1.00  0.00    -0.237 OA
ATOM     74  O   UNL A   1      40.819  19.363  27.950  1.00  0.00    -0.744 OA
ENDBRANCH  70  71
ENDBRANCH  49  63
BRANCH  50  75
ATOM     75  C   UNL A   1      47.068  32.872  29.102  1.00  0.00     0.058 A 
ATOM     76  C   UNL A   1      47.426  33.151  30.429  1.00  0.00     0.135 A 
ATOM     77  C   UNL A   1      47.335  33.853  28.133  1.00  0.00     0.135 A 
ATOM     78  F   UNL A   1      47.184  32.249  31.392  1.00  0.00    -0.206 F 
ATOM     79  C   UNL A   1      48.036  34.351  30.783  1.00  0.00     0.059 A 
ATOM     80  C   UNL A   1      47.962  35.053  28.460  1.00  0.00     0.059 A 
ATOM     81  F   UNL A   1      47.026  33.626  26.846  1.00  0.00    -0.206 F 
ATOM     82  C   UNL A   1      48.310  35.292  29.788  1.00  0.00     0.060 A 
BRANCH  82  83
ATOM     83  S   UNL A   1      49.193  36.801  30.244  1.00  0.00     0.124 S 
ATOM     84  O   UNL A   1      48.296  37.832  29.735  1.00  0.00    -0.237 OA
ATOM     85  O   UNL A   1      49.272  36.683  31.697  1.00  0.00    -0.237 OA
ATOM     86  O   UNL A   1      50.466  36.668  29.543  1.00  0.00    -0.744 OA
ENDBRANCH  82  83
ENDBRANCH  50  75
BRANCH  62  87
ATOM     87  C   UNL A   1      49.758  26.872  26.702  1.00  0.00     0.058 A 
ATOM     88  C   UNL A   1      50.687  26.360  27.619  1.00  0.00     0.135 A 
ATOM     89  C   UNL A   1      50.106  26.880  25.341  1.00  0.00     0.135 A 
ATOM     90  F   UNL A   1      50.403  26.339  28.931  1.00  0.00    -0.206 F 
ATOM     91  C   UNL A   1      51.916  25.859  27.199  1.00  0.00     0.059 A 
ATOM     92  C   UNL A   1      51.320  26.365  24.898  1.00  0.00     0.059 A 
ATOM     93  F   UNL A   1      49.246  27.353  24.426  1.00  0.00    -0.206 F 
ATOM     94  C   UNL A   1      52.218  25.857  25.835  1.00  0.00     0.060 A 
BRANCH  94  95
ATOM     95  S   UNL A   1      53.777  25.122  25.295  1.00  0.00     0.124 S 
ATOM     96  O   UNL A   1      54.673  25.502  26.381  1.00  0.00    -0.237 OA
ATOM     97  O   UNL A   1      53.443  23.703  25.213  1.00  0.00    -0.237 OA
ATOM     98  O   UNL A   1      54.032  25.773  24.013  1.00  0.00    -0.744 OA
ENDBRANCH  94  95
ENDBRANCH  62  87
ENDBRANCH  36  37
ENDBRANCH  28  31
ENDBRANCH  26  27
ENDBRANCH  25  26
ENDBRANCH  24  25
ENDBRANCH  22  24
ENDBRANCH  19  20
ENDBRANCH  18  19
ENDBRANCH   1  18
TORSDOF 26
ENDMDL
MODEL 3
REMARK VINA RESULT:      -7.7      3.571     10.341
REMARK SMILES CC/C=C/C/C=C/C/C=C/C/C=C/CCSCCCC(=O)NCCCNC(=O)c1ccc(-c2c3nc(c(-c4c(F)cc(S(=O)(=O)[O-])cc4F)c4ccc([nH]4)c(-c4c(F)cc(S(=O)(=O)[O-])cc4F)c4nc(c(-c5c(F)cc(S(=O)(=O)[O-])cc5F)c5ccc2[nH]5)C=C4)C=C3)cc1
REMARK SMILES IDX 17 1 16 2 15 3 14 4 13 5 12 6 11 7 10 8 9 9 8 10 7 11 6 12
REMARK SMILES IDX 5 13 4 14 3 15 2 16 1 17 18 18 19 19 20 20 21 21 22 22 23 24
REMARK SMILES IDX 24 25 25 26 26 27 27 28 28 30 29 31 30 32 94 33 31 34 93 35
REMARK SMILES IDX 32 36 33 37 34 38 87 39 35 40 92 41 86 42 88 43 36 44 91 45
REMARK SMILES IDX 85 46 84 47 37 49 71 50 50 51 70 52 51 53 54 54 69 55 89 56
REMARK SMILES IDX 52 57 53 58 68 60 90 61 55 62 38 63 39 64 48 65 40 66 41 67
REMARK SMILES IDX 47 68 49 69 42 70 43 71 44 72 45 73 46 74 72 75 73 76 82 77
REMARK SMILES IDX 74 78 75 79 81 80 83 81 76 82 77 83 78 84 79 85 80 86 56 87
REMARK SMILES IDX 57 88 66 89 58 90 59 91 65 92 67 93 60 94 61 95 62 96 63 97
REMARK SMILES IDX 64 98
REMARK H PARENT 22 23 26 29 88 48 54 59
REMARK Flexibility Score: inf
ROOT
ATOM      1  C   UNL A   1      47.622  27.750  27.755  1.00  0.00     0.070 C 
ENDROOT
BRANCH   1   2
ATOM      2  S   UNL A   1      48.823  27.626  29.153  1.00  0.00    -0.162 SA
BRANCH   2   3
ATOM      3  C   UNL A   1      50.235  28.771  28.873  1.00  0.00     0.073 C 
BRANCH   3   4
ATOM      4  C   UNL A   1      49.941  30.292  28.800  1.00  0.00     0.038 C 
BRANCH   4   5
ATOM      5  C   UNL A   1      48.686  30.730  29.517  1.00  0.00    -0.030 C 
ATOM      6  C   UNL A   1      48.206  30.227  30.668  1.00  0.00    -0.027 C 
BRANCH   6   7
ATOM      7  C   UNL A   1      47.137  30.878  31.527  1.00  0.00     0.054 C 
BRANCH   7   8
ATOM      8  C   UNL A   1      45.979  31.506  30.799  1.00  0.00    -0.027 C 
ATOM      9  C   UNL A   1      44.848  30.835  30.521  1.00  0.00    -0.027 C 
BRANCH   9  10
ATOM     10  C   UNL A   1      43.696  31.396  29.737  1.00  0.00     0.054 C 
BRANCH  10  11
ATOM     11  C   UNL A   1      42.853  32.230  30.659  1.00  0.00    -0.027 C 
ATOM     12  C   UNL A   1      42.000  33.184  30.258  1.00  0.00    -0.027 C 
BRANCH  12  13
ATOM     13  C   UNL A   1      41.321  34.134  31.201  1.00  0.00     0.054 C 
BRANCH  13  14
ATOM     14  C   UNL A   1      42.126  34.247  32.465  1.00  0.00    -0.027 C 
ATOM     15  C   UNL A   1      42.462  35.409  33.047  1.00  0.00    -0.031 C 
BRANCH  15  16
ATOM     16  C   UNL A   1      43.352  35.507  34.251  1.00  0.00     0.023 C 
ATOM     17  C   UNL A   1      44.123  34.212  34.454  1.00  0.00     0.008 C 
ENDBRANCH  15  16
ENDBRANCH  13  14
ENDBRANCH  12  13
ENDBRANCH  10  11
ENDBRANCH   9  10
ENDBRANCH   7   8
ENDBRANCH   6   7
ENDBRANCH   4   5
ENDBRANCH   3   4
ENDBRANCH   2   3
ENDBRANCH   1   2
BRANCH   1  18
ATOM     18  C   UNL A   1      47.837  27.200  26.345  1.00  0.00     0.021 C 
BRANCH  18  19
ATOM     19  C   UNL A   1      47.945  25.702  26.123  1.00  0.00     0.101 C 
BRANCH  19  20
ATOM     20  C   UNL A   1      47.436  25.101  24.823  1.00  0.00     0.220 C 
ATOM     21  O   UNL A   1      47.912  25.478  23.748  1.00  0.00    -0.275 OA
ATOM     22  N   UNL A   1      46.531  24.093  24.777  1.00  0.00    -0.356 N 
ATOM     23  H   UNL A   1      46.237  23.858  23.868  1.00  0.00     0.163 HD
BRANCH  22  24
ATOM     24  C   UNL A   1      45.918  23.301  25.822  1.00  0.00     0.117 C 
BRANCH  24  25
ATOM     25  C   UNL A   1      44.405  23.439  25.840  1.00  0.00     0.042 C 
BRANCH  25  26
ATOM     26  C   UNL A   1      43.990  24.894  25.962  1.00  0.00     0.118 C 
BRANCH  26  27
ATOM     27  N   UNL A   1      42.709  25.179  25.316  1.00  0.00    -0.352 N 
ATOM     28  C   UNL A   1      41.641  25.887  25.843  1.00  0.00     0.251 C 
ATOM     29  H   UNL A   1      42.593  24.828  24.404  1.00  0.00     0.163 HD
ATOM     30  O   UNL A   1      40.578  25.966  25.261  1.00  0.00    -0.269 OA
BRANCH  28  31
ATOM     31  C   UNL A   1      41.838  26.511  27.171  1.00  0.00     0.039 A 
ATOM     32  C   UNL A   1      42.387  27.793  27.254  1.00  0.00     0.014 A 
ATOM     33  C   UNL A   1      41.289  25.889  28.291  1.00  0.00     0.014 A 
ATOM     34  C   UNL A   1      42.284  28.500  28.454  1.00  0.00     0.010 A 
ATOM     35  C   UNL A   1      41.089  26.637  29.442  1.00  0.00     0.010 A 
ATOM     36  C   UNL A   1      41.575  27.953  29.537  1.00  0.00    -0.014 A 
BRANCH  36  37
ATOM     37  C   UNL A   1      41.313  28.705  30.793  1.00  0.00     0.031 A 
ATOM     38  C   UNL A   1      40.146  29.653  30.839  1.00  0.00     0.074 A 
ATOM     39  C   UNL A   1      42.190  28.664  31.815  1.00  0.00     0.049 A 
ATOM     40  N   UNL A   1      39.878  30.600  31.698  1.00  0.00    -0.248 NA
ATOM     41  C   UNL A   1      39.189  29.563  29.723  1.00  0.00     0.031 C 
ATOM     42  C   UNL A   1      43.394  27.833  31.874  1.00  0.00     0.029 A 
ATOM     43  N   UNL A   1      42.220  29.368  32.994  1.00  0.00    -0.354 N 
ATOM     44  C   UNL A   1      38.762  31.256  31.193  1.00  0.00     0.074 A 
ATOM     45  C   UNL A   1      38.439  30.633  29.929  1.00  0.00     0.031 C 
ATOM     46  C   UNL A   1      44.039  28.070  33.028  1.00  0.00     0.029 A 
ATOM     47  C   UNL A   1      43.324  29.103  33.772  1.00  0.00     0.049 A 
ATOM     48  H   UNL A   1      41.516  30.005  33.259  1.00  0.00     0.167 HD
ATOM     49  C   UNL A   1      38.057  32.274  31.742  1.00  0.00     0.037 A 
ATOM     50  C   UNL A   1      43.728  29.648  34.937  1.00  0.00     0.037 A 
ATOM     51  C   UNL A   1      38.346  32.838  33.032  1.00  0.00     0.049 A 
ATOM     52  C   UNL A   1      42.892  30.724  35.573  1.00  0.00     0.074 A 
ATOM     53  C   UNL A   1      37.646  33.810  33.723  1.00  0.00     0.029 A 
ATOM     54  N   UNL A   1      39.417  32.467  33.832  1.00  0.00    -0.354 N 
ATOM     55  N   UNL A   1      41.810  31.303  35.109  1.00  0.00    -0.248 NA
ATOM     56  C   UNL A   1      43.321  31.218  36.888  1.00  0.00     0.031 C 
ATOM     57  C   UNL A   1      38.309  34.045  34.932  1.00  0.00     0.029 A 
ATOM     58  C   UNL A   1      39.400  33.192  35.011  1.00  0.00     0.049 A 
ATOM     59  H   UNL A   1      40.090  31.789  33.596  1.00  0.00     0.167 HD
ATOM     60  C   UNL A   1      41.414  32.210  36.086  1.00  0.00     0.074 A 
ATOM     61  C   UNL A   1      42.373  32.104  37.166  1.00  0.00     0.031 C 
ATOM     62  C   UNL A   1      40.351  33.052  36.086  1.00  0.00     0.037 A 
BRANCH  49  63
ATOM     63  C   UNL A   1      36.913  32.827  30.938  1.00  0.00     0.058 A 
ATOM     64  C   UNL A   1      37.113  33.781  29.926  1.00  0.00     0.135 A 
ATOM     65  C   UNL A   1      35.594  32.430  31.210  1.00  0.00     0.135 A 
ATOM     66  F   UNL A   1      38.352  34.207  29.633  1.00  0.00    -0.206 F 
ATOM     67  C   UNL A   1      36.043  34.370  29.260  1.00  0.00     0.059 A 
ATOM     68  C   UNL A   1      34.511  32.981  30.532  1.00  0.00     0.059 A 
ATOM     69  F   UNL A   1      35.345  31.517  32.162  1.00  0.00    -0.206 F 
ATOM     70  C   UNL A   1      34.745  33.974  29.582  1.00  0.00     0.060 A 
BRANCH  70  71
ATOM     71  S   UNL A   1      33.362  34.787  28.754  1.00  0.00     0.124 S 
ATOM     72  O   UNL A   1      32.812  33.688  27.967  1.00  0.00    -0.237 OA
ATOM     73  O   UNL A   1      32.542  35.234  29.875  1.00  0.00    -0.237 OA
ATOM     74  O   UNL A   1      34.005  35.850  27.988  1.00  0.00    -0.744 OA
ENDBRANCH  70  71
ENDBRANCH  49  63
BRANCH  50  75
ATOM     75  C   UNL A   1      44.973  29.152  35.582  1.00  0.00     0.058 A 
ATOM     76  C   UNL A   1      44.953  28.012  36.400  1.00  0.00     0.135 A 
ATOM     77  C   UNL A   1      46.215  29.761  35.340  1.00  0.00     0.135 A 
ATOM     78  F   UNL A   1      43.790  27.399  36.667  1.00  0.00    -0.206 F 
ATOM     79  C   UNL A   1      46.120  27.488  36.948  1.00  0.00     0.059 A 
ATOM     80  C   UNL A   1      47.398  29.244  35.863  1.00  0.00     0.059 A 
ATOM     81  F   UNL A   1      46.289  30.844  34.551  1.00  0.00    -0.206 F 
ATOM     82  C   UNL A   1      47.339  28.105  36.665  1.00  0.00     0.060 A 
BRANCH  82  83
ATOM     83  S   UNL A   1      48.856  27.356  37.300  1.00  0.00     0.124 S 
ATOM     84  O   UNL A   1      48.340  26.495  38.356  1.00  0.00    -0.237 OA
ATOM     85  O   UNL A   1      49.379  26.677  36.118  1.00  0.00    -0.237 OA
ATOM     86  O   UNL A   1      49.636  28.507  37.745  1.00  0.00    -0.744 OA
ENDBRANCH  82  83
ENDBRANCH  50  75
BRANCH  62  87
ATOM     87  C   UNL A   1      40.125  33.898  37.305  1.00  0.00     0.058 A 
ATOM     88  C   UNL A   1      40.753  35.142  37.465  1.00  0.00     0.135 A 
ATOM     89  C   UNL A   1      39.176  33.508  38.265  1.00  0.00     0.135 A 
ATOM     90  F   UNL A   1      41.673  35.554  36.577  1.00  0.00    -0.206 F 
ATOM     91  C   UNL A   1      40.441  35.977  38.533  1.00  0.00     0.059 A 
ATOM     92  C   UNL A   1      38.835  34.337  39.329  1.00  0.00     0.059 A 
ATOM     93  F   UNL A   1      38.544  32.330  38.151  1.00  0.00    -0.206 F 
ATOM     94  C   UNL A   1      39.473  35.570  39.454  1.00  0.00     0.060 A 
BRANCH  94  95
ATOM     95  S   UNL A   1      39.013  36.701  40.784  1.00  0.00     0.124 S 
ATOM     96  O   UNL A   1      38.228  35.830  41.652  1.00  0.00    -0.237 OA
ATOM     97  O   UNL A   1      40.312  37.115  41.307  1.00  0.00    -0.237 OA
ATOM     98  O   UNL A   1      38.261  37.745  40.096  1.00  0.00    -0.744 OA
ENDBRANCH  94  95
ENDBRANCH  62  87
ENDBRANCH  36  37
ENDBRANCH  28  31
ENDBRANCH  26  27
ENDBRANCH  25  26
ENDBRANCH  24  25
ENDBRANCH  22  24
ENDBRANCH  19  20
ENDBRANCH  18  19
ENDBRANCH   1  18
TORSDOF 26
ENDMDL
