MODEL 1
REMARK VINA RESULT:     -10.2      0.000      0.000
REMARK SMILES Cc1cc(F)ccc1S(=O)(=O)N1CCO[C@H](CC(=O)NCCCNC(=O)c2ccc(-c3c4nc(c(-c5c(F)cc(S(=O)(=O)[O-])cc5F)c5ccc([nH]5)c(-c5c(F)cc(S(=O)(=O)[O-])cc5F)c5nc(c(-c6c(F)cc(S(=O)(=O)[O-])cc6F)c6ccc3[nH]6)C=C5)C=C4)cc2)C1
REMARK SMILES IDX 22 1 21 2 20 3 18 4 19 5 17 7 16 8 12 9 13 10 93 11 14 12
REMARK SMILES IDX 15 13 9 14 10 15 11 16 8 17 1 18 2 19 3 20 4 21 7 22 5 23
REMARK SMILES IDX 6 24 23 25 24 26 25 27 26 29 27 30 28 31 92 32 29 33 91 34
REMARK SMILES IDX 30 35 31 36 32 37 85 38 33 39 90 40 84 41 86 42 34 43 89 44
REMARK SMILES IDX 83 45 82 46 35 48 69 49 48 50 68 51 49 52 52 53 67 54 87 55
REMARK SMILES IDX 50 56 51 57 66 59 88 60 53 61 36 62 37 63 46 64 38 65 39 66
REMARK SMILES IDX 45 67 47 68 40 69 41 70 42 71 43 72 44 73 70 74 71 75 80 76
REMARK SMILES IDX 72 77 73 78 79 79 81 80 74 81 75 82 76 83 77 84 78 85 54 86
REMARK SMILES IDX 55 87 64 88 56 89 57 90 63 91 65 92 58 93 59 94 60 95 61 96
REMARK SMILES IDX 62 97
REMARK H PARENT 20 6 24 28 86 47 52 58
REMARK Flexibility Score: inf
ROOT
ATOM      1  C   UNL A   1      34.478  33.028  29.527  1.00  0.00     0.042 C 
ENDROOT
BRANCH   1   2
ATOM      2  C   UNL A   1      35.102  34.404  29.710  1.00  0.00     0.117 C 
BRANCH   2   3
ATOM      3  N   UNL A   1      36.471  34.422  29.232  1.00  0.00    -0.356 N 
ATOM      4  C   UNL A   1      37.607  34.183  29.940  1.00  0.00     0.222 C 
ATOM      5  O   UNL A   1      38.700  34.455  29.448  1.00  0.00    -0.275 OA
ATOM      6  H   UNL A   1      36.593  34.635  28.278  1.00  0.00     0.163 HD
BRANCH   4   7
ATOM      7  C   UNL A   1      37.494  33.539  31.292  1.00  0.00     0.133 C 
BRANCH   7   8
ATOM      8  C   UNL A   1      37.271  34.559  32.412  1.00  0.00     0.142 C 
ATOM      9  N   UNL A   1      38.304  33.092  34.032  1.00  0.00    -0.193 NA
ATOM     10  C   UNL A   1      37.095  33.024  34.880  1.00  0.00     0.131 C 
ATOM     11  C   UNL A   1      38.424  34.436  33.416  1.00  0.00     0.135 C 
ATOM     12  C   UNL A   1      35.851  33.363  34.029  1.00  0.00     0.177 C 
ATOM     13  O   UNL A   1      35.997  34.440  33.087  1.00  0.00    -0.375 OA
BRANCH   9  14
ATOM     14  S   UNL A   1      39.661  32.179  34.389  1.00  0.00     0.243 S 
ATOM     15  O   UNL A   1      39.749  32.008  35.822  1.00  0.00    -0.207 OA
ATOM     16  O   UNL A   1      40.760  32.743  33.629  1.00  0.00    -0.207 OA
BRANCH  14  17
ATOM     17  C   UNL A   1      39.383  30.519  33.717  1.00  0.00     0.085 A 
ATOM     18  C   UNL A   1      41.865  29.827  33.530  1.00  0.00     0.046 C 
ATOM     19  C   UNL A   1      40.397  29.593  33.386  1.00  0.00    -0.028 A 
ATOM     20  C   UNL A   1      40.028  28.366  32.793  1.00  0.00     0.044 A 
ATOM     21  C   UNL A   1      38.701  28.082  32.505  1.00  0.00     0.123 A 
ATOM     22  C   UNL A   1      38.041  30.202  33.421  1.00  0.00     0.025 A 
ATOM     23  F   UNL A   1      38.390  26.926  31.904  1.00  0.00    -0.207 F 
ATOM     24  C   UNL A   1      37.704  28.993  32.807  1.00  0.00     0.040 A 
ENDBRANCH  14  17
ENDBRANCH   9  14
ENDBRANCH   7   8
ENDBRANCH   4   7
ENDBRANCH   2   3
ENDBRANCH   1   2
BRANCH   1  25
ATOM     25  C   UNL A   1      34.515  32.543  28.085  1.00  0.00     0.118 C 
BRANCH  25  26
ATOM     26  N   UNL A   1      33.805  31.285  27.907  1.00  0.00    -0.352 N 
ATOM     27  C   UNL A   1      34.307  30.013  27.809  1.00  0.00     0.251 C 
ATOM     28  H   UNL A   1      32.824  31.357  27.849  1.00  0.00     0.163 HD
ATOM     29  O   UNL A   1      33.571  29.094  27.464  1.00  0.00    -0.269 OA
BRANCH  27  30
ATOM     30  C   UNL A   1      35.733  29.763  28.103  1.00  0.00     0.039 A 
ATOM     31  C   UNL A   1      36.098  29.385  29.396  1.00  0.00     0.014 A 
ATOM     32  C   UNL A   1      36.705  29.909  27.108  1.00  0.00     0.014 A 
ATOM     33  C   UNL A   1      37.436  29.111  29.681  1.00  0.00     0.010 A 
ATOM     34  C   UNL A   1      38.024  29.560  27.374  1.00  0.00     0.010 A 
ATOM     35  C   UNL A   1      38.405  29.172  28.666  1.00  0.00    -0.014 A 
BRANCH  35  36
ATOM     36  C   UNL A   1      39.830  28.865  28.942  1.00  0.00     0.031 A 
ATOM     37  C   UNL A   1      40.727  29.932  29.511  1.00  0.00     0.074 A 
ATOM     38  C   UNL A   1      40.327  27.652  28.626  1.00  0.00     0.049 A 
ATOM     39  N   UNL A   1      42.013  29.890  29.746  1.00  0.00    -0.248 NA
ATOM     40  C   UNL A   1      40.102  31.227  29.831  1.00  0.00     0.031 C 
ATOM     41  C   UNL A   1      39.566  26.554  28.026  1.00  0.00     0.029 A 
ATOM     42  N   UNL A   1      41.595  27.143  28.755  1.00  0.00    -0.354 N 
ATOM     43  C   UNL A   1      42.353  31.154  30.216  1.00  0.00     0.074 A 
ATOM     44  C   UNL A   1      41.150  31.955  30.191  1.00  0.00     0.031 C 
ATOM     45  C   UNL A   1      40.376  25.497  27.857  1.00  0.00     0.029 A 
ATOM     46  C   UNL A   1      41.720  25.852  28.301  1.00  0.00     0.049 A 
ATOM     47  H   UNL A   1      42.343  27.656  29.136  1.00  0.00     0.167 HD
ATOM     48  C   UNL A   1      43.556  31.598  30.650  1.00  0.00     0.037 A 
ATOM     49  C   UNL A   1      42.800  25.048  28.244  1.00  0.00     0.037 A 
ATOM     50  C   UNL A   1      44.738  30.780  30.717  1.00  0.00     0.049 A 
ATOM     51  C   UNL A   1      44.120  25.561  28.756  1.00  0.00     0.074 A 
ATOM     52  C   UNL A   1      45.989  31.115  31.207  1.00  0.00     0.029 A 
ATOM     53  N   UNL A   1      44.815  29.464  30.287  1.00  0.00    -0.354 N 
ATOM     54  N   UNL A   1      44.409  26.738  29.257  1.00  0.00    -0.248 NA
ATOM     55  C   UNL A   1      45.259  24.635  28.703  1.00  0.00     0.031 C 
ATOM     56  C   UNL A   1      46.832  30.012  31.039  1.00  0.00     0.029 A 
ATOM     57  C   UNL A   1      46.095  28.976  30.489  1.00  0.00     0.049 A 
ATOM     58  H   UNL A   1      44.070  28.952  29.896  1.00  0.00     0.167 HD
ATOM     59  C   UNL A   1      45.752  26.681  29.613  1.00  0.00     0.074 A 
ATOM     60  C   UNL A   1      46.216  25.351  29.277  1.00  0.00     0.031 C 
ATOM     61  C   UNL A   1      46.531  27.640  30.171  1.00  0.00     0.037 A 
BRANCH  48  62
ATOM     62  C   UNL A   1      43.659  33.028  31.102  1.00  0.00     0.058 A 
ATOM     63  C   UNL A   1      43.781  33.364  32.460  1.00  0.00     0.135 A 
ATOM     64  C   UNL A   1      43.698  34.071  30.163  1.00  0.00     0.135 A 
ATOM     65  F   UNL A   1      43.730  32.408  33.401  1.00  0.00    -0.206 F 
ATOM     66  C   UNL A   1      43.924  34.685  32.872  1.00  0.00     0.059 A 
ATOM     67  C   UNL A   1      43.868  35.397  30.551  1.00  0.00     0.059 A 
ATOM     68  F   UNL A   1      43.581  33.806  28.853  1.00  0.00    -0.206 F 
ATOM     69  C   UNL A   1      43.973  35.695  31.908  1.00  0.00     0.060 A 
BRANCH  69  70
ATOM     70  S   UNL A   1      44.196  37.399  32.458  1.00  0.00     0.124 S 
ATOM     71  O   UNL A   1      45.597  37.392  32.866  1.00  0.00    -0.237 OA
ATOM     72  O   UNL A   1      43.892  38.159  31.250  1.00  0.00    -0.237 OA
ATOM     73  O   UNL A   1      43.228  37.537  33.541  1.00  0.00    -0.744 OA
ENDBRANCH  69  70
ENDBRANCH  48  62
BRANCH  49  74
ATOM     74  C   UNL A   1      42.683  23.668  27.704  1.00  0.00     0.058 A 
ATOM     75  C   UNL A   1      42.767  23.424  26.325  1.00  0.00     0.135 A 
ATOM     76  C   UNL A   1      42.466  22.568  28.549  1.00  0.00     0.135 A 
ATOM     77  F   UNL A   1      42.971  24.441  25.475  1.00  0.00    -0.206 F 
ATOM     78  C   UNL A   1      42.605  22.146  25.798  1.00  0.00     0.059 A 
ATOM     79  C   UNL A   1      42.329  21.277  28.049  1.00  0.00     0.059 A 
ATOM     80  F   UNL A   1      42.400  22.744  29.878  1.00  0.00    -0.206 F 
ATOM     81  C   UNL A   1      42.382  21.079  26.670  1.00  0.00     0.060 A 
BRANCH  81  82
ATOM     82  S   UNL A   1      42.189  19.421  25.980  1.00  0.00     0.124 S 
ATOM     83  O   UNL A   1      43.023  19.502  24.787  1.00  0.00    -0.237 OA
ATOM     84  O   UNL A   1      42.694  18.578  27.058  1.00  0.00    -0.237 OA
ATOM     85  O   UNL A   1      40.751  19.325  25.742  1.00  0.00    -0.744 OA
ENDBRANCH  81  82
ENDBRANCH  49  74
BRANCH  61  86
ATOM     86  C   UNL A   1      47.949  27.273  30.505  1.00  0.00     0.058 A 
ATOM     87  C   UNL A   1      48.297  26.721  31.747  1.00  0.00     0.135 A 
ATOM     88  C   UNL A   1      48.963  27.428  29.546  1.00  0.00     0.135 A 
ATOM     89  F   UNL A   1      47.366  26.558  32.699  1.00  0.00    -0.206 F 
ATOM     90  C   UNL A   1      49.608  26.358  32.035  1.00  0.00     0.059 A 
ATOM     91  C   UNL A   1      50.275  27.046  29.803  1.00  0.00     0.059 A 
ATOM     92  F   UNL A   1      48.679  27.941  28.338  1.00  0.00    -0.206 F 
ATOM     93  C   UNL A   1      50.591  26.524  31.056  1.00  0.00     0.060 A 
BRANCH  93  94
ATOM     94  S   UNL A   1      52.282  26.017  31.430  1.00  0.00     0.124 S 
ATOM     95  O   UNL A   1      52.926  26.162  30.128  1.00  0.00    -0.237 OA
ATOM     96  O   UNL A   1      52.682  26.986  32.446  1.00  0.00    -0.237 OA
ATOM     97  O   UNL A   1      52.129  24.646  31.906  1.00  0.00    -0.744 OA
ENDBRANCH  93  94
ENDBRANCH  61  86
ENDBRANCH  35  36
ENDBRANCH  27  30
ENDBRANCH  25  26
ENDBRANCH   1  25
TORSDOF 16
ENDMDL
MODEL 2
REMARK VINA RESULT:     -10.1      4.974     11.830
REMARK SMILES Cc1cc(F)ccc1S(=O)(=O)N1CCO[C@H](CC(=O)NCCCNC(=O)c2ccc(-c3c4nc(c(-c5c(F)cc(S(=O)(=O)[O-])cc5F)c5ccc([nH]5)c(-c5c(F)cc(S(=O)(=O)[O-])cc5F)c5nc(c(-c6c(F)cc(S(=O)(=O)[O-])cc6F)c6ccc3[nH]6)C=C5)C=C4)cc2)C1
REMARK SMILES IDX 22 1 21 2 20 3 18 4 19 5 17 7 16 8 12 9 13 10 93 11 14 12
REMARK SMILES IDX 15 13 9 14 10 15 11 16 8 17 1 18 2 19 3 20 4 21 7 22 5 23
REMARK SMILES IDX 6 24 23 25 24 26 25 27 26 29 27 30 28 31 92 32 29 33 91 34
REMARK SMILES IDX 30 35 31 36 32 37 85 38 33 39 90 40 84 41 86 42 34 43 89 44
REMARK SMILES IDX 83 45 82 46 35 48 69 49 48 50 68 51 49 52 52 53 67 54 87 55
REMARK SMILES IDX 50 56 51 57 66 59 88 60 53 61 36 62 37 63 46 64 38 65 39 66
REMARK SMILES IDX 45 67 47 68 40 69 41 70 42 71 43 72 44 73 70 74 71 75 80 76
REMARK SMILES IDX 72 77 73 78 79 79 81 80 74 81 75 82 76 83 77 84 78 85 54 86
REMARK SMILES IDX 55 87 64 88 56 89 57 90 63 91 65 92 58 93 59 94 60 95 61 96
REMARK SMILES IDX 62 97
REMARK H PARENT 20 6 24 28 86 47 52 58
REMARK Flexibility Score: inf
ROOT
ATOM      1  C   UNL A   1      38.842  22.610  26.201  1.00  0.00     0.042 C 
ENDROOT
BRANCH   1   2
ATOM      2  C   UNL A   1      37.725  23.573  25.826  1.00  0.00     0.117 C 
BRANCH   2   3
ATOM      3  N   UNL A   1      37.422  23.494  24.409  1.00  0.00    -0.356 N 
ATOM      4  C   UNL A   1      36.225  23.228  23.824  1.00  0.00     0.222 C 
ATOM      5  O   UNL A   1      36.177  22.976  22.622  1.00  0.00    -0.275 OA
ATOM      6  H   UNL A   1      38.178  23.651  23.797  1.00  0.00     0.163 HD
BRANCH   4   7
ATOM      7  C   UNL A   1      34.979  23.304  24.659  1.00  0.00     0.133 C 
BRANCH   7   8
ATOM      8  C   UNL A   1      34.532  21.932  25.174  1.00  0.00     0.142 C 
ATOM      9  N   UNL A   1      32.546  22.887  26.166  1.00  0.00    -0.193 NA
ATOM     10  C   UNL A   1      32.902  22.445  27.531  1.00  0.00     0.131 C 
ATOM     11  C   UNL A   1      33.000  21.888  25.168  1.00  0.00     0.135 C 
ATOM     12  C   UNL A   1      34.428  22.222  27.616  1.00  0.00     0.177 C 
ATOM     13  O   UNL A   1      35.045  21.587  26.483  1.00  0.00    -0.375 OA
BRANCH   9  14
ATOM     14  S   UNL A   1      31.192  23.832  25.890  1.00  0.00     0.243 S 
ATOM     15  O   UNL A   1      30.360  23.818  27.072  1.00  0.00    -0.207 OA
ATOM     16  O   UNL A   1      30.666  23.448  24.594  1.00  0.00    -0.207 OA
BRANCH  14  17
ATOM     17  C   UNL A   1      31.759  25.545  25.716  1.00  0.00     0.085 A 
ATOM     18  C   UNL A   1      29.627  26.479  24.596  1.00  0.00     0.046 C 
ATOM     19  C   UNL A   1      31.009  26.599  25.149  1.00  0.00    -0.028 A 
ATOM     20  C   UNL A   1      31.618  27.865  25.008  1.00  0.00     0.044 A 
ATOM     21  C   UNL A   1      32.938  28.070  25.381  1.00  0.00     0.123 A 
ATOM     22  C   UNL A   1      33.097  25.781  26.096  1.00  0.00     0.025 A 
ATOM     23  F   UNL A   1      33.497  29.272  25.193  1.00  0.00    -0.207 F 
ATOM     24  C   UNL A   1      33.686  27.036  25.917  1.00  0.00     0.040 A 
ENDBRANCH  14  17
ENDBRANCH   9  14
ENDBRANCH   7   8
ENDBRANCH   4   7
ENDBRANCH   2   3
ENDBRANCH   1   2
BRANCH   1  25
ATOM     25  C   UNL A   1      39.959  23.273  26.993  1.00  0.00     0.118 C 
BRANCH  25  26
ATOM     26  N   UNL A   1      41.060  23.702  26.141  1.00  0.00    -0.352 N 
ATOM     27  C   UNL A   1      41.727  24.899  26.125  1.00  0.00     0.251 C 
ATOM     28  H   UNL A   1      41.368  23.037  25.482  1.00  0.00     0.163 HD
ATOM     29  O   UNL A   1      42.498  25.153  25.205  1.00  0.00    -0.269 OA
BRANCH  27  30
ATOM     30  C   UNL A   1      41.500  25.880  27.206  1.00  0.00     0.039 A 
ATOM     31  C   UNL A   1      40.452  25.663  28.103  1.00  0.00     0.014 A 
ATOM     32  C   UNL A   1      42.313  27.010  27.328  1.00  0.00     0.014 A 
ATOM     33  C   UNL A   1      40.246  26.562  29.151  1.00  0.00     0.010 A 
ATOM     34  C   UNL A   1      42.155  27.860  28.417  1.00  0.00     0.010 A 
ATOM     35  C   UNL A   1      41.112  27.653  29.331  1.00  0.00    -0.014 A 
BRANCH  35  36
ATOM     36  C   UNL A   1      40.925  28.608  30.450  1.00  0.00     0.031 A 
ATOM     37  C   UNL A   1      41.775  28.487  31.686  1.00  0.00     0.074 A 
ATOM     38  C   UNL A   1      39.953  29.540  30.378  1.00  0.00     0.049 A 
ATOM     39  N   UNL A   1      41.713  29.168  32.801  1.00  0.00    -0.248 NA
ATOM     40  C   UNL A   1      42.815  27.444  31.680  1.00  0.00     0.031 C 
ATOM     41  C   UNL A   1      39.035  29.722  29.251  1.00  0.00     0.029 A 
ATOM     42  N   UNL A   1      39.569  30.503  31.276  1.00  0.00    -0.354 N 
ATOM     43  C   UNL A   1      42.683  28.622  33.634  1.00  0.00     0.074 A 
ATOM     44  C   UNL A   1      43.291  27.525  32.915  1.00  0.00     0.031 C 
ATOM     45  C   UNL A   1      38.207  30.746  29.518  1.00  0.00     0.029 A 
ATOM     46  C   UNL A   1      38.510  31.268  30.847  1.00  0.00     0.049 A 
ATOM     47  H   UNL A   1      40.008  30.632  32.147  1.00  0.00     0.167 HD
ATOM     48  C   UNL A   1      43.048  29.016  34.876  1.00  0.00     0.037 A 
ATOM     49  C   UNL A   1      37.855  32.274  31.459  1.00  0.00     0.037 A 
ATOM     50  C   UNL A   1      42.472  30.139  35.565  1.00  0.00     0.049 A 
ATOM     51  C   UNL A   1      38.299  32.705  32.832  1.00  0.00     0.074 A 
ATOM     52  C   UNL A   1      42.820  30.663  36.798  1.00  0.00     0.029 A 
ATOM     53  N   UNL A   1      41.431  30.915  35.080  1.00  0.00    -0.354 N 
ATOM     54  N   UNL A   1      39.262  32.219  33.578  1.00  0.00    -0.248 NA
ATOM     55  C   UNL A   1      37.575  33.828  33.443  1.00  0.00     0.031 C 
ATOM     56  C   UNL A   1      41.965  31.734  37.074  1.00  0.00     0.029 A 
ATOM     57  C   UNL A   1      41.115  31.907  35.994  1.00  0.00     0.049 A 
ATOM     58  H   UNL A   1      40.982  30.783  34.214  1.00  0.00     0.167 HD
ATOM     59  C   UNL A   1      39.283  32.999  34.729  1.00  0.00     0.074 A 
ATOM     60  C   UNL A   1      38.241  33.994  34.577  1.00  0.00     0.031 C 
ATOM     61  C   UNL A   1      40.092  32.904  35.813  1.00  0.00     0.037 A 
BRANCH  48  62
ATOM     62  C   UNL A   1      44.133  28.240  35.571  1.00  0.00     0.058 A 
ATOM     63  C   UNL A   1      45.487  28.587  35.440  1.00  0.00     0.135 A 
ATOM     64  C   UNL A   1      43.809  27.176  36.428  1.00  0.00     0.135 A 
ATOM     65  F   UNL A   1      45.853  29.584  34.619  1.00  0.00    -0.206 F 
ATOM     66  C   UNL A   1      46.484  27.898  36.122  1.00  0.00     0.059 A 
ATOM     67  C   UNL A   1      44.788  26.489  37.141  1.00  0.00     0.059 A 
ATOM     68  F   UNL A   1      42.531  26.799  36.586  1.00  0.00    -0.206 F 
ATOM     69  C   UNL A   1      46.124  26.853  36.976  1.00  0.00     0.060 A 
BRANCH  69  70
ATOM     70  S   UNL A   1      47.426  25.993  37.882  1.00  0.00     0.124 S 
ATOM     71  O   UNL A   1      46.903  24.631  37.921  1.00  0.00    -0.237 OA
ATOM     72  O   UNL A   1      48.590  26.200  37.026  1.00  0.00    -0.237 OA
ATOM     73  O   UNL A   1      47.464  26.688  39.164  1.00  0.00    -0.744 OA
ENDBRANCH  69  70
ENDBRANCH  48  62
BRANCH  49  74
ATOM     74  C   UNL A   1      36.724  32.959  30.779  1.00  0.00     0.058 A 
ATOM     75  C   UNL A   1      36.956  33.891  29.756  1.00  0.00     0.135 A 
ATOM     76  C   UNL A   1      35.393  32.713  31.149  1.00  0.00     0.135 A 
ATOM     77  F   UNL A   1      38.211  34.162  29.369  1.00  0.00    -0.206 F 
ATOM     78  C   UNL A   1      35.912  34.582  29.148  1.00  0.00     0.059 A 
ATOM     79  C   UNL A   1      34.330  33.371  30.536  1.00  0.00     0.059 A 
ATOM     80  F   UNL A   1      35.115  31.815  32.106  1.00  0.00    -0.206 F 
ATOM     81  C   UNL A   1      34.602  34.316  29.548  1.00  0.00     0.060 A 
BRANCH  81  82
ATOM     82  S   UNL A   1      33.252  35.205  28.743  1.00  0.00     0.124 S 
ATOM     83  O   UNL A   1      33.981  36.193  27.956  1.00  0.00    -0.237 OA
ATOM     84  O   UNL A   1      32.593  34.145  27.987  1.00  0.00    -0.237 OA
ATOM     85  O   UNL A   1      32.483  35.733  29.867  1.00  0.00    -0.744 OA
ENDBRANCH  81  82
ENDBRANCH  49  74
BRANCH  61  86
ATOM     86  C   UNL A   1      39.924  33.933  36.895  1.00  0.00     0.058 A 
ATOM     87  C   UNL A   1      40.549  35.188  36.827  1.00  0.00     0.135 A 
ATOM     88  C   UNL A   1      39.081  33.676  37.989  1.00  0.00     0.135 A 
ATOM     89  F   UNL A   1      41.368  35.480  35.805  1.00  0.00    -0.206 F 
ATOM     90  C   UNL A   1      40.362  36.143  37.820  1.00  0.00     0.059 A 
ATOM     91  C   UNL A   1      38.859  34.627  38.978  1.00  0.00     0.059 A 
ATOM     92  F   UNL A   1      38.452  32.495  38.094  1.00  0.00    -0.206 F 
ATOM     93  C   UNL A   1      39.515  35.854  38.892  1.00  0.00     0.060 A 
BRANCH  93  94
ATOM     94  S   UNL A   1      39.255  37.114  40.157  1.00  0.00     0.124 S 
ATOM     95  O   UNL A   1      38.511  36.368  41.167  1.00  0.00    -0.237 OA
ATOM     96  O   UNL A   1      40.621  37.482  40.519  1.00  0.00    -0.237 OA
ATOM     97  O   UNL A   1      38.500  38.148  39.456  1.00  0.00    -0.744 OA
ENDBRANCH  93  94
ENDBRANCH  61  86
ENDBRANCH  35  36
ENDBRANCH  27  30
ENDBRANCH  25  26
ENDBRANCH   1  25
TORSDOF 16
ENDMDL
MODEL 3
REMARK VINA RESULT:     -10.1      1.005      8.321
REMARK SMILES Cc1cc(F)ccc1S(=O)(=O)N1CCO[C@H](CC(=O)NCCCNC(=O)c2ccc(-c3c4nc(c(-c5c(F)cc(S(=O)(=O)[O-])cc5F)c5ccc([nH]5)c(-c5c(F)cc(S(=O)(=O)[O-])cc5F)c5nc(c(-c6c(F)cc(S(=O)(=O)[O-])cc6F)c6ccc3[nH]6)C=C5)C=C4)cc2)C1
REMARK SMILES IDX 22 1 21 2 20 3 18 4 19 5 17 7 16 8 12 9 13 10 93 11 14 12
REMARK SMILES IDX 15 13 9 14 10 15 11 16 8 17 1 18 2 19 3 20 4 21 7 22 5 23
REMARK SMILES IDX 6 24 23 25 24 26 25 27 26 29 27 30 28 31 92 32 29 33 91 34
REMARK SMILES IDX 30 35 31 36 32 37 85 38 33 39 90 40 84 41 86 42 34 43 89 44
REMARK SMILES IDX 83 45 82 46 35 48 69 49 48 50 68 51 49 52 52 53 67 54 87 55
REMARK SMILES IDX 50 56 51 57 66 59 88 60 53 61 36 62 37 63 46 64 38 65 39 66
REMARK SMILES IDX 45 67 47 68 40 69 41 70 42 71 43 72 44 73 70 74 71 75 80 76
REMARK SMILES IDX 72 77 73 78 79 79 81 80 74 81 75 82 76 83 77 84 78 85 54 86
REMARK SMILES IDX 55 87 64 88 56 89 57 90 63 91 65 92 58 93 59 94 60 95 61 96
REMARK SMILES IDX 62 97
REMARK H PARENT 20 6 24 28 86 47 52 58
REMARK Flexibility Score: inf
ROOT
ATOM      1  C   UNL A   1      34.740  32.687  30.243  1.00  0.00     0.042 C 
ENDROOT
BRANCH   1   2
ATOM      2  C   UNL A   1      36.047  32.446  30.985  1.00  0.00     0.117 C 
BRANCH   2   3
ATOM      3  N   UNL A   1      37.141  33.165  30.360  1.00  0.00    -0.356 N 
ATOM      4  C   UNL A   1      38.245  33.689  30.955  1.00  0.00     0.222 C 
ATOM      5  O   UNL A   1      38.967  34.460  30.326  1.00  0.00    -0.275 OA
ATOM      6  H   UNL A   1      37.075  33.288  29.385  1.00  0.00     0.163 HD
BRANCH   4   7
ATOM      7  C   UNL A   1      38.581  33.266  32.356  1.00  0.00     0.133 C 
BRANCH   7   8
ATOM      8  C   UNL A   1      38.529  34.431  33.350  1.00  0.00     0.142 C 
ATOM      9  N   UNL A   1      38.236  32.910  35.206  1.00  0.00    -0.193 NA
ATOM     10  C   UNL A   1      36.941  33.500  35.606  1.00  0.00     0.131 C 
ATOM     11  C   UNL A   1      39.138  33.963  34.677  1.00  0.00     0.135 C 
ATOM     12  C   UNL A   1      36.310  34.221  34.394  1.00  0.00     0.177 C 
ATOM     13  O   UNL A   1      37.207  34.979  33.564  1.00  0.00    -0.375 OA
BRANCH   9  14
ATOM     14  S   UNL A   1      38.846  31.558  35.982  1.00  0.00     0.243 S 
ATOM     15  O   UNL A   1      37.745  30.775  36.495  1.00  0.00    -0.207 OA
ATOM     16  O   UNL A   1      39.914  32.016  36.851  1.00  0.00    -0.207 OA
BRANCH  14  17
ATOM     17  C   UNL A   1      39.633  30.523  34.719  1.00  0.00     0.085 A 
ATOM     18  C   UNL A   1      37.494  29.963  33.383  1.00  0.00     0.046 C 
ATOM     19  C   UNL A   1      38.961  29.890  33.650  1.00  0.00    -0.028 A 
ATOM     20  C   UNL A   1      39.699  29.046  32.791  1.00  0.00     0.044 A 
ATOM     21  C   UNL A   1      41.048  28.808  33.008  1.00  0.00     0.123 A 
ATOM     22  C   UNL A   1      41.008  30.271  34.912  1.00  0.00     0.025 A 
ATOM     23  F   UNL A   1      41.707  27.968  32.198  1.00  0.00    -0.207 F 
ATOM     24  C   UNL A   1      41.708  29.408  34.066  1.00  0.00     0.040 A 
ENDBRANCH  14  17
ENDBRANCH   9  14
ENDBRANCH   7   8
ENDBRANCH   4   7
ENDBRANCH   2   3
ENDBRANCH   1   2
BRANCH   1  25
ATOM     25  C   UNL A   1      34.842  32.406  28.751  1.00  0.00     0.118 C 
BRANCH  25  26
ATOM     26  N   UNL A   1      34.200  31.153  28.381  1.00  0.00    -0.352 N 
ATOM     27  C   UNL A   1      34.770  29.946  28.071  1.00  0.00     0.251 C 
ATOM     28  H   UNL A   1      33.215  31.176  28.347  1.00  0.00     0.163 HD
ATOM     29  O   UNL A   1      34.080  29.052  27.591  1.00  0.00    -0.269 OA
BRANCH  27  30
ATOM     30  C   UNL A   1      36.214  29.736  28.302  1.00  0.00     0.039 A 
ATOM     31  C   UNL A   1      36.637  29.281  29.553  1.00  0.00     0.014 A 
ATOM     32  C   UNL A   1      37.145  29.995  27.292  1.00  0.00     0.014 A 
ATOM     33  C   UNL A   1      37.994  29.044  29.776  1.00  0.00     0.010 A 
ATOM     34  C   UNL A   1      38.486  29.684  27.492  1.00  0.00     0.010 A 
ATOM     35  C   UNL A   1      38.925  29.219  28.740  1.00  0.00    -0.014 A 
BRANCH  35  36
ATOM     36  C   UNL A   1      40.370  28.954  28.949  1.00  0.00     0.031 A 
ATOM     37  C   UNL A   1      40.946  27.618  28.566  1.00  0.00     0.074 A 
ATOM     38  C   UNL A   1      41.143  29.889  29.537  1.00  0.00     0.049 A 
ATOM     39  N   UNL A   1      42.160  27.162  28.742  1.00  0.00    -0.248 NA
ATOM     40  C   UNL A   1      40.033  26.656  27.926  1.00  0.00     0.031 C 
ATOM     41  C   UNL A   1      40.685  31.202  29.996  1.00  0.00     0.029 A 
ATOM     42  N   UNL A   1      42.476  29.872  29.861  1.00  0.00    -0.354 N 
ATOM     43  C   UNL A   1      42.148  25.858  28.259  1.00  0.00     0.074 A 
ATOM     44  C   UNL A   1      40.798  25.578  27.823  1.00  0.00     0.031 C 
ATOM     45  C   UNL A   1      41.723  31.872  30.524  1.00  0.00     0.029 A 
ATOM     46  C   UNL A   1      42.910  31.024  30.475  1.00  0.00     0.049 A 
ATOM     47  H   UNL A   1      43.066  29.108  29.673  1.00  0.00     0.167 HD
ATOM     48  C   UNL A   1      43.176  24.982  28.167  1.00  0.00     0.037 A 
ATOM     49  C   UNL A   1      44.126  31.355  30.950  1.00  0.00     0.037 A 
ATOM     50  C   UNL A   1      44.527  25.285  28.557  1.00  0.00     0.049 A 
ATOM     51  C   UNL A   1      45.256  30.368  30.813  1.00  0.00     0.074 A 
ATOM     52  C   UNL A   1      45.655  24.491  28.439  1.00  0.00     0.029 A 
ATOM     53  N   UNL A   1      44.935  26.477  29.136  1.00  0.00    -0.354 N 
ATOM     54  N   UNL A   1      45.241  29.164  30.294  1.00  0.00    -0.248 NA
ATOM     55  C   UNL A   1      46.571  30.790  31.315  1.00  0.00     0.031 C 
ATOM     56  C   UNL A   1      46.738  25.190  28.980  1.00  0.00     0.029 A 
ATOM     57  C   UNL A   1      46.295  26.436  29.392  1.00  0.00     0.049 A 
ATOM     58  H   UNL A   1      44.346  27.240  29.335  1.00  0.00     0.167 HD
ATOM     59  C   UNL A   1      46.549  28.699  30.375  1.00  0.00     0.074 A 
ATOM     60  C   UNL A   1      47.330  29.755  30.985  1.00  0.00     0.031 C 
ATOM     61  C   UNL A   1      47.059  27.507  29.978  1.00  0.00     0.037 A 
BRANCH  48  62
ATOM     62  C   UNL A   1      42.890  23.615  27.608  1.00  0.00     0.058 A 
ATOM     63  C   UNL A   1      43.040  23.332  26.242  1.00  0.00     0.135 A 
ATOM     64  C   UNL A   1      42.522  22.561  28.460  1.00  0.00     0.135 A 
ATOM     65  F   UNL A   1      43.372  24.307  25.381  1.00  0.00    -0.206 F 
ATOM     66  C   UNL A   1      42.822  22.055  25.736  1.00  0.00     0.059 A 
ATOM     67  C   UNL A   1      42.324  21.270  27.979  1.00  0.00     0.059 A 
ATOM     68  F   UNL A   1      42.360  22.779  29.774  1.00  0.00    -0.206 F 
ATOM     69  C   UNL A   1      42.470  21.028  26.614  1.00  0.00     0.060 A 
BRANCH  69  70
ATOM     70  S   UNL A   1      42.226  19.369  25.947  1.00  0.00     0.124 S 
ATOM     71  O   UNL A   1      43.062  19.411  24.751  1.00  0.00    -0.237 OA
ATOM     72  O   UNL A   1      42.713  18.522  27.031  1.00  0.00    -0.237 OA
ATOM     73  O   UNL A   1      40.788  19.308  25.705  1.00  0.00    -0.744 OA
ENDBRANCH  69  70
ENDBRANCH  48  62
BRANCH  49  74
ATOM     74  C   UNL A   1      44.352  32.682  31.581  1.00  0.00     0.058 A 
ATOM     75  C   UNL A   1      44.219  32.853  32.967  1.00  0.00     0.135 A 
ATOM     76  C   UNL A   1      44.687  33.808  30.813  1.00  0.00     0.135 A 
ATOM     77  F   UNL A   1      43.898  31.808  33.744  1.00  0.00    -0.206 F 
ATOM     78  C   UNL A   1      44.373  34.099  33.567  1.00  0.00     0.059 A 
ATOM     79  C   UNL A   1      44.874  35.059  31.394  1.00  0.00     0.059 A 
ATOM     80  F   UNL A   1      44.849  33.694  29.486  1.00  0.00    -0.206 F 
ATOM     81  C   UNL A   1      44.698  35.197  32.769  1.00  0.00     0.060 A 
BRANCH  81  82
ATOM     82  S   UNL A   1      44.912  36.809  33.557  1.00  0.00     0.124 S 
ATOM     83  O   UNL A   1      44.820  36.458  34.970  1.00  0.00    -0.237 OA
ATOM     84  O   UNL A   1      46.231  37.211  33.082  1.00  0.00    -0.237 OA
ATOM     85  O   UNL A   1      43.798  37.590  33.025  1.00  0.00    -0.744 OA
ENDBRANCH  81  82
ENDBRANCH  49  74
BRANCH  61  86
ATOM     86  C   UNL A   1      48.539  27.300  30.137  1.00  0.00     0.058 A 
ATOM     87  C   UNL A   1      49.082  26.679  31.272  1.00  0.00     0.135 A 
ATOM     88  C   UNL A   1      49.420  27.681  29.111  1.00  0.00     0.135 A 
ATOM     89  F   UNL A   1      48.283  26.302  32.283  1.00  0.00    -0.206 F 
ATOM     90  C   UNL A   1      50.451  26.466  31.395  1.00  0.00     0.059 A 
ATOM     91  C   UNL A   1      50.788  27.452  29.201  1.00  0.00     0.059 A 
ATOM     92  F   UNL A   1      48.948  28.267  27.999  1.00  0.00    -0.206 F 
ATOM     93  C   UNL A   1      51.296  26.855  30.354  1.00  0.00     0.060 A 
BRANCH  93  94
ATOM     94  S   UNL A   1      53.066  26.543  30.511  1.00  0.00     0.124 S 
ATOM     95  O   UNL A   1      53.081  25.370  31.380  1.00  0.00    -0.237 OA
ATOM     96  O   UNL A   1      53.468  26.310  29.127  1.00  0.00    -0.237 OA
ATOM     97  O   UNL A   1      53.577  27.773  31.107  1.00  0.00    -0.744 OA
ENDBRANCH  93  94
ENDBRANCH  61  86
ENDBRANCH  35  36
ENDBRANCH  27  30
ENDBRANCH  25  26
ENDBRANCH   1  25
TORSDOF 16
ENDMDL
