MODEL 1
REMARK VINA RESULT:     -12.3      0.000      0.000
REMARK SMILES O=C(NCCCNC(=O)[C@H]1C[C@H]2CCCC[C@@H]2[N@@H+]1CCn1ccnc1)c1ccc(-c2c3nc(c(-c4c(F)cc(S(=O)(=O)[O-])cc4F)c4ccc([nH]4)c(-c4c(F)cc(S(=O)(=O)[O-])cc4F)c4nc(c(-c5c(F)cc(S(=O)(=O)[O-])cc5F)c5ccc2[nH]5)C=C4)C=C3)cc1
REMARK SMILES IDX 5 1 4 2 3 3 1 4 2 5 26 7 27 8 91 9 28 10 90 11 29 12 30 13
REMARK SMILES IDX 31 14 84 15 32 16 89 17 83 18 85 19 33 20 88 21 82 22 81 23
REMARK SMILES IDX 34 25 68 26 47 27 67 28 48 29 51 30 66 31 86 32 49 33 50 34
REMARK SMILES IDX 65 36 87 37 52 38 35 39 36 40 45 41 37 42 38 43 44 44 46 45
REMARK SMILES IDX 39 46 40 47 41 48 42 49 43 50 69 51 70 52 79 53 71 54 72 55
REMARK SMILES IDX 78 56 80 57 73 58 74 59 75 60 76 61 77 62 53 63 54 64 63 65
REMARK SMILES IDX 55 66 56 67 62 68 64 69 57 70 58 71 59 72 60 73 61 74 6 75
REMARK SMILES IDX 7 76 8 77 9 79 10 80 11 81 18 82 12 83 17 84 13 86 16 87
REMARK SMILES IDX 14 88 15 89 19 90 20 91 21 92 22 93 25 94 23 95 24 96
REMARK H PARENT 3 6 85 24 51 35 7 78 18 85
REMARK Flexibility Score: inf
ROOT
ATOM      1  C   UNL A   1      32.395  28.345  27.191  1.00  0.00     0.042 C 
ENDROOT
BRANCH   1   2
ATOM      2  C   UNL A   1      33.277  29.373  26.479  1.00  0.00     0.118 C 
BRANCH   2   3
ATOM      3  N   UNL A   1      33.408  30.650  27.158  1.00  0.00    -0.352 N 
ATOM      4  O   UNL A   1      34.161  32.450  28.186  1.00  0.00    -0.269 OA
ATOM      5  C   UNL A   1      34.419  31.305  27.806  1.00  0.00     0.251 C 
ATOM      6  H   UNL A   1      32.569  31.166  27.151  1.00  0.00     0.163 HD
BRANCH   5   7
ATOM      7  C   UNL A   1      35.754  30.728  28.122  1.00  0.00     0.039 A 
ATOM      8  C   UNL A   1      36.099  29.380  28.025  1.00  0.00     0.014 A 
ATOM      9  C   UNL A   1      36.741  31.646  28.529  1.00  0.00     0.014 A 
ATOM     10  C   UNL A   1      37.378  28.950  28.380  1.00  0.00     0.010 A 
ATOM     11  C   UNL A   1      38.024  31.225  28.868  1.00  0.00     0.010 A 
ATOM     12  C   UNL A   1      38.339  29.869  28.811  1.00  0.00    -0.014 A 
BRANCH  12  13
ATOM     13  C   UNL A   1      39.703  29.391  29.042  1.00  0.00     0.031 A 
ATOM     14  C   UNL A   1      40.118  29.293  30.473  1.00  0.00     0.074 A 
ATOM     15  C   UNL A   1      40.497  28.880  28.079  1.00  0.00     0.049 A 
ATOM     16  N   UNL A   1      41.109  29.873  31.072  1.00  0.00    -0.248 NA
ATOM     17  C   UNL A   1      39.270  28.489  31.369  1.00  0.00     0.031 C 
ATOM     18  C   UNL A   1      40.135  28.585  26.692  1.00  0.00     0.029 A 
ATOM     19  N   UNL A   1      41.773  28.403  28.178  1.00  0.00    -0.354 N 
ATOM     20  C   UNL A   1      41.133  29.354  32.367  1.00  0.00     0.074 A 
ATOM     21  C   UNL A   1      39.904  28.623  32.533  1.00  0.00     0.031 C 
ATOM     22  C   UNL A   1      41.083  27.790  26.147  1.00  0.00     0.029 A 
ATOM     23  C   UNL A   1      42.168  27.619  27.100  1.00  0.00     0.049 A 
ATOM     24  H   UNL A   1      42.360  28.596  28.944  1.00  0.00     0.167 HD
ATOM     25  C   UNL A   1      42.252  29.388  33.146  1.00  0.00     0.037 A 
ATOM     26  C   UNL A   1      43.267  26.828  27.025  1.00  0.00     0.037 A 
ATOM     27  C   UNL A   1      43.208  30.351  32.669  1.00  0.00     0.049 A 
ATOM     28  C   UNL A   1      44.233  27.289  28.053  1.00  0.00     0.074 A 
ATOM     29  C   UNL A   1      43.192  31.712  32.434  1.00  0.00     0.029 A 
ATOM     30  N   UNL A   1      44.346  29.885  32.059  1.00  0.00    -0.354 N 
ATOM     31  N   UNL A   1      44.870  28.426  28.014  1.00  0.00    -0.248 NA
ATOM     32  C   UNL A   1      44.228  26.625  29.349  1.00  0.00     0.031 C 
ATOM     33  C   UNL A   1      44.039  31.905  31.304  1.00  0.00     0.029 A 
ATOM     34  C   UNL A   1      44.543  30.655  30.942  1.00  0.00     0.049 A 
ATOM     35  H   UNL A   1      44.912  29.140  32.365  1.00  0.00     0.167 HD
ATOM     36  C   UNL A   1      44.979  28.818  29.339  1.00  0.00     0.074 A 
ATOM     37  C   UNL A   1      44.676  27.622  30.114  1.00  0.00     0.031 C 
ATOM     38  C   UNL A   1      45.031  30.139  29.684  1.00  0.00     0.037 A 
BRANCH  25  39
ATOM     39  C   UNL A   1      42.633  28.310  34.140  1.00  0.00     0.058 A 
ATOM     40  C   UNL A   1      42.848  28.655  35.492  1.00  0.00     0.135 A 
ATOM     41  C   UNL A   1      43.086  27.025  33.763  1.00  0.00     0.135 A 
ATOM     42  F   UNL A   1      42.461  29.852  35.962  1.00  0.00    -0.206 F 
ATOM     43  C   UNL A   1      43.544  27.827  36.375  1.00  0.00     0.059 A 
ATOM     44  C   UNL A   1      43.730  26.162  34.641  1.00  0.00     0.059 A 
ATOM     45  F   UNL A   1      43.019  26.588  32.499  1.00  0.00    -0.206 F 
ATOM     46  C   UNL A   1      44.001  26.591  35.930  1.00  0.00     0.060 A 
BRANCH  46  47
ATOM     47  S   UNL A   1      45.025  25.581  37.017  1.00  0.00     0.124 S 
ATOM     48  O   UNL A   1      46.180  26.450  37.209  1.00  0.00    -0.237 OA
ATOM     49  O   UNL A   1      44.157  25.403  38.175  1.00  0.00    -0.237 OA
ATOM     50  O   UNL A   1      45.261  24.376  36.226  1.00  0.00    -0.744 OA
ENDBRANCH  46  47
ENDBRANCH  25  39
BRANCH  26  51
ATOM     51  C   UNL A   1      43.425  25.528  26.318  1.00  0.00     0.058 A 
ATOM     52  C   UNL A   1      44.468  25.319  25.398  1.00  0.00     0.135 A 
ATOM     53  C   UNL A   1      42.724  24.377  26.732  1.00  0.00     0.135 A 
ATOM     54  F   UNL A   1      45.205  26.354  24.966  1.00  0.00    -0.206 F 
ATOM     55  C   UNL A   1      44.828  24.042  24.955  1.00  0.00     0.059 A 
ATOM     56  C   UNL A   1      43.053  23.097  26.290  1.00  0.00     0.059 A 
ATOM     57  F   UNL A   1      41.755  24.449  27.657  1.00  0.00    -0.206 F 
ATOM     58  C   UNL A   1      44.124  22.933  25.424  1.00  0.00     0.060 A 
BRANCH  58  59
ATOM     59  S   UNL A   1      44.695  21.271  24.999  1.00  0.00     0.124 S 
ATOM     60  O   UNL A   1      46.076  21.296  25.470  1.00  0.00    -0.237 OA
ATOM     61  O   UNL A   1      43.777  20.427  25.757  1.00  0.00    -0.237 OA
ATOM     62  O   UNL A   1      44.531  21.217  23.549  1.00  0.00    -0.744 OA
ENDBRANCH  58  59
ENDBRANCH  26  51
BRANCH  38  63
ATOM     63  C   UNL A   1      45.352  31.148  28.616  1.00  0.00     0.058 A 
ATOM     64  C   UNL A   1      44.422  31.639  27.683  1.00  0.00     0.135 A 
ATOM     65  C   UNL A   1      46.620  31.749  28.638  1.00  0.00     0.135 A 
ATOM     66  F   UNL A   1      43.156  31.199  27.670  1.00  0.00    -0.206 F 
ATOM     67  C   UNL A   1      44.755  32.654  26.785  1.00  0.00     0.059 A 
ATOM     68  C   UNL A   1      46.961  32.787  27.774  1.00  0.00     0.059 A 
ATOM     69  F   UNL A   1      47.532  31.367  29.547  1.00  0.00    -0.206 F 
ATOM     70  C   UNL A   1      46.025  33.226  26.840  1.00  0.00     0.060 A 
BRANCH  70  71
ATOM     71  S   UNL A   1      46.416  34.610  25.748  1.00  0.00     0.124 S 
ATOM     72  O   UNL A   1      47.819  34.354  25.423  1.00  0.00    -0.237 OA
ATOM     73  O   UNL A   1      45.470  34.420  24.647  1.00  0.00    -0.237 OA
ATOM     74  O   UNL A   1      46.168  35.781  26.574  1.00  0.00    -0.744 OA
ENDBRANCH  70  71
ENDBRANCH  38  63
ENDBRANCH  12  13
ENDBRANCH   5   7
ENDBRANCH   2   3
ENDBRANCH   1   2
BRANCH   1  75
ATOM     75  C   UNL A   1      31.528  27.507  26.253  1.00  0.00     0.118 C 
BRANCH  75  76
ATOM     76  N   UNL A   1      31.141  26.236  26.842  1.00  0.00    -0.351 N 
ATOM     77  C   UNL A   1      31.515  24.955  26.554  1.00  0.00     0.278 C 
ATOM     78  H   UNL A   1      30.494  26.312  27.581  1.00  0.00     0.163 HD
ATOM     79  O   UNL A   1      31.021  24.061  27.248  1.00  0.00    -0.268 OA
BRANCH  77  80
ATOM     80  C   UNL A   1      32.558  24.672  25.447  1.00  0.00     0.274 C 
ATOM     81  C   UNL A   1      33.853  24.148  26.104  1.00  0.00     0.085 C 
ATOM     82  N   UNL A   1      32.068  23.577  24.557  1.00  0.00    -0.321 N 
ATOM     83  C   UNL A   1      34.169  22.890  25.313  1.00  0.00     0.054 C 
ATOM     84  C   UNL A   1      32.787  22.364  24.968  1.00  0.00     0.188 C 
ATOM     85  H   UNL A   1      31.072  23.402  24.684  1.00  0.00     0.349 HD
ATOM     86  C   UNL A   1      35.037  21.829  25.966  1.00  0.00     0.010 C 
ATOM     87  C   UNL A   1      32.827  21.130  24.070  1.00  0.00     0.065 C 
ATOM     88  C   UNL A   1      35.154  20.630  25.017  1.00  0.00     0.001 C 
ATOM     89  C   UNL A   1      33.785  20.066  24.621  1.00  0.00     0.006 C 
BRANCH  82  90
ATOM     90  C   UNL A   1      31.968  23.907  23.127  1.00  0.00     0.285 C 
BRANCH  90  91
ATOM     91  C   UNL A   1      32.851  24.982  22.436  1.00  0.00     0.184 C 
BRANCH  91  92
ATOM     92  N   UNL A   1      32.430  26.362  22.539  1.00  0.00    -0.332 N 
ATOM     93  C   UNL A   1      33.230  27.425  22.865  1.00  0.00     0.107 A 
ATOM     94  C   UNL A   1      31.157  26.839  22.420  1.00  0.00     0.199 A 
ATOM     95  C   UNL A   1      32.413  28.527  22.772  1.00  0.00     0.130 A 
ATOM     96  N   UNL A   1      31.125  28.151  22.490  1.00  0.00    -0.245 NA
ENDBRANCH  91  92
ENDBRANCH  90  91
ENDBRANCH  82  90
ENDBRANCH  77  80
ENDBRANCH  75  76
ENDBRANCH   1  75
TORSDOF 16
ENDMDL
MODEL 2
REMARK VINA RESULT:     -12.1      2.747      9.098
REMARK SMILES O=C(NCCCNC(=O)[C@H]1C[C@H]2CCCC[C@@H]2[N@@H+]1CCn1ccnc1)c1ccc(-c2c3nc(c(-c4c(F)cc(S(=O)(=O)[O-])cc4F)c4ccc([nH]4)c(-c4c(F)cc(S(=O)(=O)[O-])cc4F)c4nc(c(-c5c(F)cc(S(=O)(=O)[O-])cc5F)c5ccc2[nH]5)C=C4)C=C3)cc1
REMARK SMILES IDX 5 1 4 2 3 3 1 4 2 5 26 7 27 8 91 9 28 10 90 11 29 12 30 13
REMARK SMILES IDX 31 14 84 15 32 16 89 17 83 18 85 19 33 20 88 21 82 22 81 23
REMARK SMILES IDX 34 25 68 26 47 27 67 28 48 29 51 30 66 31 86 32 49 33 50 34
REMARK SMILES IDX 65 36 87 37 52 38 35 39 36 40 45 41 37 42 38 43 44 44 46 45
REMARK SMILES IDX 39 46 40 47 41 48 42 49 43 50 69 51 70 52 79 53 71 54 72 55
REMARK SMILES IDX 78 56 80 57 73 58 74 59 75 60 76 61 77 62 53 63 54 64 63 65
REMARK SMILES IDX 55 66 56 67 62 68 64 69 57 70 58 71 59 72 60 73 61 74 6 75
REMARK SMILES IDX 7 76 8 77 9 79 10 80 11 81 18 82 12 83 17 84 13 86 16 87
REMARK SMILES IDX 14 88 15 89 19 90 20 91 21 92 22 93 25 94 23 95 24 96
REMARK H PARENT 3 6 85 24 51 35 7 78 18 85
REMARK Flexibility Score: inf
ROOT
ATOM      1  C   UNL A   1      35.813  21.722  24.656  1.00  0.00     0.042 C 
ENDROOT
BRANCH   1   2
ATOM      2  C   UNL A   1      36.833  22.475  25.514  1.00  0.00     0.118 C 
BRANCH   2   3
ATOM      3  N   UNL A   1      38.120  21.821  25.657  1.00  0.00    -0.352 N 
ATOM      4  O   UNL A   1      40.169  21.251  26.245  1.00  0.00    -0.269 OA
ATOM      5  C   UNL A   1      39.304  22.131  26.267  1.00  0.00     0.251 C 
ATOM      6  H   UNL A   1      38.148  20.945  25.207  1.00  0.00     0.163 HD
BRANCH   5   7
ATOM      7  C   UNL A   1      39.632  23.442  26.891  1.00  0.00     0.039 A 
ATOM      8  C   UNL A   1      38.859  24.600  26.799  1.00  0.00     0.014 A 
ATOM      9  C   UNL A   1      40.815  23.483  27.654  1.00  0.00     0.014 A 
ATOM     10  C   UNL A   1      39.286  25.784  27.404  1.00  0.00     0.010 A 
ATOM     11  C   UNL A   1      41.236  24.657  28.273  1.00  0.00     0.010 A 
ATOM     12  C   UNL A   1      40.478  25.817  28.132  1.00  0.00    -0.014 A 
BRANCH  12  13
ATOM     13  C   UNL A   1      40.815  27.042  28.859  1.00  0.00     0.031 A 
ATOM     14  C   UNL A   1      41.932  27.847  28.283  1.00  0.00     0.074 A 
ATOM     15  C   UNL A   1      40.074  27.550  29.865  1.00  0.00     0.049 A 
ATOM     16  N   UNL A   1      43.047  28.201  28.839  1.00  0.00    -0.248 NA
ATOM     17  C   UNL A   1      41.814  28.254  26.873  1.00  0.00     0.031 C 
ATOM     18  C   UNL A   1      38.768  27.080  30.334  1.00  0.00     0.029 A 
ATOM     19  N   UNL A   1      40.285  28.678  30.606  1.00  0.00    -0.354 N 
ATOM     20  C   UNL A   1      43.682  29.043  27.925  1.00  0.00     0.074 A 
ATOM     21  C   UNL A   1      42.952  28.925  26.690  1.00  0.00     0.031 C 
ATOM     22  C   UNL A   1      38.212  28.031  31.117  1.00  0.00     0.029 A 
ATOM     23  C   UNL A   1      39.164  29.115  31.301  1.00  0.00     0.049 A 
ATOM     24  H   UNL A   1      41.153  29.140  30.644  1.00  0.00     0.167 HD
ATOM     25  C   UNL A   1      44.641  29.936  28.301  1.00  0.00     0.037 A 
ATOM     26  C   UNL A   1      39.000  30.312  31.918  1.00  0.00     0.037 A 
ATOM     27  C   UNL A   1      45.195  29.618  29.590  1.00  0.00     0.049 A 
ATOM     28  C   UNL A   1      40.347  30.887  32.162  1.00  0.00     0.074 A 
ATOM     29  C   UNL A   1      45.838  28.525  30.136  1.00  0.00     0.029 A 
ATOM     30  N   UNL A   1      44.852  30.414  30.655  1.00  0.00    -0.354 N 
ATOM     31  N   UNL A   1      41.216  30.406  33.008  1.00  0.00    -0.248 NA
ATOM     32  C   UNL A   1      40.886  31.819  31.183  1.00  0.00     0.031 C 
ATOM     33  C   UNL A   1      45.417  28.487  31.498  1.00  0.00     0.029 A 
ATOM     34  C   UNL A   1      44.571  29.578  31.703  1.00  0.00     0.049 A 
ATOM     35  H   UNL A   1      44.815  31.398  30.663  1.00  0.00     0.167 HD
ATOM     36  C   UNL A   1      42.449  30.635  32.419  1.00  0.00     0.074 A 
ATOM     37  C   UNL A   1      42.190  31.608  31.364  1.00  0.00     0.031 C 
ATOM     38  C   UNL A   1      43.511  29.810  32.657  1.00  0.00     0.037 A 
BRANCH  25  39
ATOM     39  C   UNL A   1      44.842  31.295  27.659  1.00  0.00     0.058 A 
ATOM     40  C   UNL A   1      46.058  31.582  27.003  1.00  0.00     0.135 A 
ATOM     41  C   UNL A   1      44.017  32.412  27.925  1.00  0.00     0.135 A 
ATOM     42  F   UNL A   1      46.922  30.598  26.703  1.00  0.00    -0.206 F 
ATOM     43  C   UNL A   1      46.467  32.887  26.719  1.00  0.00     0.059 A 
ATOM     44  C   UNL A   1      44.379  33.714  27.598  1.00  0.00     0.059 A 
ATOM     45  F   UNL A   1      42.870  32.306  28.606  1.00  0.00    -0.206 F 
ATOM     46  C   UNL A   1      45.627  33.947  27.043  1.00  0.00     0.060 A 
BRANCH  46  47
ATOM     47  S   UNL A   1      46.207  35.638  26.815  1.00  0.00     0.124 S 
ATOM     48  O   UNL A   1      44.978  36.393  27.028  1.00  0.00    -0.237 OA
ATOM     49  O   UNL A   1      47.221  35.756  27.858  1.00  0.00    -0.237 OA
ATOM     50  O   UNL A   1      46.720  35.632  25.448  1.00  0.00    -0.744 OA
ENDBRANCH  46  47
ENDBRANCH  25  39
BRANCH  26  51
ATOM     51  C   UNL A   1      37.759  31.119  32.058  1.00  0.00     0.058 A 
ATOM     52  C   UNL A   1      37.300  31.543  33.319  1.00  0.00     0.135 A 
ATOM     53  C   UNL A   1      37.147  31.724  30.941  1.00  0.00     0.135 A 
ATOM     54  F   UNL A   1      37.842  31.038  34.438  1.00  0.00    -0.206 F 
ATOM     55  C   UNL A   1      36.331  32.540  33.464  1.00  0.00     0.059 A 
ATOM     56  C   UNL A   1      36.166  32.708  31.062  1.00  0.00     0.059 A 
ATOM     57  F   UNL A   1      37.551  31.448  29.693  1.00  0.00    -0.206 F 
ATOM     58  C   UNL A   1      35.783  33.132  32.327  1.00  0.00     0.060 A 
BRANCH  58  59
ATOM     59  S   UNL A   1      34.667  34.543  32.505  1.00  0.00     0.124 S 
ATOM     60  O   UNL A   1      33.470  33.914  33.053  1.00  0.00    -0.237 OA
ATOM     61  O   UNL A   1      35.408  35.409  33.415  1.00  0.00    -0.237 OA
ATOM     62  O   UNL A   1      34.538  35.046  31.139  1.00  0.00    -0.744 OA
ENDBRANCH  58  59
ENDBRANCH  26  51
BRANCH  38  63
ATOM     63  C   UNL A   1      43.451  28.886  33.842  1.00  0.00     0.058 A 
ATOM     64  C   UNL A   1      43.903  29.218  35.131  1.00  0.00     0.135 A 
ATOM     65  C   UNL A   1      42.770  27.667  33.694  1.00  0.00     0.135 A 
ATOM     66  F   UNL A   1      44.464  30.409  35.382  1.00  0.00    -0.206 F 
ATOM     67  C   UNL A   1      43.723  28.356  36.214  1.00  0.00     0.059 A 
ATOM     68  C   UNL A   1      42.548  26.809  34.767  1.00  0.00     0.059 A 
ATOM     69  F   UNL A   1      42.258  27.322  32.500  1.00  0.00    -0.206 F 
ATOM     70  C   UNL A   1      43.039  27.156  36.024  1.00  0.00     0.060 A 
BRANCH  70  71
ATOM     71  S   UNL A   1      42.714  26.093  37.447  1.00  0.00     0.124 S 
ATOM     72  O   UNL A   1      41.280  26.291  37.655  1.00  0.00    -0.237 OA
ATOM     73  O   UNL A   1      43.102  24.772  36.949  1.00  0.00    -0.237 OA
ATOM     74  O   UNL A   1      43.578  26.634  38.485  1.00  0.00    -0.744 OA
ENDBRANCH  70  71
ENDBRANCH  38  63
ENDBRANCH  12  13
ENDBRANCH   5   7
ENDBRANCH   2   3
ENDBRANCH   1   2
BRANCH   1  75
ATOM     75  C   UNL A   1      34.448  22.405  24.562  1.00  0.00     0.118 C 
BRANCH  75  76
ATOM     76  N   UNL A   1      33.774  22.477  25.847  1.00  0.00    -0.351 N 
ATOM     77  C   UNL A   1      32.909  23.399  26.362  1.00  0.00     0.278 C 
ATOM     78  H   UNL A   1      33.979  21.730  26.455  1.00  0.00     0.163 HD
ATOM     79  O   UNL A   1      32.478  23.184  27.500  1.00  0.00    -0.268 OA
BRANCH  77  80
ATOM     80  C   UNL A   1      32.455  24.610  25.514  1.00  0.00     0.274 C 
ATOM     81  C   UNL A   1      31.360  25.378  26.287  1.00  0.00     0.085 C 
ATOM     82  N   UNL A   1      33.593  25.564  25.344  1.00  0.00    -0.321 N 
ATOM     83  C   UNL A   1      31.841  26.818  26.247  1.00  0.00     0.054 C 
ATOM     84  C   UNL A   1      33.351  26.661  26.289  1.00  0.00     0.188 C 
ATOM     85  H   UNL A   1      34.485  25.138  25.590  1.00  0.00     0.349 HD
ATOM     86  C   UNL A   1      31.337  27.775  27.313  1.00  0.00     0.010 C 
ATOM     87  C   UNL A   1      34.091  27.990  26.158  1.00  0.00     0.065 C 
ATOM     88  C   UNL A   1      32.012  29.138  27.117  1.00  0.00     0.001 C 
ATOM     89  C   UNL A   1      33.541  29.038  27.135  1.00  0.00     0.006 C 
BRANCH  82  90
ATOM     90  C   UNL A   1      33.967  25.876  23.956  1.00  0.00     0.285 C 
BRANCH  90  91
ATOM     91  C   UNL A   1      32.939  25.972  22.796  1.00  0.00     0.184 C 
BRANCH  91  92
ATOM     92  N   UNL A   1      31.995  27.068  22.827  1.00  0.00    -0.332 N 
ATOM     93  C   UNL A   1      30.633  26.960  22.725  1.00  0.00     0.107 A 
ATOM     94  C   UNL A   1      32.290  28.400  22.872  1.00  0.00     0.199 A 
ATOM     95  C   UNL A   1      30.163  28.244  22.872  1.00  0.00     0.130 A 
ATOM     96  N   UNL A   1      31.202  29.132  22.967  1.00  0.00    -0.245 NA
ENDBRANCH  91  92
ENDBRANCH  90  91
ENDBRANCH  82  90
ENDBRANCH  77  80
ENDBRANCH  75  76
ENDBRANCH   1  75
TORSDOF 16
ENDMDL
MODEL 3
REMARK VINA RESULT:     -12.0      2.851      9.293
REMARK SMILES O=C(NCCCNC(=O)[C@H]1C[C@H]2CCCC[C@@H]2[N@@H+]1CCn1ccnc1)c1ccc(-c2c3nc(c(-c4c(F)cc(S(=O)(=O)[O-])cc4F)c4ccc([nH]4)c(-c4c(F)cc(S(=O)(=O)[O-])cc4F)c4nc(c(-c5c(F)cc(S(=O)(=O)[O-])cc5F)c5ccc2[nH]5)C=C4)C=C3)cc1
REMARK SMILES IDX 5 1 4 2 3 3 1 4 2 5 26 7 27 8 91 9 28 10 90 11 29 12 30 13
REMARK SMILES IDX 31 14 84 15 32 16 89 17 83 18 85 19 33 20 88 21 82 22 81 23
REMARK SMILES IDX 34 25 68 26 47 27 67 28 48 29 51 30 66 31 86 32 49 33 50 34
REMARK SMILES IDX 65 36 87 37 52 38 35 39 36 40 45 41 37 42 38 43 44 44 46 45
REMARK SMILES IDX 39 46 40 47 41 48 42 49 43 50 69 51 70 52 79 53 71 54 72 55
REMARK SMILES IDX 78 56 80 57 73 58 74 59 75 60 76 61 77 62 53 63 54 64 63 65
REMARK SMILES IDX 55 66 56 67 62 68 64 69 57 70 58 71 59 72 60 73 61 74 6 75
REMARK SMILES IDX 7 76 8 77 9 79 10 80 11 81 18 82 12 83 17 84 13 86 16 87
REMARK SMILES IDX 14 88 15 89 19 90 20 91 21 92 22 93 25 94 23 95 24 96
REMARK H PARENT 3 6 85 24 51 35 7 78 18 85
REMARK Flexibility Score: inf
ROOT
ATOM      1  C   UNL A   1      36.921  23.026  24.503  1.00  0.00     0.042 C 
ENDROOT
BRANCH   1   2
ATOM      2  C   UNL A   1      37.288  22.162  25.712  1.00  0.00     0.118 C 
BRANCH   2   3
ATOM      3  N   UNL A   1      38.646  21.650  25.713  1.00  0.00    -0.352 N 
ATOM      4  O   UNL A   1      40.791  21.297  26.089  1.00  0.00    -0.269 OA
ATOM      5  C   UNL A   1      39.843  22.076  26.219  1.00  0.00     0.251 C 
ATOM      6  H   UNL A   1      38.724  20.792  25.235  1.00  0.00     0.163 HD
BRANCH   5   7
ATOM      7  C   UNL A   1      40.087  23.401  26.852  1.00  0.00     0.039 A 
ATOM      8  C   UNL A   1      39.297  24.539  26.681  1.00  0.00     0.014 A 
ATOM      9  C   UNL A   1      41.202  23.480  27.708  1.00  0.00     0.014 A 
ATOM     10  C   UNL A   1      39.644  25.739  27.303  1.00  0.00     0.010 A 
ATOM     11  C   UNL A   1      41.543  24.671  28.344  1.00  0.00     0.010 A 
ATOM     12  C   UNL A   1      40.771  25.810  28.126  1.00  0.00    -0.014 A 
BRANCH  12  13
ATOM     13  C   UNL A   1      41.017  27.051  28.863  1.00  0.00     0.031 A 
ATOM     14  C   UNL A   1      42.097  27.923  28.313  1.00  0.00     0.074 A 
ATOM     15  C   UNL A   1      40.225  27.510  29.852  1.00  0.00     0.049 A 
ATOM     16  N   UNL A   1      43.176  28.342  28.894  1.00  0.00    -0.248 NA
ATOM     17  C   UNL A   1      41.987  28.326  26.901  1.00  0.00     0.031 C 
ATOM     18  C   UNL A   1      38.940  26.962  30.291  1.00  0.00     0.029 A 
ATOM     19  N   UNL A   1      40.352  28.647  30.599  1.00  0.00    -0.354 N 
ATOM     20  C   UNL A   1      43.780  29.223  27.995  1.00  0.00     0.074 A 
ATOM     21  C   UNL A   1      43.085  29.064  26.745  1.00  0.00     0.031 C 
ATOM     22  C   UNL A   1      38.311  27.876  31.063  1.00  0.00     0.029 A 
ATOM     23  C   UNL A   1      39.191  29.014  31.270  1.00  0.00     0.049 A 
ATOM     24  H   UNL A   1      41.190  29.160  30.657  1.00  0.00     0.167 HD
ATOM     25  C   UNL A   1      44.675  30.171  28.394  1.00  0.00     0.037 A 
ATOM     26  C   UNL A   1      38.942  30.198  31.885  1.00  0.00     0.037 A 
ATOM     27  C   UNL A   1      45.218  29.883  29.695  1.00  0.00     0.049 A 
ATOM     28  C   UNL A   1      40.246  30.852  32.160  1.00  0.00     0.074 A 
ATOM     29  C   UNL A   1      45.913  28.829  30.254  1.00  0.00     0.029 A 
ATOM     30  N   UNL A   1      44.804  30.654  30.753  1.00  0.00    -0.354 N 
ATOM     31  N   UNL A   1      41.124  30.421  33.024  1.00  0.00    -0.248 NA
ATOM     32  C   UNL A   1      40.750  31.817  31.194  1.00  0.00     0.031 C 
ATOM     33  C   UNL A   1      45.465  28.762  31.605  1.00  0.00     0.029 A 
ATOM     34  C   UNL A   1      44.551  29.799  31.793  1.00  0.00     0.049 A 
ATOM     35  H   UNL A   1      44.708  31.634  30.762  1.00  0.00     0.167 HD
ATOM     36  C   UNL A   1      42.353  30.725  32.463  1.00  0.00     0.074 A 
ATOM     37  C   UNL A   1      42.060  31.684  31.404  1.00  0.00     0.031 C 
ATOM     38  C   UNL A   1      43.458  29.965  32.723  1.00  0.00     0.037 A 
BRANCH  25  39
ATOM     39  C   UNL A   1      44.808  31.540  27.759  1.00  0.00     0.058 A 
ATOM     40  C   UNL A   1      46.006  31.888  27.098  1.00  0.00     0.135 A 
ATOM     41  C   UNL A   1      43.933  32.616  28.035  1.00  0.00     0.135 A 
ATOM     42  F   UNL A   1      46.913  30.948  26.788  1.00  0.00    -0.206 F 
ATOM     43  C   UNL A   1      46.351  33.212  26.820  1.00  0.00     0.059 A 
ATOM     44  C   UNL A   1      44.232  33.935  27.714  1.00  0.00     0.059 A 
ATOM     45  F   UNL A   1      42.796  32.453  28.722  1.00  0.00    -0.206 F 
ATOM     46  C   UNL A   1      45.464  34.230  27.154  1.00  0.00     0.060 A 
BRANCH  46  47
ATOM     47  S   UNL A   1      45.963  35.948  26.932  1.00  0.00     0.124 S 
ATOM     48  O   UNL A   1      46.723  36.184  28.154  1.00  0.00    -0.237 OA
ATOM     49  O   UNL A   1      46.737  35.884  25.698  1.00  0.00    -0.237 OA
ATOM     50  O   UNL A   1      44.688  36.654  26.831  1.00  0.00    -0.744 OA
ENDBRANCH  46  47
ENDBRANCH  25  39
BRANCH  26  51
ATOM     51  C   UNL A   1      37.652  30.929  31.998  1.00  0.00     0.058 A 
ATOM     52  C   UNL A   1      37.207  31.440  33.231  1.00  0.00     0.135 A 
ATOM     53  C   UNL A   1      36.961  31.379  30.855  1.00  0.00     0.135 A 
ATOM     54  F   UNL A   1      37.821  31.085  34.370  1.00  0.00    -0.206 F 
ATOM     55  C   UNL A   1      36.175  32.380  33.320  1.00  0.00     0.059 A 
ATOM     56  C   UNL A   1      35.917  32.301  30.922  1.00  0.00     0.059 A 
ATOM     57  F   UNL A   1      37.341  31.011  29.623  1.00  0.00    -0.206 F 
ATOM     58  C   UNL A   1      35.548  32.819  32.155  1.00  0.00     0.060 A 
BRANCH  58  59
ATOM     59  S   UNL A   1      34.341  34.162  32.244  1.00  0.00     0.124 S 
ATOM     60  O   UNL A   1      35.157  35.271  32.726  1.00  0.00    -0.237 OA
ATOM     61  O   UNL A   1      33.884  34.258  30.863  1.00  0.00    -0.237 OA
ATOM     62  O   UNL A   1      33.348  33.662  33.192  1.00  0.00    -0.744 OA
ENDBRANCH  58  59
ENDBRANCH  26  51
BRANCH  38  63
ATOM     63  C   UNL A   1      43.427  29.035  33.906  1.00  0.00     0.058 A 
ATOM     64  C   UNL A   1      43.746  29.414  35.221  1.00  0.00     0.135 A 
ATOM     65  C   UNL A   1      42.907  27.745  33.716  1.00  0.00     0.135 A 
ATOM     66  F   UNL A   1      44.142  30.663  35.505  1.00  0.00    -0.206 F 
ATOM     67  C   UNL A   1      43.596  28.532  36.293  1.00  0.00     0.059 A 
ATOM     68  C   UNL A   1      42.716  26.862  34.776  1.00  0.00     0.059 A 
ATOM     69  F   UNL A   1      42.524  27.345  32.492  1.00  0.00    -0.206 F 
ATOM     70  C   UNL A   1      43.075  27.260  36.062  1.00  0.00     0.060 A 
BRANCH  70  71
ATOM     71  S   UNL A   1      42.782  26.161  37.464  1.00  0.00     0.124 S 
ATOM     72  O   UNL A   1      43.672  26.719  38.481  1.00  0.00    -0.237 OA
ATOM     73  O   UNL A   1      41.351  26.342  37.713  1.00  0.00    -0.237 OA
ATOM     74  O   UNL A   1      43.154  24.849  36.957  1.00  0.00    -0.744 OA
ENDBRANCH  70  71
ENDBRANCH  38  63
ENDBRANCH  12  13
ENDBRANCH   5   7
ENDBRANCH   2   3
ENDBRANCH   1   2
BRANCH   1  75
ATOM     75  C   UNL A   1      35.685  23.901  24.712  1.00  0.00     0.118 C 
BRANCH  75  76
ATOM     76  N   UNL A   1      34.810  23.912  23.552  1.00  0.00    -0.351 N 
ATOM     77  C   UNL A   1      33.621  24.542  23.323  1.00  0.00     0.278 C 
ATOM     78  H   UNL A   1      35.132  23.367  22.797  1.00  0.00     0.163 HD
ATOM     79  O   UNL A   1      33.106  24.373  22.213  1.00  0.00    -0.268 OA
BRANCH  77  80
ATOM     80  C   UNL A   1      33.004  25.468  24.396  1.00  0.00     0.274 C 
ATOM     81  C   UNL A   1      33.230  26.938  23.977  1.00  0.00     0.085 C 
ATOM     82  N   UNL A   1      31.524  25.272  24.446  1.00  0.00    -0.321 N 
ATOM     83  C   UNL A   1      31.849  27.559  24.101  1.00  0.00     0.054 C 
ATOM     84  C   UNL A   1      30.936  26.406  23.723  1.00  0.00     0.188 C 
ATOM     85  H   UNL A   1      31.238  24.420  23.966  1.00  0.00     0.349 HD
ATOM     86  C   UNL A   1      31.549  28.812  23.298  1.00  0.00     0.010 C 
ATOM     87  C   UNL A   1      29.455  26.749  23.867  1.00  0.00     0.065 C 
ATOM     88  C   UNL A   1      30.085  29.208  23.523  1.00  0.00     0.001 C 
ATOM     89  C   UNL A   1      29.116  28.074  23.171  1.00  0.00     0.006 C 
BRANCH  82  90
ATOM     90  C   UNL A   1      30.971  24.884  25.753  1.00  0.00     0.285 C 
BRANCH  90  91
ATOM     91  C   UNL A   1      30.775  23.407  26.191  1.00  0.00     0.184 C 
BRANCH  91  92
ATOM     92  N   UNL A   1      31.953  22.574  26.287  1.00  0.00    -0.332 N 
ATOM     93  C   UNL A   1      32.284  21.547  25.443  1.00  0.00     0.107 A 
ATOM     94  C   UNL A   1      32.894  22.599  27.276  1.00  0.00     0.199 A 
ATOM     95  C   UNL A   1      33.507  21.101  25.887  1.00  0.00     0.130 A 
ATOM     96  N   UNL A   1      33.879  21.766  27.026  1.00  0.00    -0.245 NA
ENDBRANCH  91  92
ENDBRANCH  90  91
ENDBRANCH  82  90
ENDBRANCH  77  80
ENDBRANCH  75  76
ENDBRANCH   1  75
TORSDOF 16
ENDMDL
