MODEL 1
REMARK VINA RESULT:     -11.2      0.000      0.000
REMARK SMILES Cc1nc(C(C)C)[nH]c(=O)c1C(=O)N(C)CC(=O)NCCCNC(=O)c1ccc(-c2c3nc(c(-c4c(F)cc(S(=O)(=O)[O-])cc4F)c4ccc([nH]4)c(-c4c(F)cc(S(=O)(=O)[O-])cc4F)c4nc(c(-c5c(F)cc(S(=O)(=O)[O-])cc5F)c5ccc2[nH]5)C=C4)C=C3)cc1
REMARK SMILES IDX 20 1 19 2 17 3 18 4 16 6 14 7 15 8 12 9 13 10 11 11 1 12
REMARK SMILES IDX 2 13 3 14 4 15 9 16 8 17 10 18 5 20 6 21 7 22 21 23 22 24
REMARK SMILES IDX 23 25 24 26 25 28 26 29 27 30 91 31 28 32 90 33 29 34 30 35
REMARK SMILES IDX 31 36 84 37 32 38 89 39 83 40 85 41 33 42 88 43 82 44 81 45
REMARK SMILES IDX 34 47 68 48 47 49 67 50 48 51 51 52 66 53 86 54 49 55 50 56
REMARK SMILES IDX 65 58 87 59 52 60 35 61 36 62 45 63 37 64 38 65 44 66 46 67
REMARK SMILES IDX 39 68 40 69 41 70 42 71 43 72 69 73 70 74 79 75 71 76 72 77
REMARK SMILES IDX 78 78 80 79 73 80 74 81 75 82 76 83 77 84 53 85 54 86 63 87
REMARK SMILES IDX 55 88 56 89 62 90 64 91 57 92 58 93 59 94 60 95 61 96
REMARK H PARENT 19 5 8 19 23 27 85 46 51 57
REMARK Flexibility Score: inf
ROOT
ATOM      1  C   UNL A   1      32.015  28.217  25.224  1.00  0.00     0.117 C 
ENDROOT
BRANCH   1   2
ATOM      2  N   UNL A   1      31.341  27.165  24.499  1.00  0.00    -0.354 N 
ATOM      3  C   UNL A   1      31.862  26.050  23.915  1.00  0.00     0.239 C 
ATOM      4  O   UNL A   1      31.064  25.162  23.591  1.00  0.00    -0.273 OA
ATOM      5  H   UNL A   1      30.366  27.268  24.417  1.00  0.00     0.163 HD
BRANCH   3   6
ATOM      6  C   UNL A   1      33.377  25.784  23.896  1.00  0.00     0.219 C 
BRANCH   6   7
ATOM      7  N   UNL A   1      33.970  24.614  24.575  1.00  0.00    -0.332 N 
ATOM      8  C   UNL A   1      33.860  24.619  26.024  1.00  0.00     0.147 C 
BRANCH   7   9
ATOM      9  C   UNL A   1      34.240  23.513  23.767  1.00  0.00     0.261 C 
ATOM     10  O   UNL A   1      34.543  23.709  22.585  1.00  0.00    -0.269 OA
BRANCH   9  11
ATOM     11  C   UNL A   1      34.216  22.079  24.234  1.00  0.00     0.126 A 
ATOM     12  C   UNL A   1      36.690  21.653  24.686  1.00  0.00     0.068 C 
ATOM     13  C   UNL A   1      35.237  21.269  24.605  1.00  0.00     0.058 A 
ATOM     14  N   UNL A   1      35.104  19.919  24.872  1.00  0.00    -0.239 NA
ATOM     15  C   UNL A   1      34.006  19.322  24.549  1.00  0.00     0.111 A 
ATOM     16  C   UNL A   1      32.900  21.368  24.082  1.00  0.00     0.264 A 
ATOM     17  N   UNL A   1      32.930  20.005  24.088  1.00  0.00    -0.310 N 
ATOM     18  O   UNL A   1      31.821  21.950  24.012  1.00  0.00    -0.269 OA
ATOM     19  H   UNL A   1      32.153  19.505  23.749  1.00  0.00     0.171 HD
BRANCH  15  20
ATOM     20  C   UNL A   1      33.892  17.810  24.694  1.00  0.00     0.049 C 
ATOM     21  C   UNL A   1      32.628  17.416  25.450  1.00  0.00     0.016 C 
ATOM     22  C   UNL A   1      33.957  17.125  23.331  1.00  0.00     0.016 C 
ENDBRANCH  15  20
ENDBRANCH   9  11
ENDBRANCH   7   9
ENDBRANCH   6   7
ENDBRANCH   3   6
ENDBRANCH   1   2
BRANCH   1  23
ATOM     23  C   UNL A   1      32.232  27.873  26.691  1.00  0.00     0.042 C 
BRANCH  23  24
ATOM     24  C   UNL A   1      33.534  28.408  27.272  1.00  0.00     0.118 C 
BRANCH  24  25
ATOM     25  N   UNL A   1      33.464  29.829  27.592  1.00  0.00    -0.352 N 
ATOM     26  C   UNL A   1      34.406  30.641  28.178  1.00  0.00     0.251 C 
ATOM     27  H   UNL A   1      32.618  30.271  27.353  1.00  0.00     0.163 HD
ATOM     28  O   UNL A   1      34.098  31.773  28.528  1.00  0.00    -0.269 OA
BRANCH  26  29
ATOM     29  C   UNL A   1      35.780  30.137  28.403  1.00  0.00     0.039 A 
ATOM     30  C   UNL A   1      36.696  30.170  27.348  1.00  0.00     0.014 A 
ATOM     31  C   UNL A   1      36.161  29.631  29.647  1.00  0.00     0.014 A 
ATOM     32  C   UNL A   1      38.014  29.758  27.562  1.00  0.00     0.010 A 
ATOM     33  C   UNL A   1      37.491  29.299  29.880  1.00  0.00     0.010 A 
ATOM     34  C   UNL A   1      38.431  29.354  28.841  1.00  0.00    -0.014 A 
BRANCH  34  35
ATOM     35  C   UNL A   1      39.837  28.959  29.120  1.00  0.00     0.031 A 
ATOM     36  C   UNL A   1      40.793  29.972  29.695  1.00  0.00     0.074 A 
ATOM     37  C   UNL A   1      40.271  27.728  28.787  1.00  0.00     0.049 A 
ATOM     38  N   UNL A   1      42.084  29.881  29.875  1.00  0.00    -0.248 NA
ATOM     39  C   UNL A   1      40.221  31.271  30.094  1.00  0.00     0.031 C 
ATOM     40  C   UNL A   1      39.448  26.666  28.201  1.00  0.00     0.029 A 
ATOM     41  N   UNL A   1      41.520  27.163  28.877  1.00  0.00    -0.354 N 
ATOM     42  C   UNL A   1      42.480  31.107  30.397  1.00  0.00     0.074 A 
ATOM     43  C   UNL A   1      41.304  31.946  30.449  1.00  0.00     0.031 C 
ATOM     44  C   UNL A   1      40.209  25.579  27.998  1.00  0.00     0.029 A 
ATOM     45  C   UNL A   1      41.583  25.878  28.391  1.00  0.00     0.049 A 
ATOM     46  H   UNL A   1      42.297  27.635  29.253  1.00  0.00     0.167 HD
ATOM     47  C   UNL A   1      43.709  31.489  30.821  1.00  0.00     0.037 A 
ATOM     48  C   UNL A   1      42.634  25.043  28.259  1.00  0.00     0.037 A 
ATOM     49  C   UNL A   1      44.871  30.641  30.787  1.00  0.00     0.049 A 
ATOM     50  C   UNL A   1      43.997  25.508  28.703  1.00  0.00     0.074 A 
ATOM     51  C   UNL A   1      46.156  30.927  31.212  1.00  0.00     0.029 A 
ATOM     52  N   UNL A   1      44.886  29.339  30.310  1.00  0.00    -0.354 N 
ATOM     53  N   UNL A   1      44.347  26.660  29.223  1.00  0.00    -0.248 NA
ATOM     54  C   UNL A   1      45.109  24.558  28.548  1.00  0.00     0.031 C 
ATOM     55  C   UNL A   1      46.958  29.812  30.955  1.00  0.00     0.029 A 
ATOM     56  C   UNL A   1      46.161  28.811  30.423  1.00  0.00     0.049 A 
ATOM     57  H   UNL A   1      44.107  28.861  29.944  1.00  0.00     0.167 HD
ATOM     58  C   UNL A   1      45.707  26.554  29.502  1.00  0.00     0.074 A 
ATOM     59  C   UNL A   1      46.115  25.227  29.093  1.00  0.00     0.031 C 
ATOM     60  C   UNL A   1      46.541  27.472  30.050  1.00  0.00     0.037 A 
BRANCH  47  61
ATOM     61  C   UNL A   1      43.859  32.879  31.377  1.00  0.00     0.058 A 
ATOM     62  C   UNL A   1      43.680  33.143  32.745  1.00  0.00     0.135 A 
ATOM     63  C   UNL A   1      44.250  33.946  30.551  1.00  0.00     0.135 A 
ATOM     64  F   UNL A   1      43.288  32.165  33.577  1.00  0.00    -0.206 F 
ATOM     65  C   UNL A   1      43.865  34.417  33.271  1.00  0.00     0.059 A 
ATOM     66  C   UNL A   1      44.471  35.221  31.060  1.00  0.00     0.059 A 
ATOM     67  F   UNL A   1      44.433  33.750  29.235  1.00  0.00    -0.206 F 
ATOM     68  C   UNL A   1      44.269  35.449  32.421  1.00  0.00     0.060 A 
BRANCH  68  69
ATOM     69  S   UNL A   1      44.541  37.086  33.131  1.00  0.00     0.124 S 
ATOM     70  O   UNL A   1      44.267  36.841  34.544  1.00  0.00    -0.237 OA
ATOM     71  O   UNL A   1      45.936  37.343  32.790  1.00  0.00    -0.237 OA
ATOM     72  O   UNL A   1      43.564  37.923  32.440  1.00  0.00    -0.744 OA
ENDBRANCH  68  69
ENDBRANCH  47  61
BRANCH  48  73
ATOM     73  C   UNL A   1      42.450  23.678  27.691  1.00  0.00     0.058 A 
ATOM     74  C   UNL A   1      42.358  22.556  28.527  1.00  0.00     0.135 A 
ATOM     75  C   UNL A   1      42.403  23.461  26.304  1.00  0.00     0.135 A 
ATOM     76  F   UNL A   1      42.401  22.708  29.860  1.00  0.00    -0.206 F 
ATOM     77  C   UNL A   1      42.270  21.266  28.014  1.00  0.00     0.059 A 
ATOM     78  C   UNL A   1      42.282  22.184  25.766  1.00  0.00     0.059 A 
ATOM     79  F   UNL A   1      42.466  24.500  25.456  1.00  0.00    -0.206 F 
ATOM     80  C   UNL A   1      42.239  21.090  26.630  1.00  0.00     0.060 A 
BRANCH  80  81
ATOM     81  S   UNL A   1      42.130  19.412  25.972  1.00  0.00     0.124 S 
ATOM     82  O   UNL A   1      42.655  18.628  27.084  1.00  0.00    -0.237 OA
ATOM     83  O   UNL A   1      40.701  19.276  25.711  1.00  0.00    -0.237 OA
ATOM     84  O   UNL A   1      42.976  19.465  24.783  1.00  0.00    -0.744 OA
ENDBRANCH  80  81
ENDBRANCH  48  73
BRANCH  60  85
ATOM     85  C   UNL A   1      47.961  27.057  30.319  1.00  0.00     0.058 A 
ATOM     86  C   UNL A   1      49.014  27.397  29.457  1.00  0.00     0.135 A 
ATOM     87  C   UNL A   1      48.280  26.372  31.503  1.00  0.00     0.135 A 
ATOM     88  F   UNL A   1      48.764  28.046  28.308  1.00  0.00    -0.206 F 
ATOM     89  C   UNL A   1      50.330  27.060  29.751  1.00  0.00     0.059 A 
ATOM     90  C   UNL A   1      49.592  26.052  31.834  1.00  0.00     0.059 A 
ATOM     91  F   UNL A   1      47.310  26.030  32.368  1.00  0.00    -0.206 F 
ATOM     92  C   UNL A   1      50.610  26.393  30.946  1.00  0.00     0.060 A 
BRANCH  92  93
ATOM     93  S   UNL A   1      52.330  26.012  31.341  1.00  0.00     0.124 S 
ATOM     94  O   UNL A   1      52.941  26.003  30.016  1.00  0.00    -0.237 OA
ATOM     95  O   UNL A   1      52.705  27.127  32.204  1.00  0.00    -0.237 OA
ATOM     96  O   UNL A   1      52.248  24.714  32.003  1.00  0.00    -0.744 OA
ENDBRANCH  92  93
ENDBRANCH  60  85
ENDBRANCH  34  35
ENDBRANCH  26  29
ENDBRANCH  24  25
ENDBRANCH  23  24
ENDBRANCH   1  23
TORSDOF 17
ENDMDL
MODEL 2
REMARK VINA RESULT:     -11.2      5.011     10.862
REMARK SMILES Cc1nc(C(C)C)[nH]c(=O)c1C(=O)N(C)CC(=O)NCCCNC(=O)c1ccc(-c2c3nc(c(-c4c(F)cc(S(=O)(=O)[O-])cc4F)c4ccc([nH]4)c(-c4c(F)cc(S(=O)(=O)[O-])cc4F)c4nc(c(-c5c(F)cc(S(=O)(=O)[O-])cc5F)c5ccc2[nH]5)C=C4)C=C3)cc1
REMARK SMILES IDX 20 1 19 2 17 3 18 4 16 6 14 7 15 8 12 9 13 10 11 11 1 12
REMARK SMILES IDX 2 13 3 14 4 15 9 16 8 17 10 18 5 20 6 21 7 22 21 23 22 24
REMARK SMILES IDX 23 25 24 26 25 28 26 29 27 30 91 31 28 32 90 33 29 34 30 35
REMARK SMILES IDX 31 36 84 37 32 38 89 39 83 40 85 41 33 42 88 43 82 44 81 45
REMARK SMILES IDX 34 47 68 48 47 49 67 50 48 51 51 52 66 53 86 54 49 55 50 56
REMARK SMILES IDX 65 58 87 59 52 60 35 61 36 62 45 63 37 64 38 65 44 66 46 67
REMARK SMILES IDX 39 68 40 69 41 70 42 71 43 72 69 73 70 74 79 75 71 76 72 77
REMARK SMILES IDX 78 78 80 79 73 80 74 81 75 82 76 83 77 84 53 85 54 86 63 87
REMARK SMILES IDX 55 88 56 89 62 90 64 91 57 92 58 93 59 94 60 95 61 96
REMARK H PARENT 19 5 8 19 23 27 85 46 51 57
REMARK Flexibility Score: inf
ROOT
ATOM      1  C   UNL A   1      35.652  24.243  25.184  1.00  0.00     0.117 C 
ENDROOT
BRANCH   1   2
ATOM      2  N   UNL A   1      35.157  24.182  23.829  1.00  0.00    -0.354 N 
ATOM      3  C   UNL A   1      33.908  24.446  23.353  1.00  0.00     0.239 C 
ATOM      4  O   UNL A   1      33.792  24.591  22.131  1.00  0.00    -0.273 OA
ATOM      5  H   UNL A   1      35.818  23.913  23.150  1.00  0.00     0.163 HD
BRANCH   3   6
ATOM      6  C   UNL A   1      32.748  24.808  24.297  1.00  0.00     0.219 C 
BRANCH   6   7
ATOM      7  N   UNL A   1      32.663  26.129  24.953  1.00  0.00    -0.332 N 
ATOM      8  C   UNL A   1      32.780  26.109  26.402  1.00  0.00     0.147 C 
BRANCH   7   9
ATOM      9  C   UNL A   1      32.832  27.233  24.122  1.00  0.00     0.261 C 
ATOM     10  O   UNL A   1      33.959  27.467  23.673  1.00  0.00    -0.269 OA
BRANCH   9  11
ATOM     11  C   UNL A   1      31.724  28.168  23.701  1.00  0.00     0.126 A 
ATOM     12  C   UNL A   1      31.792  29.904  25.567  1.00  0.00     0.068 C 
ATOM     13  C   UNL A   1      31.255  29.286  24.304  1.00  0.00     0.058 A 
ATOM     14  N   UNL A   1      30.130  29.978  23.897  1.00  0.00    -0.239 NA
ATOM     15  C   UNL A   1      29.339  29.436  23.033  1.00  0.00     0.111 A 
ATOM     16  C   UNL A   1      30.878  27.695  22.551  1.00  0.00     0.264 A 
ATOM     17  N   UNL A   1      29.651  28.273  22.410  1.00  0.00    -0.310 N 
ATOM     18  O   UNL A   1      31.260  26.873  21.723  1.00  0.00    -0.269 OA
ATOM     19  H   UNL A   1      28.975  27.835  21.844  1.00  0.00     0.171 HD
BRANCH  15  20
ATOM     20  C   UNL A   1      28.019  30.110  22.683  1.00  0.00     0.049 C 
ATOM     21  C   UNL A   1      27.672  31.209  23.682  1.00  0.00     0.016 C 
ATOM     22  C   UNL A   1      28.043  30.648  21.255  1.00  0.00     0.016 C 
ENDBRANCH  15  20
ENDBRANCH   9  11
ENDBRANCH   7   9
ENDBRANCH   6   7
ENDBRANCH   3   6
ENDBRANCH   1   2
BRANCH   1  23
ATOM     23  C   UNL A   1      37.030  23.617  25.335  1.00  0.00     0.042 C 
BRANCH  23  24
ATOM     24  C   UNL A   1      37.941  24.340  26.320  1.00  0.00     0.118 C 
BRANCH  24  25
ATOM     25  N   UNL A   1      39.337  23.944  26.188  1.00  0.00    -0.352 N 
ATOM     26  C   UNL A   1      40.467  24.536  26.703  1.00  0.00     0.251 C 
ATOM     27  H   UNL A   1      39.494  23.134  25.652  1.00  0.00     0.163 HD
ATOM     28  O   UNL A   1      41.572  24.157  26.336  1.00  0.00    -0.269 OA
BRANCH  26  29
ATOM     29  C   UNL A   1      40.341  25.641  27.679  1.00  0.00     0.039 A 
ATOM     30  C   UNL A   1      39.392  25.541  28.700  1.00  0.00     0.014 A 
ATOM     31  C   UNL A   1      41.155  26.772  27.587  1.00  0.00     0.014 A 
ATOM     32  C   UNL A   1      39.306  26.546  29.668  1.00  0.00     0.010 A 
ATOM     33  C   UNL A   1      41.124  27.731  28.595  1.00  0.00     0.010 A 
ATOM     34  C   UNL A   1      40.198  27.631  29.643  1.00  0.00    -0.014 A 
BRANCH  34  35
ATOM     35  C   UNL A   1      40.172  28.692  30.684  1.00  0.00     0.031 A 
ATOM     36  C   UNL A   1      41.082  28.582  31.880  1.00  0.00     0.074 A 
ATOM     37  C   UNL A   1      39.285  29.703  30.597  1.00  0.00     0.049 A 
ATOM     38  N   UNL A   1      41.115  29.311  32.964  1.00  0.00    -0.248 NA
ATOM     39  C   UNL A   1      42.067  27.486  31.864  1.00  0.00     0.031 C 
ATOM     40  C   UNL A   1      38.334  29.906  29.500  1.00  0.00     0.029 A 
ATOM     41  N   UNL A   1      39.024  30.743  31.454  1.00  0.00    -0.354 N 
ATOM     42  C   UNL A   1      42.112  28.760  33.760  1.00  0.00     0.074 A 
ATOM     43  C   UNL A   1      42.620  27.600  33.062  1.00  0.00     0.031 C 
ATOM     44  C   UNL A   1      37.606  31.008  29.745  1.00  0.00     0.029 A 
ATOM     45  C   UNL A   1      38.001  31.563  31.037  1.00  0.00     0.049 A 
ATOM     46  H   UNL A   1      39.522  30.888  32.291  1.00  0.00     0.167 HD
ATOM     47  C   UNL A   1      42.582  29.198  34.953  1.00  0.00     0.037 A 
ATOM     48  C   UNL A   1      37.433  32.628  31.636  1.00  0.00     0.037 A 
ATOM     49  C   UNL A   1      42.088  30.367  35.631  1.00  0.00     0.049 A 
ATOM     50  C   UNL A   1      37.950  33.071  32.982  1.00  0.00     0.074 A 
ATOM     51  C   UNL A   1      42.511  30.906  36.832  1.00  0.00     0.029 A 
ATOM     52  N   UNL A   1      41.068  31.182  35.162  1.00  0.00    -0.354 N 
ATOM     53  N   UNL A   1      38.915  32.556  33.706  1.00  0.00    -0.248 NA
ATOM     54  C   UNL A   1      37.305  34.244  33.591  1.00  0.00     0.031 C 
ATOM     55  C   UNL A   1      41.720  32.025  37.111  1.00  0.00     0.029 A 
ATOM     56  C   UNL A   1      40.843  32.216  36.055  1.00  0.00     0.049 A 
ATOM     57  H   UNL A   1      40.576  31.046  34.320  1.00  0.00     0.167 HD
ATOM     58  C   UNL A   1      39.024  33.371  34.829  1.00  0.00     0.074 A 
ATOM     59  C   UNL A   1      38.028  34.411  34.689  1.00  0.00     0.031 C 
ATOM     60  C   UNL A   1      39.875  33.268  35.879  1.00  0.00     0.037 A 
BRANCH  47  61
ATOM     61  C   UNL A   1      43.701  28.423  35.595  1.00  0.00     0.058 A 
ATOM     62  C   UNL A   1      45.046  28.710  35.311  1.00  0.00     0.135 A 
ATOM     63  C   UNL A   1      43.432  27.431  36.551  1.00  0.00     0.135 A 
ATOM     64  F   UNL A   1      45.361  29.637  34.392  1.00  0.00    -0.206 F 
ATOM     65  C   UNL A   1      46.084  28.030  35.938  1.00  0.00     0.059 A 
ATOM     66  C   UNL A   1      44.454  26.758  37.213  1.00  0.00     0.059 A 
ATOM     67  F   UNL A   1      42.164  27.114  36.858  1.00  0.00    -0.206 F 
ATOM     68  C   UNL A   1      45.778  27.060  36.895  1.00  0.00     0.060 A 
BRANCH  68  69
ATOM     69  S   UNL A   1      47.139  26.216  37.725  1.00  0.00     0.124 S 
ATOM     70  O   UNL A   1      48.007  25.883  36.599  1.00  0.00    -0.237 OA
ATOM     71  O   UNL A   1      47.639  27.247  38.628  1.00  0.00    -0.237 OA
ATOM     72  O   UNL A   1      46.491  25.079  38.372  1.00  0.00    -0.744 OA
ENDBRANCH  68  69
ENDBRANCH  47  61
BRANCH  48  73
ATOM     73  C   UNL A   1      36.317  33.363  30.978  1.00  0.00     0.058 A 
ATOM     74  C   UNL A   1      36.545  34.147  29.837  1.00  0.00     0.135 A 
ATOM     75  C   UNL A   1      35.012  33.330  31.494  1.00  0.00     0.135 A 
ATOM     76  F   UNL A   1      37.776  34.215  29.305  1.00  0.00    -0.206 F 
ATOM     77  C   UNL A   1      35.534  34.906  29.257  1.00  0.00     0.059 A 
ATOM     78  C   UNL A   1      33.976  34.054  30.912  1.00  0.00     0.059 A 
ATOM     79  F   UNL A   1      34.731  32.580  32.572  1.00  0.00    -0.206 F 
ATOM     80  C   UNL A   1      34.252  34.857  29.807  1.00  0.00     0.060 A 
BRANCH  80  81
ATOM     81  S   UNL A   1      32.947  35.849  29.051  1.00  0.00     0.124 S 
ATOM     82  O   UNL A   1      32.349  34.892  28.128  1.00  0.00    -0.237 OA
ATOM     83  O   UNL A   1      32.135  36.218  30.205  1.00  0.00    -0.237 OA
ATOM     84  O   UNL A   1      33.680  36.949  28.431  1.00  0.00    -0.744 OA
ENDBRANCH  80  81
ENDBRANCH  48  73
BRANCH  60  85
ATOM     85  C   UNL A   1      39.830  34.346  36.926  1.00  0.00     0.058 A 
ATOM     86  C   UNL A   1      40.585  35.524  36.818  1.00  0.00     0.135 A 
ATOM     87  C   UNL A   1      38.954  34.228  38.018  1.00  0.00     0.135 A 
ATOM     88  F   UNL A   1      41.444  35.685  35.798  1.00  0.00    -0.206 F 
ATOM     89  C   UNL A   1      40.486  36.539  37.764  1.00  0.00     0.059 A 
ATOM     90  C   UNL A   1      38.814  35.243  38.958  1.00  0.00     0.059 A 
ATOM     91  F   UNL A   1      38.200  33.125  38.164  1.00  0.00    -0.206 F 
ATOM     92  C   UNL A   1      39.592  36.392  38.827  1.00  0.00     0.060 A 
BRANCH  92  93
ATOM     93  S   UNL A   1      39.432  37.742  40.014  1.00  0.00     0.124 S 
ATOM     94  O   UNL A   1      39.319  37.014  41.274  1.00  0.00    -0.237 OA
ATOM     95  O   UNL A   1      40.676  38.479  39.818  1.00  0.00    -0.237 OA
ATOM     96  O   UNL A   1      38.223  38.436  39.581  1.00  0.00    -0.744 OA
ENDBRANCH  92  93
ENDBRANCH  60  85
ENDBRANCH  34  35
ENDBRANCH  26  29
ENDBRANCH  24  25
ENDBRANCH  23  24
ENDBRANCH   1  23
TORSDOF 17
ENDMDL
MODEL 3
REMARK VINA RESULT:     -11.1      1.046      2.015
REMARK SMILES Cc1nc(C(C)C)[nH]c(=O)c1C(=O)N(C)CC(=O)NCCCNC(=O)c1ccc(-c2c3nc(c(-c4c(F)cc(S(=O)(=O)[O-])cc4F)c4ccc([nH]4)c(-c4c(F)cc(S(=O)(=O)[O-])cc4F)c4nc(c(-c5c(F)cc(S(=O)(=O)[O-])cc5F)c5ccc2[nH]5)C=C4)C=C3)cc1
REMARK SMILES IDX 20 1 19 2 17 3 18 4 16 6 14 7 15 8 12 9 13 10 11 11 1 12
REMARK SMILES IDX 2 13 3 14 4 15 9 16 8 17 10 18 5 20 6 21 7 22 21 23 22 24
REMARK SMILES IDX 23 25 24 26 25 28 26 29 27 30 91 31 28 32 90 33 29 34 30 35
REMARK SMILES IDX 31 36 84 37 32 38 89 39 83 40 85 41 33 42 88 43 82 44 81 45
REMARK SMILES IDX 34 47 68 48 47 49 67 50 48 51 51 52 66 53 86 54 49 55 50 56
REMARK SMILES IDX 65 58 87 59 52 60 35 61 36 62 45 63 37 64 38 65 44 66 46 67
REMARK SMILES IDX 39 68 40 69 41 70 42 71 43 72 69 73 70 74 79 75 71 76 72 77
REMARK SMILES IDX 78 78 80 79 73 80 74 81 75 82 76 83 77 84 53 85 54 86 63 87
REMARK SMILES IDX 55 88 56 89 62 90 64 91 57 92 58 93 59 94 60 95 61 96
REMARK H PARENT 19 5 8 19 23 27 85 46 51 57
REMARK Flexibility Score: inf
ROOT
ATOM      1  C   UNL A   1      32.029  26.611  26.313  1.00  0.00     0.117 C 
ENDROOT
BRANCH   1   2
ATOM      2  N   UNL A   1      30.829  25.851  26.573  1.00  0.00    -0.354 N 
ATOM      3  C   UNL A   1      30.555  24.547  26.286  1.00  0.00     0.239 C 
ATOM      4  O   UNL A   1      29.573  24.045  26.845  1.00  0.00    -0.273 OA
ATOM      5  H   UNL A   1      30.106  26.344  27.023  1.00  0.00     0.163 HD
BRANCH   3   6
ATOM      6  C   UNL A   1      31.556  23.664  25.520  1.00  0.00     0.219 C 
BRANCH   6   7
ATOM      7  N   UNL A   1      31.393  23.372  24.082  1.00  0.00    -0.332 N 
ATOM      8  C   UNL A   1      30.520  24.283  23.361  1.00  0.00     0.147 C 
BRANCH   7   9
ATOM      9  C   UNL A   1      32.332  22.508  23.525  1.00  0.00     0.261 C 
ATOM     10  O   UNL A   1      32.016  21.861  22.520  1.00  0.00    -0.269 OA
BRANCH   9  11
ATOM     11  C   UNL A   1      33.735  22.314  24.045  1.00  0.00     0.126 A 
ATOM     12  C   UNL A   1      33.475  20.180  25.416  1.00  0.00     0.068 C 
ATOM     13  C   UNL A   1      34.234  21.354  24.860  1.00  0.00     0.058 A 
ATOM     14  N   UNL A   1      35.511  21.367  25.390  1.00  0.00    -0.239 NA
ATOM     15  C   UNL A   1      36.216  22.445  25.300  1.00  0.00     0.111 A 
ATOM     16  C   UNL A   1      34.684  23.453  23.794  1.00  0.00     0.264 A 
ATOM     17  N   UNL A   1      35.797  23.514  24.580  1.00  0.00    -0.310 N 
ATOM     18  O   UNL A   1      34.531  24.276  22.895  1.00  0.00    -0.269 OA
ATOM     19  H   UNL A   1      36.307  24.354  24.627  1.00  0.00     0.171 HD
BRANCH  15  20
ATOM     20  C   UNL A   1      37.562  22.534  26.007  1.00  0.00     0.049 C 
ATOM     21  C   UNL A   1      38.543  21.497  25.469  1.00  0.00     0.016 C 
ATOM     22  C   UNL A   1      38.139  23.944  25.906  1.00  0.00     0.016 C 
ENDBRANCH  15  20
ENDBRANCH   9  11
ENDBRANCH   7   9
ENDBRANCH   6   7
ENDBRANCH   3   6
ENDBRANCH   1   2
BRANCH   1  23
ATOM     23  C   UNL A   1      32.246  27.729  27.322  1.00  0.00     0.042 C 
BRANCH  23  24
ATOM     24  C   UNL A   1      33.592  28.431  27.198  1.00  0.00     0.118 C 
BRANCH  24  25
ATOM     25  N   UNL A   1      33.522  29.846  27.540  1.00  0.00    -0.352 N 
ATOM     26  C   UNL A   1      34.457  30.646  28.153  1.00  0.00     0.251 C 
ATOM     27  H   UNL A   1      32.680  30.295  27.297  1.00  0.00     0.163 HD
ATOM     28  O   UNL A   1      34.147  31.773  28.518  1.00  0.00    -0.269 OA
BRANCH  26  29
ATOM     29  C   UNL A   1      35.826  30.134  28.389  1.00  0.00     0.039 A 
ATOM     30  C   UNL A   1      36.749  30.156  27.339  1.00  0.00     0.014 A 
ATOM     31  C   UNL A   1      36.196  29.631  29.637  1.00  0.00     0.014 A 
ATOM     32  C   UNL A   1      38.064  29.737  27.565  1.00  0.00     0.010 A 
ATOM     33  C   UNL A   1      37.523  29.291  29.881  1.00  0.00     0.010 A 
ATOM     34  C   UNL A   1      38.470  29.336  28.847  1.00  0.00    -0.014 A 
BRANCH  34  35
ATOM     35  C   UNL A   1      39.871  28.934  29.137  1.00  0.00     0.031 A 
ATOM     36  C   UNL A   1      40.827  29.940  29.724  1.00  0.00     0.074 A 
ATOM     37  C   UNL A   1      40.302  27.701  28.804  1.00  0.00     0.049 A 
ATOM     38  N   UNL A   1      42.116  29.842  29.915  1.00  0.00    -0.248 NA
ATOM     39  C   UNL A   1      40.258  31.240  30.122  1.00  0.00     0.031 C 
ATOM     40  C   UNL A   1      39.480  26.646  28.208  1.00  0.00     0.029 A 
ATOM     41  N   UNL A   1      41.548  27.130  28.903  1.00  0.00    -0.354 N 
ATOM     42  C   UNL A   1      42.514  31.064  30.444  1.00  0.00     0.074 A 
ATOM     43  C   UNL A   1      41.341  31.909  30.489  1.00  0.00     0.031 C 
ATOM     44  C   UNL A   1      40.237  25.555  28.007  1.00  0.00     0.029 A 
ATOM     45  C   UNL A   1      41.609  25.846  28.413  1.00  0.00     0.049 A 
ATOM     46  H   UNL A   1      42.324  27.597  29.287  1.00  0.00     0.167 HD
ATOM     47  C   UNL A   1      43.740  31.439  30.880  1.00  0.00     0.037 A 
ATOM     48  C   UNL A   1      42.656  25.007  28.287  1.00  0.00     0.037 A 
ATOM     49  C   UNL A   1      44.898  30.585  30.854  1.00  0.00     0.049 A 
ATOM     50  C   UNL A   1      44.018  25.464  28.745  1.00  0.00     0.074 A 
ATOM     51  C   UNL A   1      46.181  30.863  31.291  1.00  0.00     0.029 A 
ATOM     52  N   UNL A   1      44.912  29.284  30.372  1.00  0.00    -0.354 N 
ATOM     53  N   UNL A   1      44.369  26.612  29.272  1.00  0.00    -0.248 NA
ATOM     54  C   UNL A   1      45.127  24.508  28.596  1.00  0.00     0.031 C 
ATOM     55  C   UNL A   1      46.980  29.746  31.037  1.00  0.00     0.029 A 
ATOM     56  C   UNL A   1      46.183  28.750  30.495  1.00  0.00     0.049 A 
ATOM     57  H   UNL A   1      44.134  28.812  29.998  1.00  0.00     0.167 HD
ATOM     58  C   UNL A   1      45.726  26.499  29.562  1.00  0.00     0.074 A 
ATOM     59  C   UNL A   1      46.131  25.171  29.152  1.00  0.00     0.031 C 
ATOM     60  C   UNL A   1      46.560  27.410  30.120  1.00  0.00     0.037 A 
BRANCH  47  61
ATOM     61  C   UNL A   1      43.892  32.826  31.442  1.00  0.00     0.058 A 
ATOM     62  C   UNL A   1      43.822  33.068  32.824  1.00  0.00     0.135 A 
ATOM     63  C   UNL A   1      44.176  33.915  30.602  1.00  0.00     0.135 A 
ATOM     64  F   UNL A   1      43.535  32.067  33.671  1.00  0.00    -0.206 F 
ATOM     65  C   UNL A   1      44.011  34.340  33.351  1.00  0.00     0.059 A 
ATOM     66  C   UNL A   1      44.399  35.191  31.110  1.00  0.00     0.059 A 
ATOM     67  F   UNL A   1      44.252  33.742  29.273  1.00  0.00    -0.206 F 
ATOM     68  C   UNL A   1      44.307  35.395  32.486  1.00  0.00     0.060 A 
BRANCH  68  69
ATOM     69  S   UNL A   1      44.585  37.032  33.194  1.00  0.00     0.124 S 
ATOM     70  O   UNL A   1      43.243  37.604  33.146  1.00  0.00    -0.237 OA
ATOM     71  O   UNL A   1      45.090  36.711  34.525  1.00  0.00    -0.237 OA
ATOM     72  O   UNL A   1      45.556  37.635  32.286  1.00  0.00    -0.744 OA
ENDBRANCH  68  69
ENDBRANCH  47  61
BRANCH  48  73
ATOM     73  C   UNL A   1      42.471  23.645  27.713  1.00  0.00     0.058 A 
ATOM     74  C   UNL A   1      42.364  22.520  28.545  1.00  0.00     0.135 A 
ATOM     75  C   UNL A   1      42.437  23.432  26.325  1.00  0.00     0.135 A 
ATOM     76  F   UNL A   1      42.393  22.668  29.879  1.00  0.00    -0.206 F 
ATOM     77  C   UNL A   1      42.274  21.233  28.027  1.00  0.00     0.059 A 
ATOM     78  C   UNL A   1      42.315  22.157  25.782  1.00  0.00     0.059 A 
ATOM     79  F   UNL A   1      42.515  24.473  25.481  1.00  0.00    -0.206 F 
ATOM     80  C   UNL A   1      42.256  21.061  26.642  1.00  0.00     0.060 A 
BRANCH  80  81
ATOM     81  S   UNL A   1      42.145  19.386  25.978  1.00  0.00     0.124 S 
ATOM     82  O   UNL A   1      40.710  19.253  25.758  1.00  0.00    -0.237 OA
ATOM     83  O   UNL A   1      42.971  19.476  24.779  1.00  0.00    -0.237 OA
ATOM     84  O   UNL A   1      42.697  18.564  27.051  1.00  0.00    -0.744 OA
ENDBRANCH  80  81
ENDBRANCH  48  73
BRANCH  60  85
ATOM     85  C   UNL A   1      47.975  26.988  30.400  1.00  0.00     0.058 A 
ATOM     86  C   UNL A   1      49.034  27.306  29.535  1.00  0.00     0.135 A 
ATOM     87  C   UNL A   1      48.285  26.319  31.596  1.00  0.00     0.135 A 
ATOM     88  F   UNL A   1      48.792  27.937  28.376  1.00  0.00    -0.206 F 
ATOM     89  C   UNL A   1      50.346  26.962  29.839  1.00  0.00     0.059 A 
ATOM     90  C   UNL A   1      49.593  25.994  31.935  1.00  0.00     0.059 A 
ATOM     91  F   UNL A   1      47.309  26.000  32.464  1.00  0.00    -0.206 F 
ATOM     92  C   UNL A   1      50.617  26.312  31.046  1.00  0.00     0.060 A 
BRANCH  92  93
ATOM     93  S   UNL A   1      52.332  25.922  31.452  1.00  0.00     0.124 S 
ATOM     94  O   UNL A   1      52.663  26.993  32.387  1.00  0.00    -0.237 OA
ATOM     95  O   UNL A   1      52.220  24.588  32.031  1.00  0.00    -0.237 OA
ATOM     96  O   UNL A   1      53.011  25.986  30.162  1.00  0.00    -0.744 OA
ENDBRANCH  92  93
ENDBRANCH  60  85
ENDBRANCH  34  35
ENDBRANCH  26  29
ENDBRANCH  24  25
ENDBRANCH  23  24
ENDBRANCH   1  23
TORSDOF 17
ENDMDL
