MODEL 1
REMARK VINA RESULT:     -11.0      0.000      0.000
REMARK SMILES CC(C)(C)[N@H+](CCC(=O)Nc1ccccc1F)CC(=O)NCCCNC(=O)c1ccc(-c2c3nc(c(-c4c(F)cc(S(=O)(=O)[O-])cc4F)c4ccc([nH]4)c(-c4c(F)cc(S(=O)(=O)[O-])cc4F)c4nc(c(-c5c(F)cc(S(=O)(=O)[O-])cc5F)c5ccc2[nH]5)C=C4)C=C3)cc1
REMARK SMILES IDX 22 1 21 2 19 3 20 4 18 6 5 7 2 9 1 10 3 11 4 12 6 13 7 14
REMARK SMILES IDX 8 15 9 16 10 17 11 19 12 20 16 21 13 22 15 23 17 24 14 25
REMARK SMILES IDX 23 26 24 27 25 28 26 29 27 31 28 32 29 33 93 34 30 35 92 36
REMARK SMILES IDX 31 37 32 38 33 39 86 40 34 41 91 42 85 43 87 44 35 45 90 46
REMARK SMILES IDX 84 47 83 48 36 50 70 51 49 52 69 53 50 54 53 55 68 56 88 57
REMARK SMILES IDX 51 58 52 59 67 61 89 62 54 63 37 64 38 65 47 66 39 67 40 68
REMARK SMILES IDX 46 69 48 70 41 71 42 72 43 73 44 74 45 75 71 76 72 77 81 78
REMARK SMILES IDX 73 79 74 80 80 81 82 82 75 83 76 84 77 85 78 86 79 87 55 88
REMARK SMILES IDX 56 89 65 90 57 91 58 92 64 93 66 94 59 95 60 96 61 97 62 98
REMARK SMILES IDX 63 99
REMARK H PARENT 21 5 5 8 10 18 25 30 87 49 53 60
REMARK Flexibility Score: inf
ROOT
ATOM      1  C   UNL A   1      32.914  27.550  24.875  1.00  0.00     0.118 C 
ENDROOT
BRANCH   1   2
ATOM      2  N   UNL A   1      32.620  26.418  25.731  1.00  0.00    -0.351 N 
ATOM      3  C   UNL A   1      33.100  25.154  25.825  1.00  0.00     0.275 C 
ATOM      4  O   UNL A   1      32.545  24.445  26.678  1.00  0.00    -0.269 OA
ATOM      5  H   UNL A   1      31.914  26.610  26.389  1.00  0.00     0.163 HD
BRANCH   3   6
ATOM      6  C   UNL A   1      34.381  24.655  25.177  1.00  0.00     0.363 C 
BRANCH   6   7
ATOM      7  N   UNL A   1      34.550  23.227  24.835  1.00  0.00    -0.323 N 
ATOM      8  H   UNL A   1      34.167  22.672  25.601  1.00  0.00     0.349 HD
BRANCH   7   9
ATOM      9  C   UNL A   1      36.033  22.873  24.692  1.00  0.00     0.090 C 
ATOM     10  C   UNL A   1      36.347  21.429  25.165  1.00  0.00     0.078 C 
ATOM     11  C   UNL A   1      36.881  23.809  25.590  1.00  0.00     0.078 C 
ATOM     12  C   UNL A   1      36.594  22.967  23.241  1.00  0.00     0.078 C 
ENDBRANCH   7   9
BRANCH   7  13
ATOM     13  C   UNL A   1      33.783  22.874  23.596  1.00  0.00     0.273 C 
BRANCH  13  14
ATOM     14  C   UNL A   1      32.746  21.720  23.526  1.00  0.00     0.161 C 
BRANCH  14  15
ATOM     15  C   UNL A   1      32.125  20.928  24.700  1.00  0.00     0.230 C 
ATOM     16  O   UNL A   1      31.452  21.548  25.538  1.00  0.00    -0.275 OA
ATOM     17  N   UNL A   1      32.182  19.579  24.877  1.00  0.00    -0.323 N 
ATOM     18  H   UNL A   1      31.519  19.213  25.505  1.00  0.00     0.170 HD
BRANCH  17  19
ATOM     19  C   UNL A   1      33.038  18.631  24.303  1.00  0.00     0.077 A 
ATOM     20  C   UNL A   1      34.161  18.220  25.036  1.00  0.00     0.029 A 
ATOM     21  C   UNL A   1      32.771  18.042  23.072  1.00  0.00     0.146 A 
ATOM     22  C   UNL A   1      34.918  17.133  24.591  1.00  0.00     0.002 A 
ATOM     23  C   UNL A   1      33.551  16.994  22.602  1.00  0.00     0.041 A 
ATOM     24  F   UNL A   1      31.742  18.471  22.327  1.00  0.00    -0.205 F 
ATOM     25  C   UNL A   1      34.608  16.517  23.378  1.00  0.00     0.003 A 
ENDBRANCH  17  19
ENDBRANCH  14  15
ENDBRANCH  13  14
ENDBRANCH   7  13
ENDBRANCH   6   7
ENDBRANCH   3   6
ENDBRANCH   1   2
BRANCH   1  26
ATOM     26  C   UNL A   1      34.182  28.280  25.266  1.00  0.00     0.042 C 
BRANCH  26  27
ATOM     27  C   UNL A   1      34.251  28.478  26.767  1.00  0.00     0.118 C 
BRANCH  27  28
ATOM     28  N   UNL A   1      33.905  29.848  27.140  1.00  0.00    -0.352 N 
ATOM     29  C   UNL A   1      34.578  30.661  28.024  1.00  0.00     0.251 C 
ATOM     30  H   UNL A   1      33.104  30.230  26.714  1.00  0.00     0.163 HD
ATOM     31  O   UNL A   1      34.073  31.671  28.477  1.00  0.00    -0.269 OA
BRANCH  29  32
ATOM     32  C   UNL A   1      35.950  30.255  28.385  1.00  0.00     0.039 A 
ATOM     33  C   UNL A   1      36.206  29.655  29.616  1.00  0.00     0.014 A 
ATOM     34  C   UNL A   1      36.953  30.400  27.422  1.00  0.00     0.014 A 
ATOM     35  C   UNL A   1      37.489  29.168  29.873  1.00  0.00     0.010 A 
ATOM     36  C   UNL A   1      38.180  29.809  27.633  1.00  0.00     0.010 A 
ATOM     37  C   UNL A   1      38.474  29.230  28.877  1.00  0.00    -0.014 A 
BRANCH  37  38
ATOM     38  C   UNL A   1      39.873  28.804  29.103  1.00  0.00     0.031 A 
ATOM     39  C   UNL A   1      40.841  29.823  29.638  1.00  0.00     0.074 A 
ATOM     40  C   UNL A   1      40.285  27.583  28.723  1.00  0.00     0.049 A 
ATOM     41  N   UNL A   1      42.143  29.769  29.713  1.00  0.00    -0.248 NA
ATOM     42  C   UNL A   1      40.268  31.104  30.090  1.00  0.00     0.031 C 
ATOM     43  C   UNL A   1      39.432  26.537  28.159  1.00  0.00     0.029 A 
ATOM     44  N   UNL A   1      41.537  27.025  28.733  1.00  0.00    -0.354 N 
ATOM     45  C   UNL A   1      42.540  31.018  30.173  1.00  0.00     0.074 A 
ATOM     46  C   UNL A   1      41.354  31.833  30.285  1.00  0.00     0.031 C 
ATOM     47  C   UNL A   1      40.182  25.454  27.899  1.00  0.00     0.029 A 
ATOM     48  C   UNL A   1      41.575  25.749  28.226  1.00  0.00     0.049 A 
ATOM     49  H   UNL A   1      42.334  27.494  29.071  1.00  0.00     0.167 HD
ATOM     50  C   UNL A   1      43.783  31.436  30.502  1.00  0.00     0.037 A 
ATOM     51  C   UNL A   1      42.620  24.919  28.036  1.00  0.00     0.037 A 
ATOM     52  C   UNL A   1      44.938  30.585  30.434  1.00  0.00     0.049 A 
ATOM     53  C   UNL A   1      43.995  25.392  28.419  1.00  0.00     0.074 A 
ATOM     54  C   UNL A   1      46.235  30.866  30.817  1.00  0.00     0.029 A 
ATOM     55  N   UNL A   1      44.929  29.282  29.953  1.00  0.00    -0.354 N 
ATOM     56  N   UNL A   1      44.357  26.556  28.905  1.00  0.00    -0.248 NA
ATOM     57  C   UNL A   1      45.104  24.448  28.232  1.00  0.00     0.031 C 
ATOM     58  C   UNL A   1      47.022  29.752  30.516  1.00  0.00     0.029 A 
ATOM     59  C   UNL A   1      46.205  28.752  30.005  1.00  0.00     0.049 A 
ATOM     60  H   UNL A   1      44.133  28.806  29.623  1.00  0.00     0.167 HD
ATOM     61  C   UNL A   1      45.731  26.479  29.104  1.00  0.00     0.074 A 
ATOM     62  C   UNL A   1      46.136  25.152  28.686  1.00  0.00     0.031 C 
ATOM     63  C   UNL A   1      46.576  27.419  29.594  1.00  0.00     0.037 A 
BRANCH  50  64
ATOM     64  C   UNL A   1      43.946  32.858  30.966  1.00  0.00     0.058 A 
ATOM     65  C   UNL A   1      44.062  33.902  30.033  1.00  0.00     0.135 A 
ATOM     66  C   UNL A   1      43.994  33.195  32.329  1.00  0.00     0.135 A 
ATOM     67  F   UNL A   1      44.017  33.643  28.717  1.00  0.00    -0.206 F 
ATOM     68  C   UNL A   1      44.216  35.224  30.435  1.00  0.00     0.059 A 
ATOM     69  C   UNL A   1      44.109  34.515  32.754  1.00  0.00     0.059 A 
ATOM     70  F   UNL A   1      43.867  32.242  33.267  1.00  0.00    -0.206 F 
ATOM     71  C   UNL A   1      44.229  35.523  31.799  1.00  0.00     0.060 A 
BRANCH  71  72
ATOM     72  S   UNL A   1      44.353  37.251  32.301  1.00  0.00     0.124 S 
ATOM     73  O   UNL A   1      45.692  37.301  32.878  1.00  0.00    -0.237 OA
ATOM     74  O   UNL A   1      44.179  37.953  31.034  1.00  0.00    -0.237 OA
ATOM     75  O   UNL A   1      43.254  37.407  33.250  1.00  0.00    -0.744 OA
ENDBRANCH  71  72
ENDBRANCH  50  64
BRANCH  51  76
ATOM     76  C   UNL A   1      42.370  23.552  27.507  1.00  0.00     0.058 A 
ATOM     77  C   UNL A   1      42.174  22.458  28.365  1.00  0.00     0.135 A 
ATOM     78  C   UNL A   1      42.439  23.298  26.130  1.00  0.00     0.135 A 
ATOM     79  F   UNL A   1      42.115  22.646  29.693  1.00  0.00    -0.206 F 
ATOM     80  C   UNL A   1      42.105  21.156  27.880  1.00  0.00     0.059 A 
ATOM     81  C   UNL A   1      42.348  22.006  25.619  1.00  0.00     0.059 A 
ATOM     82  F   UNL A   1      42.615  24.312  25.270  1.00  0.00    -0.206 F 
ATOM     83  C   UNL A   1      42.207  20.939  26.505  1.00  0.00     0.060 A 
BRANCH  83  84
ATOM     84  S   UNL A   1      42.193  19.236  25.904  1.00  0.00     0.124 S 
ATOM     85  O   UNL A   1      43.078  19.327  24.747  1.00  0.00    -0.237 OA
ATOM     86  O   UNL A   1      42.722  18.505  27.052  1.00  0.00    -0.237 OA
ATOM     87  O   UNL A   1      40.787  18.994  25.601  1.00  0.00    -0.744 OA
ENDBRANCH  83  84
ENDBRANCH  51  76
BRANCH  63  88
ATOM     88  C   UNL A   1      48.029  27.062  29.738  1.00  0.00     0.058 A 
ATOM     89  C   UNL A   1      48.490  26.467  30.924  1.00  0.00     0.135 A 
ATOM     90  C   UNL A   1      48.978  27.464  28.789  1.00  0.00     0.135 A 
ATOM     91  F   UNL A   1      47.619  26.072  31.866  1.00  0.00    -0.206 F 
ATOM     92  C   UNL A   1      49.847  26.330  31.185  1.00  0.00     0.059 A 
ATOM     93  C   UNL A   1      50.342  27.311  29.017  1.00  0.00     0.059 A 
ATOM     94  F   UNL A   1      48.585  28.029  27.636  1.00  0.00    -0.206 F 
ATOM     95  C   UNL A   1      50.766  26.769  30.232  1.00  0.00     0.060 A 
BRANCH  95  96
ATOM     96  S   UNL A   1      52.524  26.640  30.618  1.00  0.00     0.124 S 
ATOM     97  O   UNL A   1      53.106  26.437  29.295  1.00  0.00    -0.237 OA
ATOM     98  O   UNL A   1      52.797  27.930  31.241  1.00  0.00    -0.237 OA
ATOM     99  O   UNL A   1      52.591  25.490  31.515  1.00  0.00    -0.744 OA
ENDBRANCH  95  96
ENDBRANCH  63  88
ENDBRANCH  37  38
ENDBRANCH  29  32
ENDBRANCH  27  28
ENDBRANCH  26  27
ENDBRANCH   1  26
TORSDOF 19
ENDMDL
MODEL 2
REMARK VINA RESULT:     -10.9      1.534      2.454
REMARK SMILES CC(C)(C)[N@H+](CCC(=O)Nc1ccccc1F)CC(=O)NCCCNC(=O)c1ccc(-c2c3nc(c(-c4c(F)cc(S(=O)(=O)[O-])cc4F)c4ccc([nH]4)c(-c4c(F)cc(S(=O)(=O)[O-])cc4F)c4nc(c(-c5c(F)cc(S(=O)(=O)[O-])cc5F)c5ccc2[nH]5)C=C4)C=C3)cc1
REMARK SMILES IDX 22 1 21 2 19 3 20 4 18 6 5 7 2 9 1 10 3 11 4 12 6 13 7 14
REMARK SMILES IDX 8 15 9 16 10 17 11 19 12 20 16 21 13 22 15 23 17 24 14 25
REMARK SMILES IDX 23 26 24 27 25 28 26 29 27 31 28 32 29 33 93 34 30 35 92 36
REMARK SMILES IDX 31 37 32 38 33 39 86 40 34 41 91 42 85 43 87 44 35 45 90 46
REMARK SMILES IDX 84 47 83 48 36 50 70 51 49 52 69 53 50 54 53 55 68 56 88 57
REMARK SMILES IDX 51 58 52 59 67 61 89 62 54 63 37 64 38 65 47 66 39 67 40 68
REMARK SMILES IDX 46 69 48 70 41 71 42 72 43 73 44 74 45 75 71 76 72 77 81 78
REMARK SMILES IDX 73 79 74 80 80 81 82 82 75 83 76 84 77 85 78 86 79 87 55 88
REMARK SMILES IDX 56 89 65 90 57 91 58 92 64 93 66 94 59 95 60 96 61 97 62 98
REMARK SMILES IDX 63 99
REMARK H PARENT 21 5 5 8 10 18 25 30 87 49 53 60
REMARK Flexibility Score: inf
ROOT
ATOM      1  C   UNL A   1      31.897  28.089  27.010  1.00  0.00     0.118 C 
ENDROOT
BRANCH   1   2
ATOM      2  N   UNL A   1      31.074  26.897  27.040  1.00  0.00    -0.351 N 
ATOM      3  C   UNL A   1      30.343  26.229  26.114  1.00  0.00     0.275 C 
ATOM      4  O   UNL A   1      29.719  25.249  26.547  1.00  0.00    -0.269 OA
ATOM      5  H   UNL A   1      31.036  26.481  27.931  1.00  0.00     0.163 HD
BRANCH   3   6
ATOM      6  C   UNL A   1      30.443  26.429  24.611  1.00  0.00     0.363 C 
BRANCH   6   7
ATOM      7  N   UNL A   1      31.455  25.702  23.816  1.00  0.00    -0.323 N 
ATOM      8  H   UNL A   1      32.235  25.472  24.433  1.00  0.00     0.349 HD
BRANCH   7   9
ATOM      9  C   UNL A   1      31.995  26.582  22.685  1.00  0.00     0.090 C 
ATOM     10  C   UNL A   1      33.533  26.772  22.763  1.00  0.00     0.078 C 
ATOM     11  C   UNL A   1      31.383  28.002  22.791  1.00  0.00     0.078 C 
ATOM     12  C   UNL A   1      31.714  26.049  21.247  1.00  0.00     0.078 C 
ENDBRANCH   7   9
BRANCH   7  13
ATOM     13  C   UNL A   1      30.903  24.413  23.288  1.00  0.00     0.273 C 
BRANCH  13  14
ATOM     14  C   UNL A   1      31.353  23.013  23.792  1.00  0.00     0.161 C 
BRANCH  14  15
ATOM     15  C   UNL A   1      32.226  21.973  23.052  1.00  0.00     0.230 C 
ATOM     16  O   UNL A   1      31.678  21.219  22.233  1.00  0.00    -0.275 OA
ATOM     17  N   UNL A   1      33.578  21.841  23.158  1.00  0.00    -0.323 N 
ATOM     18  H   UNL A   1      34.004  21.330  22.432  1.00  0.00     0.170 HD
BRANCH  17  19
ATOM     19  C   UNL A   1      34.456  22.320  24.138  1.00  0.00     0.077 A 
ATOM     20  C   UNL A   1      35.126  23.528  23.897  1.00  0.00     0.029 A 
ATOM     21  C   UNL A   1      34.627  21.672  25.357  1.00  0.00     0.146 A 
ATOM     22  C   UNL A   1      35.844  24.138  24.929  1.00  0.00     0.002 A 
ATOM     23  C   UNL A   1      35.381  22.251  26.368  1.00  0.00     0.041 A 
ATOM     24  F   UNL A   1      34.050  20.482  25.576  1.00  0.00    -0.205 F 
ATOM     25  C   UNL A   1      35.965  23.502  26.165  1.00  0.00     0.003 A 
ENDBRANCH  17  19
ENDBRANCH  14  15
ENDBRANCH  13  14
ENDBRANCH   7  13
ENDBRANCH   6   7
ENDBRANCH   3   6
ENDBRANCH   1   2
BRANCH   1  26
ATOM     26  C   UNL A   1      33.221  27.882  26.304  1.00  0.00     0.042 C 
BRANCH  26  27
ATOM     27  C   UNL A   1      34.353  28.530  27.076  1.00  0.00     0.118 C 
BRANCH  27  28
ATOM     28  N   UNL A   1      34.014  29.895  27.472  1.00  0.00    -0.352 N 
ATOM     29  C   UNL A   1      34.725  30.711  28.325  1.00  0.00     0.251 C 
ATOM     30  H   UNL A   1      33.191  30.273  27.087  1.00  0.00     0.163 HD
ATOM     31  O   UNL A   1      34.234  31.714  28.807  1.00  0.00    -0.269 OA
BRANCH  29  32
ATOM     32  C   UNL A   1      36.115  30.314  28.616  1.00  0.00     0.039 A 
ATOM     33  C   UNL A   1      36.448  29.768  29.855  1.00  0.00     0.014 A 
ATOM     34  C   UNL A   1      37.055  30.411  27.587  1.00  0.00     0.014 A 
ATOM     35  C   UNL A   1      37.742  29.286  30.052  1.00  0.00     0.010 A 
ATOM     36  C   UNL A   1      38.293  29.823  27.746  1.00  0.00     0.010 A 
ATOM     37  C   UNL A   1      38.663  29.298  28.993  1.00  0.00    -0.014 A 
BRANCH  37  38
ATOM     38  C   UNL A   1      40.072  28.876  29.150  1.00  0.00     0.031 A 
ATOM     39  C   UNL A   1      41.068  29.902  29.616  1.00  0.00     0.074 A 
ATOM     40  C   UNL A   1      40.464  27.649  28.766  1.00  0.00     0.049 A 
ATOM     41  N   UNL A   1      42.372  29.849  29.621  1.00  0.00    -0.248 NA
ATOM     42  C   UNL A   1      40.519  31.190  30.079  1.00  0.00     0.031 C 
ATOM     43  C   UNL A   1      39.582  26.594  28.265  1.00  0.00     0.029 A 
ATOM     44  N   UNL A   1      41.715  27.091  28.717  1.00  0.00    -0.354 N 
ATOM     45  C   UNL A   1      42.792  31.105  30.040  1.00  0.00     0.074 A 
ATOM     46  C   UNL A   1      41.613  31.922  30.204  1.00  0.00     0.031 C 
ATOM     47  C   UNL A   1      40.317  25.507  27.981  1.00  0.00     0.029 A 
ATOM     48  C   UNL A   1      41.726  25.807  28.228  1.00  0.00     0.049 A 
ATOM     49  H   UNL A   1      42.529  27.565  29.004  1.00  0.00     0.167 HD
ATOM     50  C   UNL A   1      44.051  31.527  30.295  1.00  0.00     0.037 A 
ATOM     51  C   UNL A   1      42.759  24.974  27.994  1.00  0.00     0.037 A 
ATOM     52  C   UNL A   1      45.201  30.675  30.177  1.00  0.00     0.049 A 
ATOM     53  C   UNL A   1      44.153  25.452  28.294  1.00  0.00     0.074 A 
ATOM     54  C   UNL A   1      46.516  30.961  30.485  1.00  0.00     0.029 A 
ATOM     55  N   UNL A   1      45.167  29.365  29.717  1.00  0.00    -0.354 N 
ATOM     56  N   UNL A   1      44.540  26.624  28.742  1.00  0.00    -0.248 NA
ATOM     57  C   UNL A   1      45.251  24.506  28.061  1.00  0.00     0.031 C 
ATOM     58  C   UNL A   1      47.287  29.843  30.158  1.00  0.00     0.029 A 
ATOM     59  C   UNL A   1      46.444  28.836  29.708  1.00  0.00     0.049 A 
ATOM     60  H   UNL A   1      44.354  28.884  29.438  1.00  0.00     0.167 HD
ATOM     61  C   UNL A   1      45.923  26.549  28.868  1.00  0.00     0.074 A 
ATOM     62  C   UNL A   1      46.305  25.216  28.449  1.00  0.00     0.031 C 
ATOM     63  C   UNL A   1      46.793  27.497  29.297  1.00  0.00     0.037 A 
BRANCH  50  64
ATOM     64  C   UNL A   1      44.238  32.957  30.728  1.00  0.00     0.058 A 
ATOM     65  C   UNL A   1      44.511  33.956  29.780  1.00  0.00     0.135 A 
ATOM     66  C   UNL A   1      44.154  33.342  32.076  1.00  0.00     0.135 A 
ATOM     67  F   UNL A   1      44.597  33.650  28.477  1.00  0.00    -0.206 F 
ATOM     68  C   UNL A   1      44.690  35.284  30.154  1.00  0.00     0.059 A 
ATOM     69  C   UNL A   1      44.292  34.670  32.468  1.00  0.00     0.059 A 
ATOM     70  F   UNL A   1      43.874  32.432  33.025  1.00  0.00    -0.206 F 
ATOM     71  C   UNL A   1      44.570  35.633  31.500  1.00  0.00     0.060 A 
BRANCH  71  72
ATOM     72  S   UNL A   1      44.731  37.371  31.958  1.00  0.00     0.124 S 
ATOM     73  O   UNL A   1      43.569  37.565  32.816  1.00  0.00    -0.237 OA
ATOM     74  O   UNL A   1      46.029  37.394  32.626  1.00  0.00    -0.237 OA
ATOM     75  O   UNL A   1      44.686  38.064  30.673  1.00  0.00    -0.744 OA
ENDBRANCH  71  72
ENDBRANCH  50  64
BRANCH  51  76
ATOM     76  C   UNL A   1      42.482  23.600  27.500  1.00  0.00     0.058 A 
ATOM     77  C   UNL A   1      42.352  22.515  28.383  1.00  0.00     0.135 A 
ATOM     78  C   UNL A   1      42.459  23.328  26.125  1.00  0.00     0.135 A 
ATOM     79  F   UNL A   1      42.381  22.719  29.709  1.00  0.00    -0.206 F 
ATOM     80  C   UNL A   1      42.256  21.207  27.919  1.00  0.00     0.059 A 
ATOM     81  C   UNL A   1      42.341  22.030  25.636  1.00  0.00     0.059 A 
ATOM     82  F   UNL A   1      42.571  24.333  25.242  1.00  0.00    -0.206 F 
ATOM     83  C   UNL A   1      42.266  20.974  26.544  1.00  0.00     0.060 A 
BRANCH  83  84
ATOM     84  S   UNL A   1      42.222  19.263  25.966  1.00  0.00     0.124 S 
ATOM     85  O   UNL A   1      43.135  19.314  24.829  1.00  0.00    -0.237 OA
ATOM     86  O   UNL A   1      42.704  18.535  27.135  1.00  0.00    -0.237 OA
ATOM     87  O   UNL A   1      40.817  19.053  25.633  1.00  0.00    -0.744 OA
ENDBRANCH  83  84
ENDBRANCH  51  76
BRANCH  63  88
ATOM     88  C   UNL A   1      48.252  27.142  29.367  1.00  0.00     0.058 A 
ATOM     89  C   UNL A   1      48.791  26.625  30.557  1.00  0.00     0.135 A 
ATOM     90  C   UNL A   1      49.136  27.473  28.331  1.00  0.00     0.135 A 
ATOM     91  F   UNL A   1      47.984  26.300  31.580  1.00  0.00    -0.206 F 
ATOM     92  C   UNL A   1      50.162  26.498  30.736  1.00  0.00     0.059 A 
ATOM     93  C   UNL A   1      50.512  27.327  28.478  1.00  0.00     0.059 A 
ATOM     94  F   UNL A   1      48.666  27.960  27.172  1.00  0.00    -0.206 F 
ATOM     95  C   UNL A   1      51.015  26.866  29.695  1.00  0.00     0.060 A 
BRANCH  95  96
ATOM     96  S   UNL A   1      52.795  26.753  29.970  1.00  0.00     0.124 S 
ATOM     97  O   UNL A   1      53.154  28.151  30.185  1.00  0.00    -0.237 OA
ATOM     98  O   UNL A   1      52.869  25.890  31.145  1.00  0.00    -0.237 OA
ATOM     99  O   UNL A   1      53.293  26.160  28.732  1.00  0.00    -0.744 OA
ENDBRANCH  95  96
ENDBRANCH  63  88
ENDBRANCH  37  38
ENDBRANCH  29  32
ENDBRANCH  27  28
ENDBRANCH  26  27
ENDBRANCH   1  26
TORSDOF 19
ENDMDL
MODEL 3
REMARK VINA RESULT:     -10.8      1.348      2.667
REMARK SMILES CC(C)(C)[N@H+](CCC(=O)Nc1ccccc1F)CC(=O)NCCCNC(=O)c1ccc(-c2c3nc(c(-c4c(F)cc(S(=O)(=O)[O-])cc4F)c4ccc([nH]4)c(-c4c(F)cc(S(=O)(=O)[O-])cc4F)c4nc(c(-c5c(F)cc(S(=O)(=O)[O-])cc5F)c5ccc2[nH]5)C=C4)C=C3)cc1
REMARK SMILES IDX 22 1 21 2 19 3 20 4 18 6 5 7 2 9 1 10 3 11 4 12 6 13 7 14
REMARK SMILES IDX 8 15 9 16 10 17 11 19 12 20 16 21 13 22 15 23 17 24 14 25
REMARK SMILES IDX 23 26 24 27 25 28 26 29 27 31 28 32 29 33 93 34 30 35 92 36
REMARK SMILES IDX 31 37 32 38 33 39 86 40 34 41 91 42 85 43 87 44 35 45 90 46
REMARK SMILES IDX 84 47 83 48 36 50 70 51 49 52 69 53 50 54 53 55 68 56 88 57
REMARK SMILES IDX 51 58 52 59 67 61 89 62 54 63 37 64 38 65 47 66 39 67 40 68
REMARK SMILES IDX 46 69 48 70 41 71 42 72 43 73 44 74 45 75 71 76 72 77 81 78
REMARK SMILES IDX 73 79 74 80 80 81 82 82 75 83 76 84 77 85 78 86 79 87 55 88
REMARK SMILES IDX 56 89 65 90 57 91 58 92 64 93 66 94 59 95 60 96 61 97 62 98
REMARK SMILES IDX 63 99
REMARK H PARENT 21 5 5 8 10 18 25 30 87 49 53 60
REMARK Flexibility Score: inf
ROOT
ATOM      1  C   UNL A   1      32.739  27.239  24.778  1.00  0.00     0.118 C 
ENDROOT
BRANCH   1   2
ATOM      2  N   UNL A   1      33.079  26.374  23.666  1.00  0.00    -0.351 N 
ATOM      3  C   UNL A   1      33.367  25.055  23.549  1.00  0.00     0.275 C 
ATOM      4  O   UNL A   1      33.663  24.682  22.404  1.00  0.00    -0.269 OA
ATOM      5  H   UNL A   1      33.108  26.850  22.805  1.00  0.00     0.163 HD
BRANCH   3   6
ATOM      6  C   UNL A   1      33.107  24.004  24.617  1.00  0.00     0.363 C 
BRANCH   6   7
ATOM      7  N   UNL A   1      31.764  23.408  24.781  1.00  0.00    -0.323 N 
ATOM      8  H   UNL A   1      31.228  23.602  23.934  1.00  0.00     0.349 HD
BRANCH   7   9
ATOM      9  C   UNL A   1      31.025  24.047  25.961  1.00  0.00     0.090 C 
ATOM     10  C   UNL A   1      30.110  25.221  25.524  1.00  0.00     0.078 C 
ATOM     11  C   UNL A   1      32.051  24.651  26.953  1.00  0.00     0.078 C 
ATOM     12  C   UNL A   1      30.104  23.076  26.760  1.00  0.00     0.078 C 
ENDBRANCH   7   9
BRANCH   7  13
ATOM     13  C   UNL A   1      31.848  21.920  24.930  1.00  0.00     0.273 C 
BRANCH  13  14
ATOM     14  C   UNL A   1      32.767  21.018  24.060  1.00  0.00     0.161 C 
BRANCH  14  15
ATOM     15  C   UNL A   1      33.761  19.933  24.538  1.00  0.00     0.230 C 
ATOM     16  O   UNL A   1      33.375  18.754  24.571  1.00  0.00    -0.275 OA
ATOM     17  N   UNL A   1      35.067  20.132  24.868  1.00  0.00    -0.323 N 
ATOM     18  H   UNL A   1      35.621  19.319  24.884  1.00  0.00     0.170 HD
BRANCH  17  19
ATOM     19  C   UNL A   1      35.745  21.314  25.190  1.00  0.00     0.077 A 
ATOM     20  C   UNL A   1      36.638  21.845  24.248  1.00  0.00     0.029 A 
ATOM     21  C   UNL A   1      35.508  22.004  26.374  1.00  0.00     0.146 A 
ATOM     22  C   UNL A   1      37.172  23.122  24.443  1.00  0.00     0.002 A 
ATOM     23  C   UNL A   1      36.076  23.252  26.594  1.00  0.00     0.041 A 
ATOM     24  F   UNL A   1      34.712  21.477  27.314  1.00  0.00    -0.205 F 
ATOM     25  C   UNL A   1      36.885  23.826  25.613  1.00  0.00     0.003 A 
ENDBRANCH  17  19
ENDBRANCH  14  15
ENDBRANCH  13  14
ENDBRANCH   7  13
ENDBRANCH   6   7
ENDBRANCH   3   6
ENDBRANCH   1   2
BRANCH   1  26
ATOM     26  C   UNL A   1      33.908  28.066  25.270  1.00  0.00     0.042 C 
BRANCH  26  27
ATOM     27  C   UNL A   1      33.854  28.237  26.775  1.00  0.00     0.118 C 
BRANCH  27  28
ATOM     28  N   UNL A   1      33.635  29.633  27.145  1.00  0.00    -0.352 N 
ATOM     29  C   UNL A   1      34.460  30.427  27.911  1.00  0.00     0.251 C 
ATOM     30  H   UNL A   1      32.809  30.052  26.811  1.00  0.00     0.163 HD
ATOM     31  O   UNL A   1      34.074  31.475  28.392  1.00  0.00    -0.269 OA
BRANCH  29  32
ATOM     32  C   UNL A   1      35.841  29.948  28.109  1.00  0.00     0.039 A 
ATOM     33  C   UNL A   1      36.792  30.100  27.101  1.00  0.00     0.014 A 
ATOM     34  C   UNL A   1      36.185  29.435  29.363  1.00  0.00     0.014 A 
ATOM     35  C   UNL A   1      38.117  29.754  27.368  1.00  0.00     0.010 A 
ATOM     36  C   UNL A   1      37.513  29.212  29.659  1.00  0.00     0.010 A 
ATOM     37  C   UNL A   1      38.483  29.323  28.652  1.00  0.00    -0.014 A 
BRANCH  37  38
ATOM     38  C   UNL A   1      39.851  28.868  28.986  1.00  0.00     0.031 A 
ATOM     39  C   UNL A   1      40.796  29.866  29.596  1.00  0.00     0.074 A 
ATOM     40  C   UNL A   1      40.265  27.638  28.639  1.00  0.00     0.049 A 
ATOM     41  N   UNL A   1      42.087  29.784  29.772  1.00  0.00    -0.248 NA
ATOM     42  C   UNL A   1      40.217  31.160  30.003  1.00  0.00     0.031 C 
ATOM     43  C   UNL A   1      39.436  26.609  28.009  1.00  0.00     0.029 A 
ATOM     44  N   UNL A   1      41.500  27.053  28.746  1.00  0.00    -0.354 N 
ATOM     45  C   UNL A   1      42.473  31.025  30.263  1.00  0.00     0.074 A 
ATOM     46  C   UNL A   1      41.299  31.865  30.283  1.00  0.00     0.031 C 
ATOM     47  C   UNL A   1      40.180  25.510  27.807  1.00  0.00     0.029 A 
ATOM     48  C   UNL A   1      41.550  25.775  28.242  1.00  0.00     0.049 A 
ATOM     49  H   UNL A   1      42.278  27.505  29.146  1.00  0.00     0.167 HD
ATOM     50  C   UNL A   1      43.696  31.416  30.689  1.00  0.00     0.037 A 
ATOM     51  C   UNL A   1      42.588  24.923  28.134  1.00  0.00     0.037 A 
ATOM     52  C   UNL A   1      44.834  30.540  30.710  1.00  0.00     0.049 A 
ATOM     53  C   UNL A   1      43.940  25.367  28.623  1.00  0.00     0.074 A 
ATOM     54  C   UNL A   1      46.102  30.794  31.194  1.00  0.00     0.029 A 
ATOM     55  N   UNL A   1      44.834  29.238  30.229  1.00  0.00    -0.354 N 
ATOM     56  N   UNL A   1      44.287  26.524  29.137  1.00  0.00    -0.248 NA
ATOM     57  C   UNL A   1      45.040  24.399  28.522  1.00  0.00     0.031 C 
ATOM     58  C   UNL A   1      46.887  29.663  30.954  1.00  0.00     0.029 A 
ATOM     59  C   UNL A   1      46.090  28.681  30.380  1.00  0.00     0.049 A 
ATOM     60  H   UNL A   1      44.056  28.779  29.838  1.00  0.00     0.167 HD
ATOM     61  C   UNL A   1      45.639  26.417  29.443  1.00  0.00     0.074 A 
ATOM     62  C   UNL A   1      46.047  25.081  29.057  1.00  0.00     0.031 C 
ATOM     63  C   UNL A   1      46.464  27.340  29.998  1.00  0.00     0.037 A 
BRANCH  50  64
ATOM     64  C   UNL A   1      43.852  32.835  31.166  1.00  0.00     0.058 A 
ATOM     65  C   UNL A   1      43.653  33.157  32.518  1.00  0.00     0.135 A 
ATOM     66  C   UNL A   1      44.194  33.879  30.291  1.00  0.00     0.135 A 
ATOM     67  F   UNL A   1      43.331  32.200  33.402  1.00  0.00    -0.206 F 
ATOM     68  C   UNL A   1      43.789  34.460  32.983  1.00  0.00     0.059 A 
ATOM     69  C   UNL A   1      44.373  35.184  30.742  1.00  0.00     0.059 A 
ATOM     70  F   UNL A   1      44.418  33.628  28.990  1.00  0.00    -0.206 F 
ATOM     71  C   UNL A   1      44.158  35.466  32.089  1.00  0.00     0.060 A 
BRANCH  71  72
ATOM     72  S   UNL A   1      44.404  37.137  32.725  1.00  0.00     0.124 S 
ATOM     73  O   UNL A   1      44.604  37.899  31.498  1.00  0.00    -0.237 OA
ATOM     74  O   UNL A   1      43.151  37.384  33.431  1.00  0.00    -0.237 OA
ATOM     75  O   UNL A   1      45.579  37.003  33.581  1.00  0.00    -0.744 OA
ENDBRANCH  71  72
ENDBRANCH  50  64
BRANCH  51  76
ATOM     76  C   UNL A   1      42.351  23.562  27.586  1.00  0.00     0.058 A 
ATOM     77  C   UNL A   1      42.190  22.450  28.428  1.00  0.00     0.135 A 
ATOM     78  C   UNL A   1      42.399  23.332  26.204  1.00  0.00     0.135 A 
ATOM     79  F   UNL A   1      42.152  22.614  29.760  1.00  0.00    -0.206 F 
ATOM     80  C   UNL A   1      42.133  21.156  27.922  1.00  0.00     0.059 A 
ATOM     81  C   UNL A   1      42.320  22.048  25.671  1.00  0.00     0.059 A 
ATOM     82  F   UNL A   1      42.543  24.364  25.358  1.00  0.00    -0.206 F 
ATOM     83  C   UNL A   1      42.213  20.964  26.542  1.00  0.00     0.060 A 
BRANCH  83  84
ATOM     84  S   UNL A   1      42.217  19.271  25.912  1.00  0.00     0.124 S 
ATOM     85  O   UNL A   1      40.801  19.064  25.623  1.00  0.00    -0.237 OA
ATOM     86  O   UNL A   1      43.093  19.382  24.750  1.00  0.00    -0.237 OA
ATOM     87  O   UNL A   1      42.749  18.496  27.026  1.00  0.00    -0.744 OA
ENDBRANCH  83  84
ENDBRANCH  51  76
BRANCH  63  88
ATOM     88  C   UNL A   1      47.893  26.952  30.255  1.00  0.00     0.058 A 
ATOM     89  C   UNL A   1      48.264  26.433  31.507  1.00  0.00     0.135 A 
ATOM     90  C   UNL A   1      48.909  27.253  29.338  1.00  0.00     0.135 A 
ATOM     91  F   UNL A   1      47.327  26.135  32.421  1.00  0.00    -0.206 F 
ATOM     92  C   UNL A   1      49.599  26.275  31.858  1.00  0.00     0.059 A 
ATOM     93  C   UNL A   1      50.251  27.077  29.659  1.00  0.00     0.059 A 
ATOM     94  F   UNL A   1      48.602  27.742  28.126  1.00  0.00    -0.206 F 
ATOM     95  C   UNL A   1      50.585  26.615  30.933  1.00  0.00     0.060 A 
BRANCH  95  96
ATOM     96  S   UNL A   1      52.313  26.463  31.432  1.00  0.00     0.124 S 
ATOM     97  O   UNL A   1      52.389  25.058  31.819  1.00  0.00    -0.237 OA
ATOM     98  O   UNL A   1      53.019  26.824  30.207  1.00  0.00    -0.237 OA
ATOM     99  O   UNL A   1      52.436  27.423  32.525  1.00  0.00    -0.744 OA
ENDBRANCH  95  96
ENDBRANCH  63  88
ENDBRANCH  37  38
ENDBRANCH  29  32
ENDBRANCH  27  28
ENDBRANCH  26  27
ENDBRANCH   1  26
TORSDOF 19
ENDMDL
