MODEL 1
REMARK VINA RESULT:     -10.7      0.000      0.000
REMARK SMILES COC[C@H](C)CC(=O)N[C@@H](C(=O)NCCCNC(=O)c1ccc(-c2c3nc(c(-c4c(F)cc(S(=O)(=O)[O-])cc4F)c4ccc([nH]4)c(-c4c(F)cc(S(=O)(=O)[O-])cc4F)c4nc(c(-c5c(F)cc(S(=O)(=O)[O-])cc5F)c5ccc2[nH]5)C=C4)C=C3)cc1)C(C)C
REMARK SMILES IDX 14 1 13 2 11 3 12 4 10 6 9 7 7 8 8 9 6 11 4 12 5 13 3 14
REMARK SMILES IDX 2 15 1 16 86 17 87 18 88 19 15 20 16 21 17 22 18 23 19 25
REMARK SMILES IDX 20 26 21 27 85 28 22 29 84 30 23 31 24 32 25 33 78 34 26 35
REMARK SMILES IDX 83 36 77 37 79 38 27 39 82 40 76 41 75 42 28 44 62 45 41 46
REMARK SMILES IDX 61 47 42 48 45 49 60 50 80 51 43 52 44 53 59 55 81 56 46 57
REMARK SMILES IDX 29 58 30 59 39 60 31 61 32 62 38 63 40 64 33 65 34 66 35 67
REMARK SMILES IDX 36 68 37 69 63 70 64 71 73 72 65 73 66 74 72 75 74 76 67 77
REMARK SMILES IDX 68 78 69 79 70 80 71 81 47 82 48 83 57 84 49 85 50 86 56 87
REMARK SMILES IDX 58 88 51 89 52 90 53 91 54 92 55 93
REMARK H PARENT 13 5 9 10 17 24 79 43 45 54
REMARK Flexibility Score: inf
ROOT
ATOM      1  C   UNL A   1      36.771  22.165  25.168  1.00  0.00     0.117 C 
ENDROOT
BRANCH   1   2
ATOM      2  N   UNL A   1      35.996  21.884  26.356  1.00  0.00    -0.354 N 
ATOM      3  C   UNL A   1      34.655  22.017  26.584  1.00  0.00     0.242 C 
ATOM      4  O   UNL A   1      34.233  21.496  27.621  1.00  0.00    -0.273 OA
ATOM      5  H   UNL A   1      36.516  21.545  27.120  1.00  0.00     0.163 HD
BRANCH   3   6
ATOM      6  C   UNL A   1      33.684  22.634  25.517  1.00  0.00     0.173 C 
BRANCH   6   7
ATOM      7  N   UNL A   1      32.369  22.914  26.093  1.00  0.00    -0.344 N 
ATOM      8  C   UNL A   1      31.825  24.101  26.495  1.00  0.00     0.221 C 
ATOM      9  O   UNL A   1      30.775  24.066  27.137  1.00  0.00    -0.275 OA
ATOM     10  H   UNL A   1      31.787  22.128  26.207  1.00  0.00     0.164 HD
BRANCH   8  11
ATOM     11  C   UNL A   1      32.490  25.436  26.172  1.00  0.00     0.105 C 
BRANCH  11  12
ATOM     12  C   UNL A   1      31.549  26.658  26.006  1.00  0.00     0.021 C 
ATOM     13  C   UNL A   1      31.771  27.707  27.108  1.00  0.00     0.010 C 
BRANCH  12  14
ATOM     14  C   UNL A   1      31.703  27.299  24.610  1.00  0.00     0.163 C 
BRANCH  14  15
ATOM     15  O   UNL A   1      30.510  27.941  24.150  1.00  0.00    -0.384 OA
ATOM     16  C   UNL A   1      29.483  27.053  23.726  1.00  0.00     0.194 C 
ENDBRANCH  14  15
ENDBRANCH  12  14
ENDBRANCH  11  12
ENDBRANCH   8  11
ENDBRANCH   6   7
BRANCH   6  17
ATOM     17  C   UNL A   1      33.619  21.744  24.245  1.00  0.00     0.015 C 
ATOM     18  C   UNL A   1      32.713  20.517  24.391  1.00  0.00     0.010 C 
ATOM     19  C   UNL A   1      33.118  22.579  23.053  1.00  0.00     0.010 C 
ENDBRANCH   6  17
ENDBRANCH   3   6
ENDBRANCH   1   2
BRANCH   1  20
ATOM     20  C   UNL A   1      37.280  23.591  25.084  1.00  0.00     0.042 C 
BRANCH  20  21
ATOM     21  C   UNL A   1      38.055  24.016  26.318  1.00  0.00     0.118 C 
BRANCH  21  22
ATOM     22  N   UNL A   1      39.493  23.792  26.189  1.00  0.00    -0.352 N 
ATOM     23  C   UNL A   1      40.561  24.531  26.656  1.00  0.00     0.251 C 
ATOM     24  H   UNL A   1      39.741  22.981  25.689  1.00  0.00     0.163 HD
ATOM     25  O   UNL A   1      41.692  24.250  26.294  1.00  0.00    -0.269 OA
BRANCH  23  26
ATOM     26  C   UNL A   1      40.325  25.683  27.560  1.00  0.00     0.039 A 
ATOM     27  C   UNL A   1      39.386  25.563  28.587  1.00  0.00     0.014 A 
ATOM     28  C   UNL A   1      41.047  26.868  27.416  1.00  0.00     0.014 A 
ATOM     29  C   UNL A   1      39.258  26.586  29.532  1.00  0.00     0.010 A 
ATOM     30  C   UNL A   1      41.003  27.830  28.416  1.00  0.00     0.010 A 
ATOM     31  C   UNL A   1      40.112  27.700  29.491  1.00  0.00    -0.014 A 
BRANCH  31  32
ATOM     32  C   UNL A   1      40.114  28.733  30.562  1.00  0.00     0.031 A 
ATOM     33  C   UNL A   1      40.987  28.556  31.779  1.00  0.00     0.074 A 
ATOM     34  C   UNL A   1      39.247  29.766  30.498  1.00  0.00     0.049 A 
ATOM     35  N   UNL A   1      41.023  29.264  32.878  1.00  0.00    -0.248 NA
ATOM     36  C   UNL A   1      41.909  27.408  31.779  1.00  0.00     0.031 C 
ATOM     37  C   UNL A   1      38.288  30.004  29.415  1.00  0.00     0.029 A 
ATOM     38  N   UNL A   1      39.012  30.796  31.374  1.00  0.00    -0.354 N 
ATOM     39  C   UNL A   1      41.933  28.624  33.712  1.00  0.00     0.074 A 
ATOM     40  C   UNL A   1      42.399  27.449  33.010  1.00  0.00     0.031 C 
ATOM     41  C   UNL A   1      37.582  31.116  29.684  1.00  0.00     0.029 A 
ATOM     42  C   UNL A   1      38.007  31.647  30.974  1.00  0.00     0.049 A 
ATOM     43  H   UNL A   1      39.515  30.915  32.212  1.00  0.00     0.167 HD
ATOM     44  C   UNL A   1      42.359  28.995  34.943  1.00  0.00     0.037 A 
ATOM     45  C   UNL A   1      37.476  32.726  31.582  1.00  0.00     0.037 A 
ATOM     46  C   UNL A   1      41.953  30.206  35.603  1.00  0.00     0.049 A 
ATOM     47  C   UNL A   1      38.017  33.151  32.921  1.00  0.00     0.074 A 
ATOM     48  C   UNL A   1      42.423  30.733  36.793  1.00  0.00     0.029 A 
ATOM     49  N   UNL A   1      40.987  31.081  35.130  1.00  0.00    -0.354 N 
ATOM     50  N   UNL A   1      38.951  32.587  33.648  1.00  0.00    -0.248 NA
ATOM     51  C   UNL A   1      37.439  34.364  33.520  1.00  0.00     0.031 C 
ATOM     52  C   UNL A   1      41.714  31.909  37.060  1.00  0.00     0.029 A 
ATOM     53  C   UNL A   1      40.833  32.134  36.016  1.00  0.00     0.049 A 
ATOM     54  H   UNL A   1      40.487  30.970  34.290  1.00  0.00     0.167 HD
ATOM     55  C   UNL A   1      39.087  33.387  34.778  1.00  0.00     0.074 A 
ATOM     56  C   UNL A   1      38.154  34.484  34.630  1.00  0.00     0.031 C 
ATOM     57  C   UNL A   1      39.909  33.226  35.843  1.00  0.00     0.037 A 
BRANCH  44  58
ATOM     58  C   UNL A   1      43.333  28.099  35.656  1.00  0.00     0.058 A 
ATOM     59  C   UNL A   1      44.719  28.226  35.478  1.00  0.00     0.135 A 
ATOM     60  C   UNL A   1      42.875  27.154  36.589  1.00  0.00     0.135 A 
ATOM     61  F   UNL A   1      45.209  29.102  34.586  1.00  0.00    -0.206 F 
ATOM     62  C   UNL A   1      45.618  27.440  36.191  1.00  0.00     0.059 A 
ATOM     63  C   UNL A   1      43.758  26.375  37.332  1.00  0.00     0.059 A 
ATOM     64  F   UNL A   1      41.559  26.991  36.795  1.00  0.00    -0.206 F 
ATOM     65  C   UNL A   1      45.127  26.521  37.121  1.00  0.00     0.060 A 
BRANCH  65  66
ATOM     66  S   UNL A   1      46.310  25.541  38.069  1.00  0.00     0.124 S 
ATOM     67  O   UNL A   1      46.275  24.270  37.353  1.00  0.00    -0.237 OA
ATOM     68  O   UNL A   1      47.540  26.313  37.928  1.00  0.00    -0.237 OA
ATOM     69  O   UNL A   1      45.736  25.520  39.411  1.00  0.00    -0.744 OA
ENDBRANCH  65  66
ENDBRANCH  44  58
BRANCH  45  70
ATOM     70  C   UNL A   1      36.373  33.489  30.937  1.00  0.00     0.058 A 
ATOM     71  C   UNL A   1      35.062  33.416  31.430  1.00  0.00     0.135 A 
ATOM     72  C   UNL A   1      36.602  34.285  29.804  1.00  0.00     0.135 A 
ATOM     73  F   UNL A   1      34.792  32.665  32.508  1.00  0.00    -0.206 F 
ATOM     74  C   UNL A   1      34.009  34.076  30.803  1.00  0.00     0.059 A 
ATOM     75  C   UNL A   1      35.571  34.976  29.176  1.00  0.00     0.059 A 
ATOM     76  F   UNL A   1      37.843  34.405  29.305  1.00  0.00    -0.206 F 
ATOM     77  C   UNL A   1      34.274  34.850  29.672  1.00  0.00     0.060 A 
BRANCH  77  78
ATOM     78  S   UNL A   1      32.904  35.711  28.868  1.00  0.00     0.124 S 
ATOM     79  O   UNL A   1      32.366  34.665  28.007  1.00  0.00    -0.237 OA
ATOM     80  O   UNL A   1      32.072  36.095  30.004  1.00  0.00    -0.237 OA
ATOM     81  O   UNL A   1      33.564  36.818  28.182  1.00  0.00    -0.744 OA
ENDBRANCH  77  78
ENDBRANCH  45  70
BRANCH  57  82
ATOM     82  C   UNL A   1      39.863  34.274  36.918  1.00  0.00     0.058 A 
ATOM     83  C   UNL A   1      40.597  35.465  36.815  1.00  0.00     0.135 A 
ATOM     84  C   UNL A   1      39.029  34.109  38.036  1.00  0.00     0.135 A 
ATOM     85  F   UNL A   1      41.413  35.667  35.768  1.00  0.00    -0.206 F 
ATOM     86  C   UNL A   1      40.521  36.450  37.794  1.00  0.00     0.059 A 
ATOM     87  C   UNL A   1      38.918  35.092  39.013  1.00  0.00     0.059 A 
ATOM     88  F   UNL A   1      38.298  32.992  38.175  1.00  0.00    -0.206 F 
ATOM     89  C   UNL A   1      39.676  36.255  38.889  1.00  0.00     0.060 A 
BRANCH  89  90
ATOM     90  S   UNL A   1      39.557  37.557  40.133  1.00  0.00     0.124 S 
ATOM     91  O   UNL A   1      38.508  38.403  39.574  1.00  0.00    -0.237 OA
ATOM     92  O   UNL A   1      39.199  36.812  41.335  1.00  0.00    -0.237 OA
ATOM     93  O   UNL A   1      40.896  38.140  40.141  1.00  0.00    -0.744 OA
ENDBRANCH  89  90
ENDBRANCH  57  82
ENDBRANCH  31  32
ENDBRANCH  23  26
ENDBRANCH  21  22
ENDBRANCH  20  21
ENDBRANCH   1  20
TORSDOF 19
ENDMDL
MODEL 2
REMARK VINA RESULT:     -10.4      6.907     12.509
REMARK SMILES COC[C@H](C)CC(=O)N[C@@H](C(=O)NCCCNC(=O)c1ccc(-c2c3nc(c(-c4c(F)cc(S(=O)(=O)[O-])cc4F)c4ccc([nH]4)c(-c4c(F)cc(S(=O)(=O)[O-])cc4F)c4nc(c(-c5c(F)cc(S(=O)(=O)[O-])cc5F)c5ccc2[nH]5)C=C4)C=C3)cc1)C(C)C
REMARK SMILES IDX 14 1 13 2 11 3 12 4 10 6 9 7 7 8 8 9 6 11 4 12 5 13 3 14
REMARK SMILES IDX 2 15 1 16 86 17 87 18 88 19 15 20 16 21 17 22 18 23 19 25
REMARK SMILES IDX 20 26 21 27 85 28 22 29 84 30 23 31 24 32 25 33 78 34 26 35
REMARK SMILES IDX 83 36 77 37 79 38 27 39 82 40 76 41 75 42 28 44 62 45 41 46
REMARK SMILES IDX 61 47 42 48 45 49 60 50 80 51 43 52 44 53 59 55 81 56 46 57
REMARK SMILES IDX 29 58 30 59 39 60 31 61 32 62 38 63 40 64 33 65 34 66 35 67
REMARK SMILES IDX 36 68 37 69 63 70 64 71 73 72 65 73 66 74 72 75 74 76 67 77
REMARK SMILES IDX 68 78 69 79 70 80 71 81 47 82 48 83 57 84 49 85 50 86 56 87
REMARK SMILES IDX 58 88 51 89 52 90 53 91 54 92 55 93
REMARK H PARENT 13 5 9 10 17 24 79 43 45 54
REMARK Flexibility Score: inf
ROOT
ATOM      1  C   UNL A   1      32.790  29.461  26.378  1.00  0.00     0.117 C 
ENDROOT
BRANCH   1   2
ATOM      2  N   UNL A   1      33.442  29.657  25.101  1.00  0.00    -0.354 N 
ATOM      3  C   UNL A   1      33.312  28.963  23.930  1.00  0.00     0.242 C 
ATOM      4  O   UNL A   1      33.826  29.486  22.937  1.00  0.00    -0.273 OA
ATOM      5  H   UNL A   1      34.077  30.408  25.070  1.00  0.00     0.163 HD
BRANCH   3   6
ATOM      6  C   UNL A   1      32.420  27.677  23.818  1.00  0.00     0.173 C 
BRANCH   6   7
ATOM      7  N   UNL A   1      32.634  26.990  22.544  1.00  0.00    -0.344 N 
ATOM      8  C   UNL A   1      33.055  25.714  22.299  1.00  0.00     0.221 C 
ATOM      9  O   UNL A   1      33.357  25.418  21.143  1.00  0.00    -0.275 OA
ATOM     10  H   UNL A   1      32.446  27.529  21.742  1.00  0.00     0.164 HD
BRANCH   8  11
ATOM     11  C   UNL A   1      33.161  24.678  23.415  1.00  0.00     0.105 C 
BRANCH  11  12
ATOM     12  C   UNL A   1      34.445  24.725  24.285  1.00  0.00     0.021 C 
ATOM     13  C   UNL A   1      34.223  25.497  25.596  1.00  0.00     0.010 C 
BRANCH  12  14
ATOM     14  C   UNL A   1      34.976  23.304  24.578  1.00  0.00     0.163 C 
BRANCH  14  15
ATOM     15  O   UNL A   1      36.388  23.267  24.807  1.00  0.00    -0.384 OA
ATOM     16  C   UNL A   1      37.033  22.084  24.352  1.00  0.00     0.194 C 
ENDBRANCH  14  15
ENDBRANCH  12  14
ENDBRANCH  11  12
ENDBRANCH   8  11
ENDBRANCH   6   7
BRANCH   6  17
ATOM     17  C   UNL A   1      30.927  28.012  24.089  1.00  0.00     0.015 C 
ATOM     18  C   UNL A   1      30.298  28.939  23.044  1.00  0.00     0.010 C 
ATOM     19  C   UNL A   1      30.105  26.711  24.142  1.00  0.00     0.010 C 
ENDBRANCH   6  17
ENDBRANCH   3   6
ENDBRANCH   1   2
BRANCH   1  20
ATOM     20  C   UNL A   1      33.726  29.026  27.489  1.00  0.00     0.042 C 
BRANCH  20  21
ATOM     21  C   UNL A   1      35.020  29.820  27.517  1.00  0.00     0.118 C 
BRANCH  21  22
ATOM     22  N   UNL A   1      35.176  30.606  28.738  1.00  0.00    -0.352 N 
ATOM     23  C   UNL A   1      36.229  30.684  29.627  1.00  0.00     0.251 C 
ATOM     24  H   UNL A   1      34.404  31.174  28.965  1.00  0.00     0.163 HD
ATOM     25  O   UNL A   1      36.086  31.285  30.679  1.00  0.00    -0.269 OA
BRANCH  23  26
ATOM     26  C   UNL A   1      37.510  30.004  29.316  1.00  0.00     0.039 A 
ATOM     27  C   UNL A   1      37.919  29.895  27.985  1.00  0.00     0.014 A 
ATOM     28  C   UNL A   1      38.321  29.502  30.334  1.00  0.00     0.014 A 
ATOM     29  C   UNL A   1      39.189  29.388  27.689  1.00  0.00     0.010 A 
ATOM     30  C   UNL A   1      39.623  29.108  30.050  1.00  0.00     0.010 A 
ATOM     31  C   UNL A   1      40.076  29.050  28.724  1.00  0.00    -0.014 A 
BRANCH  31  32
ATOM     32  C   UNL A   1      41.486  28.654  28.458  1.00  0.00     0.031 A 
ATOM     33  C   UNL A   1      42.566  29.705  28.404  1.00  0.00     0.074 A 
ATOM     34  C   UNL A   1      41.773  27.372  28.149  1.00  0.00     0.049 A 
ATOM     35  N   UNL A   1      43.818  29.582  28.046  1.00  0.00    -0.248 NA
ATOM     36  C   UNL A   1      42.179  31.081  28.754  1.00  0.00     0.031 C 
ATOM     37  C   UNL A   1      40.803  26.275  28.083  1.00  0.00     0.029 A 
ATOM     38  N   UNL A   1      42.963  26.777  27.806  1.00  0.00    -0.354 N 
ATOM     39  C   UNL A   1      44.352  30.865  28.086  1.00  0.00     0.074 A 
ATOM     40  C   UNL A   1      43.281  31.758  28.464  1.00  0.00     0.031 C 
ATOM     41  C   UNL A   1      41.438  25.142  27.738  1.00  0.00     0.029 A 
ATOM     42  C   UNL A   1      42.850  25.435  27.520  1.00  0.00     0.049 A 
ATOM     43  H   UNL A   1      43.817  27.265  27.769  1.00  0.00     0.167 HD
ATOM     44  C   UNL A   1      45.626  31.259  27.850  1.00  0.00     0.037 A 
ATOM     45  C   UNL A   1      43.775  24.544  27.113  1.00  0.00     0.037 A 
ATOM     46  C   UNL A   1      46.705  30.356  27.553  1.00  0.00     0.049 A 
ATOM     47  C   UNL A   1      45.197  25.000  26.924  1.00  0.00     0.074 A 
ATOM     48  C   UNL A   1      48.052  30.643  27.423  1.00  0.00     0.029 A 
ATOM     49  N   UNL A   1      46.563  28.993  27.343  1.00  0.00    -0.354 N 
ATOM     50  N   UNL A   1      45.702  26.202  27.065  1.00  0.00    -0.248 NA
ATOM     51  C   UNL A   1      46.178  23.978  26.528  1.00  0.00     0.031 C 
ATOM     52  C   UNL A   1      48.722  29.459  27.097  1.00  0.00     0.029 A 
ATOM     53  C   UNL A   1      47.797  28.429  27.065  1.00  0.00     0.049 A 
ATOM     54  H   UNL A   1      45.713  28.500  27.387  1.00  0.00     0.167 HD
ATOM     55  C   UNL A   1      47.060  26.077  26.797  1.00  0.00     0.074 A 
ATOM     56  C   UNL A   1      47.303  24.680  26.503  1.00  0.00     0.031 C 
ATOM     57  C   UNL A   1      48.021  27.033  26.791  1.00  0.00     0.037 A 
BRANCH  44  58
ATOM     58  C   UNL A   1      45.940  32.727  27.926  1.00  0.00     0.058 A 
ATOM     59  C   UNL A   1      45.738  33.582  26.831  1.00  0.00     0.135 A 
ATOM     60  C   UNL A   1      46.373  33.299  29.133  1.00  0.00     0.135 A 
ATOM     61  F   UNL A   1      45.341  33.084  25.648  1.00  0.00    -0.206 F 
ATOM     62  C   UNL A   1      45.967  34.950  26.926  1.00  0.00     0.059 A 
ATOM     63  C   UNL A   1      46.583  34.669  29.259  1.00  0.00     0.059 A 
ATOM     64  F   UNL A   1      46.584  32.524  30.210  1.00  0.00    -0.206 F 
ATOM     65  C   UNL A   1      46.383  35.486  28.147  1.00  0.00     0.060 A 
BRANCH  65  66
ATOM     66  S   UNL A   1      46.631  37.270  28.265  1.00  0.00     0.124 S 
ATOM     67  O   UNL A   1      47.968  37.415  27.699  1.00  0.00    -0.237 OA
ATOM     68  O   UNL A   1      45.539  37.791  27.451  1.00  0.00    -0.237 OA
ATOM     69  O   UNL A   1      46.525  37.534  29.697  1.00  0.00    -0.744 OA
ENDBRANCH  65  66
ENDBRANCH  44  58
BRANCH  45  70
ATOM     70  C   UNL A   1      43.396  23.128  26.858  1.00  0.00     0.058 A 
ATOM     71  C   UNL A   1      43.204  22.230  27.918  1.00  0.00     0.135 A 
ATOM     72  C   UNL A   1      43.243  22.638  25.551  1.00  0.00     0.135 A 
ATOM     73  F   UNL A   1      43.343  22.650  29.184  1.00  0.00    -0.206 F 
ATOM     74  C   UNL A   1      42.908  20.889  27.694  1.00  0.00     0.059 A 
ATOM     75  C   UNL A   1      42.921  21.307  25.303  1.00  0.00     0.059 A 
ATOM     76  F   UNL A   1      43.397  23.461  24.501  1.00  0.00    -0.206 F 
ATOM     77  C   UNL A   1      42.774  20.436  26.381  1.00  0.00     0.060 A 
BRANCH  77  78
ATOM     78  S   UNL A   1      42.381  18.695  26.098  1.00  0.00     0.124 S 
ATOM     79  O   UNL A   1      43.328  18.350  25.045  1.00  0.00    -0.237 OA
ATOM     80  O   UNL A   1      42.637  18.104  27.408  1.00  0.00    -0.237 OA
ATOM     81  O   UNL A   1      40.977  18.732  25.700  1.00  0.00    -0.744 OA
ENDBRANCH  77  78
ENDBRANCH  45  70
BRANCH  57  82
ATOM     82  C   UNL A   1      49.427  26.600  26.490  1.00  0.00     0.058 A 
ATOM     83  C   UNL A   1      50.236  25.999  27.466  1.00  0.00     0.135 A 
ATOM     84  C   UNL A   1      49.950  26.736  25.194  1.00  0.00     0.135 A 
ATOM     85  F   UNL A   1      49.783  25.852  28.722  1.00  0.00    -0.206 F 
ATOM     86  C   UNL A   1      51.523  25.564  27.174  1.00  0.00     0.059 A 
ATOM     87  C   UNL A   1      51.226  26.284  24.872  1.00  0.00     0.059 A 
ATOM     88  F   UNL A   1      49.212  27.294  24.222  1.00  0.00    -0.206 F 
ATOM     89  C   UNL A   1      52.009  25.710  25.872  1.00  0.00     0.060 A 
BRANCH  89  90
ATOM     90  S   UNL A   1      53.668  25.106  25.494  1.00  0.00     0.124 S 
ATOM     91  O   UNL A   1      53.453  23.664  25.452  1.00  0.00    -0.237 OA
ATOM     92  O   UNL A   1      53.951  25.745  24.213  1.00  0.00    -0.237 OA
ATOM     93  O   UNL A   1      54.467  25.589  26.617  1.00  0.00    -0.744 OA
ENDBRANCH  89  90
ENDBRANCH  57  82
ENDBRANCH  31  32
ENDBRANCH  23  26
ENDBRANCH  21  22
ENDBRANCH  20  21
ENDBRANCH   1  20
TORSDOF 19
ENDMDL
MODEL 3
REMARK VINA RESULT:     -10.4      5.266     10.780
REMARK SMILES COC[C@H](C)CC(=O)N[C@@H](C(=O)NCCCNC(=O)c1ccc(-c2c3nc(c(-c4c(F)cc(S(=O)(=O)[O-])cc4F)c4ccc([nH]4)c(-c4c(F)cc(S(=O)(=O)[O-])cc4F)c4nc(c(-c5c(F)cc(S(=O)(=O)[O-])cc5F)c5ccc2[nH]5)C=C4)C=C3)cc1)C(C)C
REMARK SMILES IDX 14 1 13 2 11 3 12 4 10 6 9 7 7 8 8 9 6 11 4 12 5 13 3 14
REMARK SMILES IDX 2 15 1 16 86 17 87 18 88 19 15 20 16 21 17 22 18 23 19 25
REMARK SMILES IDX 20 26 21 27 85 28 22 29 84 30 23 31 24 32 25 33 78 34 26 35
REMARK SMILES IDX 83 36 77 37 79 38 27 39 82 40 76 41 75 42 28 44 62 45 41 46
REMARK SMILES IDX 61 47 42 48 45 49 60 50 80 51 43 52 44 53 59 55 81 56 46 57
REMARK SMILES IDX 29 58 30 59 39 60 31 61 32 62 38 63 40 64 33 65 34 66 35 67
REMARK SMILES IDX 36 68 37 69 63 70 64 71 73 72 65 73 66 74 72 75 74 76 67 77
REMARK SMILES IDX 68 78 69 79 70 80 71 81 47 82 48 83 57 84 49 85 50 86 56 87
REMARK SMILES IDX 58 88 51 89 52 90 53 91 54 92 55 93
REMARK H PARENT 13 5 9 10 17 24 79 43 45 54
REMARK Flexibility Score: inf
ROOT
ATOM      1  C   UNL A   1      33.217  29.234  25.163  1.00  0.00     0.117 C 
ENDROOT
BRANCH   1   2
ATOM      2  N   UNL A   1      33.895  29.102  23.893  1.00  0.00    -0.354 N 
ATOM      3  C   UNL A   1      33.814  28.116  22.949  1.00  0.00     0.242 C 
ATOM      4  O   UNL A   1      34.340  28.370  21.861  1.00  0.00    -0.273 OA
ATOM      5  H   UNL A   1      34.511  29.838  23.673  1.00  0.00     0.163 HD
BRANCH   3   6
ATOM      6  C   UNL A   1      32.960  26.818  23.170  1.00  0.00     0.173 C 
BRANCH   6   7
ATOM      7  N   UNL A   1      33.716  25.617  22.819  1.00  0.00    -0.344 N 
ATOM      8  C   UNL A   1      34.360  24.721  23.625  1.00  0.00     0.221 C 
ATOM      9  O   UNL A   1      35.102  23.895  23.092  1.00  0.00    -0.275 OA
ATOM     10  H   UNL A   1      33.768  25.423  21.855  1.00  0.00     0.164 HD
BRANCH   8  11
ATOM     11  C   UNL A   1      34.182  24.737  25.141  1.00  0.00     0.105 C 
BRANCH  11  12
ATOM     12  C   UNL A   1      33.134  23.755  25.726  1.00  0.00     0.021 C 
ATOM     13  C   UNL A   1      32.057  23.383  24.694  1.00  0.00     0.010 C 
BRANCH  12  14
ATOM     14  C   UNL A   1      33.809  22.483  26.285  1.00  0.00     0.163 C 
BRANCH  14  15
ATOM     15  O   UNL A   1      35.238  22.536  26.236  1.00  0.00    -0.384 OA
ATOM     16  C   UNL A   1      35.854  21.402  25.637  1.00  0.00     0.194 C 
ENDBRANCH  14  15
ENDBRANCH  12  14
ENDBRANCH  11  12
ENDBRANCH   8  11
ENDBRANCH   6   7
BRANCH   6  17
ATOM     17  C   UNL A   1      31.595  26.920  22.434  1.00  0.00     0.015 C 
ATOM     18  C   UNL A   1      31.449  25.948  21.260  1.00  0.00     0.010 C 
ATOM     19  C   UNL A   1      30.449  26.659  23.428  1.00  0.00     0.010 C 
ENDBRANCH   6  17
ENDBRANCH   3   6
ENDBRANCH   1   2
BRANCH   1  20
ATOM     20  C   UNL A   1      33.574  28.158  26.169  1.00  0.00     0.042 C 
BRANCH  20  21
ATOM     21  C   UNL A   1      33.361  28.597  27.607  1.00  0.00     0.118 C 
BRANCH  21  22
ATOM     22  N   UNL A   1      33.488  30.042  27.783  1.00  0.00    -0.352 N 
ATOM     23  C   UNL A   1      34.560  30.803  28.202  1.00  0.00     0.251 C 
ATOM     24  H   UNL A   1      32.677  30.556  27.567  1.00  0.00     0.163 HD
ATOM     25  O   UNL A   1      34.400  31.990  28.436  1.00  0.00    -0.269 OA
BRANCH  23  26
ATOM     26  C   UNL A   1      35.885  30.169  28.402  1.00  0.00     0.039 A 
ATOM     27  C   UNL A   1      36.768  30.079  27.323  1.00  0.00     0.014 A 
ATOM     28  C   UNL A   1      36.270  29.691  29.655  1.00  0.00     0.014 A 
ATOM     29  C   UNL A   1      38.072  29.616  27.532  1.00  0.00     0.010 A 
ATOM     30  C   UNL A   1      37.594  29.342  29.885  1.00  0.00     0.010 A 
ATOM     31  C   UNL A   1      38.515  29.304  28.827  1.00  0.00    -0.014 A 
BRANCH  31  32
ATOM     32  C   UNL A   1      39.933  28.957  29.114  1.00  0.00     0.031 A 
ATOM     33  C   UNL A   1      40.877  30.012  29.635  1.00  0.00     0.074 A 
ATOM     34  C   UNL A   1      40.400  27.731  28.796  1.00  0.00     0.049 A 
ATOM     35  N   UNL A   1      42.172  29.946  29.809  1.00  0.00    -0.248 NA
ATOM     36  C   UNL A   1      40.298  31.326  29.961  1.00  0.00     0.031 C 
ATOM     37  C   UNL A   1      39.608  26.647  28.206  1.00  0.00     0.029 A 
ATOM     38  N   UNL A   1      41.660  27.196  28.900  1.00  0.00    -0.354 N 
ATOM     39  C   UNL A   1      42.564  31.215  30.219  1.00  0.00     0.074 A 
ATOM     40  C   UNL A   1      41.379  32.043  30.232  1.00  0.00     0.031 C 
ATOM     41  C   UNL A   1      40.396  25.575  28.016  1.00  0.00     0.029 A 
ATOM     42  C   UNL A   1      41.755  25.905  28.432  1.00  0.00     0.049 A 
ATOM     43  H   UNL A   1      42.425  27.689  29.275  1.00  0.00     0.167 HD
ATOM     44  C   UNL A   1      43.798  31.646  30.575  1.00  0.00     0.037 A 
ATOM     45  C   UNL A   1      42.818  25.083  28.333  1.00  0.00     0.037 A 
ATOM     46  C   UNL A   1      44.958  30.799  30.637  1.00  0.00     0.049 A 
ATOM     47  C   UNL A   1      44.165  25.569  28.799  1.00  0.00     0.074 A 
ATOM     48  C   UNL A   1      46.223  31.110  31.105  1.00  0.00     0.029 A 
ATOM     49  N   UNL A   1      44.997  29.476  30.223  1.00  0.00    -0.354 N 
ATOM     50  N   UNL A   1      44.494  26.744  29.279  1.00  0.00    -0.248 NA
ATOM     51  C   UNL A   1      45.283  24.617  28.717  1.00  0.00     0.031 C 
ATOM     52  C   UNL A   1      47.038  29.985  30.940  1.00  0.00     0.029 A 
ATOM     53  C   UNL A   1      46.270  28.963  30.407  1.00  0.00     0.049 A 
ATOM     54  H   UNL A   1      44.233  28.977  29.855  1.00  0.00     0.167 HD
ATOM     55  C   UNL A   1      45.850  26.665  29.577  1.00  0.00     0.074 A 
ATOM     56  C   UNL A   1      46.276  25.323  29.240  1.00  0.00     0.031 C 
ATOM     57  C   UNL A   1      46.670  27.619  30.080  1.00  0.00     0.037 A 
BRANCH  44  58
ATOM     58  C   UNL A   1      43.963  33.092  30.950  1.00  0.00     0.058 A 
ATOM     59  C   UNL A   1      43.775  33.539  32.267  1.00  0.00     0.135 A 
ATOM     60  C   UNL A   1      44.393  34.028  29.996  1.00  0.00     0.135 A 
ATOM     61  F   UNL A   1      43.347  32.689  33.215  1.00  0.00    -0.206 F 
ATOM     62  C   UNL A   1      43.994  34.865  32.623  1.00  0.00     0.059 A 
ATOM     63  C   UNL A   1      44.644  35.355  30.335  1.00  0.00     0.059 A 
ATOM     64  F   UNL A   1      44.585  33.653  28.721  1.00  0.00    -0.206 F 
ATOM     65  C   UNL A   1      44.435  35.765  31.650  1.00  0.00     0.060 A 
BRANCH  65  66
ATOM     66  S   UNL A   1      44.758  37.472  32.139  1.00  0.00     0.124 S 
ATOM     67  O   UNL A   1      44.501  37.416  33.575  1.00  0.00    -0.237 OA
ATOM     68  O   UNL A   1      46.154  37.649  31.753  1.00  0.00    -0.237 OA
ATOM     69  O   UNL A   1      43.792  38.239  31.359  1.00  0.00    -0.744 OA
ENDBRANCH  65  66
ENDBRANCH  44  58
BRANCH  45  70
ATOM     70  C   UNL A   1      42.663  23.712  27.775  1.00  0.00     0.058 A 
ATOM     71  C   UNL A   1      42.592  23.501  26.390  1.00  0.00     0.135 A 
ATOM     72  C   UNL A   1      42.558  22.591  28.613  1.00  0.00     0.135 A 
ATOM     73  F   UNL A   1      42.683  24.541  25.548  1.00  0.00    -0.206 F 
ATOM     74  C   UNL A   1      42.387  22.232  25.855  1.00  0.00     0.059 A 
ATOM     75  C   UNL A   1      42.380  21.310  28.101  1.00  0.00     0.059 A 
ATOM     76  F   UNL A   1      42.640  22.737  29.945  1.00  0.00    -0.206 F 
ATOM     77  C   UNL A   1      42.277  21.143  26.721  1.00  0.00     0.060 A 
BRANCH  77  78
ATOM     78  S   UNL A   1      42.021  19.498  26.019  1.00  0.00     0.124 S 
ATOM     79  O   UNL A   1      40.585  19.510  25.765  1.00  0.00    -0.237 OA
ATOM     80  O   UNL A   1      42.879  19.529  24.838  1.00  0.00    -0.237 OA
ATOM     81  O   UNL A   1      42.468  18.608  27.085  1.00  0.00    -0.744 OA
ENDBRANCH  77  78
ENDBRANCH  45  70
BRANCH  57  82
ATOM     82  C   UNL A   1      48.102  27.240  30.330  1.00  0.00     0.058 A 
ATOM     83  C   UNL A   1      49.109  27.513  29.393  1.00  0.00     0.135 A 
ATOM     84  C   UNL A   1      48.478  26.647  31.547  1.00  0.00     0.135 A 
ATOM     85  F   UNL A   1      48.800  28.072  28.212  1.00  0.00    -0.206 F 
ATOM     86  C   UNL A   1      50.439  27.195  29.645  1.00  0.00     0.059 A 
ATOM     87  C   UNL A   1      49.806  26.345  31.831  1.00  0.00     0.059 A 
ATOM     88  F   UNL A   1      47.553  26.376  32.481  1.00  0.00    -0.206 F 
ATOM     89  C   UNL A   1      50.778  26.613  30.868  1.00  0.00     0.060 A 
BRANCH  89  90
ATOM     90  S   UNL A   1      52.513  26.240  31.199  1.00  0.00     0.124 S 
ATOM     91  O   UNL A   1      53.059  26.159  29.849  1.00  0.00    -0.237 OA
ATOM     92  O   UNL A   1      52.937  27.392  31.988  1.00  0.00    -0.237 OA
ATOM     93  O   UNL A   1      52.454  24.977  31.930  1.00  0.00    -0.744 OA
ENDBRANCH  89  90
ENDBRANCH  57  82
ENDBRANCH  31  32
ENDBRANCH  23  26
ENDBRANCH  21  22
ENDBRANCH  20  21
ENDBRANCH   1  20
TORSDOF 19
ENDMDL
