MODEL 1
REMARK VINA RESULT:     -12.0      0.000      0.000
REMARK SMILES COc1ccc(OC)c([C@H](C(=O)NCCCNC(=O)c2ccc(-c3c4nc(c(-c5c(F)cc(S(=O)(=O)[O-])cc5F)c5ccc([nH]5)c(-c5c(F)cc(S(=O)(=O)[O-])cc5F)c5nc(c(-c6c(F)cc(S(=O)(=O)[O-])cc6F)c6ccc3[nH]6)C=C5)C=C4)cc2)[NH+]2CC[NH+](Cc3nccn3C)CC2)c1
REMARK SMILES IDX 15 1 14 2 13 3 11 4 12 5 10 7 9 8 3 9 4 10 99 11 5 12 6 13
REMARK SMILES IDX 2 14 1 15 7 16 8 17 86 18 87 19 98 20 88 22 97 23 89 24
REMARK SMILES IDX 90 26 91 27 92 28 95 29 93 30 94 31 96 32 16 33 17 34 18 35
REMARK SMILES IDX 19 37 20 38 21 39 85 40 22 41 84 42 23 43 24 44 25 45 78 46
REMARK SMILES IDX 26 47 83 48 77 49 79 50 27 51 82 52 76 53 75 54 28 56 62 57
REMARK SMILES IDX 41 58 61 59 42 60 45 61 60 62 80 63 43 64 44 65 59 67 81 68
REMARK SMILES IDX 46 69 29 70 30 71 39 72 31 73 32 74 38 75 40 76 33 77 34 78
REMARK SMILES IDX 35 79 36 80 37 81 63 82 64 83 73 84 65 85 66 86 72 87 74 88
REMARK SMILES IDX 67 89 68 90 69 91 70 92 71 93 47 94 48 95 57 96 49 97 50 98
REMARK SMILES IDX 56 99 58 100 51 101 52 102 53 103 54 104 55 105
REMARK H PARENT 13 6 86 21 89 25 17 36 79 55 45 66
REMARK Flexibility Score: inf
ROOT
ATOM      1  C   UNL A   1      37.805  22.932  25.692  1.00  0.00     0.042 C 
ENDROOT
BRANCH   1   2
ATOM      2  C   UNL A   1      36.330  23.192  25.824  1.00  0.00     0.118 C 
BRANCH   2   3
ATOM      3  N   UNL A   1      35.788  23.789  24.606  1.00  0.00    -0.351 N 
ATOM      4  C   UNL A   1      34.588  24.398  24.375  1.00  0.00     0.283 C 
ATOM      5  O   UNL A   1      34.393  24.839  23.235  1.00  0.00    -0.268 OA
ATOM      6  H   UNL A   1      36.385  23.747  23.826  1.00  0.00     0.163 HD
BRANCH   4   7
ATOM      7  C   UNL A   1      33.535  24.598  25.491  1.00  0.00     0.309 C 
BRANCH   7   8
ATOM      8  C   UNL A   1      32.865  25.998  25.528  1.00  0.00     0.065 A 
ATOM      9  C   UNL A   1      33.053  28.339  26.333  1.00  0.00     0.119 A 
ATOM     10  C   UNL A   1      31.980  28.714  25.550  1.00  0.00     0.050 A 
ATOM     11  C   UNL A   1      33.457  27.000  26.362  1.00  0.00     0.060 A 
ATOM     12  C   UNL A   1      31.302  27.736  24.822  1.00  0.00     0.051 A 
ATOM     13  C   UNL A   1      31.705  26.381  24.823  1.00  0.00     0.128 A 
BRANCH   9  14
ATOM     14  O   UNL A   1      33.618  29.267  27.162  1.00  0.00    -0.497 OA
ATOM     15  C   UNL A   1      33.047  30.568  27.021  1.00  0.00     0.278 C 
ENDBRANCH   9  14
BRANCH  13  16
ATOM     16  O   UNL A   1      30.895  25.626  24.021  1.00  0.00    -0.496 OA
ATOM     17  C   UNL A   1      29.528  25.986  23.881  1.00  0.00     0.278 C 
ENDBRANCH  13  16
ENDBRANCH   7   8
BRANCH   7  18
ATOM     18  N   UNL A   1      32.663  23.399  25.574  1.00  0.00    -0.311 N 
ATOM     19  C   UNL A   1      32.319  22.689  24.347  1.00  0.00     0.325 C 
ATOM     20  C   UNL A   1      32.930  22.458  26.672  1.00  0.00     0.325 C 
ATOM     21  H   UNL A   1      31.813  23.909  25.812  1.00  0.00     0.349 HD
ATOM     22  C   UNL A   1      33.205  21.462  23.999  1.00  0.00     0.324 C 
ATOM     23  C   UNL A   1      33.714  21.156  26.343  1.00  0.00     0.324 C 
ATOM     24  N   UNL A   1      33.441  20.493  25.066  1.00  0.00    -0.319 N 
ATOM     25  H   UNL A   1      34.318  19.999  24.894  1.00  0.00     0.348 HD
BRANCH  24  26
ATOM     26  C   UNL A   1      32.508  19.367  25.037  1.00  0.00     0.339 C 
BRANCH  26  27
ATOM     27  C   UNL A   1      33.094  18.068  24.586  1.00  0.00     0.164 A 
ATOM     28  N   UNL A   1      33.658  17.171  25.379  1.00  0.00    -0.236 NA
ATOM     29  N   UNL A   1      33.174  17.655  23.280  1.00  0.00    -0.333 N 
ATOM     30  C   UNL A   1      34.276  16.273  24.553  1.00  0.00     0.131 A 
ATOM     31  C   UNL A   1      33.999  16.563  23.241  1.00  0.00     0.107 A 
ATOM     32  C   UNL A   1      32.524  18.227  22.130  1.00  0.00     0.151 C 
ENDBRANCH  26  27
ENDBRANCH  24  26
ENDBRANCH   7  18
ENDBRANCH   4   7
ENDBRANCH   2   3
ENDBRANCH   1   2
BRANCH   1  33
ATOM     33  C   UNL A   1      38.601  23.939  26.491  1.00  0.00     0.118 C 
BRANCH  33  34
ATOM     34  N   UNL A   1      40.010  23.942  26.127  1.00  0.00    -0.352 N 
ATOM     35  C   UNL A   1      41.013  24.818  26.474  1.00  0.00     0.251 C 
ATOM     36  H   UNL A   1      40.289  23.203  25.540  1.00  0.00     0.163 HD
ATOM     37  O   UNL A   1      42.088  24.772  25.893  1.00  0.00    -0.269 OA
BRANCH  35  38
ATOM     38  C   UNL A   1      40.769  25.837  27.520  1.00  0.00     0.039 A 
ATOM     39  C   UNL A   1      39.776  25.616  28.475  1.00  0.00     0.014 A 
ATOM     40  C   UNL A   1      41.524  27.007  27.567  1.00  0.00     0.014 A 
ATOM     41  C   UNL A   1      39.597  26.541  29.508  1.00  0.00     0.010 A 
ATOM     42  C   UNL A   1      41.469  27.825  28.683  1.00  0.00     0.010 A 
ATOM     43  C   UNL A   1      40.471  27.632  29.643  1.00  0.00    -0.014 A 
BRANCH  43  44
ATOM     44  C   UNL A   1      40.323  28.629  30.734  1.00  0.00     0.031 A 
ATOM     45  C   UNL A   1      41.205  28.537  31.955  1.00  0.00     0.074 A 
ATOM     46  C   UNL A   1      39.369  29.576  30.653  1.00  0.00     0.049 A 
ATOM     47  N   UNL A   1      41.198  29.273  33.037  1.00  0.00    -0.248 NA
ATOM     48  C   UNL A   1      42.199  27.451  31.983  1.00  0.00     0.031 C 
ATOM     49  C   UNL A   1      38.418  29.732  29.549  1.00  0.00     0.029 A 
ATOM     50  N   UNL A   1      39.042  30.591  31.516  1.00  0.00    -0.354 N 
ATOM     51  C   UNL A   1      42.164  28.724  33.872  1.00  0.00     0.074 A 
ATOM     52  C   UNL A   1      42.675  27.546  33.214  1.00  0.00     0.031 C 
ATOM     53  C   UNL A   1      37.652  30.811  29.777  1.00  0.00     0.029 A 
ATOM     54  C   UNL A   1      38.022  31.394  31.063  1.00  0.00     0.049 A 
ATOM     55  H   UNL A   1      39.496  30.731  32.378  1.00  0.00     0.167 HD
ATOM     56  C   UNL A   1      42.618  29.181  35.064  1.00  0.00     0.037 A 
ATOM     57  C   UNL A   1      37.454  32.480  31.621  1.00  0.00     0.037 A 
ATOM     58  C   UNL A   1      42.126  30.374  35.696  1.00  0.00     0.049 A 
ATOM     59  C   UNL A   1      37.964  32.968  32.948  1.00  0.00     0.074 A 
ATOM     60  C   UNL A   1      42.551  30.963  36.873  1.00  0.00     0.029 A 
ATOM     61  N   UNL A   1      41.094  31.162  35.204  1.00  0.00    -0.354 N 
ATOM     62  N   UNL A   1      38.925  32.476  33.695  1.00  0.00    -0.248 NA
ATOM     63  C   UNL A   1      37.318  34.162  33.507  1.00  0.00     0.031 C 
ATOM     64  C   UNL A   1      41.740  32.075  37.120  1.00  0.00     0.029 A 
ATOM     65  C   UNL A   1      40.850  32.216  36.067  1.00  0.00     0.049 A 
ATOM     66  H   UNL A   1      40.608  30.994  34.365  1.00  0.00     0.167 HD
ATOM     67  C   UNL A   1      39.019  33.316  34.799  1.00  0.00     0.074 A 
ATOM     68  C   UNL A   1      38.023  34.354  34.614  1.00  0.00     0.031 C 
ATOM     69  C   UNL A   1      39.854  33.240  35.866  1.00  0.00     0.037 A 
BRANCH  56  70
ATOM     70  C   UNL A   1      43.698  28.382  35.747  1.00  0.00     0.058 A 
ATOM     71  C   UNL A   1      43.398  27.356  36.660  1.00  0.00     0.135 A 
ATOM     72  C   UNL A   1      45.053  28.653  35.495  1.00  0.00     0.135 A 
ATOM     73  F   UNL A   1      42.121  27.064  36.955  1.00  0.00    -0.206 F 
ATOM     74  C   UNL A   1      44.398  26.665  37.336  1.00  0.00     0.059 A 
ATOM     75  C   UNL A   1      46.071  27.948  36.132  1.00  0.00     0.059 A 
ATOM     76  F   UNL A   1      45.401  29.620  34.633  1.00  0.00    -0.206 F 
ATOM     77  C   UNL A   1      45.733  26.973  37.069  1.00  0.00     0.060 A 
BRANCH  77  78
ATOM     78  S   UNL A   1      47.018  26.085  37.973  1.00  0.00     0.124 S 
ATOM     79  O   UNL A   1      46.671  24.697  37.683  1.00  0.00    -0.237 OA
ATOM     80  O   UNL A   1      48.239  26.577  37.344  1.00  0.00    -0.237 OA
ATOM     81  O   UNL A   1      46.814  26.507  39.355  1.00  0.00    -0.744 OA
ENDBRANCH  77  78
ENDBRANCH  56  70
BRANCH  57  82
ATOM     82  C   UNL A   1      36.372  33.199  30.896  1.00  0.00     0.058 A 
ATOM     83  C   UNL A   1      35.046  33.148  31.352  1.00  0.00     0.135 A 
ATOM     84  C   UNL A   1      36.643  33.984  29.765  1.00  0.00     0.135 A 
ATOM     85  F   UNL A   1      34.734  32.406  32.426  1.00  0.00    -0.206 F 
ATOM     86  C   UNL A   1      34.027  33.845  30.711  1.00  0.00     0.059 A 
ATOM     87  C   UNL A   1      35.647  34.712  29.122  1.00  0.00     0.059 A 
ATOM     88  F   UNL A   1      37.899  34.081  29.300  1.00  0.00    -0.206 F 
ATOM     89  C   UNL A   1      34.339  34.631  29.601  1.00  0.00     0.060 A 
BRANCH  89  90
ATOM     90  S   UNL A   1      33.020  35.588  28.823  1.00  0.00     0.124 S 
ATOM     91  O   UNL A   1      32.382  34.580  27.984  1.00  0.00    -0.237 OA
ATOM     92  O   UNL A   1      32.250  36.039  29.978  1.00  0.00    -0.237 OA
ATOM     93  O   UNL A   1      33.741  36.637  28.111  1.00  0.00    -0.744 OA
ENDBRANCH  89  90
ENDBRANCH  57  82
BRANCH  69  94
ATOM     94  C   UNL A   1      39.752  34.323  36.904  1.00  0.00     0.058 A 
ATOM     95  C   UNL A   1      38.968  34.172  38.057  1.00  0.00     0.135 A 
ATOM     96  C   UNL A   1      40.496  35.506  36.767  1.00  0.00     0.135 A 
ATOM     97  F   UNL A   1      38.231  33.064  38.234  1.00  0.00    -0.206 F 
ATOM     98  C   UNL A   1      38.905  35.166  39.028  1.00  0.00     0.059 A 
ATOM     99  C   UNL A   1      40.475  36.499  37.741  1.00  0.00     0.059 A 
ATOM    100  F   UNL A   1      41.274  35.697  35.688  1.00  0.00    -0.206 F 
ATOM    101  C   UNL A   1      39.666  36.325  38.862  1.00  0.00     0.060 A 
BRANCH 101 102
ATOM    102  S   UNL A   1      39.603  37.591  40.147  1.00  0.00     0.124 S 
ATOM    103  O   UNL A   1      38.492  38.420  39.689  1.00  0.00    -0.237 OA
ATOM    104  O   UNL A   1      39.352  36.802  41.349  1.00  0.00    -0.237 OA
ATOM    105  O   UNL A   1      40.922  38.213  40.077  1.00  0.00    -0.744 OA
ENDBRANCH 101 102
ENDBRANCH  69  94
ENDBRANCH  43  44
ENDBRANCH  35  38
ENDBRANCH  33  34
ENDBRANCH   1  33
TORSDOF 19
ENDMDL
MODEL 2
REMARK VINA RESULT:     -11.9      3.183      8.967
REMARK SMILES COc1ccc(OC)c([C@H](C(=O)NCCCNC(=O)c2ccc(-c3c4nc(c(-c5c(F)cc(S(=O)(=O)[O-])cc5F)c5ccc([nH]5)c(-c5c(F)cc(S(=O)(=O)[O-])cc5F)c5nc(c(-c6c(F)cc(S(=O)(=O)[O-])cc6F)c6ccc3[nH]6)C=C5)C=C4)cc2)[NH+]2CC[NH+](Cc3nccn3C)CC2)c1
REMARK SMILES IDX 15 1 14 2 13 3 11 4 12 5 10 7 9 8 3 9 4 10 99 11 5 12 6 13
REMARK SMILES IDX 2 14 1 15 7 16 8 17 86 18 87 19 98 20 88 22 97 23 89 24
REMARK SMILES IDX 90 26 91 27 92 28 95 29 93 30 94 31 96 32 16 33 17 34 18 35
REMARK SMILES IDX 19 37 20 38 21 39 85 40 22 41 84 42 23 43 24 44 25 45 78 46
REMARK SMILES IDX 26 47 83 48 77 49 79 50 27 51 82 52 76 53 75 54 28 56 62 57
REMARK SMILES IDX 41 58 61 59 42 60 45 61 60 62 80 63 43 64 44 65 59 67 81 68
REMARK SMILES IDX 46 69 29 70 30 71 39 72 31 73 32 74 38 75 40 76 33 77 34 78
REMARK SMILES IDX 35 79 36 80 37 81 63 82 64 83 73 84 65 85 66 86 72 87 74 88
REMARK SMILES IDX 67 89 68 90 69 91 70 92 71 93 47 94 48 95 57 96 49 97 50 98
REMARK SMILES IDX 56 99 58 100 51 101 52 102 53 103 54 104 55 105
REMARK H PARENT 13 6 86 21 89 25 17 36 79 55 45 66
REMARK Flexibility Score: inf
ROOT
ATOM      1  C   UNL A   1      33.128  27.512  26.631  1.00  0.00     0.042 C 
ENDROOT
BRANCH   1   2
ATOM      2  C   UNL A   1      31.684  27.860  26.404  1.00  0.00     0.118 C 
BRANCH   2   3
ATOM      3  N   UNL A   1      30.806  26.764  26.806  1.00  0.00    -0.351 N 
ATOM      4  C   UNL A   1      30.273  25.740  26.076  1.00  0.00     0.283 C 
ATOM      5  O   UNL A   1      29.567  24.926  26.684  1.00  0.00    -0.268 OA
ATOM      6  H   UNL A   1      30.558  26.763  27.758  1.00  0.00     0.163 HD
BRANCH   4   7
ATOM      7  C   UNL A   1      30.584  25.550  24.572  1.00  0.00     0.309 C 
BRANCH   7   8
ATOM      8  C   UNL A   1      30.528  26.843  23.714  1.00  0.00     0.065 A 
ATOM      9  C   UNL A   1      29.085  28.674  22.861  1.00  0.00     0.119 A 
ATOM     10  C   UNL A   1      30.192  29.358  22.403  1.00  0.00     0.050 A 
ATOM     11  C   UNL A   1      29.242  27.419  23.459  1.00  0.00     0.060 A 
ATOM     12  C   UNL A   1      31.448  28.765  22.523  1.00  0.00     0.051 A 
ATOM     13  C   UNL A   1      31.632  27.506  23.140  1.00  0.00     0.128 A 
BRANCH   9  14
ATOM     14  O   UNL A   1      27.844  29.185  22.604  1.00  0.00    -0.497 OA
ATOM     15  C   UNL A   1      27.881  30.438  21.920  1.00  0.00     0.278 C 
ENDBRANCH   9  14
BRANCH  13  16
ATOM     16  O   UNL A   1      32.952  27.151  23.152  1.00  0.00    -0.496 OA
ATOM     17  C   UNL A   1      33.810  27.639  22.130  1.00  0.00     0.278 C 
ENDBRANCH  13  16
ENDBRANCH   7   8
BRANCH   7  18
ATOM     18  N   UNL A   1      31.757  24.653  24.415  1.00  0.00    -0.311 N 
ATOM     19  C   UNL A   1      32.145  23.795  25.529  1.00  0.00     0.325 C 
ATOM     20  C   UNL A   1      31.886  23.945  23.133  1.00  0.00     0.325 C 
ATOM     21  H   UNL A   1      32.454  25.398  24.422  1.00  0.00     0.349 HD
ATOM     22  C   UNL A   1      31.600  22.341  25.491  1.00  0.00     0.324 C 
ATOM     23  C   UNL A   1      31.461  22.450  23.079  1.00  0.00     0.324 C 
ATOM     24  N   UNL A   1      31.762  21.607  24.238  1.00  0.00    -0.319 N 
ATOM     25  H   UNL A   1      31.043  20.886  24.167  1.00  0.00     0.348 HD
BRANCH  24  26
ATOM     26  C   UNL A   1      32.961  20.770  24.213  1.00  0.00     0.339 C 
BRANCH  26  27
ATOM     27  C   UNL A   1      32.745  19.341  24.593  1.00  0.00     0.164 A 
ATOM     28  N   UNL A   1      32.702  18.880  25.833  1.00  0.00    -0.236 NA
ATOM     29  N   UNL A   1      32.617  18.303  23.704  1.00  0.00    -0.333 N 
ATOM     30  C   UNL A   1      32.743  17.517  25.731  1.00  0.00     0.131 A 
ATOM     31  C   UNL A   1      32.704  17.136  24.414  1.00  0.00     0.107 A 
ATOM     32  C   UNL A   1      32.417  18.378  22.280  1.00  0.00     0.151 C 
ENDBRANCH  26  27
ENDBRANCH  24  26
ENDBRANCH   7  18
ENDBRANCH   4   7
ENDBRANCH   2   3
ENDBRANCH   1   2
BRANCH   1  33
ATOM     33  C   UNL A   1      34.035  28.519  25.961  1.00  0.00     0.118 C 
BRANCH  33  34
ATOM     34  N   UNL A   1      33.756  29.882  26.389  1.00  0.00    -0.352 N 
ATOM     35  C   UNL A   1      34.378  30.656  27.342  1.00  0.00     0.251 C 
ATOM     36  H   UNL A   1      33.006  30.318  25.925  1.00  0.00     0.163 HD
ATOM     37  O   UNL A   1      33.861  31.703  27.707  1.00  0.00    -0.269 OA
BRANCH  35  38
ATOM     38  C   UNL A   1      35.647  30.195  27.948  1.00  0.00     0.039 A 
ATOM     39  C   UNL A   1      36.849  30.407  27.271  1.00  0.00     0.014 A 
ATOM     40  C   UNL A   1      35.656  29.562  29.190  1.00  0.00     0.014 A 
ATOM     41  C   UNL A   1      38.053  30.041  27.878  1.00  0.00     0.010 A 
ATOM     42  C   UNL A   1      36.851  29.367  29.862  1.00  0.00     0.010 A 
ATOM     43  C   UNL A   1      38.067  29.557  29.197  1.00  0.00    -0.014 A 
BRANCH  43  44
ATOM     44  C   UNL A   1      39.326  29.170  29.882  1.00  0.00     0.031 A 
ATOM     45  C   UNL A   1      39.748  29.896  31.136  1.00  0.00     0.074 A 
ATOM     46  C   UNL A   1      40.112  28.213  29.352  1.00  0.00     0.049 A 
ATOM     47  N   UNL A   1      40.834  29.748  31.850  1.00  0.00    -0.248 NA
ATOM     48  C   UNL A   1      38.852  30.955  31.630  1.00  0.00     0.031 C 
ATOM     49  C   UNL A   1      39.839  27.479  28.113  1.00  0.00     0.029 A 
ATOM     50  N   UNL A   1      41.301  27.689  29.791  1.00  0.00    -0.354 N 
ATOM     51  C   UNL A   1      40.756  30.706  32.856  1.00  0.00     0.074 A 
ATOM     52  C   UNL A   1      39.567  31.485  32.610  1.00  0.00     0.031 C 
ATOM     53  C   UNL A   1      40.804  26.566  27.922  1.00  0.00     0.029 A 
ATOM     54  C   UNL A   1      41.788  26.681  28.994  1.00  0.00     0.049 A 
ATOM     55  H   UNL A   1      41.762  28.006  30.601  1.00  0.00     0.167 HD
ATOM     56  C   UNL A   1      41.579  30.896  33.915  1.00  0.00     0.037 A 
ATOM     57  C   UNL A   1      42.900  25.931  29.117  1.00  0.00     0.037 A 
ATOM     58  C   UNL A   1      42.744  30.093  34.170  1.00  0.00     0.049 A 
ATOM     59  C   UNL A   1      43.807  26.162  30.295  1.00  0.00     0.074 A 
ATOM     60  C   UNL A   1      43.617  30.157  35.241  1.00  0.00     0.029 A 
ATOM     61  N   UNL A   1      43.202  29.079  33.340  1.00  0.00    -0.354 N 
ATOM     62  N   UNL A   1      43.684  27.027  31.274  1.00  0.00    -0.248 NA
ATOM     63  C   UNL A   1      45.000  25.311  30.388  1.00  0.00     0.031 C 
ATOM     64  C   UNL A   1      44.632  29.220  35.031  1.00  0.00     0.029 A 
ATOM     65  C   UNL A   1      44.360  28.527  33.861  1.00  0.00     0.049 A 
ATOM     66  H   UNL A   1      42.767  28.794  32.504  1.00  0.00     0.167 HD
ATOM     67  C   UNL A   1      44.768  26.807  32.116  1.00  0.00     0.074 A 
ATOM     68  C   UNL A   1      45.529  25.718  31.534  1.00  0.00     0.031 C 
ATOM     69  C   UNL A   1      45.103  27.443  33.267  1.00  0.00     0.037 A 
BRANCH  56  70
ATOM     70  C   UNL A   1      41.237  32.013  34.867  1.00  0.00     0.058 A 
ATOM     71  C   UNL A   1      41.791  33.298  34.734  1.00  0.00     0.135 A 
ATOM     72  C   UNL A   1      40.351  31.794  35.934  1.00  0.00     0.135 A 
ATOM     73  F   UNL A   1      42.659  33.562  33.744  1.00  0.00    -0.206 F 
ATOM     74  C   UNL A   1      41.522  34.307  35.652  1.00  0.00     0.059 A 
ATOM     75  C   UNL A   1      40.037  32.801  36.844  1.00  0.00     0.059 A 
ATOM     76  F   UNL A   1      39.789  30.588  36.112  1.00  0.00    -0.206 F 
ATOM     77  C   UNL A   1      40.647  34.047  36.708  1.00  0.00     0.060 A 
BRANCH  77  78
ATOM     78  S   UNL A   1      40.329  35.359  37.905  1.00  0.00     0.124 S 
ATOM     79  O   UNL A   1      39.148  34.845  38.593  1.00  0.00    -0.237 OA
ATOM     80  O   UNL A   1      41.561  35.374  38.688  1.00  0.00    -0.237 OA
ATOM     81  O   UNL A   1      40.106  36.535  37.070  1.00  0.00    -0.744 OA
ENDBRANCH  77  78
ENDBRANCH  56  70
BRANCH  57  82
ATOM     82  C   UNL A   1      43.184  24.865  28.120  1.00  0.00     0.058 A 
ATOM     83  C   UNL A   1      43.872  25.158  26.932  1.00  0.00     0.135 A 
ATOM     84  C   UNL A   1      42.817  23.530  28.349  1.00  0.00     0.135 A 
ATOM     85  F   UNL A   1      44.239  26.421  26.664  1.00  0.00    -0.206 F 
ATOM     86  C   UNL A   1      44.181  24.168  26.005  1.00  0.00     0.059 A 
ATOM     87  C   UNL A   1      43.138  22.518  27.450  1.00  0.00     0.059 A 
ATOM     88  F   UNL A   1      42.174  23.194  29.479  1.00  0.00    -0.206 F 
ATOM     89  C   UNL A   1      43.816  22.849  26.277  1.00  0.00     0.060 A 
BRANCH  89  90
ATOM     90  S   UNL A   1      44.289  21.563  25.100  1.00  0.00     0.124 S 
ATOM     91  O   UNL A   1      44.147  22.263  23.829  1.00  0.00    -0.237 OA
ATOM     92  O   UNL A   1      45.655  21.258  25.514  1.00  0.00    -0.237 OA
ATOM     93  O   UNL A   1      43.315  20.505  25.350  1.00  0.00    -0.744 OA
ENDBRANCH  89  90
ENDBRANCH  57  82
BRANCH  69  94
ATOM     94  C   UNL A   1      46.328  26.960  33.995  1.00  0.00     0.058 A 
ATOM     95  C   UNL A   1      47.590  27.530  33.776  1.00  0.00     0.135 A 
ATOM     96  C   UNL A   1      46.221  25.951  34.965  1.00  0.00     0.135 A 
ATOM     97  F   UNL A   1      47.749  28.493  32.855  1.00  0.00    -0.206 F 
ATOM     98  C   UNL A   1      48.712  27.099  34.477  1.00  0.00     0.059 A 
ATOM     99  C   UNL A   1      47.324  25.527  35.701  1.00  0.00     0.059 A 
ATOM    100  F   UNL A   1      45.034  25.380  35.223  1.00  0.00    -0.206 F 
ATOM    101  C   UNL A   1      48.567  26.099  35.440  1.00  0.00     0.060 A 
BRANCH 101 102
ATOM    102  S   UNL A   1      50.024  25.575  36.369  1.00  0.00     0.124 S 
ATOM    103  O   UNL A   1      51.051  25.581  35.331  1.00  0.00    -0.237 OA
ATOM    104  O   UNL A   1      50.140  26.620  37.381  1.00  0.00    -0.237 OA
ATOM    105  O   UNL A   1      49.651  24.258  36.875  1.00  0.00    -0.744 OA
ENDBRANCH 101 102
ENDBRANCH  69  94
ENDBRANCH  43  44
ENDBRANCH  35  38
ENDBRANCH  33  34
ENDBRANCH   1  33
TORSDOF 19
ENDMDL
MODEL 3
REMARK VINA RESULT:     -11.9      4.522      9.787
REMARK SMILES COc1ccc(OC)c([C@H](C(=O)NCCCNC(=O)c2ccc(-c3c4nc(c(-c5c(F)cc(S(=O)(=O)[O-])cc5F)c5ccc([nH]5)c(-c5c(F)cc(S(=O)(=O)[O-])cc5F)c5nc(c(-c6c(F)cc(S(=O)(=O)[O-])cc6F)c6ccc3[nH]6)C=C5)C=C4)cc2)[NH+]2CC[NH+](Cc3nccn3C)CC2)c1
REMARK SMILES IDX 15 1 14 2 13 3 11 4 12 5 10 7 9 8 3 9 4 10 99 11 5 12 6 13
REMARK SMILES IDX 2 14 1 15 7 16 8 17 86 18 87 19 98 20 88 22 97 23 89 24
REMARK SMILES IDX 90 26 91 27 92 28 95 29 93 30 94 31 96 32 16 33 17 34 18 35
REMARK SMILES IDX 19 37 20 38 21 39 85 40 22 41 84 42 23 43 24 44 25 45 78 46
REMARK SMILES IDX 26 47 83 48 77 49 79 50 27 51 82 52 76 53 75 54 28 56 62 57
REMARK SMILES IDX 41 58 61 59 42 60 45 61 60 62 80 63 43 64 44 65 59 67 81 68
REMARK SMILES IDX 46 69 29 70 30 71 39 72 31 73 32 74 38 75 40 76 33 77 34 78
REMARK SMILES IDX 35 79 36 80 37 81 63 82 64 83 73 84 65 85 66 86 72 87 74 88
REMARK SMILES IDX 67 89 68 90 69 91 70 92 71 93 47 94 48 95 57 96 49 97 50 98
REMARK SMILES IDX 56 99 58 100 51 101 52 102 53 103 54 104 55 105
REMARK H PARENT 13 6 86 21 89 25 17 36 79 55 45 66
REMARK Flexibility Score: inf
ROOT
ATOM      1  C   UNL A   1      33.158  27.253  26.876  1.00  0.00     0.042 C 
ENDROOT
BRANCH   1   2
ATOM      2  C   UNL A   1      31.742  27.637  26.552  1.00  0.00     0.118 C 
BRANCH   2   3
ATOM      3  N   UNL A   1      30.812  26.563  26.893  1.00  0.00    -0.351 N 
ATOM      4  C   UNL A   1      30.271  25.577  26.118  1.00  0.00     0.283 C 
ATOM      5  O   UNL A   1      29.514  24.774  26.679  1.00  0.00    -0.268 OA
ATOM      6  H   UNL A   1      30.530  26.547  27.836  1.00  0.00     0.163 HD
BRANCH   4   7
ATOM      7  C   UNL A   1      30.630  25.414  24.621  1.00  0.00     0.309 C 
BRANCH   7   8
ATOM      8  C   UNL A   1      30.504  26.702  23.765  1.00  0.00     0.065 A 
ATOM      9  C   UNL A   1      28.967  28.464  22.929  1.00  0.00     0.119 A 
ATOM     10  C   UNL A   1      30.036  29.199  22.457  1.00  0.00     0.050 A 
ATOM     11  C   UNL A   1      29.190  27.219  23.526  1.00  0.00     0.060 A 
ATOM     12  C   UNL A   1      31.319  28.664  22.562  1.00  0.00     0.051 A 
ATOM     13  C   UNL A   1      31.568  27.416  23.177  1.00  0.00     0.128 A 
BRANCH   9  14
ATOM     14  O   UNL A   1      27.700  28.918  22.688  1.00  0.00    -0.497 OA
ATOM     15  C   UNL A   1      27.555  30.322  22.900  1.00  0.00     0.278 C 
ENDBRANCH   9  14
BRANCH  13  16
ATOM     16  O   UNL A   1      32.904  27.122  23.172  1.00  0.00    -0.496 OA
ATOM     17  C   UNL A   1      33.539  26.805  21.942  1.00  0.00     0.278 C 
ENDBRANCH  13  16
ENDBRANCH   7   8
BRANCH   7  18
ATOM     18  N   UNL A   1      31.867  24.603  24.492  1.00  0.00    -0.311 N 
ATOM     19  C   UNL A   1      32.365  23.881  25.658  1.00  0.00     0.325 C 
ATOM     20  C   UNL A   1      32.005  23.793  23.272  1.00  0.00     0.325 C 
ATOM     21  H   UNL A   1      32.500  25.397  24.402  1.00  0.00     0.349 HD
ATOM     22  C   UNL A   1      31.940  22.392  25.771  1.00  0.00     0.324 C 
ATOM     23  C   UNL A   1      31.703  22.271  23.368  1.00  0.00     0.324 C 
ATOM     24  N   UNL A   1      32.116  21.563  24.581  1.00  0.00    -0.319 N 
ATOM     25  H   UNL A   1      31.457  20.784  24.605  1.00  0.00     0.348 HD
BRANCH  24  26
ATOM     26  C   UNL A   1      33.379  20.824  24.576  1.00  0.00     0.339 C 
BRANCH  26  27
ATOM     27  C   UNL A   1      33.244  19.336  24.626  1.00  0.00     0.164 A 
ATOM     28  N   UNL A   1      32.098  18.674  24.614  1.00  0.00    -0.236 NA
ATOM     29  N   UNL A   1      34.290  18.457  24.747  1.00  0.00    -0.333 N 
ATOM     30  C   UNL A   1      32.407  17.379  24.925  1.00  0.00     0.131 A 
ATOM     31  C   UNL A   1      33.766  17.224  25.026  1.00  0.00     0.107 A 
ATOM     32  C   UNL A   1      35.697  18.732  24.606  1.00  0.00     0.151 C 
ENDBRANCH  26  27
ENDBRANCH  24  26
ENDBRANCH   7  18
ENDBRANCH   4   7
ENDBRANCH   2   3
ENDBRANCH   1   2
BRANCH   1  33
ATOM     33  C   UNL A   1      34.123  28.324  26.419  1.00  0.00     0.118 C 
BRANCH  33  34
ATOM     34  N   UNL A   1      33.761  29.642  26.920  1.00  0.00    -0.352 N 
ATOM     35  C   UNL A   1      34.439  30.482  27.773  1.00  0.00     0.251 C 
ATOM     36  H   UNL A   1      32.896  29.985  26.598  1.00  0.00     0.163 HD
ATOM     37  O   UNL A   1      33.870  31.457  28.244  1.00  0.00    -0.269 OA
BRANCH  35  38
ATOM     38  C   UNL A   1      35.838  30.176  28.147  1.00  0.00     0.039 A 
ATOM     39  C   UNL A   1      36.110  29.630  29.401  1.00  0.00     0.014 A 
ATOM     40  C   UNL A   1      36.883  30.418  27.257  1.00  0.00     0.014 A 
ATOM     41  C   UNL A   1      37.422  29.269  29.724  1.00  0.00     0.010 A 
ATOM     42  C   UNL A   1      38.142  29.898  27.506  1.00  0.00     0.010 A 
ATOM     43  C   UNL A   1      38.441  29.362  28.762  1.00  0.00    -0.014 A 
BRANCH  43  44
ATOM     44  C   UNL A   1      39.843  28.976  29.062  1.00  0.00     0.031 A 
ATOM     45  C   UNL A   1      40.762  29.963  29.739  1.00  0.00     0.074 A 
ATOM     46  C   UNL A   1      40.304  27.770  28.680  1.00  0.00     0.049 A 
ATOM     47  N   UNL A   1      42.030  29.842  30.037  1.00  0.00    -0.248 NA
ATOM     48  C   UNL A   1      40.193  31.275  30.091  1.00  0.00     0.031 C 
ATOM     49  C   UNL A   1      39.528  26.750  27.967  1.00  0.00     0.029 A 
ATOM     50  N   UNL A   1      41.538  27.192  28.841  1.00  0.00    -0.354 N 
ATOM     51  C   UNL A   1      42.406  31.063  30.587  1.00  0.00     0.074 A 
ATOM     52  C   UNL A   1      41.261  31.938  30.501  1.00  0.00     0.031 C 
ATOM     53  C   UNL A   1      40.288  25.656  27.801  1.00  0.00     0.029 A 
ATOM     54  C   UNL A   1      41.617  25.911  28.348  1.00  0.00     0.049 A 
ATOM     55  H   UNL A   1      42.295  27.653  29.268  1.00  0.00     0.167 HD
ATOM     56  C   UNL A   1      43.586  31.414  31.152  1.00  0.00     0.037 A 
ATOM     57  C   UNL A   1      42.644  25.040  28.344  1.00  0.00     0.037 A 
ATOM     58  C   UNL A   1      44.709  30.525  31.263  1.00  0.00     0.049 A 
ATOM     59  C   UNL A   1      43.949  25.450  28.967  1.00  0.00     0.074 A 
ATOM     60  C   UNL A   1      45.933  30.753  31.866  1.00  0.00     0.029 A 
ATOM     61  N   UNL A   1      44.748  29.233  30.754  1.00  0.00    -0.354 N 
ATOM     62  N   UNL A   1      44.268  26.586  29.544  1.00  0.00    -0.248 NA
ATOM     63  C   UNL A   1      45.033  24.460  28.946  1.00  0.00     0.031 C 
ATOM     64  C   UNL A   1      46.730  29.621  31.674  1.00  0.00     0.029 A 
ATOM     65  C   UNL A   1      45.984  28.663  31.007  1.00  0.00     0.049 A 
ATOM     66  H   UNL A   1      44.006  28.790  30.284  1.00  0.00     0.167 HD
ATOM     67  C   UNL A   1      45.580  26.437  29.979  1.00  0.00     0.074 A 
ATOM     68  C   UNL A   1      45.989  25.096  29.609  1.00  0.00     0.031 C 
ATOM     69  C   UNL A   1      46.373  27.325  30.630  1.00  0.00     0.037 A 
BRANCH  56  70
ATOM     70  C   UNL A   1      43.707  32.817  31.689  1.00  0.00     0.058 A 
ATOM     71  C   UNL A   1      43.439  33.124  33.035  1.00  0.00     0.135 A 
ATOM     72  C   UNL A   1      44.086  33.874  30.844  1.00  0.00     0.135 A 
ATOM     73  F   UNL A   1      43.055  32.158  33.885  1.00  0.00    -0.206 F 
ATOM     74  C   UNL A   1      43.490  34.430  33.510  1.00  0.00     0.059 A 
ATOM     75  C   UNL A   1      44.181  35.183  31.308  1.00  0.00     0.059 A 
ATOM     76  F   UNL A   1      44.355  33.643  29.551  1.00  0.00    -0.206 F 
ATOM     77  C   UNL A   1      43.857  35.454  32.636  1.00  0.00     0.060 A 
BRANCH  77  78
ATOM     78  S   UNL A   1      43.893  37.146  33.263  1.00  0.00     0.124 S 
ATOM     79  O   UNL A   1      45.166  37.165  33.977  1.00  0.00    -0.237 OA
ATOM     80  O   UNL A   1      43.845  37.935  32.035  1.00  0.00    -0.237 OA
ATOM     81  O   UNL A   1      42.702  37.224  34.102  1.00  0.00    -0.744 OA
ENDBRANCH  77  78
ENDBRANCH  56  70
BRANCH  57  82
ATOM     82  C   UNL A   1      42.454  23.681  27.769  1.00  0.00     0.058 A 
ATOM     83  C   UNL A   1      42.508  23.474  26.382  1.00  0.00     0.135 A 
ATOM     84  C   UNL A   1      42.262  22.559  28.589  1.00  0.00     0.135 A 
ATOM     85  F   UNL A   1      42.684  24.517  25.555  1.00  0.00    -0.206 F 
ATOM     86  C   UNL A   1      42.372  22.206  25.828  1.00  0.00     0.059 A 
ATOM     87  C   UNL A   1      42.149  21.276  28.061  1.00  0.00     0.059 A 
ATOM     88  F   UNL A   1      42.221  22.700  29.923  1.00  0.00    -0.206 F 
ATOM     89  C   UNL A   1      42.201  21.111  26.677  1.00  0.00     0.060 A 
BRANCH  89  90
ATOM     90  S   UNL A   1      42.100  19.462  25.948  1.00  0.00     0.124 S 
ATOM     91  O   UNL A   1      42.623  18.632  27.027  1.00  0.00    -0.237 OA
ATOM     92  O   UNL A   1      40.671  19.336  25.679  1.00  0.00    -0.237 OA
ATOM     93  O   UNL A   1      42.946  19.566  24.763  1.00  0.00    -0.744 OA
ENDBRANCH  89  90
ENDBRANCH  57  82
BRANCH  69  94
ATOM     94  C   UNL A   1      47.754  26.870  31.013  1.00  0.00     0.058 A 
ATOM     95  C   UNL A   1      47.999  26.173  32.205  1.00  0.00     0.135 A 
ATOM     96  C   UNL A   1      48.836  27.088  30.145  1.00  0.00     0.135 A 
ATOM     97  F   UNL A   1      47.002  25.945  33.073  1.00  0.00    -0.206 F 
ATOM     98  C   UNL A   1      49.275  25.728  32.536  1.00  0.00     0.059 A 
ATOM     99  C   UNL A   1      50.114  26.622  30.440  1.00  0.00     0.059 A 
ATOM    100  F   UNL A   1      48.655  27.739  28.984  1.00  0.00    -0.206 F 
ATOM    101  C   UNL A   1      50.326  25.955  31.644  1.00  0.00     0.060 A 
BRANCH 101 102
ATOM    102  S   UNL A   1      51.968  25.339  32.069  1.00  0.00     0.124 S 
ATOM    103  O   UNL A   1      51.717  23.908  32.211  1.00  0.00    -0.237 OA
ATOM    104  O   UNL A   1      52.758  25.731  30.907  1.00  0.00    -0.237 OA
ATOM    105  O   UNL A   1      52.288  26.046  33.305  1.00  0.00    -0.744 OA
ENDBRANCH 101 102
ENDBRANCH  69  94
ENDBRANCH  43  44
ENDBRANCH  35  38
ENDBRANCH  33  34
ENDBRANCH   1  33
TORSDOF 19
ENDMDL
