MODEL 1
REMARK VINA RESULT:     -13.5      0.000      0.000
REMARK SMILES Cc1ccccc1NC(=O)C[NH+]1CCC(CC(=O)NCCCNC(=O)c2ccc(-c3c4nc(c(-c5c(F)cc(S(=O)(=O)[O-])cc5F)c5ccc([nH]5)c(-c5c(F)cc(S(=O)(=O)[O-])cc5F)c5nc(c(-c6c(F)cc(S(=O)(=O)[O-])cc6F)c6ccc3[nH]6)C=C5)C=C4)cc2)CC1
REMARK SMILES IDX 20 1 19 2 17 3 18 4 16 6 15 7 12 8 13 9 93 10 14 12 92 13
REMARK SMILES IDX 11 14 9 15 8 16 10 18 7 19 1 20 2 21 3 22 4 23 6 24 5 25
REMARK SMILES IDX 21 26 22 27 23 28 24 29 25 31 26 32 27 33 91 34 28 35 90 36
REMARK SMILES IDX 29 37 30 38 31 39 84 40 32 41 89 42 83 43 85 44 33 45 88 46
REMARK SMILES IDX 82 47 81 48 34 50 68 51 47 52 67 53 48 54 51 55 66 56 86 57
REMARK SMILES IDX 49 58 50 59 65 61 87 62 52 63 35 64 36 65 45 66 37 67 38 68
REMARK SMILES IDX 44 69 46 70 39 71 40 72 41 73 42 74 43 75 69 76 70 77 79 78
REMARK SMILES IDX 71 79 72 80 78 81 80 82 73 83 74 84 75 85 76 86 77 87 53 88
REMARK SMILES IDX 54 89 63 90 55 91 56 92 62 93 64 94 57 95 58 96 59 97 60 98
REMARK SMILES IDX 61 99
REMARK H PARENT 19 5 12 11 8 17 23 30 85 49 51 60
REMARK Flexibility Score: inf
ROOT
ATOM      1  C   UNL A   1      32.183  28.975  26.033  1.00  0.00     0.117 C 
ENDROOT
BRANCH   1   2
ATOM      2  N   UNL A   1      32.509  29.020  24.611  1.00  0.00    -0.356 N 
ATOM      3  C   UNL A   1      31.883  28.434  23.544  1.00  0.00     0.220 C 
ATOM      4  O   UNL A   1      32.221  28.748  22.402  1.00  0.00    -0.275 OA
ATOM      5  H   UNL A   1      33.303  29.557  24.384  1.00  0.00     0.163 HD
BRANCH   3   6
ATOM      6  C   UNL A   1      30.834  27.356  23.759  1.00  0.00     0.104 C 
BRANCH   6   7
ATOM      7  C   UNL A   1      31.260  25.993  23.184  1.00  0.00     0.009 C 
ATOM      8  N   UNL A   1      32.397  23.318  23.641  1.00  0.00    -0.327 N 
ATOM      9  C   UNL A   1      33.186  24.331  22.946  1.00  0.00     0.262 C 
ATOM     10  C   UNL A   1      30.966  23.488  23.402  1.00  0.00     0.262 C 
ATOM     11  H   UNL A   1      32.507  23.470  24.643  1.00  0.00     0.348 HD
ATOM     12  C   UNL A   1      32.743  25.707  23.413  1.00  0.00     0.066 C 
ATOM     13  C   UNL A   1      30.452  24.863  23.839  1.00  0.00     0.066 C 
BRANCH   8  14
ATOM     14  C   UNL A   1      32.921  21.947  23.459  1.00  0.00     0.363 C 
BRANCH  14  15
ATOM     15  C   UNL A   1      32.900  21.037  24.698  1.00  0.00     0.279 C 
ATOM     16  N   UNL A   1      33.907  21.003  25.623  1.00  0.00    -0.321 N 
ATOM     17  H   UNL A   1      33.734  20.427  26.401  1.00  0.00     0.170 HD
ATOM     18  O   UNL A   1      31.910  20.332  24.932  1.00  0.00    -0.268 OA
BRANCH  16  19
ATOM     19  C   UNL A   1      35.145  21.658  25.637  1.00  0.00     0.044 A 
ATOM     20  C   UNL A   1      34.042  23.770  26.611  1.00  0.00     0.046 C 
ATOM     21  C   UNL A   1      35.209  23.002  26.049  1.00  0.00    -0.027 A 
ATOM     22  C   UNL A   1      36.419  23.701  25.878  1.00  0.00     0.005 A 
ATOM     23  C   UNL A   1      37.542  23.074  25.337  1.00  0.00     0.000 A 
ATOM     24  C   UNL A   1      36.305  21.013  25.191  1.00  0.00     0.026 A 
ATOM     25  C   UNL A   1      37.493  21.722  25.021  1.00  0.00     0.002 A 
ENDBRANCH  16  19
ENDBRANCH  14  15
ENDBRANCH   8  14
ENDBRANCH   6   7
ENDBRANCH   3   6
ENDBRANCH   1   2
BRANCH   1  26
ATOM     26  C   UNL A   1      32.915  29.987  26.916  1.00  0.00     0.042 C 
BRANCH  26  27
ATOM     27  C   UNL A   1      34.362  29.664  27.239  1.00  0.00     0.118 C 
BRANCH  27  28
ATOM     28  N   UNL A   1      35.024  30.862  27.774  1.00  0.00    -0.352 N 
ATOM     29  C   UNL A   1      36.315  31.014  28.233  1.00  0.00     0.251 C 
ATOM     30  H   UNL A   1      34.465  31.673  27.811  1.00  0.00     0.163 HD
ATOM     31  O   UNL A   1      36.753  32.058  28.678  1.00  0.00    -0.269 OA
BRANCH  29  32
ATOM     32  C   UNL A   1      37.161  29.821  28.127  1.00  0.00     0.039 A 
ATOM     33  C   UNL A   1      37.289  29.024  29.270  1.00  0.00     0.014 A 
ATOM     34  C   UNL A   1      38.073  29.774  27.076  1.00  0.00     0.014 A 
ATOM     35  C   UNL A   1      38.448  28.281  29.440  1.00  0.00     0.010 A 
ATOM     36  C   UNL A   1      39.253  29.092  27.284  1.00  0.00     0.010 A 
ATOM     37  C   UNL A   1      39.459  28.387  28.483  1.00  0.00    -0.014 A 
BRANCH  37  38
ATOM     38  C   UNL A   1      40.797  27.854  28.685  1.00  0.00     0.031 A 
ATOM     39  C   UNL A   1      41.098  26.469  28.261  1.00  0.00     0.074 A 
ATOM     40  C   UNL A   1      41.777  28.602  29.240  1.00  0.00     0.049 A 
ATOM     41  N   UNL A   1      42.013  25.738  28.805  1.00  0.00    -0.248 NA
ATOM     42  C   UNL A   1      40.351  25.775  27.215  1.00  0.00     0.031 C 
ATOM     43  C   UNL A   1      43.206  28.299  29.236  1.00  0.00     0.029 A 
ATOM     44  N   UNL A   1      41.661  29.699  30.092  1.00  0.00    -0.354 N 
ATOM     45  C   UNL A   1      42.165  24.621  28.023  1.00  0.00     0.074 A 
ATOM     46  C   UNL A   1      41.066  24.653  27.085  1.00  0.00     0.031 C 
ATOM     47  C   UNL A   1      43.808  29.010  30.200  1.00  0.00     0.029 A 
ATOM     48  C   UNL A   1      42.773  29.696  30.950  1.00  0.00     0.049 A 
ATOM     49  H   UNL A   1      40.930  30.357  30.091  1.00  0.00     0.167 HD
ATOM     50  C   UNL A   1      43.280  23.852  28.145  1.00  0.00     0.037 A 
ATOM     51  C   UNL A   1      42.641  29.649  32.308  1.00  0.00     0.037 A 
ATOM     52  C   UNL A   1      44.186  24.366  29.163  1.00  0.00     0.049 A 
ATOM     53  C   UNL A   1      43.277  28.436  32.945  1.00  0.00     0.074 A 
ATOM     54  C   UNL A   1      45.297  25.191  29.091  1.00  0.00     0.029 A 
ATOM     55  N   UNL A   1      43.820  24.315  30.504  1.00  0.00    -0.354 N 
ATOM     56  N   UNL A   1      43.608  27.359  32.288  1.00  0.00    -0.248 NA
ATOM     57  C   UNL A   1      43.587  28.328  34.369  1.00  0.00     0.031 C 
ATOM     58  C   UNL A   1      45.593  25.652  30.393  1.00  0.00     0.029 A 
ATOM     59  C   UNL A   1      44.666  25.103  31.263  1.00  0.00     0.049 A 
ATOM     60  H   UNL A   1      43.066  23.794  30.862  1.00  0.00     0.167 HD
ATOM     61  C   UNL A   1      44.132  26.426  33.149  1.00  0.00     0.074 A 
ATOM     62  C   UNL A   1      44.118  27.093  34.438  1.00  0.00     0.031 C 
ATOM     63  C   UNL A   1      44.525  25.191  32.709  1.00  0.00     0.037 A 
BRANCH  50  64
ATOM     64  C   UNL A   1      43.649  22.831  27.101  1.00  0.00     0.058 A 
ATOM     65  C   UNL A   1      42.924  21.630  26.968  1.00  0.00     0.135 A 
ATOM     66  C   UNL A   1      44.759  22.966  26.245  1.00  0.00     0.135 A 
ATOM     67  F   UNL A   1      41.817  21.394  27.682  1.00  0.00    -0.206 F 
ATOM     68  C   UNL A   1      43.323  20.600  26.119  1.00  0.00     0.059 A 
ATOM     69  C   UNL A   1      45.207  21.930  25.422  1.00  0.00     0.059 A 
ATOM     70  F   UNL A   1      45.446  24.119  26.190  1.00  0.00    -0.206 F 
ATOM     71  C   UNL A   1      44.485  20.743  25.373  1.00  0.00     0.060 A 
BRANCH  71  72
ATOM     72  S   UNL A   1      45.044  19.347  24.379  1.00  0.00     0.124 S 
ATOM     73  O   UNL A   1      44.328  18.227  24.984  1.00  0.00    -0.237 OA
ATOM     74  O   UNL A   1      44.604  19.732  23.042  1.00  0.00    -0.237 OA
ATOM     75  O   UNL A   1      46.489  19.339  24.589  1.00  0.00    -0.744 OA
ENDBRANCH  71  72
ENDBRANCH  50  64
BRANCH  51  76
ATOM     76  C   UNL A   1      41.445  30.374  32.809  1.00  0.00     0.058 A 
ATOM     77  C   UNL A   1      40.292  29.611  33.068  1.00  0.00     0.135 A 
ATOM     78  C   UNL A   1      41.564  31.613  33.453  1.00  0.00     0.135 A 
ATOM     79  F   UNL A   1      40.124  28.422  32.467  1.00  0.00    -0.206 F 
ATOM     80  C   UNL A   1      39.376  29.980  34.047  1.00  0.00     0.059 A 
ATOM     81  C   UNL A   1      40.655  32.004  34.441  1.00  0.00     0.059 A 
ATOM     82  F   UNL A   1      42.640  32.385  33.239  1.00  0.00    -0.206 F 
ATOM     83  C   UNL A   1      39.602  31.149  34.772  1.00  0.00     0.060 A 
BRANCH  83  84
ATOM     84  S   UNL A   1      38.621  31.412  36.270  1.00  0.00     0.124 S 
ATOM     85  O   UNL A   1      39.573  32.093  37.139  1.00  0.00    -0.237 OA
ATOM     86  O   UNL A   1      37.523  32.241  35.775  1.00  0.00    -0.237 OA
ATOM     87  O   UNL A   1      38.249  30.060  36.667  1.00  0.00    -0.744 OA
ENDBRANCH  83  84
ENDBRANCH  51  76
BRANCH  63  88
ATOM     88  C   UNL A   1      44.927  23.985  33.542  1.00  0.00     0.058 A 
ATOM     89  C   UNL A   1      44.114  22.865  33.781  1.00  0.00     0.135 A 
ATOM     90  C   UNL A   1      46.256  23.870  34.036  1.00  0.00     0.135 A 
ATOM     91  F   UNL A   1      42.874  22.779  33.283  1.00  0.00    -0.206 F 
ATOM     92  C   UNL A   1      44.557  21.750  34.502  1.00  0.00     0.059 A 
ATOM     93  C   UNL A   1      46.736  22.746  34.704  1.00  0.00     0.059 A 
ATOM     94  F   UNL A   1      47.159  24.849  33.872  1.00  0.00    -0.206 F 
ATOM     95  C   UNL A   1      45.871  21.697  34.958  1.00  0.00     0.060 A 
BRANCH  95  96
ATOM     96  S   UNL A   1      46.469  20.233  35.819  1.00  0.00     0.124 S 
ATOM     97  O   UNL A   1      45.575  19.203  35.300  1.00  0.00    -0.237 OA
ATOM     98  O   UNL A   1      47.858  20.143  35.376  1.00  0.00    -0.237 OA
ATOM     99  O   UNL A   1      46.292  20.576  37.226  1.00  0.00    -0.744 OA
ENDBRANCH  95  96
ENDBRANCH  63  88
ENDBRANCH  37  38
ENDBRANCH  29  32
ENDBRANCH  27  28
ENDBRANCH  26  27
ENDBRANCH   1  26
TORSDOF 17
ENDMDL
MODEL 2
REMARK VINA RESULT:     -13.4      4.825     11.426
REMARK SMILES Cc1ccccc1NC(=O)C[NH+]1CCC(CC(=O)NCCCNC(=O)c2ccc(-c3c4nc(c(-c5c(F)cc(S(=O)(=O)[O-])cc5F)c5ccc([nH]5)c(-c5c(F)cc(S(=O)(=O)[O-])cc5F)c5nc(c(-c6c(F)cc(S(=O)(=O)[O-])cc6F)c6ccc3[nH]6)C=C5)C=C4)cc2)CC1
REMARK SMILES IDX 20 1 19 2 17 3 18 4 16 6 15 7 12 8 13 9 93 10 14 12 92 13
REMARK SMILES IDX 11 14 9 15 8 16 10 18 7 19 1 20 2 21 3 22 4 23 6 24 5 25
REMARK SMILES IDX 21 26 22 27 23 28 24 29 25 31 26 32 27 33 91 34 28 35 90 36
REMARK SMILES IDX 29 37 30 38 31 39 84 40 32 41 89 42 83 43 85 44 33 45 88 46
REMARK SMILES IDX 82 47 81 48 34 50 68 51 47 52 67 53 48 54 51 55 66 56 86 57
REMARK SMILES IDX 49 58 50 59 65 61 87 62 52 63 35 64 36 65 45 66 37 67 38 68
REMARK SMILES IDX 44 69 46 70 39 71 40 72 41 73 42 74 43 75 69 76 70 77 79 78
REMARK SMILES IDX 71 79 72 80 78 81 80 82 73 83 74 84 75 85 76 86 77 87 53 88
REMARK SMILES IDX 54 89 63 90 55 91 56 92 62 93 64 94 57 95 58 96 59 97 60 98
REMARK SMILES IDX 61 99
REMARK H PARENT 19 5 12 11 8 17 23 30 85 49 51 60
REMARK Flexibility Score: inf
ROOT
ATOM      1  C   UNL A   1      36.594  21.188  25.110  1.00  0.00     0.117 C 
ENDROOT
BRANCH   1   2
ATOM      2  N   UNL A   1      35.531  21.369  26.093  1.00  0.00    -0.356 N 
ATOM      3  C   UNL A   1      34.259  21.851  25.938  1.00  0.00     0.220 C 
ATOM      4  O   UNL A   1      33.461  21.753  26.871  1.00  0.00    -0.275 OA
ATOM      5  H   UNL A   1      35.764  21.101  27.012  1.00  0.00     0.163 HD
BRANCH   3   6
ATOM      6  C   UNL A   1      33.854  22.565  24.659  1.00  0.00     0.104 C 
BRANCH   6   7
ATOM      7  C   UNL A   1      32.601  23.441  24.842  1.00  0.00     0.009 C 
ATOM      8  N   UNL A   1      31.156  25.923  24.202  1.00  0.00    -0.327 N 
ATOM      9  C   UNL A   1      31.742  25.747  25.528  1.00  0.00     0.262 C 
ATOM     10  C   UNL A   1      30.742  24.649  23.621  1.00  0.00     0.262 C 
ATOM     11  H   UNL A   1      31.889  26.260  23.579  1.00  0.00     0.348 HD
ATOM     12  C   UNL A   1      32.936  24.814  25.419  1.00  0.00     0.066 C 
ATOM     13  C   UNL A   1      31.898  23.652  23.493  1.00  0.00     0.066 C 
BRANCH   8  14
ATOM     14  C   UNL A   1      30.156  27.011  24.149  1.00  0.00     0.363 C 
BRANCH  14  15
ATOM     15  C   UNL A   1      30.483  28.196  23.225  1.00  0.00     0.279 C 
ATOM     16  N   UNL A   1      31.406  29.157  23.536  1.00  0.00    -0.321 N 
ATOM     17  H   UNL A   1      31.567  29.819  22.827  1.00  0.00     0.170 HD
ATOM     18  O   UNL A   1      29.948  28.281  22.113  1.00  0.00    -0.268 OA
BRANCH  16  19
ATOM     19  C   UNL A   1      32.156  29.348  24.702  1.00  0.00     0.044 A 
ATOM     20  C   UNL A   1      34.126  28.047  23.675  1.00  0.00     0.046 C 
ATOM     21  C   UNL A   1      33.435  28.768  24.803  1.00  0.00    -0.027 A 
ATOM     22  C   UNL A   1      34.095  28.806  26.044  1.00  0.00     0.005 A 
ATOM     23  C   UNL A   1      33.514  29.428  27.150  1.00  0.00     0.000 A 
ATOM     24  C   UNL A   1      31.629  30.055  25.789  1.00  0.00     0.026 A 
ATOM     25  C   UNL A   1      32.293  30.077  27.015  1.00  0.00     0.002 A 
ENDBRANCH  16  19
ENDBRANCH  14  15
ENDBRANCH   8  14
ENDBRANCH   6   7
ENDBRANCH   3   6
ENDBRANCH   1   2
BRANCH   1  26
ATOM     26  C   UNL A   1      37.507  22.395  24.886  1.00  0.00     0.042 C 
BRANCH  26  27
ATOM     27  C   UNL A   1      37.830  23.221  26.117  1.00  0.00     0.118 C 
BRANCH  27  28
ATOM     28  N   UNL A   1      39.226  22.985  26.513  1.00  0.00    -0.352 N 
ATOM     29  C   UNL A   1      40.127  23.852  27.093  1.00  0.00     0.251 C 
ATOM     30  H   UNL A   1      39.566  22.077  26.339  1.00  0.00     0.163 HD
ATOM     31  O   UNL A   1      41.275  23.551  27.360  1.00  0.00    -0.269 OA
BRANCH  29  32
ATOM     32  C   UNL A   1      39.602  25.187  27.400  1.00  0.00     0.039 A 
ATOM     33  C   UNL A   1      40.103  26.258  26.653  1.00  0.00     0.014 A 
ATOM     34  C   UNL A   1      38.975  25.359  28.631  1.00  0.00     0.014 A 
ATOM     35  C   UNL A   1      40.126  27.521  27.229  1.00  0.00     0.010 A 
ATOM     36  C   UNL A   1      39.067  26.600  29.226  1.00  0.00     0.010 A 
ATOM     37  C   UNL A   1      39.683  27.665  28.545  1.00  0.00    -0.014 A 
BRANCH  37  38
ATOM     38  C   UNL A   1      39.892  28.878  29.320  1.00  0.00     0.031 A 
ATOM     39  C   UNL A   1      38.849  29.927  29.323  1.00  0.00     0.074 A 
ATOM     40  C   UNL A   1      41.015  29.063  30.051  1.00  0.00     0.049 A 
ATOM     41  N   UNL A   1      39.095  31.178  29.521  1.00  0.00    -0.248 NA
ATOM     42  C   UNL A   1      37.441  29.652  29.049  1.00  0.00     0.031 C 
ATOM     43  C   UNL A   1      41.222  30.078  31.080  1.00  0.00     0.029 A 
ATOM     44  N   UNL A   1      42.273  28.488  29.877  1.00  0.00    -0.354 N 
ATOM     45  C   UNL A   1      37.889  31.813  29.681  1.00  0.00     0.074 A 
ATOM     46  C   UNL A   1      36.887  30.839  29.312  1.00  0.00     0.031 C 
ATOM     47  C   UNL A   1      42.538  30.231  31.287  1.00  0.00     0.029 A 
ATOM     48  C   UNL A   1      43.234  29.418  30.308  1.00  0.00     0.049 A 
ATOM     49  H   UNL A   1      42.455  27.590  29.517  1.00  0.00     0.167 HD
ATOM     50  C   UNL A   1      37.841  33.051  30.244  1.00  0.00     0.037 A 
ATOM     51  C   UNL A   1      44.219  29.877  29.482  1.00  0.00     0.037 A 
ATOM     52  C   UNL A   1      39.167  33.538  30.598  1.00  0.00     0.049 A 
ATOM     53  C   UNL A   1      44.185  31.370  29.254  1.00  0.00     0.074 A 
ATOM     54  C   UNL A   1      39.885  33.508  31.782  1.00  0.00     0.029 A 
ATOM     55  N   UNL A   1      40.075  33.864  29.596  1.00  0.00    -0.354 N 
ATOM     56  N   UNL A   1      43.147  32.118  29.502  1.00  0.00    -0.248 NA
ATOM     57  C   UNL A   1      45.306  32.141  28.723  1.00  0.00     0.031 C 
ATOM     58  C   UNL A   1      41.236  33.802  31.491  1.00  0.00     0.029 A 
ATOM     59  C   UNL A   1      41.342  34.019  30.128  1.00  0.00     0.049 A 
ATOM     60  H   UNL A   1      39.848  33.968  28.644  1.00  0.00     0.167 HD
ATOM     61  C   UNL A   1      43.416  33.422  29.161  1.00  0.00     0.074 A 
ATOM     62  C   UNL A   1      44.792  33.385  28.700  1.00  0.00     0.031 C 
ATOM     63  C   UNL A   1      42.472  34.404  29.294  1.00  0.00     0.037 A 
BRANCH  50  64
ATOM     64  C   UNL A   1      36.547  33.638  30.742  1.00  0.00     0.058 A 
ATOM     65  C   UNL A   1      35.567  34.107  29.844  1.00  0.00     0.135 A 
ATOM     66  C   UNL A   1      36.254  33.819  32.107  1.00  0.00     0.135 A 
ATOM     67  F   UNL A   1      35.692  33.952  28.521  1.00  0.00    -0.206 F 
ATOM     68  C   UNL A   1      34.427  34.789  30.265  1.00  0.00     0.059 A 
ATOM     69  C   UNL A   1      35.143  34.542  32.551  1.00  0.00     0.059 A 
ATOM     70  F   UNL A   1      37.051  33.297  33.054  1.00  0.00    -0.206 F 
ATOM     71  C   UNL A   1      34.238  35.033  31.618  1.00  0.00     0.060 A 
BRANCH  71  72
ATOM     72  S   UNL A   1      32.819  36.025  32.122  1.00  0.00     0.124 S 
ATOM     73  O   UNL A   1      32.511  36.769  30.903  1.00  0.00    -0.237 OA
ATOM     74  O   UNL A   1      31.852  35.000  32.500  1.00  0.00    -0.237 OA
ATOM     75  O   UNL A   1      33.344  36.832  33.219  1.00  0.00    -0.744 OA
ENDBRANCH  71  72
ENDBRANCH  50  64
BRANCH  51  76
ATOM     76  C   UNL A   1      44.702  28.855  28.517  1.00  0.00     0.058 A 
ATOM     77  C   UNL A   1      44.160  28.889  27.219  1.00  0.00     0.135 A 
ATOM     78  C   UNL A   1      45.940  28.221  28.688  1.00  0.00     0.135 A 
ATOM     79  F   UNL A   1      42.970  29.474  27.004  1.00  0.00    -0.206 F 
ATOM     80  C   UNL A   1      44.886  28.464  26.112  1.00  0.00     0.059 A 
ATOM     81  C   UNL A   1      46.687  27.786  27.590  1.00  0.00     0.059 A 
ATOM     82  F   UNL A   1      46.502  28.154  29.904  1.00  0.00    -0.206 F 
ATOM     83  C   UNL A   1      46.175  27.971  26.304  1.00  0.00     0.060 A 
BRANCH  83  84
ATOM     84  S   UNL A   1      47.226  27.778  24.843  1.00  0.00     0.124 S 
ATOM     85  O   UNL A   1      48.534  28.166  25.358  1.00  0.00    -0.237 OA
ATOM     86  O   UNL A   1      47.072  26.355  24.541  1.00  0.00    -0.237 OA
ATOM     87  O   UNL A   1      46.625  28.687  23.876  1.00  0.00    -0.744 OA
ENDBRANCH  83  84
ENDBRANCH  51  76
BRANCH  63  88
ATOM     88  C   UNL A   1      42.529  35.833  28.782  1.00  0.00     0.058 A 
ATOM     89  C   UNL A   1      41.803  36.324  27.685  1.00  0.00     0.135 A 
ATOM     90  C   UNL A   1      43.258  36.820  29.502  1.00  0.00     0.135 A 
ATOM     91  F   UNL A   1      40.984  35.537  26.976  1.00  0.00    -0.206 F 
ATOM     92  C   UNL A   1      41.842  37.668  27.294  1.00  0.00     0.059 A 
ATOM     93  C   UNL A   1      43.264  38.172  29.166  1.00  0.00     0.059 A 
ATOM     94  F   UNL A   1      43.987  36.511  30.584  1.00  0.00    -0.206 F 
ATOM     95  C   UNL A   1      42.573  38.586  28.042  1.00  0.00     0.060 A 
BRANCH  95  96
ATOM     96  S   UNL A   1      42.565  40.330  27.589  1.00  0.00     0.124 S 
ATOM     97  O   UNL A   1      43.486  40.341  26.457  1.00  0.00    -0.237 OA
ATOM     98  O   UNL A   1      41.162  40.573  27.263  1.00  0.00    -0.237 OA
ATOM     99  O   UNL A   1      43.041  40.992  28.799  1.00  0.00    -0.744 OA
ENDBRANCH  95  96
ENDBRANCH  63  88
ENDBRANCH  37  38
ENDBRANCH  29  32
ENDBRANCH  27  28
ENDBRANCH  26  27
ENDBRANCH   1  26
TORSDOF 17
ENDMDL
MODEL 3
REMARK VINA RESULT:     -12.8      4.602     11.373
REMARK SMILES Cc1ccccc1NC(=O)C[NH+]1CCC(CC(=O)NCCCNC(=O)c2ccc(-c3c4nc(c(-c5c(F)cc(S(=O)(=O)[O-])cc5F)c5ccc([nH]5)c(-c5c(F)cc(S(=O)(=O)[O-])cc5F)c5nc(c(-c6c(F)cc(S(=O)(=O)[O-])cc6F)c6ccc3[nH]6)C=C5)C=C4)cc2)CC1
REMARK SMILES IDX 20 1 19 2 17 3 18 4 16 6 15 7 12 8 13 9 93 10 14 12 92 13
REMARK SMILES IDX 11 14 9 15 8 16 10 18 7 19 1 20 2 21 3 22 4 23 6 24 5 25
REMARK SMILES IDX 21 26 22 27 23 28 24 29 25 31 26 32 27 33 91 34 28 35 90 36
REMARK SMILES IDX 29 37 30 38 31 39 84 40 32 41 89 42 83 43 85 44 33 45 88 46
REMARK SMILES IDX 82 47 81 48 34 50 68 51 47 52 67 53 48 54 51 55 66 56 86 57
REMARK SMILES IDX 49 58 50 59 65 61 87 62 52 63 35 64 36 65 45 66 37 67 38 68
REMARK SMILES IDX 44 69 46 70 39 71 40 72 41 73 42 74 43 75 69 76 70 77 79 78
REMARK SMILES IDX 71 79 72 80 78 81 80 82 73 83 74 84 75 85 76 86 77 87 53 88
REMARK SMILES IDX 54 89 63 90 55 91 56 92 62 93 64 94 57 95 58 96 59 97 60 98
REMARK SMILES IDX 61 99
REMARK H PARENT 19 5 12 11 8 17 23 30 85 49 51 60
REMARK Flexibility Score: inf
ROOT
ATOM      1  C   UNL A   1      36.519  21.151  25.382  1.00  0.00     0.117 C 
ENDROOT
BRANCH   1   2
ATOM      2  N   UNL A   1      35.659  21.482  26.514  1.00  0.00    -0.356 N 
ATOM      3  C   UNL A   1      34.336  21.831  26.543  1.00  0.00     0.220 C 
ATOM      4  O   UNL A   1      33.755  21.897  27.627  1.00  0.00    -0.275 OA
ATOM      5  H   UNL A   1      36.099  21.447  27.394  1.00  0.00     0.163 HD
BRANCH   3   6
ATOM      6  C   UNL A   1      33.607  22.205  25.263  1.00  0.00     0.104 C 
BRANCH   6   7
ATOM      7  C   UNL A   1      33.300  23.711  25.176  1.00  0.00     0.009 C 
ATOM      8  N   UNL A   1      33.030  26.304  26.541  1.00  0.00    -0.327 N 
ATOM      9  C   UNL A   1      31.837  25.605  26.071  1.00  0.00     0.262 C 
ATOM     10  C   UNL A   1      34.189  26.023  25.697  1.00  0.00     0.262 C 
ATOM     11  H   UNL A   1      33.279  25.918  27.451  1.00  0.00     0.348 HD
ATOM     12  C   UNL A   1      32.116  24.112  26.053  1.00  0.00     0.066 C 
ATOM     13  C   UNL A   1      34.520  24.530  25.623  1.00  0.00     0.066 C 
BRANCH   8  14
ATOM     14  C   UNL A   1      32.786  27.730  26.845  1.00  0.00     0.363 C 
BRANCH  14  15
ATOM     15  C   UNL A   1      33.622  28.751  26.056  1.00  0.00     0.279 C 
ATOM     16  N   UNL A   1      33.189  29.343  24.901  1.00  0.00    -0.321 N 
ATOM     17  H   UNL A   1      33.794  30.028  24.537  1.00  0.00     0.170 HD
ATOM     18  O   UNL A   1      34.719  29.123  26.492  1.00  0.00    -0.268 OA
BRANCH  16  19
ATOM     19  C   UNL A   1      32.023  29.130  24.157  1.00  0.00     0.044 A 
ATOM     20  C   UNL A   1      33.227  27.350  22.738  1.00  0.00     0.046 C 
ATOM     21  C   UNL A   1      32.048  28.224  23.080  1.00  0.00    -0.027 A 
ATOM     22  C   UNL A   1      30.931  28.162  22.227  1.00  0.00     0.005 A 
ATOM     23  C   UNL A   1      29.807  28.958  22.454  1.00  0.00     0.000 A 
ATOM     24  C   UNL A   1      30.853  29.848  24.432  1.00  0.00     0.026 A 
ATOM     25  C   UNL A   1      29.758  29.780  23.572  1.00  0.00     0.002 A 
ENDBRANCH  16  19
ENDBRANCH  14  15
ENDBRANCH   8  14
ENDBRANCH   6   7
ENDBRANCH   3   6
ENDBRANCH   1   2
BRANCH   1  26
ATOM     26  C   UNL A   1      37.553  22.211  24.999  1.00  0.00     0.042 C 
BRANCH  26  27
ATOM     27  C   UNL A   1      37.867  23.248  26.062  1.00  0.00     0.118 C 
BRANCH  27  28
ATOM     28  N   UNL A   1      39.145  22.915  26.709  1.00  0.00    -0.352 N 
ATOM     29  C   UNL A   1      39.979  23.719  27.457  1.00  0.00     0.251 C 
ATOM     30  H   UNL A   1      39.449  21.986  26.591  1.00  0.00     0.163 HD
ATOM     31  O   UNL A   1      41.034  23.339  27.930  1.00  0.00    -0.269 OA
BRANCH  29  32
ATOM     32  C   UNL A   1      39.498  25.087  27.676  1.00  0.00     0.039 A 
ATOM     33  C   UNL A   1      40.114  26.106  26.942  1.00  0.00     0.014 A 
ATOM     34  C   UNL A   1      38.780  25.333  28.843  1.00  0.00     0.014 A 
ATOM     35  C   UNL A   1      40.152  27.386  27.478  1.00  0.00     0.010 A 
ATOM     36  C   UNL A   1      38.884  26.588  29.405  1.00  0.00     0.010 A 
ATOM     37  C   UNL A   1      39.608  27.598  28.746  1.00  0.00    -0.014 A 
BRANCH  37  38
ATOM     38  C   UNL A   1      39.813  28.825  29.499  1.00  0.00     0.031 A 
ATOM     39  C   UNL A   1      38.778  29.881  29.461  1.00  0.00     0.074 A 
ATOM     40  C   UNL A   1      40.925  29.019  30.244  1.00  0.00     0.049 A 
ATOM     41  N   UNL A   1      39.029  31.135  29.637  1.00  0.00    -0.248 NA
ATOM     42  C   UNL A   1      37.372  29.609  29.170  1.00  0.00     0.031 C 
ATOM     43  C   UNL A   1      41.122  30.055  31.254  1.00  0.00     0.029 A 
ATOM     44  N   UNL A   1      42.182  28.432  30.104  1.00  0.00    -0.354 N 
ATOM     45  C   UNL A   1      37.825  31.781  29.762  1.00  0.00     0.074 A 
ATOM     46  C   UNL A   1      36.823  30.806  29.397  1.00  0.00     0.031 C 
ATOM     47  C   UNL A   1      42.435  30.203  31.481  1.00  0.00     0.029 A 
ATOM     48  C   UNL A   1      43.142  29.365  30.530  1.00  0.00     0.049 A 
ATOM     49  H   UNL A   1      42.363  27.526  29.767  1.00  0.00     0.167 HD
ATOM     50  C   UNL A   1      37.776  33.031  30.297  1.00  0.00     0.037 A 
ATOM     51  C   UNL A   1      44.144  29.799  29.712  1.00  0.00     0.037 A 
ATOM     52  C   UNL A   1      39.099  33.517  30.663  1.00  0.00     0.049 A 
ATOM     53  C   UNL A   1      44.124  31.287  29.451  1.00  0.00     0.074 A 
ATOM     54  C   UNL A   1      39.797  33.508  31.860  1.00  0.00     0.029 A 
ATOM     55  N   UNL A   1      40.027  33.815  29.670  1.00  0.00    -0.354 N 
ATOM     56  N   UNL A   1      43.087  32.048  29.666  1.00  0.00    -0.248 NA
ATOM     57  C   UNL A   1      45.259  32.040  28.922  1.00  0.00     0.031 C 
ATOM     58  C   UNL A   1      41.155  33.787  31.585  1.00  0.00     0.029 A 
ATOM     59  C   UNL A   1      41.285  33.974  30.219  1.00  0.00     0.049 A 
ATOM     60  H   UNL A   1      39.816  33.900  28.712  1.00  0.00     0.167 HD
ATOM     61  C   UNL A   1      43.371  33.342  29.300  1.00  0.00     0.074 A 
ATOM     62  C   UNL A   1      44.754  33.286  28.864  1.00  0.00     0.031 C 
ATOM     63  C   UNL A   1      42.431  34.332  29.396  1.00  0.00     0.037 A 
BRANCH  50  64
ATOM     64  C   UNL A   1      36.478  33.638  30.760  1.00  0.00     0.058 A 
ATOM     65  C   UNL A   1      35.530  34.122  29.837  1.00  0.00     0.135 A 
ATOM     66  C   UNL A   1      36.150  33.822  32.118  1.00  0.00     0.135 A 
ATOM     67  F   UNL A   1      35.689  33.965  28.517  1.00  0.00    -0.206 F 
ATOM     68  C   UNL A   1      34.389  34.821  30.227  1.00  0.00     0.059 A 
ATOM     69  C   UNL A   1      35.039  34.562  32.532  1.00  0.00     0.059 A 
ATOM     70  F   UNL A   1      36.913  33.287  33.085  1.00  0.00    -0.206 F 
ATOM     71  C   UNL A   1      34.167  35.067  31.574  1.00  0.00     0.060 A 
BRANCH  71  72
ATOM     72  S   UNL A   1      32.751  36.080  32.041  1.00  0.00     0.124 S 
ATOM     73  O   UNL A   1      32.432  36.763  30.790  1.00  0.00    -0.237 OA
ATOM     74  O   UNL A   1      31.789  35.073  32.475  1.00  0.00    -0.237 OA
ATOM     75  O   UNL A   1      33.282  36.940  33.093  1.00  0.00    -0.744 OA
ENDBRANCH  71  72
ENDBRANCH  50  64
BRANCH  51  76
ATOM     76  C   UNL A   1      44.636  28.753  28.777  1.00  0.00     0.058 A 
ATOM     77  C   UNL A   1      45.562  27.822  29.283  1.00  0.00     0.135 A 
ATOM     78  C   UNL A   1      43.898  28.388  27.643  1.00  0.00     0.135 A 
ATOM     79  F   UNL A   1      46.302  28.129  30.360  1.00  0.00    -0.206 F 
ATOM     80  C   UNL A   1      45.635  26.524  28.791  1.00  0.00     0.059 A 
ATOM     81  C   UNL A   1      43.956  27.088  27.132  1.00  0.00     0.059 A 
ATOM     82  F   UNL A   1      43.005  29.238  27.116  1.00  0.00    -0.206 F 
ATOM     83  C   UNL A   1      44.782  26.149  27.754  1.00  0.00     0.060 A 
BRANCH  83  84
ATOM     84  S   UNL A   1      44.630  24.384  27.387  1.00  0.00     0.124 S 
ATOM     85  O   UNL A   1      44.212  23.842  28.675  1.00  0.00    -0.237 OA
ATOM     86  O   UNL A   1      43.606  24.376  26.343  1.00  0.00    -0.237 OA
ATOM     87  O   UNL A   1      45.970  24.018  26.945  1.00  0.00    -0.744 OA
ENDBRANCH  83  84
ENDBRANCH  51  76
BRANCH  63  88
ATOM     88  C   UNL A   1      42.507  35.750  28.855  1.00  0.00     0.058 A 
ATOM     89  C   UNL A   1      41.846  36.207  27.703  1.00  0.00     0.135 A 
ATOM     90  C   UNL A   1      43.181  36.761  29.594  1.00  0.00     0.135 A 
ATOM     91  F   UNL A   1      41.079  35.396  26.965  1.00  0.00    -0.206 F 
ATOM     92  C   UNL A   1      41.897  37.542  27.284  1.00  0.00     0.059 A 
ATOM     93  C   UNL A   1      43.195  38.105  29.227  1.00  0.00     0.059 A 
ATOM     94  F   UNL A   1      43.845  36.485  30.726  1.00  0.00    -0.206 F 
ATOM     95  C   UNL A   1      42.571  38.485  28.052  1.00  0.00     0.060 A 
BRANCH  95  96
ATOM     96  S   UNL A   1      42.576  40.217  27.559  1.00  0.00     0.124 S 
ATOM     97  O   UNL A   1      42.603  40.106  26.103  1.00  0.00    -0.237 OA
ATOM     98  O   UNL A   1      41.329  40.719  28.129  1.00  0.00    -0.237 OA
ATOM     99  O   UNL A   1      43.791  40.738  28.176  1.00  0.00    -0.744 OA
ENDBRANCH  95  96
ENDBRANCH  63  88
ENDBRANCH  37  38
ENDBRANCH  29  32
ENDBRANCH  27  28
ENDBRANCH  26  27
ENDBRANCH   1  26
TORSDOF 17
ENDMDL
