MODEL 1
REMARK VINA RESULT:     -11.0      0.000      0.000
REMARK SMILES C[C@H]([NH2+]CC(C)(C)C(=O)NCCCNC(=O)c1ccc(-c2c3nc(c(-c4c(F)cc(S(=O)(=O)[O-])cc4F)c4ccc([nH]4)c(-c4c(F)cc(S(=O)(=O)[O-])cc4F)c4nc(c(-c5c(F)cc(S(=O)(=O)[O-])cc5F)c5ccc2[nH]5)C=C4)C=C3)cc1)c1nccs1
REMARK SMILES IDX 11 1 10 2 8 3 9 4 5 6 6 7 7 8 4 9 3 10 2 13 1 14 83 15 84 16
REMARK SMILES IDX 87 17 85 18 86 19 12 20 13 21 14 22 15 23 16 25 17 26 18 27
REMARK SMILES IDX 82 28 19 29 81 30 20 31 21 32 22 33 75 34 23 35 80 36 74 37
REMARK SMILES IDX 76 38 24 39 79 40 73 41 72 42 25 44 59 45 38 46 58 47 39 48
REMARK SMILES IDX 42 49 57 50 77 51 40 52 41 53 56 55 78 56 43 57 26 58 27 59
REMARK SMILES IDX 36 60 28 61 29 62 35 63 37 64 30 65 31 66 32 67 33 68 34 69
REMARK SMILES IDX 60 70 61 71 70 72 62 73 63 74 69 75 71 76 64 77 65 78 66 79
REMARK SMILES IDX 67 80 68 81 44 82 45 83 54 84 46 85 47 86 53 87 55 88 48 89
REMARK SMILES IDX 49 90 50 91 51 92 52 93
REMARK H PARENT 10 5 3 11 3 12 14 24 76 43 42 54
REMARK Flexibility Score: inf
ROOT
ATOM      1  C   UNL A   1      39.349  22.246  26.235  1.00  0.00     0.117 C 
ENDROOT
BRANCH   1   2
ATOM      2  N   UNL A   1      38.760  21.109  25.553  1.00  0.00    -0.355 N 
ATOM      3  C   UNL A   1      37.534  20.896  25.003  1.00  0.00     0.231 C 
ATOM      4  O   UNL A   1      37.295  19.726  24.689  1.00  0.00    -0.274 OA
ATOM      5  H   UNL A   1      39.369  20.338  25.471  1.00  0.00     0.163 HD
BRANCH   3   6
ATOM      6  C   UNL A   1      36.500  22.028  24.829  1.00  0.00     0.092 C 
ATOM      7  C   UNL A   1      36.889  23.002  23.700  1.00  0.00     0.027 C 
ATOM      8  C   UNL A   1      36.331  22.776  26.166  1.00  0.00     0.027 C 
BRANCH   6   9
ATOM      9  C   UNL A   1      35.102  21.406  24.498  1.00  0.00     0.277 C 
BRANCH   9  10
ATOM     10  N   UNL A   1      34.652  20.386  25.446  1.00  0.00    -0.337 N 
ATOM     11  H   UNL A   1      35.232  19.558  25.311  1.00  0.00     0.346 HD
ATOM     12  H   UNL A   1      34.740  20.812  26.369  1.00  0.00     0.346 HD
BRANCH  10  13
ATOM     13  C   UNL A   1      33.240  19.974  25.331  1.00  0.00     0.239 C 
ATOM     14  C   UNL A   1      32.477  20.608  24.159  1.00  0.00     0.083 C 
BRANCH  13  15
ATOM     15  C   UNL A   1      33.203  18.458  25.170  1.00  0.00     0.150 A 
ATOM     16  N   UNL A   1      32.290  17.684  25.736  1.00  0.00    -0.243 NA
ATOM     17  S   UNL A   1      34.399  17.631  24.250  1.00  0.00    -0.121 S 
ATOM     18  C   UNL A   1      32.528  16.367  25.408  1.00  0.00     0.123 A 
ATOM     19  C   UNL A   1      33.641  16.141  24.629  1.00  0.00     0.087 A 
ENDBRANCH  13  15
ENDBRANCH  10  13
ENDBRANCH   9  10
ENDBRANCH   6   9
ENDBRANCH   3   6
ENDBRANCH   1   2
BRANCH   1  20
ATOM     20  C   UNL A   1      40.367  21.809  27.279  1.00  0.00     0.042 C 
BRANCH  20  21
ATOM     21  C   UNL A   1      41.394  22.882  27.614  1.00  0.00     0.118 C 
BRANCH  21  22
ATOM     22  N   UNL A   1      41.881  23.573  26.426  1.00  0.00    -0.352 N 
ATOM     23  C   UNL A   1      41.896  24.911  26.130  1.00  0.00     0.251 C 
ATOM     24  H   UNL A   1      42.258  22.988  25.730  1.00  0.00     0.163 HD
ATOM     25  O   UNL A   1      42.133  25.276  24.978  1.00  0.00    -0.269 OA
BRANCH  23  26
ATOM     26  C   UNL A   1      41.613  25.910  27.181  1.00  0.00     0.039 A 
ATOM     27  C   UNL A   1      40.547  25.696  28.057  1.00  0.00     0.014 A 
ATOM     28  C   UNL A   1      42.394  27.063  27.296  1.00  0.00     0.014 A 
ATOM     29  C   UNL A   1      40.308  26.606  29.089  1.00  0.00     0.010 A 
ATOM     30  C   UNL A   1      42.218  27.913  28.382  1.00  0.00     0.010 A 
ATOM     31  C   UNL A   1      41.166  27.701  29.284  1.00  0.00    -0.014 A 
BRANCH  31  32
ATOM     32  C   UNL A   1      40.980  28.642  30.417  1.00  0.00     0.031 A 
ATOM     33  C   UNL A   1      41.818  28.503  31.659  1.00  0.00     0.074 A 
ATOM     34  C   UNL A   1      40.006  29.570  30.357  1.00  0.00     0.049 A 
ATOM     35  N   UNL A   1      41.755  29.177  32.778  1.00  0.00    -0.248 NA
ATOM     36  C   UNL A   1      42.843  27.446  31.655  1.00  0.00     0.031 C 
ATOM     37  C   UNL A   1      39.090  29.764  29.229  1.00  0.00     0.029 A 
ATOM     38  N   UNL A   1      39.612  30.519  31.267  1.00  0.00    -0.354 N 
ATOM     39  C   UNL A   1      42.714  28.615  33.614  1.00  0.00     0.074 A 
ATOM     40  C   UNL A   1      43.301  27.507  32.896  1.00  0.00     0.031 C 
ATOM     41  C   UNL A   1      38.261  30.782  29.505  1.00  0.00     0.029 A 
ATOM     42  C   UNL A   1      38.554  31.287  30.843  1.00  0.00     0.049 A 
ATOM     43  H   UNL A   1      40.048  30.638  32.143  1.00  0.00     0.167 HD
ATOM     44  C   UNL A   1      43.086  29.003  34.857  1.00  0.00     0.037 A 
ATOM     45  C   UNL A   1      37.888  32.279  31.464  1.00  0.00     0.037 A 
ATOM     46  C   UNL A   1      42.508  30.123  35.554  1.00  0.00     0.049 A 
ATOM     47  C   UNL A   1      38.321  32.697  32.843  1.00  0.00     0.074 A 
ATOM     48  C   UNL A   1      42.857  30.641  36.788  1.00  0.00     0.029 A 
ATOM     49  N   UNL A   1      41.454  30.893  35.080  1.00  0.00    -0.354 N 
ATOM     50  N   UNL A   1      39.278  32.203  33.591  1.00  0.00    -0.248 NA
ATOM     51  C   UNL A   1      37.589  33.812  33.459  1.00  0.00     0.031 C 
ATOM     52  C   UNL A   1      41.980  31.689  37.086  1.00  0.00     0.029 A 
ATOM     53  C   UNL A   1      41.123  31.865  36.010  1.00  0.00     0.049 A 
ATOM     54  H   UNL A   1      41.008  30.766  34.213  1.00  0.00     0.167 HD
ATOM     55  C   UNL A   1      39.283  32.963  34.756  1.00  0.00     0.074 A 
ATOM     56  C   UNL A   1      38.239  33.957  34.607  1.00  0.00     0.031 C 
ATOM     57  C   UNL A   1      40.081  32.850  35.847  1.00  0.00     0.037 A 
BRANCH  44  58
ATOM     58  C   UNL A   1      44.166  28.207  35.540  1.00  0.00     0.058 A 
ATOM     59  C   UNL A   1      43.868  27.144  36.409  1.00  0.00     0.135 A 
ATOM     60  C   UNL A   1      45.521  28.500  35.312  1.00  0.00     0.135 A 
ATOM     61  F   UNL A   1      42.591  26.826  36.676  1.00  0.00    -0.206 F 
ATOM     62  C   UNL A   1      44.870  26.432  37.061  1.00  0.00     0.059 A 
ATOM     63  C   UNL A   1      46.541  27.780  35.927  1.00  0.00     0.059 A 
ATOM     64  F   UNL A   1      45.867  29.504  34.489  1.00  0.00    -0.206 F 
ATOM     65  C   UNL A   1      46.203  26.759  36.816  1.00  0.00     0.060 A 
BRANCH  65  66
ATOM     66  S   UNL A   1      47.491  25.835  37.679  1.00  0.00     0.124 S 
ATOM     67  O   UNL A   1      47.673  24.691  36.791  1.00  0.00    -0.237 OA
ATOM     68  O   UNL A   1      48.593  26.792  37.712  1.00  0.00    -0.237 OA
ATOM     69  O   UNL A   1      46.887  25.534  38.973  1.00  0.00    -0.744 OA
ENDBRANCH  65  66
ENDBRANCH  44  58
BRANCH  45  70
ATOM     70  C   UNL A   1      36.762  32.958  30.768  1.00  0.00     0.058 A 
ATOM     71  C   UNL A   1      35.432  32.715  31.139  1.00  0.00     0.135 A 
ATOM     72  C   UNL A   1      36.995  33.895  29.749  1.00  0.00     0.135 A 
ATOM     73  F   UNL A   1      35.157  31.823  32.103  1.00  0.00    -0.206 F 
ATOM     74  C   UNL A   1      34.372  33.370  30.522  1.00  0.00     0.059 A 
ATOM     75  C   UNL A   1      35.953  34.583  29.135  1.00  0.00     0.059 A 
ATOM     76  F   UNL A   1      38.251  34.178  29.369  1.00  0.00    -0.206 F 
ATOM     77  C   UNL A   1      34.643  34.310  29.526  1.00  0.00     0.060 A 
BRANCH  77  78
ATOM     78  S   UNL A   1      33.263  35.207  28.785  1.00  0.00     0.124 S 
ATOM     79  O   UNL A   1      32.533  35.654  29.965  1.00  0.00    -0.237 OA
ATOM     80  O   UNL A   1      33.948  36.249  28.025  1.00  0.00    -0.237 OA
ATOM     81  O   UNL A   1      32.596  34.189  27.977  1.00  0.00    -0.744 OA
ENDBRANCH  77  78
ENDBRANCH  45  70
BRANCH  57  82
ATOM     82  C   UNL A   1      39.883  33.845  36.957  1.00  0.00     0.058 A 
ATOM     83  C   UNL A   1      40.549  35.080  36.974  1.00  0.00     0.135 A 
ATOM     84  C   UNL A   1      38.969  33.580  37.991  1.00  0.00     0.135 A 
ATOM     85  F   UNL A   1      41.439  35.381  36.015  1.00  0.00    -0.206 F 
ATOM     86  C   UNL A   1      40.333  36.008  37.987  1.00  0.00     0.059 A 
ATOM     87  C   UNL A   1      38.714  34.506  38.997  1.00  0.00     0.059 A 
ATOM     88  F   UNL A   1      38.296  32.418  38.018  1.00  0.00    -0.206 F 
ATOM     89  C   UNL A   1      39.410  35.714  38.993  1.00  0.00     0.060 A 
BRANCH  89  90
ATOM     90  S   UNL A   1      39.113  36.942  40.281  1.00  0.00     0.124 S 
ATOM     91  O   UNL A   1      38.525  38.036  39.514  1.00  0.00    -0.237 OA
ATOM     92  O   UNL A   1      38.203  36.239  41.180  1.00  0.00    -0.237 OA
ATOM     93  O   UNL A   1      40.445  37.198  40.820  1.00  0.00    -0.744 OA
ENDBRANCH  89  90
ENDBRANCH  57  82
ENDBRANCH  31  32
ENDBRANCH  23  26
ENDBRANCH  21  22
ENDBRANCH  20  21
ENDBRANCH   1  20
TORSDOF 17
ENDMDL
MODEL 2
REMARK VINA RESULT:     -10.8      5.453     12.713
REMARK SMILES C[C@H]([NH2+]CC(C)(C)C(=O)NCCCNC(=O)c1ccc(-c2c3nc(c(-c4c(F)cc(S(=O)(=O)[O-])cc4F)c4ccc([nH]4)c(-c4c(F)cc(S(=O)(=O)[O-])cc4F)c4nc(c(-c5c(F)cc(S(=O)(=O)[O-])cc5F)c5ccc2[nH]5)C=C4)C=C3)cc1)c1nccs1
REMARK SMILES IDX 11 1 10 2 8 3 9 4 5 6 6 7 7 8 4 9 3 10 2 13 1 14 83 15 84 16
REMARK SMILES IDX 87 17 85 18 86 19 12 20 13 21 14 22 15 23 16 25 17 26 18 27
REMARK SMILES IDX 82 28 19 29 81 30 20 31 21 32 22 33 75 34 23 35 80 36 74 37
REMARK SMILES IDX 76 38 24 39 79 40 73 41 72 42 25 44 59 45 38 46 58 47 39 48
REMARK SMILES IDX 42 49 57 50 77 51 40 52 41 53 56 55 78 56 43 57 26 58 27 59
REMARK SMILES IDX 36 60 28 61 29 62 35 63 37 64 30 65 31 66 32 67 33 68 34 69
REMARK SMILES IDX 60 70 61 71 70 72 62 73 63 74 69 75 71 76 64 77 65 78 66 79
REMARK SMILES IDX 67 80 68 81 44 82 45 83 54 84 46 85 47 86 53 87 55 88 48 89
REMARK SMILES IDX 49 90 50 91 51 92 52 93
REMARK H PARENT 10 5 3 11 3 12 14 24 76 43 42 54
REMARK Flexibility Score: inf
ROOT
ATOM      1  C   UNL A   1      33.108  34.387  29.324  1.00  0.00     0.117 C 
ENDROOT
BRANCH   1   2
ATOM      2  N   UNL A   1      33.297  35.824  29.277  1.00  0.00    -0.355 N 
ATOM      3  C   UNL A   1      33.308  36.785  30.240  1.00  0.00     0.231 C 
ATOM      4  O   UNL A   1      33.285  37.948  29.823  1.00  0.00    -0.274 OA
ATOM      5  H   UNL A   1      33.450  36.174  28.369  1.00  0.00     0.163 HD
BRANCH   3   6
ATOM      6  C   UNL A   1      33.301  36.446  31.745  1.00  0.00     0.092 C 
ATOM      7  C   UNL A   1      31.904  36.026  32.240  1.00  0.00     0.027 C 
ATOM      8  C   UNL A   1      33.828  37.654  32.544  1.00  0.00     0.027 C 
BRANCH   6   9
ATOM      9  C   UNL A   1      34.304  35.275  32.016  1.00  0.00     0.277 C 
BRANCH   9  10
ATOM     10  N   UNL A   1      33.924  34.393  33.121  1.00  0.00    -0.337 N 
ATOM     11  H   UNL A   1      34.212  34.841  33.990  1.00  0.00     0.346 HD
ATOM     12  H   UNL A   1      32.916  34.262  33.032  1.00  0.00     0.346 HD
BRANCH  10  13
ATOM     13  C   UNL A   1      34.505  33.037  33.096  1.00  0.00     0.239 C 
ATOM     14  C   UNL A   1      34.866  32.517  31.698  1.00  0.00     0.083 C 
BRANCH  13  15
ATOM     15  C   UNL A   1      35.768  33.050  33.950  1.00  0.00     0.150 A 
ATOM     16  N   UNL A   1      35.887  33.744  35.070  1.00  0.00    -0.243 NA
ATOM     17  S   UNL A   1      37.169  32.168  33.480  1.00  0.00    -0.121 S 
ATOM     18  C   UNL A   1      37.143  33.555  35.605  1.00  0.00     0.123 A 
ATOM     19  C   UNL A   1      37.986  32.750  34.870  1.00  0.00     0.087 A 
ENDBRANCH  13  15
ENDBRANCH  10  13
ENDBRANCH   9  10
ENDBRANCH   6   9
ENDBRANCH   3   6
ENDBRANCH   1   2
BRANCH   1  20
ATOM     20  C   UNL A   1      33.443  33.732  27.990  1.00  0.00     0.042 C 
BRANCH  20  21
ATOM     21  C   UNL A   1      34.446  32.593  28.107  1.00  0.00     0.118 C 
BRANCH  21  22
ATOM     22  N   UNL A   1      33.818  31.285  27.962  1.00  0.00    -0.352 N 
ATOM     23  C   UNL A   1      34.386  30.040  27.885  1.00  0.00     0.251 C 
ATOM     24  H   UNL A   1      32.835  31.298  27.912  1.00  0.00     0.163 HD
ATOM     25  O   UNL A   1      33.700  29.081  27.528  1.00  0.00    -0.269 OA
BRANCH  23  26
ATOM     26  C   UNL A   1      35.813  29.850  28.212  1.00  0.00     0.039 A 
ATOM     27  C   UNL A   1      36.172  29.462  29.504  1.00  0.00     0.014 A 
ATOM     28  C   UNL A   1      36.800  30.065  27.246  1.00  0.00     0.014 A 
ATOM     29  C   UNL A   1      37.515  29.226  29.807  1.00  0.00     0.010 A 
ATOM     30  C   UNL A   1      38.122  29.733  27.520  1.00  0.00     0.010 A 
ATOM     31  C   UNL A   1      38.496  29.320  28.806  1.00  0.00    -0.014 A 
BRANCH  31  32
ATOM     32  C   UNL A   1      39.920  29.001  29.082  1.00  0.00     0.031 A 
ATOM     33  C   UNL A   1      40.828  30.047  29.669  1.00  0.00     0.074 A 
ATOM     34  C   UNL A   1      40.410  27.795  28.733  1.00  0.00     0.049 A 
ATOM     35  N   UNL A   1      42.111  29.984  29.913  1.00  0.00    -0.248 NA
ATOM     36  C   UNL A   1      40.219  31.347  29.997  1.00  0.00     0.031 C 
ATOM     37  C   UNL A   1      39.641  26.719  28.103  1.00  0.00     0.029 A 
ATOM     38  N   UNL A   1      41.674  27.274  28.847  1.00  0.00    -0.354 N 
ATOM     39  C   UNL A   1      42.466  31.237  30.403  1.00  0.00     0.074 A 
ATOM     40  C   UNL A   1      41.276  32.056  30.364  1.00  0.00     0.031 C 
ATOM     41  C   UNL A   1      40.442  25.660  27.910  1.00  0.00     0.029 A 
ATOM     42  C   UNL A   1      41.789  25.994  28.360  1.00  0.00     0.049 A 
ATOM     43  H   UNL A   1      42.428  27.771  29.241  1.00  0.00     0.167 HD
ATOM     44  C   UNL A   1      43.667  31.656  30.865  1.00  0.00     0.037 A 
ATOM     45  C   UNL A   1      42.862  25.182  28.276  1.00  0.00     0.037 A 
ATOM     46  C   UNL A   1      44.841  30.823  30.920  1.00  0.00     0.049 A 
ATOM     47  C   UNL A   1      44.187  25.667  28.799  1.00  0.00     0.074 A 
ATOM     48  C   UNL A   1      46.090  31.128  31.429  1.00  0.00     0.029 A 
ATOM     49  N   UNL A   1      44.912  29.522  30.439  1.00  0.00    -0.354 N 
ATOM     50  N   UNL A   1      44.488  26.829  29.326  1.00  0.00    -0.248 NA
ATOM     51  C   UNL A   1      45.314  24.728  28.723  1.00  0.00     0.031 C 
ATOM     52  C   UNL A   1      46.931  30.033  31.209  1.00  0.00     0.029 A 
ATOM     53  C   UNL A   1      46.191  29.021  30.617  1.00  0.00     0.049 A 
ATOM     54  H   UNL A   1      44.164  29.029  30.032  1.00  0.00     0.167 HD
ATOM     55  C   UNL A   1      45.834  26.754  29.671  1.00  0.00     0.074 A 
ATOM     56  C   UNL A   1      46.283  25.426  29.301  1.00  0.00     0.031 C 
ATOM     57  C   UNL A   1      46.624  27.696  30.244  1.00  0.00     0.037 A 
BRANCH  44  58
ATOM     58  C   UNL A   1      43.770  33.080  31.344  1.00  0.00     0.058 A 
ATOM     59  C   UNL A   1      44.254  34.108  30.518  1.00  0.00     0.135 A 
ATOM     60  C   UNL A   1      43.365  33.426  32.644  1.00  0.00     0.135 A 
ATOM     61  F   UNL A   1      44.668  33.835  29.270  1.00  0.00    -0.206 F 
ATOM     62  C   UNL A   1      44.375  35.416  30.977  1.00  0.00     0.059 A 
ATOM     63  C   UNL A   1      43.446  34.734  33.114  1.00  0.00     0.059 A 
ATOM     64  F   UNL A   1      42.893  32.486  33.478  1.00  0.00    -0.206 F 
ATOM     65  C   UNL A   1      43.972  35.719  32.277  1.00  0.00     0.060 A 
BRANCH  65  66
ATOM     66  S   UNL A   1      44.147  37.417  32.861  1.00  0.00     0.124 S 
ATOM     67  O   UNL A   1      45.576  37.477  33.157  1.00  0.00    -0.237 OA
ATOM     68  O   UNL A   1      43.707  38.191  31.704  1.00  0.00    -0.237 OA
ATOM     69  O   UNL A   1      43.264  37.473  34.021  1.00  0.00    -0.744 OA
ENDBRANCH  65  66
ENDBRANCH  44  58
BRANCH  45  70
ATOM     70  C   UNL A   1      42.710  23.820  27.698  1.00  0.00     0.058 A 
ATOM     71  C   UNL A   1      42.820  23.606  26.317  1.00  0.00     0.135 A 
ATOM     72  C   UNL A   1      42.497  22.700  28.518  1.00  0.00     0.135 A 
ATOM     73  F   UNL A   1      43.017  24.645  25.490  1.00  0.00    -0.206 F 
ATOM     74  C   UNL A   1      42.718  22.333  25.766  1.00  0.00     0.059 A 
ATOM     75  C   UNL A   1      42.417  21.414  27.993  1.00  0.00     0.059 A 
ATOM     76  F   UNL A   1      42.402  22.849  29.848  1.00  0.00    -0.206 F 
ATOM     77  C   UNL A   1      42.524  21.241  26.614  1.00  0.00     0.060 A 
BRANCH  77  78
ATOM     78  S   UNL A   1      42.467  19.586  25.894  1.00  0.00     0.124 S 
ATOM     79  O   UNL A   1      42.786  18.751  27.047  1.00  0.00    -0.237 OA
ATOM     80  O   UNL A   1      41.091  19.511  25.412  1.00  0.00    -0.237 OA
ATOM     81  O   UNL A   1      43.487  19.639  24.851  1.00  0.00    -0.744 OA
ENDBRANCH  77  78
ENDBRANCH  45  70
BRANCH  57  82
ATOM     82  C   UNL A   1      48.049  27.320  30.539  1.00  0.00     0.058 A 
ATOM     83  C   UNL A   1      48.406  26.616  31.700  1.00  0.00     0.135 A 
ATOM     84  C   UNL A   1      49.066  27.619  29.617  1.00  0.00     0.135 A 
ATOM     85  F   UNL A   1      47.475  26.311  32.619  1.00  0.00    -0.206 F 
ATOM     86  C   UNL A   1      49.723  26.243  31.948  1.00  0.00     0.059 A 
ATOM     87  C   UNL A   1      50.384  27.228  29.829  1.00  0.00     0.059 A 
ATOM     88  F   UNL A   1      48.779  28.281  28.484  1.00  0.00    -0.206 F 
ATOM     89  C   UNL A   1      50.705  26.550  31.004  1.00  0.00     0.060 A 
BRANCH  89  90
ATOM     90  S   UNL A   1      52.403  26.026  31.320  1.00  0.00     0.124 S 
ATOM     91  O   UNL A   1      52.947  25.957  29.968  1.00  0.00    -0.237 OA
ATOM     92  O   UNL A   1      52.913  27.110  32.154  1.00  0.00    -0.237 OA
ATOM     93  O   UNL A   1      52.242  24.744  31.998  1.00  0.00    -0.744 OA
ENDBRANCH  89  90
ENDBRANCH  57  82
ENDBRANCH  31  32
ENDBRANCH  23  26
ENDBRANCH  21  22
ENDBRANCH  20  21
ENDBRANCH   1  20
TORSDOF 17
ENDMDL
MODEL 3
REMARK VINA RESULT:     -10.7      2.134      3.099
REMARK SMILES C[C@H]([NH2+]CC(C)(C)C(=O)NCCCNC(=O)c1ccc(-c2c3nc(c(-c4c(F)cc(S(=O)(=O)[O-])cc4F)c4ccc([nH]4)c(-c4c(F)cc(S(=O)(=O)[O-])cc4F)c4nc(c(-c5c(F)cc(S(=O)(=O)[O-])cc5F)c5ccc2[nH]5)C=C4)C=C3)cc1)c1nccs1
REMARK SMILES IDX 11 1 10 2 8 3 9 4 5 6 6 7 7 8 4 9 3 10 2 13 1 14 83 15 84 16
REMARK SMILES IDX 87 17 85 18 86 19 12 20 13 21 14 22 15 23 16 25 17 26 18 27
REMARK SMILES IDX 82 28 19 29 81 30 20 31 21 32 22 33 75 34 23 35 80 36 74 37
REMARK SMILES IDX 76 38 24 39 79 40 73 41 72 42 25 44 59 45 38 46 58 47 39 48
REMARK SMILES IDX 42 49 57 50 77 51 40 52 41 53 56 55 78 56 43 57 26 58 27 59
REMARK SMILES IDX 36 60 28 61 29 62 35 63 37 64 30 65 31 66 32 67 33 68 34 69
REMARK SMILES IDX 60 70 61 71 70 72 62 73 63 74 69 75 71 76 64 77 65 78 66 79
REMARK SMILES IDX 67 80 68 81 44 82 45 83 54 84 46 85 47 86 53 87 55 88 48 89
REMARK SMILES IDX 49 90 50 91 51 92 52 93
REMARK H PARENT 10 5 3 11 3 12 14 24 76 43 42 54
REMARK Flexibility Score: inf
ROOT
ATOM      1  C   UNL A   1      35.920  24.112  25.541  1.00  0.00     0.117 C 
ENDROOT
BRANCH   1   2
ATOM      2  N   UNL A   1      35.058  23.666  24.463  1.00  0.00    -0.355 N 
ATOM      3  C   UNL A   1      33.905  22.944  24.442  1.00  0.00     0.231 C 
ATOM      4  O   UNL A   1      33.545  22.560  23.324  1.00  0.00    -0.274 OA
ATOM      5  H   UNL A   1      35.367  23.942  23.569  1.00  0.00     0.163 HD
BRANCH   3   6
ATOM      6  C   UNL A   1      33.130  22.590  25.728  1.00  0.00     0.092 C 
ATOM      7  C   UNL A   1      33.913  21.618  26.630  1.00  0.00     0.027 C 
ATOM      8  C   UNL A   1      31.754  22.005  25.351  1.00  0.00     0.027 C 
BRANCH   6   9
ATOM      9  C   UNL A   1      32.838  23.901  26.534  1.00  0.00     0.277 C 
BRANCH   9  10
ATOM     10  N   UNL A   1      31.723  24.695  26.017  1.00  0.00    -0.337 N 
ATOM     11  H   UNL A   1      31.313  24.185  25.235  1.00  0.00     0.346 HD
ATOM     12  H   UNL A   1      31.091  24.827  26.808  1.00  0.00     0.346 HD
BRANCH  10  13
ATOM     13  C   UNL A   1      32.059  26.052  25.545  1.00  0.00     0.239 C 
ATOM     14  C   UNL A   1      33.251  26.705  26.258  1.00  0.00     0.083 C 
BRANCH  13  15
ATOM     15  C   UNL A   1      32.370  25.970  24.055  1.00  0.00     0.150 A 
ATOM     16  N   UNL A   1      33.522  26.352  23.526  1.00  0.00    -0.243 NA
ATOM     17  S   UNL A   1      31.201  25.394  22.932  1.00  0.00    -0.121 S 
ATOM     18  C   UNL A   1      33.494  26.159  22.162  1.00  0.00     0.123 A 
ATOM     19  C   UNL A   1      32.311  25.669  21.655  1.00  0.00     0.087 A 
ENDBRANCH  13  15
ENDBRANCH  10  13
ENDBRANCH   9  10
ENDBRANCH   6   9
ENDBRANCH   3   6
ENDBRANCH   1   2
BRANCH   1  20
ATOM     20  C   UNL A   1      37.354  23.639  25.344  1.00  0.00     0.042 C 
BRANCH  20  21
ATOM     21  C   UNL A   1      38.278  23.999  26.499  1.00  0.00     0.118 C 
BRANCH  21  22
ATOM     22  N   UNL A   1      39.686  23.939  26.122  1.00  0.00    -0.352 N 
ATOM     23  C   UNL A   1      40.712  24.798  26.417  1.00  0.00     0.251 C 
ATOM     24  H   UNL A   1      39.937  23.163  25.573  1.00  0.00     0.163 HD
ATOM     25  O   UNL A   1      41.779  24.700  25.811  1.00  0.00    -0.269 OA
BRANCH  23  26
ATOM     26  C   UNL A   1      40.536  25.846  27.443  1.00  0.00     0.039 A 
ATOM     27  C   UNL A   1      39.637  25.632  28.490  1.00  0.00     0.014 A 
ATOM     28  C   UNL A   1      41.250  27.044  27.367  1.00  0.00     0.014 A 
ATOM     29  C   UNL A   1      39.506  26.592  29.495  1.00  0.00     0.010 A 
ATOM     30  C   UNL A   1      41.194  27.952  28.419  1.00  0.00     0.010 A 
ATOM     31  C   UNL A   1      40.313  27.742  29.489  1.00  0.00    -0.014 A 
BRANCH  31  32
ATOM     32  C   UNL A   1      40.248  28.743  30.584  1.00  0.00     0.031 A 
ATOM     33  C   UNL A   1      41.131  28.595  31.794  1.00  0.00     0.074 A 
ATOM     34  C   UNL A   1      39.343  29.738  30.522  1.00  0.00     0.049 A 
ATOM     35  N   UNL A   1      41.169  29.320  32.882  1.00  0.00    -0.248 NA
ATOM     36  C   UNL A   1      42.074  27.465  31.795  1.00  0.00     0.031 C 
ATOM     37  C   UNL A   1      38.393  29.951  29.427  1.00  0.00     0.029 A 
ATOM     38  N   UNL A   1      39.062  30.752  31.403  1.00  0.00    -0.354 N 
ATOM     39  C   UNL A   1      42.121  28.725  33.702  1.00  0.00     0.074 A 
ATOM     40  C   UNL A   1      42.593  27.545  33.011  1.00  0.00     0.031 C 
ATOM     41  C   UNL A   1      37.654  31.040  29.690  1.00  0.00     0.029 A 
ATOM     42  C   UNL A   1      38.044  31.578  30.989  1.00  0.00     0.049 A 
ATOM     43  H   UNL A   1      39.546  30.876  32.253  1.00  0.00     0.167 HD
ATOM     44  C   UNL A   1      42.577  29.137  34.908  1.00  0.00     0.037 A 
ATOM     45  C   UNL A   1      37.482  32.644  31.591  1.00  0.00     0.037 A 
ATOM     46  C   UNL A   1      42.116  30.327  35.576  1.00  0.00     0.049 A 
ATOM     47  C   UNL A   1      38.007  33.088  32.930  1.00  0.00     0.074 A 
ATOM     48  C   UNL A   1      42.558  30.870  36.769  1.00  0.00     0.029 A 
ATOM     49  N   UNL A   1      41.100  31.152  35.112  1.00  0.00    -0.354 N 
ATOM     50  N   UNL A   1      38.959  32.556  33.658  1.00  0.00    -0.248 NA
ATOM     51  C   UNL A   1      37.388  34.280  33.523  1.00  0.00     0.031 C 
ATOM     52  C   UNL A   1      41.775  31.993  37.054  1.00  0.00     0.029 A 
ATOM     53  C   UNL A   1      40.884  32.186  36.009  1.00  0.00     0.049 A 
ATOM     54  H   UNL A   1      40.607  31.022  34.272  1.00  0.00     0.167 HD
ATOM     55  C   UNL A   1      39.073  33.363  34.785  1.00  0.00     0.074 A 
ATOM     56  C   UNL A   1      38.099  34.426  34.634  1.00  0.00     0.031 C 
ATOM     57  C   UNL A   1      39.910  33.238  35.845  1.00  0.00     0.037 A 
BRANCH  44  58
ATOM     58  C   UNL A   1      43.627  28.293  35.580  1.00  0.00     0.058 A 
ATOM     59  C   UNL A   1      44.999  28.486  35.345  1.00  0.00     0.135 A 
ATOM     60  C   UNL A   1      43.259  27.283  36.485  1.00  0.00     0.135 A 
ATOM     61  F   UNL A   1      45.410  29.428  34.480  1.00  0.00    -0.206 F 
ATOM     62  C   UNL A   1      45.963  27.683  35.945  1.00  0.00     0.059 A 
ATOM     63  C   UNL A   1      44.208  26.489  37.123  1.00  0.00     0.059 A 
ATOM     64  F   UNL A   1      41.963  27.053  36.751  1.00  0.00    -0.206 F 
ATOM     65  C   UNL A   1      45.557  26.685  36.831  1.00  0.00     0.060 A 
BRANCH  65  66
ATOM     66  S   UNL A   1      46.819  25.643  37.592  1.00  0.00     0.124 S 
ATOM     67  O   UNL A   1      47.407  26.560  38.564  1.00  0.00    -0.237 OA
ATOM     68  O   UNL A   1      46.026  24.551  38.150  1.00  0.00    -0.237 OA
ATOM     69  O   UNL A   1      47.682  25.278  36.474  1.00  0.00    -0.744 OA
ENDBRANCH  65  66
ENDBRANCH  44  58
BRANCH  45  70
ATOM     70  C   UNL A   1      36.378  33.375  30.913  1.00  0.00     0.058 A 
ATOM     71  C   UNL A   1      35.068  33.324  31.409  1.00  0.00     0.135 A 
ATOM     72  C   UNL A   1      36.619  34.171  29.782  1.00  0.00     0.135 A 
ATOM     73  F   UNL A   1      34.785  32.572  32.483  1.00  0.00    -0.206 F 
ATOM     74  C   UNL A   1      34.033  34.032  30.807  1.00  0.00     0.059 A 
ATOM     75  C   UNL A   1      35.605  34.910  29.178  1.00  0.00     0.059 A 
ATOM     76  F   UNL A   1      37.859  34.268  29.279  1.00  0.00    -0.206 F 
ATOM     77  C   UNL A   1      34.314  34.829  29.696  1.00  0.00     0.060 A 
BRANCH  77  78
ATOM     78  S   UNL A   1      32.977  35.801  28.968  1.00  0.00     0.124 S 
ATOM     79  O   UNL A   1      32.200  36.164  30.147  1.00  0.00    -0.237 OA
ATOM     80  O   UNL A   1      33.706  36.889  28.323  1.00  0.00    -0.237 OA
ATOM     81  O   UNL A   1      32.336  34.858  28.055  1.00  0.00    -0.744 OA
ENDBRANCH  77  78
ENDBRANCH  45  70
BRANCH  57  82
ATOM     82  C   UNL A   1      39.837  34.292  36.915  1.00  0.00     0.058 A 
ATOM     83  C   UNL A   1      40.488  35.529  36.784  1.00  0.00     0.135 A 
ATOM     84  C   UNL A   1      39.056  34.082  38.064  1.00  0.00     0.135 A 
ATOM     85  F   UNL A   1      41.254  35.779  35.710  1.00  0.00    -0.206 F 
ATOM     86  C   UNL A   1      40.386  36.511  37.764  1.00  0.00     0.059 A 
ATOM     87  C   UNL A   1      38.914  35.062  39.041  1.00  0.00     0.059 A 
ATOM     88  F   UNL A   1      38.403  32.921  38.235  1.00  0.00    -0.206 F 
ATOM     89  C   UNL A   1      39.593  36.270  38.888  1.00  0.00     0.060 A 
BRANCH  89  90
ATOM     90  S   UNL A   1      39.440  37.567  40.133  1.00  0.00     0.124 S 
ATOM     91  O   UNL A   1      38.401  38.411  39.552  1.00  0.00    -0.237 OA
ATOM     92  O   UNL A   1      39.054  36.814  41.322  1.00  0.00    -0.237 OA
ATOM     93  O   UNL A   1      40.775  38.155  40.176  1.00  0.00    -0.744 OA
ENDBRANCH  89  90
ENDBRANCH  57  82
ENDBRANCH  31  32
ENDBRANCH  23  26
ENDBRANCH  21  22
ENDBRANCH  20  21
ENDBRANCH   1  20
TORSDOF 17
ENDMDL
