MODEL 1
REMARK VINA RESULT:     -11.4      0.000      0.000
REMARK SMILES C[C@@H]1[C@H](C)CCC[C@@H]1NC(=O)COc1csc(C(=O)NCCCNC(=O)c2ccc(-c3c4nc(c(-c5c(F)cc(S(=O)(=O)[O-])cc5F)c5ccc([nH]5)c(-c5c(F)cc(S(=O)(=O)[O-])cc5F)c5nc(c(-c6c(F)cc(S(=O)(=O)[O-])cc6F)c6ccc3[nH]6)C=C5)C=C4)cc2)c1
REMARK SMILES IDX 21 1 20 2 18 3 19 4 17 6 14 7 15 8 93 9 16 10 13 11 12 12
REMARK SMILES IDX 10 13 9 14 11 16 8 17 1 18 2 19 3 20 4 21 5 22 7 23 6 24
REMARK SMILES IDX 22 25 23 26 24 27 25 28 26 30 27 31 28 32 92 33 29 34 91 35
REMARK SMILES IDX 30 36 31 37 32 38 85 39 33 40 90 41 84 42 86 43 34 44 89 45
REMARK SMILES IDX 83 46 82 47 35 49 69 50 48 51 68 52 49 53 52 54 67 55 87 56
REMARK SMILES IDX 50 57 51 58 66 60 88 61 53 62 36 63 37 64 46 65 38 66 39 67
REMARK SMILES IDX 45 68 47 69 40 70 41 71 42 72 43 73 44 74 70 75 71 76 80 77
REMARK SMILES IDX 72 78 73 79 79 80 81 81 74 82 75 83 76 84 77 85 78 86 54 87
REMARK SMILES IDX 55 88 64 89 56 90 57 91 63 92 65 93 58 94 59 95 60 96 61 97
REMARK SMILES IDX 62 98
REMARK H PARENT 20 5 9 15 24 29 86 48 52 59
REMARK Flexibility Score: inf
ROOT
ATOM      1  C   UNL A   1      33.325  29.256  24.837  1.00  0.00     0.118 C 
ENDROOT
BRANCH   1   2
ATOM      2  N   UNL A   1      33.864  29.049  23.507  1.00  0.00    -0.351 N 
ATOM      3  C   UNL A   1      33.686  28.041  22.588  1.00  0.00     0.261 C 
ATOM      4  O   UNL A   1      34.236  28.226  21.499  1.00  0.00    -0.268 OA
ATOM      5  H   UNL A   1      34.469  29.764  23.204  1.00  0.00     0.163 HD
BRANCH   3   6
ATOM      6  C   UNL A   1      32.870  26.871  22.888  1.00  0.00     0.096 A 
ATOM      7  C   UNL A   1      31.309  25.343  23.733  1.00  0.00     0.131 A 
ATOM      8  C   UNL A   1      31.797  24.641  22.659  1.00  0.00     0.112 A 
ATOM      9  C   UNL A   1      31.957  26.599  23.890  1.00  0.00     0.072 A 
ATOM     10  S   UNL A   1      33.028  25.504  21.846  1.00  0.00    -0.135 S 
BRANCH   7  11
ATOM     11  O   UNL A   1      30.255  24.983  24.504  1.00  0.00    -0.483 OA
BRANCH  11  12
ATOM     12  C   UNL A   1      30.314  23.668  25.027  1.00  0.00     0.329 C 
BRANCH  12  13
ATOM     13  C   UNL A   1      30.810  23.465  26.461  1.00  0.00     0.258 C 
ATOM     14  N   UNL A   1      32.135  23.292  26.723  1.00  0.00    -0.350 N 
ATOM     15  H   UNL A   1      32.364  23.209  27.678  1.00  0.00     0.163 HD
ATOM     16  O   UNL A   1      30.025  23.431  27.414  1.00  0.00    -0.271 OA
BRANCH  14  17
ATOM     17  C   UNL A   1      33.270  23.210  25.809  1.00  0.00     0.085 C 
ATOM     18  C   UNL A   1      34.426  21.634  27.466  1.00  0.00     0.010 C 
ATOM     19  C   UNL A   1      34.069  21.893  25.991  1.00  0.00     0.011 C 
ATOM     20  C   UNL A   1      35.290  21.893  25.033  1.00  0.00    -0.009 C 
ATOM     21  C   UNL A   1      36.116  20.606  25.100  1.00  0.00     0.008 C 
ATOM     22  C   UNL A   1      36.179  23.125  25.245  1.00  0.00     0.004 C 
ATOM     23  C   UNL A   1      34.159  24.455  25.978  1.00  0.00     0.025 C 
ATOM     24  C   UNL A   1      35.384  24.415  25.070  1.00  0.00     0.002 C 
ENDBRANCH  14  17
ENDBRANCH  12  13
ENDBRANCH  11  12
ENDBRANCH   7  11
ENDBRANCH   3   6
ENDBRANCH   1   2
BRANCH   1  25
ATOM     25  C   UNL A   1      34.020  28.369  25.867  1.00  0.00     0.042 C 
BRANCH  25  26
ATOM     26  C   UNL A   1      33.525  28.601  27.294  1.00  0.00     0.118 C 
BRANCH  26  27
ATOM     27  N   UNL A   1      33.477  30.019  27.631  1.00  0.00    -0.352 N 
ATOM     28  C   UNL A   1      34.399  30.806  28.275  1.00  0.00     0.251 C 
ATOM     29  H   UNL A   1      32.655  30.484  27.354  1.00  0.00     0.163 HD
ATOM     30  O   UNL A   1      34.065  31.918  28.676  1.00  0.00    -0.269 OA
BRANCH  28  31
ATOM     31  C   UNL A   1      35.779  30.322  28.495  1.00  0.00     0.039 A 
ATOM     32  C   UNL A   1      36.699  30.399  27.444  1.00  0.00     0.014 A 
ATOM     33  C   UNL A   1      36.157  29.759  29.716  1.00  0.00     0.014 A 
ATOM     34  C   UNL A   1      38.016  29.979  27.642  1.00  0.00     0.010 A 
ATOM     35  C   UNL A   1      37.485  29.396  29.932  1.00  0.00     0.010 A 
ATOM     36  C   UNL A   1      38.429  29.509  28.899  1.00  0.00    -0.014 A 
BRANCH  36  37
ATOM     37  C   UNL A   1      39.845  29.152  29.170  1.00  0.00     0.031 A 
ATOM     38  C   UNL A   1      40.797  30.190  29.699  1.00  0.00     0.074 A 
ATOM     39  C   UNL A   1      40.287  27.916  28.864  1.00  0.00     0.049 A 
ATOM     40  N   UNL A   1      42.093  30.117  29.858  1.00  0.00    -0.248 NA
ATOM     41  C   UNL A   1      40.218  31.489  30.079  1.00  0.00     0.031 C 
ATOM     42  C   UNL A   1      39.464  26.831  28.323  1.00  0.00     0.029 A 
ATOM     43  N   UNL A   1      41.543  27.368  28.945  1.00  0.00    -0.354 N 
ATOM     44  C   UNL A   1      42.485  31.354  30.354  1.00  0.00     0.074 A 
ATOM     45  C   UNL A   1      41.297  32.177  30.423  1.00  0.00     0.031 C 
ATOM     46  C   UNL A   1      40.235  25.750  28.123  1.00  0.00     0.029 A 
ATOM     47  C   UNL A   1      41.612  26.075  28.478  1.00  0.00     0.049 A 
ATOM     48  H   UNL A   1      42.320  27.853  29.303  1.00  0.00     0.167 HD
ATOM     49  C   UNL A   1      43.720  31.757  30.741  1.00  0.00     0.037 A 
ATOM     50  C   UNL A   1      42.670  25.255  28.328  1.00  0.00     0.037 A 
ATOM     51  C   UNL A   1      44.895  30.928  30.681  1.00  0.00     0.049 A 
ATOM     52  C   UNL A   1      44.038  25.746  28.721  1.00  0.00     0.074 A 
ATOM     53  C   UNL A   1      46.189  31.241  31.063  1.00  0.00     0.029 A 
ATOM     54  N   UNL A   1      44.922  29.622  30.217  1.00  0.00    -0.354 N 
ATOM     55  N   UNL A   1      44.386  26.911  29.216  1.00  0.00    -0.248 NA
ATOM     56  C   UNL A   1      45.159  24.813  28.537  1.00  0.00     0.031 C 
ATOM     57  C   UNL A   1      47.003  30.133  30.801  1.00  0.00     0.029 A 
ATOM     58  C   UNL A   1      46.210  29.118  30.293  1.00  0.00     0.049 A 
ATOM     59  H   UNL A   1      44.139  29.125  29.882  1.00  0.00     0.167 HD
ATOM     60  C   UNL A   1      45.758  26.840  29.424  1.00  0.00     0.074 A 
ATOM     61  C   UNL A   1      46.175  25.514  29.019  1.00  0.00     0.031 C 
ATOM     62  C   UNL A   1      46.600  27.787  29.902  1.00  0.00     0.037 A 
BRANCH  49  63
ATOM     63  C   UNL A   1      43.863  33.152  31.286  1.00  0.00     0.058 A 
ATOM     64  C   UNL A   1      44.171  34.232  30.446  1.00  0.00     0.135 A 
ATOM     65  C   UNL A   1      43.625  33.423  32.643  1.00  0.00     0.135 A 
ATOM     66  F   UNL A   1      44.425  34.025  29.144  1.00  0.00    -0.206 F 
ATOM     67  C   UNL A   1      44.252  35.532  30.932  1.00  0.00     0.059 A 
ATOM     68  C   UNL A   1      43.676  34.720  33.147  1.00  0.00     0.059 A 
ATOM     69  F   UNL A   1      43.328  32.426  33.491  1.00  0.00    -0.206 F 
ATOM     70  C   UNL A   1      43.998  35.767  32.285  1.00  0.00     0.060 A 
BRANCH  70  71
ATOM     71  S   UNL A   1      44.076  37.467  32.891  1.00  0.00     0.124 S 
ATOM     72  O   UNL A   1      45.451  37.539  33.377  1.00  0.00    -0.237 OA
ATOM     73  O   UNL A   1      43.790  38.240  31.687  1.00  0.00    -0.237 OA
ATOM     74  O   UNL A   1      43.043  37.508  33.920  1.00  0.00    -0.744 OA
ENDBRANCH  70  71
ENDBRANCH  49  63
BRANCH  50  75
ATOM     75  C   UNL A   1      42.493  23.888  27.768  1.00  0.00     0.058 A 
ATOM     76  C   UNL A   1      42.410  22.768  28.609  1.00  0.00     0.135 A 
ATOM     77  C   UNL A   1      42.441  23.670  26.383  1.00  0.00     0.135 A 
ATOM     78  F   UNL A   1      42.459  22.926  29.941  1.00  0.00    -0.206 F 
ATOM     79  C   UNL A   1      42.323  21.478  28.098  1.00  0.00     0.059 A 
ATOM     80  C   UNL A   1      42.325  22.390  25.848  1.00  0.00     0.059 A 
ATOM     81  F   UNL A   1      42.496  24.708  25.534  1.00  0.00    -0.206 F 
ATOM     82  C   UNL A   1      42.288  21.299  26.715  1.00  0.00     0.060 A 
BRANCH  82  83
ATOM     83  S   UNL A   1      42.173  19.620  26.058  1.00  0.00     0.124 S 
ATOM     84  O   UNL A   1      40.760  19.542  25.703  1.00  0.00    -0.237 OA
ATOM     85  O   UNL A   1      43.110  19.661  24.940  1.00  0.00    -0.237 OA
ATOM     86  O   UNL A   1      42.590  18.792  27.185  1.00  0.00    -0.744 OA
ENDBRANCH  82  83
ENDBRANCH  50  75
BRANCH  62  87
ATOM     87  C   UNL A   1      48.049  27.412  30.051  1.00  0.00     0.058 A 
ATOM     88  C   UNL A   1      48.968  27.600  29.008  1.00  0.00     0.135 A 
ATOM     89  C   UNL A   1      48.530  26.905  31.269  1.00  0.00     0.135 A 
ATOM     90  F   UNL A   1      48.555  28.074  27.820  1.00  0.00    -0.206 F 
ATOM     91  C   UNL A   1      50.312  27.276  29.158  1.00  0.00     0.059 A 
ATOM     92  C   UNL A   1      49.875  26.600  31.449  1.00  0.00     0.059 A 
ATOM     93  F   UNL A   1      47.693  26.716  32.300  1.00  0.00    -0.206 F 
ATOM     94  C   UNL A   1      50.757  26.780  30.385  1.00  0.00     0.060 A 
BRANCH  94  95
ATOM     95  S   UNL A   1      52.511  26.401  30.580  1.00  0.00     0.124 S 
ATOM     96  O   UNL A   1      52.999  27.604  31.246  1.00  0.00    -0.237 OA
ATOM     97  O   UNL A   1      52.481  25.193  31.398  1.00  0.00    -0.237 OA
ATOM     98  O   UNL A   1      52.972  26.211  29.209  1.00  0.00    -0.744 OA
ENDBRANCH  94  95
ENDBRANCH  62  87
ENDBRANCH  36  37
ENDBRANCH  28  31
ENDBRANCH  26  27
ENDBRANCH  25  26
ENDBRANCH   1  25
TORSDOF 17
ENDMDL
MODEL 2
REMARK VINA RESULT:     -11.4      4.756     10.398
REMARK SMILES C[C@@H]1[C@H](C)CCC[C@@H]1NC(=O)COc1csc(C(=O)NCCCNC(=O)c2ccc(-c3c4nc(c(-c5c(F)cc(S(=O)(=O)[O-])cc5F)c5ccc([nH]5)c(-c5c(F)cc(S(=O)(=O)[O-])cc5F)c5nc(c(-c6c(F)cc(S(=O)(=O)[O-])cc6F)c6ccc3[nH]6)C=C5)C=C4)cc2)c1
REMARK SMILES IDX 21 1 20 2 18 3 19 4 17 6 14 7 15 8 93 9 16 10 13 11 12 12
REMARK SMILES IDX 10 13 9 14 11 16 8 17 1 18 2 19 3 20 4 21 5 22 7 23 6 24
REMARK SMILES IDX 22 25 23 26 24 27 25 28 26 30 27 31 28 32 92 33 29 34 91 35
REMARK SMILES IDX 30 36 31 37 32 38 85 39 33 40 90 41 84 42 86 43 34 44 89 45
REMARK SMILES IDX 83 46 82 47 35 49 69 50 48 51 68 52 49 53 52 54 67 55 87 56
REMARK SMILES IDX 50 57 51 58 66 60 88 61 53 62 36 63 37 64 46 65 38 66 39 67
REMARK SMILES IDX 45 68 47 69 40 70 41 71 42 72 43 73 44 74 70 75 71 76 80 77
REMARK SMILES IDX 72 78 73 79 79 80 81 81 74 82 75 83 76 84 77 85 78 86 54 87
REMARK SMILES IDX 55 88 64 89 56 90 57 91 63 92 65 93 58 94 59 95 60 96 61 97
REMARK SMILES IDX 62 98
REMARK H PARENT 20 5 9 15 24 29 86 48 52 59
REMARK Flexibility Score: inf
ROOT
ATOM      1  C   UNL A   1      36.674  22.645  25.033  1.00  0.00     0.118 C 
ENDROOT
BRANCH   1   2
ATOM      2  N   UNL A   1      37.002  21.233  25.015  1.00  0.00    -0.351 N 
ATOM      3  C   UNL A   1      36.213  20.105  24.995  1.00  0.00     0.261 C 
ATOM      4  O   UNL A   1      36.830  19.042  24.895  1.00  0.00    -0.268 OA
ATOM      5  H   UNL A   1      37.968  21.046  25.017  1.00  0.00     0.163 HD
BRANCH   3   6
ATOM      6  C   UNL A   1      34.760  20.190  25.049  1.00  0.00     0.096 A 
ATOM      7  C   UNL A   1      32.527  20.860  25.281  1.00  0.00     0.131 A 
ATOM      8  C   UNL A   1      32.365  19.634  24.683  1.00  0.00     0.112 A 
ATOM      9  C   UNL A   1      33.896  21.156  25.531  1.00  0.00     0.072 A 
ATOM     10  S   UNL A   1      33.863  18.853  24.426  1.00  0.00    -0.135 S 
BRANCH   7  11
ATOM     11  O   UNL A   1      31.548  21.768  25.510  1.00  0.00    -0.483 OA
BRANCH  11  12
ATOM     12  C   UNL A   1      31.999  23.079  25.796  1.00  0.00     0.329 C 
BRANCH  12  13
ATOM     13  C   UNL A   1      31.110  23.999  26.638  1.00  0.00     0.258 C 
ATOM     14  N   UNL A   1      31.329  25.344  26.669  1.00  0.00    -0.350 N 
ATOM     15  H   UNL A   1      30.683  25.858  27.205  1.00  0.00     0.163 HD
ATOM     16  O   UNL A   1      30.189  23.549  27.325  1.00  0.00    -0.271 OA
BRANCH  14  17
ATOM     17  C   UNL A   1      32.372  26.140  26.031  1.00  0.00     0.085 C 
ATOM     18  C   UNL A   1      31.653  28.138  27.466  1.00  0.00     0.010 C 
ATOM     19  C   UNL A   1      32.839  27.314  26.931  1.00  0.00     0.011 C 
ATOM     20  C   UNL A   1      33.904  28.152  26.175  1.00  0.00    -0.009 C 
ATOM     21  C   UNL A   1      34.469  29.308  27.004  1.00  0.00     0.008 C 
ATOM     22  C   UNL A   1      33.380  28.653  24.824  1.00  0.00     0.004 C 
ATOM     23  C   UNL A   1      31.882  26.624  24.655  1.00  0.00     0.025 C 
ATOM     24  C   UNL A   1      32.918  27.493  23.948  1.00  0.00     0.002 C 
ENDBRANCH  14  17
ENDBRANCH  12  13
ENDBRANCH  11  12
ENDBRANCH   7  11
ENDBRANCH   3   6
ENDBRANCH   1   2
BRANCH   1  25
ATOM     25  C   UNL A   1      37.202  23.327  26.293  1.00  0.00     0.042 C 
BRANCH  25  26
ATOM     26  C   UNL A   1      38.217  24.431  26.000  1.00  0.00     0.118 C 
BRANCH  26  27
ATOM     27  N   UNL A   1      39.587  23.935  26.031  1.00  0.00    -0.352 N 
ATOM     28  C   UNL A   1      40.709  24.471  26.614  1.00  0.00     0.251 C 
ATOM     29  H   UNL A   1      39.731  23.082  25.561  1.00  0.00     0.163 HD
ATOM     30  O   UNL A   1      41.813  24.021  26.320  1.00  0.00    -0.269 OA
BRANCH  28  31
ATOM     31  C   UNL A   1      40.595  25.584  27.581  1.00  0.00     0.039 A 
ATOM     32  C   UNL A   1      39.600  25.529  28.563  1.00  0.00     0.014 A 
ATOM     33  C   UNL A   1      41.438  26.695  27.500  1.00  0.00     0.014 A 
ATOM     34  C   UNL A   1      39.498  26.554  29.506  1.00  0.00     0.010 A 
ATOM     35  C   UNL A   1      41.374  27.687  28.477  1.00  0.00     0.010 A 
ATOM     36  C   UNL A   1      40.408  27.622  29.493  1.00  0.00    -0.014 A 
BRANCH  36  37
ATOM     37  C   UNL A   1      40.391  28.673  30.543  1.00  0.00     0.031 A 
ATOM     38  C   UNL A   1      41.299  28.562  31.737  1.00  0.00     0.074 A 
ATOM     39  C   UNL A   1      39.500  29.682  30.456  1.00  0.00     0.049 A 
ATOM     40  N   UNL A   1      41.327  29.290  32.823  1.00  0.00    -0.248 NA
ATOM     41  C   UNL A   1      42.292  27.475  31.716  1.00  0.00     0.031 C 
ATOM     42  C   UNL A   1      38.551  29.883  29.359  1.00  0.00     0.029 A 
ATOM     43  N   UNL A   1      39.234  30.718  31.316  1.00  0.00    -0.354 N 
ATOM     44  C   UNL A   1      42.336  28.753  33.614  1.00  0.00     0.074 A 
ATOM     45  C   UNL A   1      42.863  27.607  32.906  1.00  0.00     0.031 C 
ATOM     46  C   UNL A   1      37.809  30.973  29.611  1.00  0.00     0.029 A 
ATOM     47  C   UNL A   1      38.197  31.524  30.905  1.00  0.00     0.049 A 
ATOM     48  H   UNL A   1      39.736  30.870  32.149  1.00  0.00     0.167 HD
ATOM     49  C   UNL A   1      42.798  29.193  34.810  1.00  0.00     0.037 A 
ATOM     50  C   UNL A   1      37.609  32.571  31.514  1.00  0.00     0.037 A 
ATOM     51  C   UNL A   1      42.277  30.342  35.503  1.00  0.00     0.049 A 
ATOM     52  C   UNL A   1      38.110  33.008  32.865  1.00  0.00     0.074 A 
ATOM     53  C   UNL A   1      42.686  30.876  36.714  1.00  0.00     0.029 A 
ATOM     54  N   UNL A   1      41.239  31.140  35.047  1.00  0.00    -0.354 N 
ATOM     55  N   UNL A   1      39.085  32.505  33.586  1.00  0.00    -0.248 NA
ATOM     56  C   UNL A   1      37.433  34.155  33.487  1.00  0.00     0.031 C 
ATOM     57  C   UNL A   1      41.875  31.978  37.003  1.00  0.00     0.029 A 
ATOM     58  C   UNL A   1      40.987  32.155  35.955  1.00  0.00     0.049 A 
ATOM     59  H   UNL A   1      40.752  31.005  34.202  1.00  0.00     0.167 HD
ATOM     60  C   UNL A   1      39.153  33.289  34.731  1.00  0.00     0.074 A 
ATOM     61  C   UNL A   1      38.134  34.310  34.601  1.00  0.00     0.031 C 
ATOM     62  C   UNL A   1      39.980  33.173  35.798  1.00  0.00     0.037 A 
BRANCH  49  63
ATOM     63  C   UNL A   1      43.939  28.443  35.439  1.00  0.00     0.058 A 
ATOM     64  C   UNL A   1      45.273  28.790  35.170  1.00  0.00     0.135 A 
ATOM     65  C   UNL A   1      43.704  27.415  36.366  1.00  0.00     0.135 A 
ATOM     66  F   UNL A   1      45.553  29.753  34.278  1.00  0.00    -0.206 F 
ATOM     67  C   UNL A   1      46.333  28.137  35.788  1.00  0.00     0.059 A 
ATOM     68  C   UNL A   1      44.749  26.765  37.016  1.00  0.00     0.059 A 
ATOM     69  F   UNL A   1      42.448  27.042  36.658  1.00  0.00    -0.206 F 
ATOM     70  C   UNL A   1      46.061  27.128  36.715  1.00  0.00     0.060 A 
BRANCH  70  71
ATOM     71  S   UNL A   1      47.451  26.315  37.531  1.00  0.00     0.124 S 
ATOM     72  O   UNL A   1      47.160  24.908  37.269  1.00  0.00    -0.237 OA
ATOM     73  O   UNL A   1      48.598  26.867  36.817  1.00  0.00    -0.237 OA
ATOM     74  O   UNL A   1      47.321  26.733  38.923  1.00  0.00    -0.744 OA
ENDBRANCH  70  71
ENDBRANCH  49  63
BRANCH  50  75
ATOM     75  C   UNL A   1      36.469  33.277  30.870  1.00  0.00     0.058 A 
ATOM     76  C   UNL A   1      36.669  34.101  29.751  1.00  0.00     0.135 A 
ATOM     77  C   UNL A   1      35.165  33.173  31.379  1.00  0.00     0.135 A 
ATOM     78  F   UNL A   1      37.898  34.236  29.230  1.00  0.00    -0.206 F 
ATOM     79  C   UNL A   1      35.627  34.828  29.186  1.00  0.00     0.059 A 
ATOM     80  C   UNL A   1      34.101  33.869  30.812  1.00  0.00     0.059 A 
ATOM     81  F   UNL A   1      34.915  32.383  32.434  1.00  0.00    -0.206 F 
ATOM     82  C   UNL A   1      34.347  34.710  29.729  1.00  0.00     0.060 A 
BRANCH  82  83
ATOM     83  S   UNL A   1      32.998  35.656  28.989  1.00  0.00     0.124 S 
ATOM     84  O   UNL A   1      33.728  36.713  28.299  1.00  0.00    -0.237 OA
ATOM     85  O   UNL A   1      32.355  34.662  28.135  1.00  0.00    -0.237 OA
ATOM     86  O   UNL A   1      32.214  36.079  30.145  1.00  0.00    -0.744 OA
ENDBRANCH  82  83
ENDBRANCH  50  75
BRANCH  62  87
ATOM     87  C   UNL A   1      39.844  34.197  36.891  1.00  0.00     0.058 A 
ATOM     88  C   UNL A   1      40.343  35.500  36.744  1.00  0.00     0.135 A 
ATOM     89  C   UNL A   1      39.164  33.883  38.079  1.00  0.00     0.135 A 
ATOM     90  F   UNL A   1      41.009  35.847  35.630  1.00  0.00    -0.206 F 
ATOM     91  C   UNL A   1      40.193  36.451  37.746  1.00  0.00     0.059 A 
ATOM     92  C   UNL A   1      38.980  34.827  39.083  1.00  0.00     0.059 A 
ATOM     93  F   UNL A   1      38.661  32.653  38.265  1.00  0.00    -0.206 F 
ATOM     94  C   UNL A   1      39.506  36.106  38.912  1.00  0.00     0.060 A 
BRANCH  94  95
ATOM     95  S   UNL A   1      39.283  37.363  40.189  1.00  0.00     0.124 S 
ATOM     96  O   UNL A   1      40.665  37.657  40.556  1.00  0.00    -0.237 OA
ATOM     97  O   UNL A   1      38.581  38.420  39.468  1.00  0.00    -0.237 OA
ATOM     98  O   UNL A   1      38.495  36.677  41.207  1.00  0.00    -0.744 OA
ENDBRANCH  94  95
ENDBRANCH  62  87
ENDBRANCH  36  37
ENDBRANCH  28  31
ENDBRANCH  26  27
ENDBRANCH  25  26
ENDBRANCH   1  25
TORSDOF 17
ENDMDL
MODEL 3
REMARK VINA RESULT:     -11.3      3.425      6.566
REMARK SMILES C[C@@H]1[C@H](C)CCC[C@@H]1NC(=O)COc1csc(C(=O)NCCCNC(=O)c2ccc(-c3c4nc(c(-c5c(F)cc(S(=O)(=O)[O-])cc5F)c5ccc([nH]5)c(-c5c(F)cc(S(=O)(=O)[O-])cc5F)c5nc(c(-c6c(F)cc(S(=O)(=O)[O-])cc6F)c6ccc3[nH]6)C=C5)C=C4)cc2)c1
REMARK SMILES IDX 21 1 20 2 18 3 19 4 17 6 14 7 15 8 93 9 16 10 13 11 12 12
REMARK SMILES IDX 10 13 9 14 11 16 8 17 1 18 2 19 3 20 4 21 5 22 7 23 6 24
REMARK SMILES IDX 22 25 23 26 24 27 25 28 26 30 27 31 28 32 92 33 29 34 91 35
REMARK SMILES IDX 30 36 31 37 32 38 85 39 33 40 90 41 84 42 86 43 34 44 89 45
REMARK SMILES IDX 83 46 82 47 35 49 69 50 48 51 68 52 49 53 52 54 67 55 87 56
REMARK SMILES IDX 50 57 51 58 66 60 88 61 53 62 36 63 37 64 46 65 38 66 39 67
REMARK SMILES IDX 45 68 47 69 40 70 41 71 42 72 43 73 44 74 70 75 71 76 80 77
REMARK SMILES IDX 72 78 73 79 79 80 81 81 74 82 75 83 76 84 77 85 78 86 54 87
REMARK SMILES IDX 55 88 64 89 56 90 57 91 63 92 65 93 58 94 59 95 60 96 61 97
REMARK SMILES IDX 62 98
REMARK H PARENT 20 5 9 15 24 29 86 48 52 59
REMARK Flexibility Score: inf
ROOT
ATOM      1  C   UNL A   1      33.879  34.841  29.000  1.00  0.00     0.118 C 
ENDROOT
BRANCH   1   2
ATOM      2  N   UNL A   1      32.948  35.106  30.079  1.00  0.00    -0.351 N 
ATOM      3  C   UNL A   1      33.089  35.064  31.447  1.00  0.00     0.261 C 
ATOM      4  O   UNL A   1      32.101  35.438  32.083  1.00  0.00    -0.268 OA
ATOM      5  H   UNL A   1      32.048  35.365  29.777  1.00  0.00     0.163 HD
BRANCH   3   6
ATOM      6  C   UNL A   1      34.336  34.643  32.073  1.00  0.00     0.096 A 
ATOM      7  C   UNL A   1      36.344  34.498  33.271  1.00  0.00     0.131 A 
ATOM      8  C   UNL A   1      36.126  33.175  32.977  1.00  0.00     0.112 A 
ATOM      9  C   UNL A   1      35.343  35.342  32.714  1.00  0.00     0.072 A 
ATOM     10  S   UNL A   1      34.716  32.960  32.036  1.00  0.00    -0.135 S 
BRANCH   7  11
ATOM     11  O   UNL A   1      37.307  34.982  34.092  1.00  0.00    -0.483 OA
BRANCH  11  12
ATOM     12  C   UNL A   1      38.630  34.607  33.753  1.00  0.00     0.329 C 
BRANCH  12  13
ATOM     13  C   UNL A   1      39.611  34.261  34.877  1.00  0.00     0.258 C 
ATOM     14  N   UNL A   1      40.292  33.081  34.870  1.00  0.00    -0.350 N 
ATOM     15  H   UNL A   1      40.929  32.964  35.612  1.00  0.00     0.163 HD
ATOM     16  O   UNL A   1      39.796  35.028  35.827  1.00  0.00    -0.271 OA
BRANCH  14  17
ATOM     17  C   UNL A   1      40.223  31.963  33.935  1.00  0.00     0.085 C 
ATOM     18  C   UNL A   1      38.571  30.807  35.518  1.00  0.00     0.010 C 
ATOM     19  C   UNL A   1      38.887  31.184  34.058  1.00  0.00     0.011 C 
ATOM     20  C   UNL A   1      38.900  29.979  33.081  1.00  0.00    -0.009 C 
ATOM     21  C   UNL A   1      37.598  29.174  33.089  1.00  0.00     0.008 C 
ATOM     22  C   UNL A   1      40.109  29.065  33.320  1.00  0.00     0.004 C 
ATOM     23  C   UNL A   1      41.447  31.050  34.132  1.00  0.00     0.025 C 
ATOM     24  C   UNL A   1      41.417  29.841  33.203  1.00  0.00     0.002 C 
ENDBRANCH  14  17
ENDBRANCH  12  13
ENDBRANCH  11  12
ENDBRANCH   7  11
ENDBRANCH   3   6
ENDBRANCH   1   2
BRANCH   1  25
ATOM     25  C   UNL A   1      33.500  33.578  28.229  1.00  0.00     0.042 C 
BRANCH  25  26
ATOM     26  C   UNL A   1      34.523  32.453  28.376  1.00  0.00     0.118 C 
BRANCH  26  27
ATOM     27  N   UNL A   1      33.939  31.145  28.108  1.00  0.00    -0.352 N 
ATOM     28  C   UNL A   1      34.545  29.931  27.898  1.00  0.00     0.251 C 
ATOM     29  H   UNL A   1      32.955  31.129  28.072  1.00  0.00     0.163 HD
ATOM     30  O   UNL A   1      33.885  28.998  27.449  1.00  0.00    -0.269 OA
BRANCH  28  31
ATOM     31  C   UNL A   1      35.981  29.746  28.199  1.00  0.00     0.039 A 
ATOM     32  C   UNL A   1      36.358  29.359  29.489  1.00  0.00     0.014 A 
ATOM     33  C   UNL A   1      36.956  29.990  27.229  1.00  0.00     0.014 A 
ATOM     34  C   UNL A   1      37.707  29.146  29.784  1.00  0.00     0.010 A 
ATOM     35  C   UNL A   1      38.295  29.720  27.506  1.00  0.00     0.010 A 
ATOM     36  C   UNL A   1      38.682  29.289  28.784  1.00  0.00    -0.014 A 
BRANCH  36  37
ATOM     37  C   UNL A   1      40.110  28.970  29.039  1.00  0.00     0.031 A 
ATOM     38  C   UNL A   1      41.046  30.040  29.532  1.00  0.00     0.074 A 
ATOM     39  C   UNL A   1      40.576  27.737  28.751  1.00  0.00     0.049 A 
ATOM     40  N   UNL A   1      42.346  29.998  29.671  1.00  0.00    -0.248 NA
ATOM     41  C   UNL A   1      40.443  31.332  29.895  1.00  0.00     0.031 C 
ATOM     42  C   UNL A   1      39.770  26.624  28.244  1.00  0.00     0.029 A 
ATOM     43  N   UNL A   1      41.845  27.220  28.822  1.00  0.00    -0.354 N 
ATOM     44  C   UNL A   1      42.717  31.254  30.136  1.00  0.00     0.074 A 
ATOM     45  C   UNL A   1      41.512  32.051  30.208  1.00  0.00     0.031 C 
ATOM     46  C   UNL A   1      40.562  25.556  28.053  1.00  0.00     0.029 A 
ATOM     47  C   UNL A   1      41.937  25.920  28.380  1.00  0.00     0.049 A 
ATOM     48  H   UNL A   1      42.617  27.730  29.158  1.00  0.00     0.167 HD
ATOM     49  C   UNL A   1      43.948  31.693  30.495  1.00  0.00     0.037 A 
ATOM     50  C   UNL A   1      43.010  25.121  28.229  1.00  0.00     0.037 A 
ATOM     51  C   UNL A   1      45.141  30.890  30.433  1.00  0.00     0.049 A 
ATOM     52  C   UNL A   1      44.373  25.651  28.590  1.00  0.00     0.074 A 
ATOM     53  C   UNL A   1      46.434  31.239  30.787  1.00  0.00     0.029 A 
ATOM     54  N   UNL A   1      45.191  29.575  29.995  1.00  0.00    -0.354 N 
ATOM     55  N   UNL A   1      44.702  26.834  29.055  1.00  0.00    -0.248 NA
ATOM     56  C   UNL A   1      45.512  24.741  28.406  1.00  0.00     0.031 C 
ATOM     57  C   UNL A   1      47.268  30.146  30.534  1.00  0.00     0.029 A 
ATOM     58  C   UNL A   1      46.491  29.102  30.060  1.00  0.00     0.049 A 
ATOM     59  H   UNL A   1      44.415  29.055  29.682  1.00  0.00     0.167 HD
ATOM     60  C   UNL A   1      46.079  26.797  29.243  1.00  0.00     0.074 A 
ATOM     61  C   UNL A   1      46.519  25.473  28.858  1.00  0.00     0.031 C 
ATOM     62  C   UNL A   1      46.906  27.773  29.688  1.00  0.00     0.037 A 
BRANCH  49  63
ATOM     63  C   UNL A   1      44.068  33.101  31.010  1.00  0.00     0.058 A 
ATOM     64  C   UNL A   1      44.104  34.195  30.132  1.00  0.00     0.135 A 
ATOM     65  C   UNL A   1      44.078  33.366  32.389  1.00  0.00     0.135 A 
ATOM     66  F   UNL A   1      44.114  33.996  28.805  1.00  0.00    -0.206 F 
ATOM     67  C   UNL A   1      44.160  35.503  30.601  1.00  0.00     0.059 A 
ATOM     68  C   UNL A   1      44.108  34.668  32.881  1.00  0.00     0.059 A 
ATOM     69  F   UNL A   1      44.047  32.356  33.273  1.00  0.00    -0.206 F 
ATOM     70  C   UNL A   1      44.157  35.730  31.979  1.00  0.00     0.060 A 
BRANCH  70  71
ATOM     71  S   UNL A   1      44.197  37.436  32.568  1.00  0.00     0.124 S 
ATOM     72  O   UNL A   1      45.571  37.545  33.050  1.00  0.00    -0.237 OA
ATOM     73  O   UNL A   1      43.889  38.191  31.358  1.00  0.00    -0.237 OA
ATOM     74  O   UNL A   1      43.167  37.464  33.601  1.00  0.00    -0.744 OA
ENDBRANCH  70  71
ENDBRANCH  49  63
BRANCH  50  75
ATOM     75  C   UNL A   1      42.856  23.740  27.699  1.00  0.00     0.058 A 
ATOM     76  C   UNL A   1      42.913  23.485  26.320  1.00  0.00     0.135 A 
ATOM     77  C   UNL A   1      42.613  22.654  28.554  1.00  0.00     0.135 A 
ATOM     78  F   UNL A   1      43.140  24.492  25.462  1.00  0.00    -0.206 F 
ATOM     79  C   UNL A   1      42.695  22.212  25.804  1.00  0.00     0.059 A 
ATOM     80  C   UNL A   1      42.419  21.366  28.063  1.00  0.00     0.059 A 
ATOM     81  F   UNL A   1      42.569  22.839  29.882  1.00  0.00    -0.206 F 
ATOM     82  C   UNL A   1      42.442  21.160  26.685  1.00  0.00     0.060 A 
BRANCH  82  83
ATOM     83  S   UNL A   1      42.159  19.509  26.008  1.00  0.00     0.124 S 
ATOM     84  O   UNL A   1      42.609  18.663  27.108  1.00  0.00    -0.237 OA
ATOM     85  O   UNL A   1      40.722  19.520  25.757  1.00  0.00    -0.237 OA
ATOM     86  O   UNL A   1      42.996  19.491  24.812  1.00  0.00    -0.744 OA
ENDBRANCH  82  83
ENDBRANCH  50  75
BRANCH  62  87
ATOM     87  C   UNL A   1      48.365  27.434  29.821  1.00  0.00     0.058 A 
ATOM     88  C   UNL A   1      49.269  27.653  28.771  1.00  0.00     0.135 A 
ATOM     89  C   UNL A   1      48.870  26.931  31.030  1.00  0.00     0.135 A 
ATOM     90  F   UNL A   1      48.833  28.125  27.591  1.00  0.00    -0.206 F 
ATOM     91  C   UNL A   1      50.622  27.363  28.907  1.00  0.00     0.059 A 
ATOM     92  C   UNL A   1      50.224  26.658  31.196  1.00  0.00     0.059 A 
ATOM     93  F   UNL A   1      48.048  26.712  32.068  1.00  0.00    -0.206 F 
ATOM     94  C   UNL A   1      51.091  26.869  30.125  1.00  0.00     0.060 A 
BRANCH  94  95
ATOM     95  S   UNL A   1      52.856  26.534  30.301  1.00  0.00     0.124 S 
ATOM     96  O   UNL A   1      53.360  27.834  30.733  1.00  0.00    -0.237 OA
ATOM     97  O   UNL A   1      52.875  25.480  31.312  1.00  0.00    -0.237 OA
ATOM     98  O   UNL A   1      53.258  26.116  28.962  1.00  0.00    -0.744 OA
ENDBRANCH  94  95
ENDBRANCH  62  87
ENDBRANCH  36  37
ENDBRANCH  28  31
ENDBRANCH  26  27
ENDBRANCH  25  26
ENDBRANCH   1  25
TORSDOF 17
ENDMDL
