MODEL 1
REMARK VINA RESULT:     -12.1      0.000      0.000
REMARK SMILES CC[NH2+][C@@]1(C(=O)NCCCNC(=O)c2ccc(-c3c4nc(c(-c5c(F)cc(S(=O)(=O)[O-])cc5F)c5ccc([nH]5)c(-c5c(F)cc(S(=O)(=O)[O-])cc5F)c5nc(c(-c6c(F)cc(S(=O)(=O)[O-])cc6F)c6ccc3[nH]6)C=C5)C=C4)cc2)CC[C@H]([NH+]2CCC(C(C)(C)C)CC2)C1
REMARK SMILES IDX 9 1 8 2 7 3 5 4 6 5 4 7 80 8 93 9 81 10 82 11 3 12 2 15 1 16
REMARK SMILES IDX 83 17 84 18 92 19 85 21 91 22 86 23 87 24 88 25 89 26 90 27
REMARK SMILES IDX 10 28 11 29 12 30 13 32 14 33 15 34 79 35 16 36 78 37 17 38
REMARK SMILES IDX 18 39 19 40 72 41 20 42 77 43 71 44 73 45 21 46 76 47 70 48
REMARK SMILES IDX 69 49 22 51 56 52 35 53 55 54 36 55 39 56 54 57 74 58 37 59
REMARK SMILES IDX 38 60 53 62 75 63 40 64 23 65 24 66 33 67 25 68 26 69 32 70
REMARK SMILES IDX 34 71 27 72 28 73 29 74 30 75 31 76 57 77 58 78 67 79 59 80
REMARK SMILES IDX 60 81 66 82 68 83 61 84 62 85 63 86 64 87 65 88 41 89 42 90
REMARK SMILES IDX 51 91 43 92 44 93 50 94 52 95 45 96 46 97 47 98 48 99 49 100
REMARK H PARENT 7 6 3 13 3 14 83 20 11 31 73 50 39 61
REMARK Flexibility Score: inf
ROOT
ATOM      1  C   UNL A   1      37.758  22.891  25.648  1.00  0.00     0.042 C 
ENDROOT
BRANCH   1   2
ATOM      2  C   UNL A   1      36.808  23.306  24.518  1.00  0.00     0.118 C 
BRANCH   2   3
ATOM      3  N   UNL A   1      35.485  22.679  24.698  1.00  0.00    -0.351 N 
ATOM      4  C   UNL A   1      34.406  22.974  23.881  1.00  0.00     0.281 C 
ATOM      5  O   UNL A   1      34.591  23.328  22.714  1.00  0.00    -0.268 OA
ATOM      6  H   UNL A   1      35.365  22.027  25.426  1.00  0.00     0.163 HD
BRANCH   4   7
ATOM      7  C   UNL A   1      32.933  22.790  24.479  1.00  0.00     0.181 C 
ATOM      8  C   UNL A   1      31.906  22.501  23.344  1.00  0.00     0.085 C 
ATOM      9  C   UNL A   1      32.291  24.012  25.182  1.00  0.00     0.144 C 
ATOM     10  C   UNL A   1      30.981  23.716  23.181  1.00  0.00     0.072 C 
ATOM     11  C   UNL A   1      31.465  24.817  24.122  1.00  0.00     0.191 C 
BRANCH   7  12
ATOM     12  N   UNL A   1      32.949  21.538  25.276  1.00  0.00    -0.334 N 
ATOM     13  H   UNL A   1      33.908  21.390  25.591  1.00  0.00     0.347 HD
ATOM     14  H   UNL A   1      32.261  21.694  26.011  1.00  0.00     0.347 HD
BRANCH  12  15
ATOM     15  C   UNL A   1      32.515  20.314  24.628  1.00  0.00     0.257 C 
ATOM     16  C   UNL A   1      33.687  19.338  24.646  1.00  0.00     0.071 C 
ENDBRANCH  12  15
ENDBRANCH   7  12
BRANCH  11  17
ATOM     17  N   UNL A   1      32.092  26.017  23.545  1.00  0.00    -0.332 N 
ATOM     18  C   UNL A   1      33.469  26.372  23.882  1.00  0.00     0.262 C 
ATOM     19  C   UNL A   1      31.311  27.219  23.495  1.00  0.00     0.262 C 
ATOM     20  H   UNL A   1      32.138  25.597  22.617  1.00  0.00     0.348 HD
ATOM     21  C   UNL A   1      33.671  27.366  25.057  1.00  0.00     0.066 C 
ATOM     22  C   UNL A   1      31.218  27.906  24.836  1.00  0.00     0.066 C 
ATOM     23  C   UNL A   1      32.568  28.444  25.266  1.00  0.00     0.005 C 
BRANCH  23  24
ATOM     24  C   UNL A   1      32.490  29.074  26.711  1.00  0.00    -0.035 C 
ATOM     25  C   UNL A   1      33.913  29.162  27.283  1.00  0.00     0.011 C 
ATOM     26  C   UNL A   1      31.910  30.513  26.680  1.00  0.00     0.011 C 
ATOM     27  C   UNL A   1      31.600  28.265  27.679  1.00  0.00     0.011 C 
ENDBRANCH  23  24
ENDBRANCH  11  17
ENDBRANCH   4   7
ENDBRANCH   2   3
ENDBRANCH   1   2
BRANCH   1  28
ATOM     28  C   UNL A   1      38.615  23.976  26.294  1.00  0.00     0.118 C 
BRANCH  28  29
ATOM     29  N   UNL A   1      40.065  23.946  26.102  1.00  0.00    -0.352 N 
ATOM     30  C   UNL A   1      41.054  24.698  26.733  1.00  0.00     0.251 C 
ATOM     31  H   UNL A   1      40.389  23.302  25.431  1.00  0.00     0.163 HD
ATOM     32  O   UNL A   1      42.238  24.479  26.476  1.00  0.00    -0.269 OA
BRANCH  30  33
ATOM     33  C   UNL A   1      40.699  25.803  27.670  1.00  0.00     0.039 A 
ATOM     34  C   UNL A   1      39.693  25.634  28.631  1.00  0.00     0.014 A 
ATOM     35  C   UNL A   1      41.405  26.998  27.648  1.00  0.00     0.014 A 
ATOM     36  C   UNL A   1      39.500  26.609  29.626  1.00  0.00     0.010 A 
ATOM     37  C   UNL A   1      41.349  27.856  28.734  1.00  0.00     0.010 A 
ATOM     38  C   UNL A   1      40.372  27.703  29.724  1.00  0.00    -0.014 A 
BRANCH  38  39
ATOM     39  C   UNL A   1      40.280  28.756  30.778  1.00  0.00     0.031 A 
ATOM     40  C   UNL A   1      41.179  28.658  31.993  1.00  0.00     0.074 A 
ATOM     41  C   UNL A   1      39.325  29.708  30.724  1.00  0.00     0.049 A 
ATOM     42  N   UNL A   1      41.126  29.309  33.126  1.00  0.00    -0.248 NA
ATOM     43  C   UNL A   1      42.229  27.623  31.958  1.00  0.00     0.031 C 
ATOM     44  C   UNL A   1      38.337  29.869  29.655  1.00  0.00     0.029 A 
ATOM     45  N   UNL A   1      39.019  30.718  31.603  1.00  0.00    -0.354 N 
ATOM     46  C   UNL A   1      42.084  28.718  33.945  1.00  0.00     0.074 A 
ATOM     47  C   UNL A   1      42.624  27.593  33.220  1.00  0.00     0.031 C 
ATOM     48  C   UNL A   1      37.573  30.942  29.915  1.00  0.00     0.029 A 
ATOM     49  C   UNL A   1      37.982  31.522  31.189  1.00  0.00     0.049 A 
ATOM     50  H   UNL A   1      39.499  30.856  32.452  1.00  0.00     0.167 HD
ATOM     51  C   UNL A   1      42.525  29.107  35.166  1.00  0.00     0.037 A 
ATOM     52  C   UNL A   1      37.432  32.607  31.770  1.00  0.00     0.037 A 
ATOM     53  C   UNL A   1      42.052  30.291  35.831  1.00  0.00     0.049 A 
ATOM     54  C   UNL A   1      37.989  33.078  33.089  1.00  0.00     0.074 A 
ATOM     55  C   UNL A   1      42.478  30.840  37.025  1.00  0.00     0.029 A 
ATOM     56  N   UNL A   1      41.062  31.127  35.332  1.00  0.00    -0.354 N 
ATOM     57  N   UNL A   1      38.929  32.536  33.828  1.00  0.00    -0.248 NA
ATOM     58  C   UNL A   1      37.423  34.314  33.645  1.00  0.00     0.031 C 
ATOM     59  C   UNL A   1      41.725  31.996  37.263  1.00  0.00     0.029 A 
ATOM     60  C   UNL A   1      40.865  32.191  36.193  1.00  0.00     0.049 A 
ATOM     61  H   UNL A   1      40.572  30.983  34.491  1.00  0.00     0.167 HD
ATOM     62  C   UNL A   1      39.096  33.386  34.916  1.00  0.00     0.074 A 
ATOM     63  C   UNL A   1      38.164  34.480  34.733  1.00  0.00     0.031 C 
ATOM     64  C   UNL A   1      39.944  33.277  35.970  1.00  0.00     0.037 A 
BRANCH  51  65
ATOM     65  C   UNL A   1      43.593  28.270  35.825  1.00  0.00     0.058 A 
ATOM     66  C   UNL A   1      43.272  27.208  36.691  1.00  0.00     0.135 A 
ATOM     67  C   UNL A   1      44.953  28.535  35.602  1.00  0.00     0.135 A 
ATOM     68  F   UNL A   1      41.989  26.914  36.956  1.00  0.00    -0.206 F 
ATOM     69  C   UNL A   1      44.257  26.483  37.355  1.00  0.00     0.059 A 
ATOM     70  C   UNL A   1      45.956  27.795  36.225  1.00  0.00     0.059 A 
ATOM     71  F   UNL A   1      45.323  29.532  34.783  1.00  0.00    -0.206 F 
ATOM     72  C   UNL A   1      45.597  26.788  37.119  1.00  0.00     0.060 A 
BRANCH  72  73
ATOM     73  S   UNL A   1      46.860  25.846  38.000  1.00  0.00     0.124 S 
ATOM     74  O   UNL A   1      47.176  26.747  39.104  1.00  0.00    -0.237 OA
ATOM     75  O   UNL A   1      46.145  24.627  38.362  1.00  0.00    -0.237 OA
ATOM     76  O   UNL A   1      47.914  25.679  37.005  1.00  0.00    -0.744 OA
ENDBRANCH  72  73
ENDBRANCH  51  65
BRANCH  52  77
ATOM     77  C   UNL A   1      36.354  33.365  31.075  1.00  0.00     0.058 A 
ATOM     78  C   UNL A   1      35.041  33.358  31.572  1.00  0.00     0.135 A 
ATOM     79  C   UNL A   1      36.608  34.128  29.925  1.00  0.00     0.135 A 
ATOM     80  F   UNL A   1      34.743  32.642  32.667  1.00  0.00    -0.206 F 
ATOM     81  C   UNL A   1      34.016  34.060  30.946  1.00  0.00     0.059 A 
ATOM     82  C   UNL A   1      35.604  34.861  29.295  1.00  0.00     0.059 A 
ATOM     83  F   UNL A   1      37.850  34.187  29.418  1.00  0.00    -0.206 F 
ATOM     84  C   UNL A   1      34.309  34.814  29.808  1.00  0.00     0.060 A 
BRANCH  84  85
ATOM     85  S   UNL A   1      32.980  35.764  29.036  1.00  0.00     0.124 S 
ATOM     86  O   UNL A   1      33.726  36.822  28.365  1.00  0.00    -0.237 OA
ATOM     87  O   UNL A   1      32.359  34.770  28.165  1.00  0.00    -0.237 OA
ATOM     88  O   UNL A   1      32.167  36.188  30.171  1.00  0.00    -0.744 OA
ENDBRANCH  84  85
ENDBRANCH  52  77
BRANCH  64  89
ATOM     89  C   UNL A   1      39.947  34.398  36.970  1.00  0.00     0.058 A 
ATOM     90  C   UNL A   1      40.737  35.543  36.797  1.00  0.00     0.135 A 
ATOM     91  C   UNL A   1      39.101  34.343  38.090  1.00  0.00     0.135 A 
ATOM     92  F   UNL A   1      41.562  35.643  35.742  1.00  0.00    -0.206 F 
ATOM     93  C   UNL A   1      40.716  36.582  37.721  1.00  0.00     0.059 A 
ATOM     94  C   UNL A   1      39.041  35.383  39.009  1.00  0.00     0.059 A 
ATOM     95  F   UNL A   1      38.312  33.274  38.291  1.00  0.00    -0.206 F 
ATOM     96  C   UNL A   1      39.865  36.492  38.824  1.00  0.00     0.060 A 
BRANCH  96  97
ATOM     97  S   UNL A   1      39.832  37.856  40.005  1.00  0.00     0.124 S 
ATOM     98  O   UNL A   1      38.652  38.593  39.568  1.00  0.00    -0.237 OA
ATOM     99  O   UNL A   1      39.709  37.160  41.283  1.00  0.00    -0.237 OA
ATOM    100  O   UNL A   1      41.109  38.527  39.785  1.00  0.00    -0.744 OA
ENDBRANCH  96  97
ENDBRANCH  64  89
ENDBRANCH  38  39
ENDBRANCH  30  33
ENDBRANCH  28  29
ENDBRANCH   1  28
TORSDOF 17
ENDMDL
MODEL 2
REMARK VINA RESULT:     -11.9      6.730     12.265
REMARK SMILES CC[NH2+][C@@]1(C(=O)NCCCNC(=O)c2ccc(-c3c4nc(c(-c5c(F)cc(S(=O)(=O)[O-])cc5F)c5ccc([nH]5)c(-c5c(F)cc(S(=O)(=O)[O-])cc5F)c5nc(c(-c6c(F)cc(S(=O)(=O)[O-])cc6F)c6ccc3[nH]6)C=C5)C=C4)cc2)CC[C@H]([NH+]2CCC(C(C)(C)C)CC2)C1
REMARK SMILES IDX 9 1 8 2 7 3 5 4 6 5 4 7 80 8 93 9 81 10 82 11 3 12 2 15 1 16
REMARK SMILES IDX 83 17 84 18 92 19 85 21 91 22 86 23 87 24 88 25 89 26 90 27
REMARK SMILES IDX 10 28 11 29 12 30 13 32 14 33 15 34 79 35 16 36 78 37 17 38
REMARK SMILES IDX 18 39 19 40 72 41 20 42 77 43 71 44 73 45 21 46 76 47 70 48
REMARK SMILES IDX 69 49 22 51 56 52 35 53 55 54 36 55 39 56 54 57 74 58 37 59
REMARK SMILES IDX 38 60 53 62 75 63 40 64 23 65 24 66 33 67 25 68 26 69 32 70
REMARK SMILES IDX 34 71 27 72 28 73 29 74 30 75 31 76 57 77 58 78 67 79 59 80
REMARK SMILES IDX 60 81 66 82 68 83 61 84 62 85 63 86 64 87 65 88 41 89 42 90
REMARK SMILES IDX 51 91 43 92 44 93 50 94 52 95 45 96 46 97 47 98 48 99 49 100
REMARK H PARENT 7 6 3 13 3 14 83 20 11 31 73 50 39 61
REMARK Flexibility Score: inf
ROOT
ATOM      1  C   UNL A   1      34.027  28.764  27.257  1.00  0.00     0.042 C 
ENDROOT
BRANCH   1   2
ATOM      2  C   UNL A   1      32.517  29.025  27.211  1.00  0.00     0.118 C 
BRANCH   2   3
ATOM      3  N   UNL A   1      31.970  28.668  25.889  1.00  0.00    -0.351 N 
ATOM      4  C   UNL A   1      31.401  27.432  25.630  1.00  0.00     0.281 C 
ATOM      5  O   UNL A   1      30.858  26.798  26.539  1.00  0.00    -0.268 OA
ATOM      6  H   UNL A   1      32.011  29.332  25.164  1.00  0.00     0.163 HD
BRANCH   4   7
ATOM      7  C   UNL A   1      31.425  26.890  24.125  1.00  0.00     0.181 C 
ATOM      8  C   UNL A   1      30.159  26.031  23.825  1.00  0.00     0.085 C 
ATOM      9  C   UNL A   1      32.566  25.917  23.735  1.00  0.00     0.144 C 
ATOM     10  C   UNL A   1      30.574  24.561  23.669  1.00  0.00     0.072 C 
ATOM     11  C   UNL A   1      32.068  24.450  23.967  1.00  0.00     0.191 C 
BRANCH   7  12
ATOM     12  N   UNL A   1      31.272  28.073  23.242  1.00  0.00    -0.334 N 
ATOM     13  H   UNL A   1      31.886  28.803  23.604  1.00  0.00     0.347 HD
ATOM     14  H   UNL A   1      31.498  27.727  22.310  1.00  0.00     0.347 HD
BRANCH  12  15
ATOM     15  C   UNL A   1      29.950  28.653  23.103  1.00  0.00     0.257 C 
ATOM     16  C   UNL A   1      30.016  29.703  21.999  1.00  0.00     0.071 C 
ENDBRANCH  12  15
ENDBRANCH   7  12
BRANCH  11  17
ATOM     17  N   UNL A   1      32.495  23.779  25.205  1.00  0.00    -0.332 N 
ATOM     18  C   UNL A   1      33.439  24.425  26.115  1.00  0.00     0.262 C 
ATOM     19  C   UNL A   1      32.821  22.383  25.129  1.00  0.00     0.262 C 
ATOM     20  H   UNL A   1      31.578  23.896  25.634  1.00  0.00     0.348 HD
ATOM     21  C   UNL A   1      34.941  24.084  25.929  1.00  0.00     0.066 C 
ATOM     22  C   UNL A   1      34.179  22.137  24.520  1.00  0.00     0.066 C 
ATOM     23  C   UNL A   1      35.282  22.652  25.424  1.00  0.00     0.005 C 
BRANCH  23  24
ATOM     24  C   UNL A   1      36.695  22.484  24.742  1.00  0.00    -0.035 C 
ATOM     25  C   UNL A   1      36.592  22.955  23.283  1.00  0.00     0.011 C 
ATOM     26  C   UNL A   1      37.777  23.352  25.437  1.00  0.00     0.011 C 
ATOM     27  C   UNL A   1      37.216  21.031  24.772  1.00  0.00     0.011 C 
ENDBRANCH  23  24
ENDBRANCH  11  17
ENDBRANCH   4   7
ENDBRANCH   2   3
ENDBRANCH   1   2
BRANCH   1  28
ATOM     28  C   UNL A   1      34.947  29.943  27.561  1.00  0.00     0.118 C 
BRANCH  28  29
ATOM     29  N   UNL A   1      35.096  30.392  28.946  1.00  0.00    -0.352 N 
ATOM     30  C   UNL A   1      36.227  30.379  29.760  1.00  0.00     0.251 C 
ATOM     31  H   UNL A   1      34.281  30.754  29.363  1.00  0.00     0.163 HD
ATOM     32  O   UNL A   1      36.166  30.865  30.889  1.00  0.00    -0.269 OA
BRANCH  30  33
ATOM     33  C   UNL A   1      37.494  29.737  29.306  1.00  0.00     0.039 A 
ATOM     34  C   UNL A   1      37.905  29.823  27.968  1.00  0.00     0.014 A 
ATOM     35  C   UNL A   1      38.322  29.095  30.216  1.00  0.00     0.014 A 
ATOM     36  C   UNL A   1      39.186  29.379  27.595  1.00  0.00     0.010 A 
ATOM     37  C   UNL A   1      39.645  28.842  29.892  1.00  0.00     0.010 A 
ATOM     38  C   UNL A   1      40.094  28.940  28.570  1.00  0.00    -0.014 A 
BRANCH  38  39
ATOM     39  C   UNL A   1      41.492  28.504  28.277  1.00  0.00     0.031 A 
ATOM     40  C   UNL A   1      42.594  29.543  28.251  1.00  0.00     0.074 A 
ATOM     41  C   UNL A   1      41.757  27.233  27.910  1.00  0.00     0.049 A 
ATOM     42  N   UNL A   1      43.820  29.448  27.804  1.00  0.00    -0.248 NA
ATOM     43  C   UNL A   1      42.238  30.898  28.711  1.00  0.00     0.031 C 
ATOM     44  C   UNL A   1      40.777  26.149  27.811  1.00  0.00     0.029 A 
ATOM     45  N   UNL A   1      42.938  26.638  27.538  1.00  0.00    -0.354 N 
ATOM     46  C   UNL A   1      44.346  30.735  27.874  1.00  0.00     0.074 A 
ATOM     47  C   UNL A   1      43.276  31.607  28.299  1.00  0.00     0.031 C 
ATOM     48  C   UNL A   1      41.404  25.015  27.456  1.00  0.00     0.029 A 
ATOM     49  C   UNL A   1      42.822  25.296  27.258  1.00  0.00     0.049 A 
ATOM     50  H   UNL A   1      43.791  27.127  27.478  1.00  0.00     0.167 HD
ATOM     51  C   UNL A   1      45.617  31.153  27.663  1.00  0.00     0.037 A 
ATOM     52  C   UNL A   1      43.757  24.396  26.891  1.00  0.00     0.037 A 
ATOM     53  C   UNL A   1      46.695  30.257  27.343  1.00  0.00     0.049 A 
ATOM     54  C   UNL A   1      45.183  24.859  26.743  1.00  0.00     0.074 A 
ATOM     55  C   UNL A   1      48.039  30.541  27.191  1.00  0.00     0.029 A 
ATOM     56  N   UNL A   1      46.548  28.890  27.157  1.00  0.00    -0.354 N 
ATOM     57  N   UNL A   1      45.673  26.071  26.858  1.00  0.00    -0.248 NA
ATOM     58  C   UNL A   1      46.185  23.832  26.430  1.00  0.00     0.031 C 
ATOM     59  C   UNL A   1      48.702  29.348  26.886  1.00  0.00     0.029 A 
ATOM     60  C   UNL A   1      47.778  28.314  26.895  1.00  0.00     0.049 A 
ATOM     61  H   UNL A   1      45.694  28.402  27.203  1.00  0.00     0.167 HD
ATOM     62  C   UNL A   1      47.046  25.947  26.674  1.00  0.00     0.074 A 
ATOM     63  C   UNL A   1      47.306  24.540  26.444  1.00  0.00     0.031 C 
ATOM     64  C   UNL A   1      48.006  26.905  26.693  1.00  0.00     0.037 A 
BRANCH  51  65
ATOM     65  C   UNL A   1      45.906  32.625  27.819  1.00  0.00     0.058 A 
ATOM     66  C   UNL A   1      45.671  33.541  26.777  1.00  0.00     0.135 A 
ATOM     67  C   UNL A   1      46.435  33.131  29.017  1.00  0.00     0.135 A 
ATOM     68  F   UNL A   1      45.179  33.117  25.601  1.00  0.00    -0.206 F 
ATOM     69  C   UNL A   1      46.005  34.886  26.895  1.00  0.00     0.059 A 
ATOM     70  C   UNL A   1      46.739  34.482  29.172  1.00  0.00     0.059 A 
ATOM     71  F   UNL A   1      46.677  32.309  30.051  1.00  0.00    -0.206 F 
ATOM     72  C   UNL A   1      46.543  35.347  28.097  1.00  0.00     0.060 A 
BRANCH  72  73
ATOM     73  S   UNL A   1      46.983  37.092  28.227  1.00  0.00     0.124 S 
ATOM     74  O   UNL A   1      48.427  37.044  28.013  1.00  0.00    -0.237 OA
ATOM     75  O   UNL A   1      46.203  37.693  27.151  1.00  0.00    -0.237 OA
ATOM     76  O   UNL A   1      46.561  37.448  29.578  1.00  0.00    -0.744 OA
ENDBRANCH  72  73
ENDBRANCH  51  65
BRANCH  52  77
ATOM     77  C   UNL A   1      43.391  22.962  26.720  1.00  0.00     0.058 A 
ATOM     78  C   UNL A   1      43.418  22.364  25.450  1.00  0.00     0.135 A 
ATOM     79  C   UNL A   1      43.032  22.154  27.811  1.00  0.00     0.135 A 
ATOM     80  F   UNL A   1      43.750  23.093  24.374  1.00  0.00    -0.206 F 
ATOM     81  C   UNL A   1      43.086  21.026  25.262  1.00  0.00     0.059 A 
ATOM     82  C   UNL A   1      42.722  20.805  27.652  1.00  0.00     0.059 A 
ATOM     83  F   UNL A   1      43.009  22.669  29.050  1.00  0.00    -0.206 F 
ATOM     84  C   UNL A   1      42.742  20.252  26.372  1.00  0.00     0.060 A 
BRANCH  84  85
ATOM     85  S   UNL A   1      42.365  18.502  26.121  1.00  0.00     0.124 S 
ATOM     86  O   UNL A   1      40.955  18.556  25.751  1.00  0.00    -0.237 OA
ATOM     87  O   UNL A   1      43.292  18.139  25.054  1.00  0.00    -0.237 OA
ATOM     88  O   UNL A   1      42.653  17.907  27.422  1.00  0.00    -0.744 OA
ENDBRANCH  84  85
ENDBRANCH  52  77
BRANCH  64  89
ATOM     89  C   UNL A   1      49.430  26.456  26.526  1.00  0.00     0.058 A 
ATOM     90  C   UNL A   1      50.073  26.482  25.280  1.00  0.00     0.135 A 
ATOM     91  C   UNL A   1      50.174  26.044  27.644  1.00  0.00     0.135 A 
ATOM     92  F   UNL A   1      49.405  26.868  24.181  1.00  0.00    -0.206 F 
ATOM     93  C   UNL A   1      51.398  26.081  25.142  1.00  0.00     0.059 A 
ATOM     94  C   UNL A   1      51.507  25.669  27.534  1.00  0.00     0.059 A 
ATOM     95  F   UNL A   1      49.607  26.018  28.862  1.00  0.00    -0.206 F 
ATOM     96  C   UNL A   1      52.106  25.677  26.275  1.00  0.00     0.060 A 
BRANCH  96  97
ATOM     97  S   UNL A   1      53.830  25.178  26.086  1.00  0.00     0.124 S 
ATOM     98  O   UNL A   1      53.690  23.767  25.743  1.00  0.00    -0.237 OA
ATOM     99  O   UNL A   1      54.290  26.050  25.009  1.00  0.00    -0.237 OA
ATOM    100  O   UNL A   1      54.409  25.452  27.397  1.00  0.00    -0.744 OA
ENDBRANCH  96  97
ENDBRANCH  64  89
ENDBRANCH  38  39
ENDBRANCH  30  33
ENDBRANCH  28  29
ENDBRANCH   1  28
TORSDOF 17
ENDMDL
MODEL 3
REMARK VINA RESULT:     -11.7      6.538     12.124
REMARK SMILES CC[NH2+][C@@]1(C(=O)NCCCNC(=O)c2ccc(-c3c4nc(c(-c5c(F)cc(S(=O)(=O)[O-])cc5F)c5ccc([nH]5)c(-c5c(F)cc(S(=O)(=O)[O-])cc5F)c5nc(c(-c6c(F)cc(S(=O)(=O)[O-])cc6F)c6ccc3[nH]6)C=C5)C=C4)cc2)CC[C@H]([NH+]2CCC(C(C)(C)C)CC2)C1
REMARK SMILES IDX 9 1 8 2 7 3 5 4 6 5 4 7 80 8 93 9 81 10 82 11 3 12 2 15 1 16
REMARK SMILES IDX 83 17 84 18 92 19 85 21 91 22 86 23 87 24 88 25 89 26 90 27
REMARK SMILES IDX 10 28 11 29 12 30 13 32 14 33 15 34 79 35 16 36 78 37 17 38
REMARK SMILES IDX 18 39 19 40 72 41 20 42 77 43 71 44 73 45 21 46 76 47 70 48
REMARK SMILES IDX 69 49 22 51 56 52 35 53 55 54 36 55 39 56 54 57 74 58 37 59
REMARK SMILES IDX 38 60 53 62 75 63 40 64 23 65 24 66 33 67 25 68 26 69 32 70
REMARK SMILES IDX 34 71 27 72 28 73 29 74 30 75 31 76 57 77 58 78 67 79 59 80
REMARK SMILES IDX 60 81 66 82 68 83 61 84 62 85 63 86 64 87 65 88 41 89 42 90
REMARK SMILES IDX 51 91 43 92 44 93 50 94 52 95 45 96 46 97 47 98 48 99 49 100
REMARK H PARENT 7 6 3 13 3 14 83 20 11 31 73 50 39 61
REMARK Flexibility Score: inf
ROOT
ATOM      1  C   UNL A   1      34.500  29.435  26.971  1.00  0.00     0.042 C 
ENDROOT
BRANCH   1   2
ATOM      2  C   UNL A   1      33.247  30.160  26.466  1.00  0.00     0.118 C 
BRANCH   2   3
ATOM      3  N   UNL A   1      32.933  29.749  25.084  1.00  0.00    -0.351 N 
ATOM      4  C   UNL A   1      31.641  29.748  24.585  1.00  0.00     0.281 C 
ATOM      5  O   UNL A   1      30.804  30.537  25.032  1.00  0.00    -0.268 OA
ATOM      6  H   UNL A   1      33.670  29.467  24.495  1.00  0.00     0.163 HD
BRANCH   4   7
ATOM      7  C   UNL A   1      31.294  28.740  23.392  1.00  0.00     0.181 C 
ATOM      8  C   UNL A   1      29.951  27.998  23.666  1.00  0.00     0.085 C 
ATOM      9  C   UNL A   1      32.265  27.557  23.151  1.00  0.00     0.144 C 
ATOM     10  C   UNL A   1      30.244  26.519  23.957  1.00  0.00     0.072 C 
ATOM     11  C   UNL A   1      31.759  26.325  23.975  1.00  0.00     0.191 C 
BRANCH   7  12
ATOM     12  N   UNL A   1      31.004  29.575  22.199  1.00  0.00    -0.334 N 
ATOM     13  H   UNL A   1      31.343  30.517  22.398  1.00  0.00     0.347 HD
ATOM     14  H   UNL A   1      31.468  29.091  21.430  1.00  0.00     0.347 HD
BRANCH  12  15
ATOM     15  C   UNL A   1      29.623  29.696  21.771  1.00  0.00     0.257 C 
ATOM     16  C   UNL A   1      29.216  31.157  21.922  1.00  0.00     0.071 C 
ENDBRANCH  12  15
ENDBRANCH   7  12
BRANCH  11  17
ATOM     17  N   UNL A   1      32.422  26.052  25.260  1.00  0.00    -0.332 N 
ATOM     18  C   UNL A   1      33.864  26.241  25.408  1.00  0.00     0.262 C 
ATOM     19  C   UNL A   1      32.045  24.861  25.966  1.00  0.00     0.262 C 
ATOM     20  H   UNL A   1      31.993  26.865  25.701  1.00  0.00     0.348 HD
ATOM     21  C   UNL A   1      34.763  24.997  25.178  1.00  0.00     0.066 C 
ATOM     22  C   UNL A   1      32.663  23.617  25.376  1.00  0.00     0.066 C 
ATOM     23  C   UNL A   1      34.166  23.614  25.567  1.00  0.00     0.005 C 
BRANCH  23  24
ATOM     24  C   UNL A   1      34.821  22.362  24.864  1.00  0.00    -0.035 C 
ATOM     25  C   UNL A   1      35.677  21.613  25.897  1.00  0.00     0.011 C 
ATOM     26  C   UNL A   1      33.748  21.369  24.341  1.00  0.00     0.011 C 
ATOM     27  C   UNL A   1      35.698  22.736  23.650  1.00  0.00     0.011 C 
ENDBRANCH  23  24
ENDBRANCH  11  17
ENDBRANCH   4   7
ENDBRANCH   2   3
ENDBRANCH   1   2
BRANCH   1  28
ATOM     28  C   UNL A   1      35.554  30.257  27.707  1.00  0.00     0.118 C 
BRANCH  28  29
ATOM     29  N   UNL A   1      35.376  30.530  29.133  1.00  0.00    -0.352 N 
ATOM     30  C   UNL A   1      36.341  30.696  30.125  1.00  0.00     0.251 C 
ATOM     31  H   UNL A   1      34.443  30.607  29.436  1.00  0.00     0.163 HD
ATOM     32  O   UNL A   1      35.989  30.985  31.269  1.00  0.00    -0.269 OA
BRANCH  30  33
ATOM     33  C   UNL A   1      37.787  30.472  29.837  1.00  0.00     0.039 A 
ATOM     34  C   UNL A   1      38.710  30.308  30.880  1.00  0.00     0.014 A 
ATOM     35  C   UNL A   1      38.234  30.358  28.528  1.00  0.00     0.014 A 
ATOM     36  C   UNL A   1      40.029  29.910  30.596  1.00  0.00     0.010 A 
ATOM     37  C   UNL A   1      39.465  29.781  28.263  1.00  0.00     0.010 A 
ATOM     38  C   UNL A   1      40.402  29.582  29.284  1.00  0.00    -0.014 A 
BRANCH  38  39
ATOM     39  C   UNL A   1      41.760  29.098  28.896  1.00  0.00     0.031 A 
ATOM     40  C   UNL A   1      42.909  30.085  28.867  1.00  0.00     0.074 A 
ATOM     41  C   UNL A   1      41.945  27.837  28.451  1.00  0.00     0.049 A 
ATOM     42  N   UNL A   1      44.106  29.958  28.353  1.00  0.00    -0.248 NA
ATOM     43  C   UNL A   1      42.643  31.428  29.413  1.00  0.00     0.031 C 
ATOM     44  C   UNL A   1      40.910  26.806  28.347  1.00  0.00     0.029 A 
ATOM     45  N   UNL A   1      43.075  27.210  27.989  1.00  0.00    -0.354 N 
ATOM     46  C   UNL A   1      44.696  31.214  28.461  1.00  0.00     0.074 A 
ATOM     47  C   UNL A   1      43.693  32.109  28.985  1.00  0.00     0.031 C 
ATOM     48  C   UNL A   1      41.462  25.666  27.903  1.00  0.00     0.029 A 
ATOM     49  C   UNL A   1      42.880  25.892  27.646  1.00  0.00     0.049 A 
ATOM     50  H   UNL A   1      43.947  27.662  27.909  1.00  0.00     0.167 HD
ATOM     51  C   UNL A   1      45.975  31.583  28.207  1.00  0.00     0.037 A 
ATOM     52  C   UNL A   1      43.751  24.971  27.186  1.00  0.00     0.037 A 
ATOM     53  C   UNL A   1      46.991  30.657  27.786  1.00  0.00     0.049 A 
ATOM     54  C   UNL A   1      45.189  25.374  26.988  1.00  0.00     0.074 A 
ATOM     55  C   UNL A   1      48.338  30.886  27.579  1.00  0.00     0.029 A 
ATOM     56  N   UNL A   1      46.768  29.309  27.537  1.00  0.00    -0.354 N 
ATOM     57  N   UNL A   1      45.743  26.555  27.140  1.00  0.00    -0.248 NA
ATOM     58  C   UNL A   1      46.123  24.320  26.571  1.00  0.00     0.031 C 
ATOM     59  C   UNL A   1      48.926  29.681  27.179  1.00  0.00     0.029 A 
ATOM     60  C   UNL A   1      47.954  28.692  27.183  1.00  0.00     0.049 A 
ATOM     61  H   UNL A   1      45.895  28.860  27.602  1.00  0.00     0.167 HD
ATOM     62  C   UNL A   1      47.098  26.377  26.878  1.00  0.00     0.074 A 
ATOM     63  C   UNL A   1      47.277  24.974  26.564  1.00  0.00     0.031 C 
ATOM     64  C   UNL A   1      48.103  27.288  26.898  1.00  0.00     0.037 A 
BRANCH  51  65
ATOM     65  C   UNL A   1      46.343  33.030  28.423  1.00  0.00     0.058 A 
ATOM     66  C   UNL A   1      46.789  33.502  29.671  1.00  0.00     0.135 A 
ATOM     67  C   UNL A   1      46.237  33.962  27.379  1.00  0.00     0.135 A 
ATOM     68  F   UNL A   1      46.898  32.663  30.714  1.00  0.00    -0.206 F 
ATOM     69  C   UNL A   1      47.059  34.849  29.890  1.00  0.00     0.059 A 
ATOM     70  C   UNL A   1      46.541  35.309  27.564  1.00  0.00     0.059 A 
ATOM     71  F   UNL A   1      45.822  33.573  26.163  1.00  0.00    -0.206 F 
ATOM     72  C   UNL A   1      46.927  35.747  28.830  1.00  0.00     0.060 A 
BRANCH  72  73
ATOM     73  S   UNL A   1      47.268  37.493  29.136  1.00  0.00     0.124 S 
ATOM     74  O   UNL A   1      48.621  37.622  28.602  1.00  0.00    -0.237 OA
ATOM     75  O   UNL A   1      46.219  38.155  28.368  1.00  0.00    -0.237 OA
ATOM     76  O   UNL A   1      47.151  37.613  30.585  1.00  0.00    -0.744 OA
ENDBRANCH  72  73
ENDBRANCH  51  65
BRANCH  52  77
ATOM     77  C   UNL A   1      43.307  23.566  26.961  1.00  0.00     0.058 A 
ATOM     78  C   UNL A   1      43.103  23.081  25.659  1.00  0.00     0.135 A 
ATOM     79  C   UNL A   1      43.102  22.674  28.025  1.00  0.00     0.135 A 
ATOM     80  F   UNL A   1      43.282  23.893  24.606  1.00  0.00    -0.206 F 
ATOM     81  C   UNL A   1      42.694  21.772  25.419  1.00  0.00     0.059 A 
ATOM     82  C   UNL A   1      42.718  21.352  27.810  1.00  0.00     0.059 A 
ATOM     83  F   UNL A   1      43.302  23.079  29.289  1.00  0.00    -0.206 F 
ATOM     84  C   UNL A   1      42.508  20.913  26.503  1.00  0.00     0.060 A 
BRANCH  84  85
ATOM     85  S   UNL A   1      42.028  19.202  26.175  1.00  0.00     0.124 S 
ATOM     86  O   UNL A   1      42.879  18.870  25.038  1.00  0.00    -0.237 OA
ATOM     87  O   UNL A   1      42.361  18.544  27.435  1.00  0.00    -0.237 OA
ATOM     88  O   UNL A   1      40.600  19.303  25.887  1.00  0.00    -0.744 OA
ENDBRANCH  84  85
ENDBRANCH  52  77
BRANCH  64  89
ATOM     89  C   UNL A   1      49.493  26.783  26.633  1.00  0.00     0.058 A 
ATOM     90  C   UNL A   1      50.329  26.339  27.668  1.00  0.00     0.135 A 
ATOM     91  C   UNL A   1      49.970  26.695  25.315  1.00  0.00     0.135 A 
ATOM     92  F   UNL A   1      49.919  26.403  28.945  1.00  0.00    -0.206 F 
ATOM     93  C   UNL A   1      51.607  25.857  27.407  1.00  0.00     0.059 A 
ATOM     94  C   UNL A   1      51.232  26.187  25.030  1.00  0.00     0.059 A 
ATOM     95  F   UNL A   1      49.200  27.092  24.288  1.00  0.00    -0.206 F 
ATOM     96  C   UNL A   1      52.049  25.785  26.085  1.00  0.00     0.060 A 
BRANCH  96  97
ATOM     97  S   UNL A   1      53.702  25.138  25.759  1.00  0.00     0.124 S 
ATOM     98  O   UNL A   1      53.405  23.774  25.338  1.00  0.00    -0.237 OA
ATOM     99  O   UNL A   1      54.187  26.034  24.712  1.00  0.00    -0.237 OA
ATOM    100  O   UNL A   1      54.377  25.266  27.046  1.00  0.00    -0.744 OA
ENDBRANCH  96  97
ENDBRANCH  64  89
ENDBRANCH  38  39
ENDBRANCH  30  33
ENDBRANCH  28  29
ENDBRANCH   1  28
TORSDOF 17
ENDMDL
