MODEL 1
REMARK VINA RESULT:     -11.7      0.000      0.000
REMARK SMILES C[C@H]1[NH2+]CC[C@H]1C(=O)N1CC(C(=O)NCCCNC(=O)c2ccc(-c3c4nc(c(-c5c(F)cc(S(=O)(=O)[O-])cc5F)c5ccc([nH]5)c(-c5c(F)cc(S(=O)(=O)[O-])cc5F)c5nc(c(-c6c(F)cc(S(=O)(=O)[O-])cc6F)c6ccc3[nH]6)C=C5)C=C4)cc2)C1
REMARK SMILES IDX 17 1 16 2 15 3 14 4 12 5 13 6 11 8 7 9 8 10 9 11 10 12 87 13
REMARK SMILES IDX 6 14 1 15 2 16 3 17 4 18 5 21 18 22 19 23 20 25 21 26 22 27
REMARK SMILES IDX 86 28 23 29 85 30 24 31 25 32 26 33 79 34 27 35 84 36 78 37
REMARK SMILES IDX 80 38 28 39 83 40 77 41 76 42 29 44 63 45 42 46 62 47 43 48
REMARK SMILES IDX 46 49 61 50 81 51 44 52 45 53 60 55 82 56 47 57 30 58 31 59
REMARK SMILES IDX 40 60 32 61 33 62 39 63 41 64 34 65 35 66 36 67 37 68 38 69
REMARK SMILES IDX 64 70 65 71 74 72 66 73 67 74 73 75 75 76 68 77 69 78 70 79
REMARK SMILES IDX 71 80 72 81 48 82 49 83 58 84 50 85 51 86 57 87 59 88 52 89
REMARK SMILES IDX 53 90 54 91 55 92 56 93
REMARK H PARENT 14 7 3 19 3 20 18 24 80 43 46 54
REMARK Flexibility Score: inf
ROOT
ATOM      1  C   UNL A   1      33.528  28.249  27.222  1.00  0.00     0.118 C 
ENDROOT
BRANCH   1   2
ATOM      2  C   UNL A   1      32.163  27.669  26.871  1.00  0.00     0.042 C 
BRANCH   2   3
ATOM      3  C   UNL A   1      32.213  26.346  26.116  1.00  0.00     0.117 C 
BRANCH   3   4
ATOM      4  N   UNL A   1      31.335  25.338  26.682  1.00  0.00    -0.356 N 
ATOM      5  C   UNL A   1      31.465  23.975  26.785  1.00  0.00     0.226 C 
ATOM      6  O   UNL A   1      30.540  23.392  27.371  1.00  0.00    -0.275 OA
ATOM      7  H   UNL A   1      30.499  25.695  27.058  1.00  0.00     0.163 HD
BRANCH   5   8
ATOM      8  C   UNL A   1      32.657  23.208  26.206  1.00  0.00     0.117 C 
ATOM      9  C   UNL A   1      33.933  20.447  24.953  1.00  0.00     0.231 C 
ATOM     10  O   UNL A   1      35.001  20.905  24.548  1.00  0.00    -0.274 OA
ATOM     11  N   UNL A   1      32.929  21.260  25.447  1.00  0.00    -0.341 N 
ATOM     12  C   UNL A   1      32.612  22.568  24.829  1.00  0.00     0.134 C 
ATOM     13  C   UNL A   1      33.022  21.860  26.793  1.00  0.00     0.134 C 
BRANCH   9  14
ATOM     14  C   UNL A   1      33.628  18.956  24.880  1.00  0.00     0.142 C 
ATOM     15  C   UNL A   1      32.287  19.075  22.639  1.00  0.00     0.076 C 
ATOM     16  C   UNL A   1      32.451  18.482  24.033  1.00  0.00     0.192 C 
ATOM     17  N   UNL A   1      32.685  17.031  23.929  1.00  0.00    -0.343 N 
ATOM     18  C   UNL A   1      34.124  16.779  24.013  1.00  0.00     0.261 C 
ATOM     19  H   UNL A   1      32.329  16.689  23.036  1.00  0.00     0.346 HD
ATOM     20  H   UNL A   1      32.203  16.547  24.686  1.00  0.00     0.346 HD
ATOM     21  C   UNL A   1      34.785  18.091  24.402  1.00  0.00     0.081 C 
ENDBRANCH   9  14
ENDBRANCH   5   8
ENDBRANCH   3   4
ENDBRANCH   2   3
ENDBRANCH   1   2
BRANCH   1  22
ATOM     22  N   UNL A   1      33.476  29.671  27.537  1.00  0.00    -0.352 N 
ATOM     23  C   UNL A   1      34.419  30.491  28.106  1.00  0.00     0.251 C 
ATOM     24  H   UNL A   1      32.628  30.115  27.304  1.00  0.00     0.163 HD
ATOM     25  O   UNL A   1      34.096  31.629  28.448  1.00  0.00    -0.269 OA
BRANCH  23  26
ATOM     26  C   UNL A   1      35.801  30.014  28.334  1.00  0.00     0.039 A 
ATOM     27  C   UNL A   1      36.712  30.054  27.275  1.00  0.00     0.014 A 
ATOM     28  C   UNL A   1      36.200  29.514  29.577  1.00  0.00     0.014 A 
ATOM     29  C   UNL A   1      38.037  29.661  27.483  1.00  0.00     0.010 A 
ATOM     30  C   UNL A   1      37.539  29.207  29.804  1.00  0.00     0.010 A 
ATOM     31  C   UNL A   1      38.474  29.276  28.761  1.00  0.00    -0.014 A 
BRANCH  31  32
ATOM     32  C   UNL A   1      39.901  28.955  29.027  1.00  0.00     0.031 A 
ATOM     33  C   UNL A   1      40.824  29.997  29.598  1.00  0.00     0.074 A 
ATOM     34  C   UNL A   1      40.382  27.742  28.688  1.00  0.00     0.049 A 
ATOM     35  N   UNL A   1      42.109  29.924  29.834  1.00  0.00    -0.248 NA
ATOM     36  C   UNL A   1      40.230  31.305  29.921  1.00  0.00     0.031 C 
ATOM     37  C   UNL A   1      39.601  26.661  28.081  1.00  0.00     0.029 A 
ATOM     38  N   UNL A   1      41.646  27.214  28.795  1.00  0.00    -0.354 N 
ATOM     39  C   UNL A   1      42.479  31.173  30.317  1.00  0.00     0.074 A 
ATOM     40  C   UNL A   1      41.295  32.003  30.288  1.00  0.00     0.031 C 
ATOM     41  C   UNL A   1      40.395  25.596  27.891  1.00  0.00     0.029 A 
ATOM     42  C   UNL A   1      41.750  25.928  28.320  1.00  0.00     0.049 A 
ATOM     43  H   UNL A   1      42.406  27.712  29.175  1.00  0.00     0.167 HD
ATOM     44  C   UNL A   1      43.690  31.584  30.766  1.00  0.00     0.037 A 
ATOM     45  C   UNL A   1      42.817  25.110  28.228  1.00  0.00     0.037 A 
ATOM     46  C   UNL A   1      44.861  30.745  30.808  1.00  0.00     0.049 A 
ATOM     47  C   UNL A   1      44.153  25.590  28.723  1.00  0.00     0.074 A 
ATOM     48  C   UNL A   1      46.117  31.048  31.300  1.00  0.00     0.029 A 
ATOM     49  N   UNL A   1      44.921  29.443  30.333  1.00  0.00    -0.354 N 
ATOM     50  N   UNL A   1      44.471  26.752  29.243  1.00  0.00    -0.248 NA
ATOM     51  C   UNL A   1      45.277  24.647  28.627  1.00  0.00     0.031 C 
ATOM     52  C   UNL A   1      46.954  29.950  31.071  1.00  0.00     0.029 A 
ATOM     53  C   UNL A   1      46.202  28.938  30.494  1.00  0.00     0.049 A 
ATOM     54  H   UNL A   1      44.166  28.948  29.939  1.00  0.00     0.167 HD
ATOM     55  C   UNL A   1      45.821  26.671  29.563  1.00  0.00     0.074 A 
ATOM     56  C   UNL A   1      46.258  25.341  29.188  1.00  0.00     0.031 C 
ATOM     57  C   UNL A   1      46.625  27.611  30.121  1.00  0.00     0.037 A 
BRANCH  44  58
ATOM     58  C   UNL A   1      43.811  33.007  31.245  1.00  0.00     0.058 A 
ATOM     59  C   UNL A   1      43.583  33.359  32.586  1.00  0.00     0.135 A 
ATOM     60  C   UNL A   1      44.190  34.029  30.359  1.00  0.00     0.135 A 
ATOM     61  F   UNL A   1      43.207  32.426  33.476  1.00  0.00    -0.206 F 
ATOM     62  C   UNL A   1      43.687  34.676  33.022  1.00  0.00     0.059 A 
ATOM     63  C   UNL A   1      44.333  35.348  30.780  1.00  0.00     0.059 A 
ATOM     64  F   UNL A   1      44.424  33.750  29.067  1.00  0.00    -0.206 F 
ATOM     65  C   UNL A   1      44.063  35.665  32.110  1.00  0.00     0.060 A 
BRANCH  65  66
ATOM     66  S   UNL A   1      44.186  37.368  32.691  1.00  0.00     0.124 S 
ATOM     67  O   UNL A   1      43.126  37.411  33.694  1.00  0.00    -0.237 OA
ATOM     68  O   UNL A   1      45.551  37.423  33.208  1.00  0.00    -0.237 OA
ATOM     69  O   UNL A   1      43.943  38.158  31.488  1.00  0.00    -0.744 OA
ENDBRANCH  65  66
ENDBRANCH  44  58
BRANCH  45  70
ATOM     70  C   UNL A   1      42.654  23.745  27.661  1.00  0.00     0.058 A 
ATOM     71  C   UNL A   1      42.724  23.524  26.277  1.00  0.00     0.135 A 
ATOM     72  C   UNL A   1      42.455  22.629  28.490  1.00  0.00     0.135 A 
ATOM     73  F   UNL A   1      42.905  24.558  25.442  1.00  0.00    -0.206 F 
ATOM     74  C   UNL A   1      42.590  22.250  25.733  1.00  0.00     0.059 A 
ATOM     75  C   UNL A   1      42.347  21.342  27.973  1.00  0.00     0.059 A 
ATOM     76  F   UNL A   1      42.399  22.782  29.822  1.00  0.00    -0.206 F 
ATOM     77  C   UNL A   1      42.409  21.164  26.592  1.00  0.00     0.060 A 
BRANCH  77  78
ATOM     78  S   UNL A   1      42.302  19.507  25.880  1.00  0.00     0.124 S 
ATOM     79  O   UNL A   1      43.297  19.579  24.817  1.00  0.00    -0.237 OA
ATOM     80  O   UNL A   1      42.644  18.663  27.021  1.00  0.00    -0.237 OA
ATOM     81  O   UNL A   1      40.913  19.421  25.440  1.00  0.00    -0.744 OA
ENDBRANCH  77  78
ENDBRANCH  45  70
BRANCH  57  82
ATOM     82  C   UNL A   1      48.055  27.228  30.398  1.00  0.00     0.058 A 
ATOM     83  C   UNL A   1      49.075  27.445  29.460  1.00  0.00     0.135 A 
ATOM     84  C   UNL A   1      48.413  26.690  31.645  1.00  0.00     0.135 A 
ATOM     85  F   UNL A   1      48.787  27.950  28.251  1.00  0.00    -0.206 F 
ATOM     86  C   UNL A   1      50.400  27.121  29.740  1.00  0.00     0.059 A 
ATOM     87  C   UNL A   1      49.735  26.388  31.957  1.00  0.00     0.059 A 
ATOM     88  F   UNL A   1      47.478  26.471  32.582  1.00  0.00    -0.206 F 
ATOM     89  C   UNL A   1      50.720  26.596  30.994  1.00  0.00     0.060 A 
BRANCH  89  90
ATOM     90  S   UNL A   1      52.447  26.216  31.356  1.00  0.00     0.124 S 
ATOM     91  O   UNL A   1      52.337  24.890  31.956  1.00  0.00    -0.237 OA
ATOM     92  O   UNL A   1      53.061  26.265  30.033  1.00  0.00    -0.237 OA
ATOM     93  O   UNL A   1      52.848  27.286  32.266  1.00  0.00    -0.744 OA
ENDBRANCH  89  90
ENDBRANCH  57  82
ENDBRANCH  31  32
ENDBRANCH  23  26
ENDBRANCH   1  22
TORSDOF 14
ENDMDL
MODEL 2
REMARK VINA RESULT:     -11.6      3.942      6.969
REMARK SMILES C[C@H]1[NH2+]CC[C@H]1C(=O)N1CC(C(=O)NCCCNC(=O)c2ccc(-c3c4nc(c(-c5c(F)cc(S(=O)(=O)[O-])cc5F)c5ccc([nH]5)c(-c5c(F)cc(S(=O)(=O)[O-])cc5F)c5nc(c(-c6c(F)cc(S(=O)(=O)[O-])cc6F)c6ccc3[nH]6)C=C5)C=C4)cc2)C1
REMARK SMILES IDX 17 1 16 2 15 3 14 4 12 5 13 6 11 8 7 9 8 10 9 11 10 12 87 13
REMARK SMILES IDX 6 14 1 15 2 16 3 17 4 18 5 21 18 22 19 23 20 25 21 26 22 27
REMARK SMILES IDX 86 28 23 29 85 30 24 31 25 32 26 33 79 34 27 35 84 36 78 37
REMARK SMILES IDX 80 38 28 39 83 40 77 41 76 42 29 44 63 45 42 46 62 47 43 48
REMARK SMILES IDX 46 49 61 50 81 51 44 52 45 53 60 55 82 56 47 57 30 58 31 59
REMARK SMILES IDX 40 60 32 61 33 62 39 63 41 64 34 65 35 66 36 67 37 68 38 69
REMARK SMILES IDX 64 70 65 71 74 72 66 73 67 74 73 75 75 76 68 77 69 78 70 79
REMARK SMILES IDX 71 80 72 81 48 82 49 83 58 84 50 85 51 86 57 87 59 88 52 89
REMARK SMILES IDX 53 90 54 91 55 92 56 93
REMARK H PARENT 14 7 3 19 3 20 18 24 80 43 46 54
REMARK Flexibility Score: inf
ROOT
ATOM      1  C   UNL A   1      35.168  33.105  28.246  1.00  0.00     0.118 C 
ENDROOT
BRANCH   1   2
ATOM      2  C   UNL A   1      34.450  34.446  28.149  1.00  0.00     0.042 C 
BRANCH   2   3
ATOM      3  C   UNL A   1      33.202  34.560  29.016  1.00  0.00     0.117 C 
BRANCH   3   4
ATOM      4  N   UNL A   1      33.008  35.893  29.556  1.00  0.00    -0.356 N 
ATOM      5  C   UNL A   1      33.159  36.388  30.829  1.00  0.00     0.226 C 
ATOM      6  O   UNL A   1      32.952  37.604  30.958  1.00  0.00    -0.275 OA
ATOM      7  H   UNL A   1      32.717  36.560  28.894  1.00  0.00     0.163 HD
BRANCH   5   8
ATOM      8  C   UNL A   1      33.539  35.508  32.022  1.00  0.00     0.117 C 
ATOM      9  C   UNL A   1      35.838  34.182  33.967  1.00  0.00     0.231 C 
ATOM     10  O   UNL A   1      35.102  33.759  34.859  1.00  0.00    -0.274 OA
ATOM     11  N   UNL A   1      35.361  34.983  32.945  1.00  0.00    -0.341 N 
ATOM     12  C   UNL A   1      34.354  36.040  33.189  1.00  0.00     0.134 C 
ATOM     13  C   UNL A   1      34.573  34.416  31.833  1.00  0.00     0.134 C 
BRANCH   9  14
ATOM     14  C   UNL A   1      37.334  33.898  33.969  1.00  0.00     0.142 C 
ATOM     15  C   UNL A   1      37.163  31.592  32.747  1.00  0.00     0.076 C 
ATOM     16  C   UNL A   1      37.815  32.457  33.819  1.00  0.00     0.192 C 
ATOM     17  N   UNL A   1      39.248  32.619  33.519  1.00  0.00    -0.343 N 
ATOM     18  C   UNL A   1      39.446  33.898  32.837  1.00  0.00     0.261 C 
ATOM     19  H   UNL A   1      39.561  31.857  32.917  1.00  0.00     0.346 HD
ATOM     20  H   UNL A   1      39.787  32.601  34.385  1.00  0.00     0.346 HD
ATOM     21  C   UNL A   1      38.128  34.652  32.912  1.00  0.00     0.081 C 
ENDBRANCH   9  14
ENDBRANCH   5   8
ENDBRANCH   3   4
ENDBRANCH   2   3
ENDBRANCH   1   2
BRANCH   1  22
ATOM     22  N   UNL A   1      34.276  31.969  28.053  1.00  0.00    -0.352 N 
ATOM     23  C   UNL A   1      34.553  30.628  27.954  1.00  0.00     0.251 C 
ATOM     24  H   UNL A   1      33.321  32.201  27.983  1.00  0.00     0.163 HD
ATOM     25  O   UNL A   1      33.658  29.855  27.610  1.00  0.00    -0.269 OA
BRANCH  23  26
ATOM     26  C   UNL A   1      35.912  30.111  28.229  1.00  0.00     0.039 A 
ATOM     27  C   UNL A   1      36.849  30.087  27.192  1.00  0.00     0.014 A 
ATOM     28  C   UNL A   1      36.262  29.633  29.495  1.00  0.00     0.014 A 
ATOM     29  C   UNL A   1      38.153  29.655  27.444  1.00  0.00     0.010 A 
ATOM     30  C   UNL A   1      37.583  29.286  29.765  1.00  0.00     0.010 A 
ATOM     31  C   UNL A   1      38.545  29.292  28.744  1.00  0.00    -0.014 A 
BRANCH  31  32
ATOM     32  C   UNL A   1      39.953  28.929  29.054  1.00  0.00     0.031 A 
ATOM     33  C   UNL A   1      40.887  29.943  29.656  1.00  0.00     0.074 A 
ATOM     34  C   UNL A   1      40.410  27.703  28.727  1.00  0.00     0.049 A 
ATOM     35  N   UNL A   1      42.161  29.832  29.933  1.00  0.00    -0.248 NA
ATOM     36  C   UNL A   1      40.321  31.267  29.964  1.00  0.00     0.031 C 
ATOM     37  C   UNL A   1      39.617  26.647  28.092  1.00  0.00     0.029 A 
ATOM     38  N   UNL A   1      41.653  27.139  28.873  1.00  0.00    -0.354 N 
ATOM     39  C   UNL A   1      42.551  31.069  30.432  1.00  0.00     0.074 A 
ATOM     40  C   UNL A   1      41.393  31.933  30.367  1.00  0.00     0.031 C 
ATOM     41  C   UNL A   1      40.386  25.559  27.925  1.00  0.00     0.029 A 
ATOM     42  C   UNL A   1      41.735  25.851  28.397  1.00  0.00     0.049 A 
ATOM     43  H   UNL A   1      42.415  27.614  29.278  1.00  0.00     0.167 HD
ATOM     44  C   UNL A   1      43.759  31.444  30.921  1.00  0.00     0.037 A 
ATOM     45  C   UNL A   1      42.781  25.003  28.337  1.00  0.00     0.037 A 
ATOM     46  C   UNL A   1      44.903  30.571  30.997  1.00  0.00     0.049 A 
ATOM     47  C   UNL A   1      44.114  25.443  28.876  1.00  0.00     0.074 A 
ATOM     48  C   UNL A   1      46.152  30.837  31.530  1.00  0.00     0.029 A 
ATOM     49  N   UNL A   1      44.941  29.269  30.521  1.00  0.00    -0.354 N 
ATOM     50  N   UNL A   1      44.448  26.595  29.409  1.00  0.00    -0.248 NA
ATOM     51  C   UNL A   1      45.212  24.469  28.814  1.00  0.00     0.031 C 
ATOM     52  C   UNL A   1      46.963  29.716  31.325  1.00  0.00     0.029 A 
ATOM     53  C   UNL A   1      46.201  28.727  30.722  1.00  0.00     0.049 A 
ATOM     54  H   UNL A   1      44.185  28.797  30.102  1.00  0.00     0.167 HD
ATOM     55  C   UNL A   1      45.785  26.473  29.772  1.00  0.00     0.074 A 
ATOM     56  C   UNL A   1      46.195  25.132  29.408  1.00  0.00     0.031 C 
ATOM     57  C   UNL A   1      46.597  27.389  30.358  1.00  0.00     0.037 A 
BRANCH  44  58
ATOM     58  C   UNL A   1      43.906  32.862  31.407  1.00  0.00     0.058 A 
ATOM     59  C   UNL A   1      43.706  33.207  32.755  1.00  0.00     0.135 A 
ATOM     60  C   UNL A   1      44.282  33.885  30.522  1.00  0.00     0.135 A 
ATOM     61  F   UNL A   1      43.333  32.273  33.645  1.00  0.00    -0.206 F 
ATOM     62  C   UNL A   1      43.833  34.519  33.197  1.00  0.00     0.059 A 
ATOM     63  C   UNL A   1      44.448  35.200  30.950  1.00  0.00     0.059 A 
ATOM     64  F   UNL A   1      44.490  33.614  29.224  1.00  0.00    -0.206 F 
ATOM     65  C   UNL A   1      44.205  35.510  32.287  1.00  0.00     0.060 A 
BRANCH  65  66
ATOM     66  S   UNL A   1      44.359  37.208  32.877  1.00  0.00     0.124 S 
ATOM     67  O   UNL A   1      44.535  37.937  31.625  1.00  0.00    -0.237 OA
ATOM     68  O   UNL A   1      43.086  37.418  33.560  1.00  0.00    -0.237 OA
ATOM     69  O   UNL A   1      45.532  37.162  33.745  1.00  0.00    -0.744 OA
ENDBRANCH  65  66
ENDBRANCH  44  58
BRANCH  45  70
ATOM     70  C   UNL A   1      42.597  23.644  27.761  1.00  0.00     0.058 A 
ATOM     71  C   UNL A   1      42.665  23.431  26.377  1.00  0.00     0.135 A 
ATOM     72  C   UNL A   1      42.378  22.527  28.583  1.00  0.00     0.135 A 
ATOM     73  F   UNL A   1      42.866  24.467  25.548  1.00  0.00    -0.206 F 
ATOM     74  C   UNL A   1      42.512  22.162  25.824  1.00  0.00     0.059 A 
ATOM     75  C   UNL A   1      42.250  21.245  28.058  1.00  0.00     0.059 A 
ATOM     76  F   UNL A   1      42.321  22.673  29.916  1.00  0.00    -0.206 F 
ATOM     77  C   UNL A   1      42.312  21.074  26.676  1.00  0.00     0.060 A 
BRANCH  77  78
ATOM     78  S   UNL A   1      42.179  19.424  25.953  1.00  0.00     0.124 S 
ATOM     79  O   UNL A   1      42.708  18.590  27.025  1.00  0.00    -0.237 OA
ATOM     80  O   UNL A   1      40.745  19.316  25.705  1.00  0.00    -0.237 OA
ATOM     81  O   UNL A   1      43.009  19.516  24.756  1.00  0.00    -0.744 OA
ENDBRANCH  77  78
ENDBRANCH  45  70
BRANCH  57  82
ATOM     82  C   UNL A   1      48.005  26.965  30.679  1.00  0.00     0.058 A 
ATOM     83  C   UNL A   1      49.075  27.224  29.809  1.00  0.00     0.135 A 
ATOM     84  C   UNL A   1      48.293  26.340  31.905  1.00  0.00     0.135 A 
ATOM     85  F   UNL A   1      48.855  27.811  28.623  1.00  0.00    -0.206 F 
ATOM     86  C   UNL A   1      50.379  26.859  30.132  1.00  0.00     0.059 A 
ATOM     87  C   UNL A   1      49.594  25.996  32.261  1.00  0.00     0.059 A 
ATOM     88  F   UNL A   1      47.309  26.077  32.778  1.00  0.00    -0.206 F 
ATOM     89  C   UNL A   1      50.628  26.249  31.363  1.00  0.00     0.060 A 
BRANCH  89  90
ATOM     90  S   UNL A   1      52.330  25.816  31.785  1.00  0.00     0.124 S 
ATOM     91  O   UNL A   1      53.003  25.989  30.502  1.00  0.00    -0.237 OA
ATOM     92  O   UNL A   1      52.656  26.802  32.810  1.00  0.00    -0.237 OA
ATOM     93  O   UNL A   1      52.224  24.440  32.259  1.00  0.00    -0.744 OA
ENDBRANCH  89  90
ENDBRANCH  57  82
ENDBRANCH  31  32
ENDBRANCH  23  26
ENDBRANCH   1  22
TORSDOF 14
ENDMDL
MODEL 3
REMARK VINA RESULT:     -11.4      4.983     10.401
REMARK SMILES C[C@H]1[NH2+]CC[C@H]1C(=O)N1CC(C(=O)NCCCNC(=O)c2ccc(-c3c4nc(c(-c5c(F)cc(S(=O)(=O)[O-])cc5F)c5ccc([nH]5)c(-c5c(F)cc(S(=O)(=O)[O-])cc5F)c5nc(c(-c6c(F)cc(S(=O)(=O)[O-])cc6F)c6ccc3[nH]6)C=C5)C=C4)cc2)C1
REMARK SMILES IDX 17 1 16 2 15 3 14 4 12 5 13 6 11 8 7 9 8 10 9 11 10 12 87 13
REMARK SMILES IDX 6 14 1 15 2 16 3 17 4 18 5 21 18 22 19 23 20 25 21 26 22 27
REMARK SMILES IDX 86 28 23 29 85 30 24 31 25 32 26 33 79 34 27 35 84 36 78 37
REMARK SMILES IDX 80 38 28 39 83 40 77 41 76 42 29 44 63 45 42 46 62 47 43 48
REMARK SMILES IDX 46 49 61 50 81 51 44 52 45 53 60 55 82 56 47 57 30 58 31 59
REMARK SMILES IDX 40 60 32 61 33 62 39 63 41 64 34 65 35 66 36 67 37 68 38 69
REMARK SMILES IDX 64 70 65 71 74 72 66 73 67 74 73 75 75 76 68 77 69 78 70 79
REMARK SMILES IDX 71 80 72 81 48 82 49 83 58 84 50 85 51 86 57 87 59 88 52 89
REMARK SMILES IDX 53 90 54 91 55 92 56 93
REMARK H PARENT 14 7 3 19 3 20 18 24 80 43 46 54
REMARK Flexibility Score: inf
ROOT
ATOM      1  C   UNL A   1      40.358  23.056  27.199  1.00  0.00     0.118 C 
ENDROOT
BRANCH   1   2
ATOM      2  C   UNL A   1      39.078  22.570  26.529  1.00  0.00     0.042 C 
BRANCH   2   3
ATOM      3  C   UNL A   1      38.104  23.677  26.147  1.00  0.00     0.117 C 
BRANCH   3   4
ATOM      4  N   UNL A   1      37.751  23.659  24.739  1.00  0.00    -0.356 N 
ATOM      5  C   UNL A   1      36.624  23.217  24.091  1.00  0.00     0.226 C 
ATOM      6  O   UNL A   1      36.614  23.383  22.861  1.00  0.00    -0.275 OA
ATOM      7  H   UNL A   1      38.442  24.030  24.144  1.00  0.00     0.163 HD
BRANCH   5   8
ATOM      8  C   UNL A   1      35.457  22.545  24.819  1.00  0.00     0.117 C 
ATOM      9  C   UNL A   1      33.681  19.857  25.485  1.00  0.00     0.231 C 
ATOM     10  O   UNL A   1      33.022  20.301  26.425  1.00  0.00    -0.274 OA
ATOM     11  N   UNL A   1      34.724  20.571  24.923  1.00  0.00    -0.341 N 
ATOM     12  C   UNL A   1      35.661  21.363  25.750  1.00  0.00     0.134 C 
ATOM     13  C   UNL A   1      34.471  21.714  24.023  1.00  0.00     0.134 C 
BRANCH   9  14
ATOM     14  C   UNL A   1      33.426  18.465  24.921  1.00  0.00     0.142 C 
ATOM     15  C   UNL A   1      32.183  19.279  22.770  1.00  0.00     0.076 C 
ATOM     16  C   UNL A   1      32.303  18.271  23.906  1.00  0.00     0.192 C 
ATOM     17  N   UNL A   1      32.587  16.935  23.354  1.00  0.00    -0.343 N 
ATOM     18  C   UNL A   1      34.028  16.691  23.428  1.00  0.00     0.261 C 
ATOM     19  H   UNL A   1      32.282  16.894  22.382  1.00  0.00     0.346 HD
ATOM     20  H   UNL A   1      32.087  16.226  23.890  1.00  0.00     0.346 HD
ATOM     21  C   UNL A   1      34.630  17.818  24.252  1.00  0.00     0.081 C 
ENDBRANCH   9  14
ENDBRANCH   5   8
ENDBRANCH   3   4
ENDBRANCH   2   3
ENDBRANCH   1   2
BRANCH   1  22
ATOM     22  N   UNL A   1      41.322  23.601  26.251  1.00  0.00    -0.352 N 
ATOM     23  C   UNL A   1      41.834  24.870  26.134  1.00  0.00     0.251 C 
ATOM     24  H   UNL A   1      41.661  22.956  25.589  1.00  0.00     0.163 HD
ATOM     25  O   UNL A   1      42.505  25.156  25.142  1.00  0.00    -0.269 OA
BRANCH  23  26
ATOM     26  C   UNL A   1      41.567  25.895  27.167  1.00  0.00     0.039 A 
ATOM     27  C   UNL A   1      40.538  25.675  28.088  1.00  0.00     0.014 A 
ATOM     28  C   UNL A   1      42.310  27.077  27.223  1.00  0.00     0.014 A 
ATOM     29  C   UNL A   1      40.306  26.603  29.105  1.00  0.00     0.010 A 
ATOM     30  C   UNL A   1      42.135  27.957  28.289  1.00  0.00     0.010 A 
ATOM     31  C   UNL A   1      41.131  27.732  29.242  1.00  0.00    -0.014 A 
BRANCH  31  32
ATOM     32  C   UNL A   1      40.967  28.677  30.378  1.00  0.00     0.031 A 
ATOM     33  C   UNL A   1      41.827  28.549  31.607  1.00  0.00     0.074 A 
ATOM     34  C   UNL A   1      39.994  29.609  30.331  1.00  0.00     0.049 A 
ATOM     35  N   UNL A   1      41.785  29.235  32.720  1.00  0.00    -0.248 NA
ATOM     36  C   UNL A   1      42.852  27.493  31.593  1.00  0.00     0.031 C 
ATOM     37  C   UNL A   1      39.061  29.802  29.218  1.00  0.00     0.029 A 
ATOM     38  N   UNL A   1      39.618  30.562  31.245  1.00  0.00    -0.354 N 
ATOM     39  C   UNL A   1      42.762  28.688  33.542  1.00  0.00     0.074 A 
ATOM     40  C   UNL A   1      43.344  27.577  32.821  1.00  0.00     0.031 C 
ATOM     41  C   UNL A   1      38.239  30.823  29.503  1.00  0.00     0.029 A 
ATOM     42  C   UNL A   1      38.552  31.330  30.836  1.00  0.00     0.049 A 
ATOM     43  H   UNL A   1      40.068  30.684  32.112  1.00  0.00     0.167 HD
ATOM     44  C   UNL A   1      43.156  29.088  34.775  1.00  0.00     0.037 A 
ATOM     45  C   UNL A   1      37.893  32.323  31.465  1.00  0.00     0.037 A 
ATOM     46  C   UNL A   1      42.583  30.208  35.479  1.00  0.00     0.049 A 
ATOM     47  C   UNL A   1      38.340  32.745  32.837  1.00  0.00     0.074 A 
ATOM     48  C   UNL A   1      42.952  30.730  36.706  1.00  0.00     0.029 A 
ATOM     49  N   UNL A   1      41.517  30.970  35.024  1.00  0.00    -0.354 N 
ATOM     50  N   UNL A   1      39.313  32.261  33.572  1.00  0.00    -0.248 NA
ATOM     51  C   UNL A   1      37.606  33.852  33.466  1.00  0.00     0.031 C 
ATOM     52  C   UNL A   1      42.072  31.772  37.019  1.00  0.00     0.029 A 
ATOM     53  C   UNL A   1      41.195  31.942  35.959  1.00  0.00     0.049 A 
ATOM     54  H   UNL A   1      41.055  30.841  34.164  1.00  0.00     0.167 HD
ATOM     55  C   UNL A   1      39.328  33.023  34.735  1.00  0.00     0.074 A 
ATOM     56  C   UNL A   1      38.273  34.007  34.601  1.00  0.00     0.031 C 
ATOM     57  C   UNL A   1      40.145  32.919  35.814  1.00  0.00     0.037 A 
BRANCH  44  58
ATOM     58  C   UNL A   1      44.257  28.309  35.445  1.00  0.00     0.058 A 
ATOM     59  C   UNL A   1      45.612  28.637  35.266  1.00  0.00     0.135 A 
ATOM     60  C   UNL A   1      43.954  27.238  36.302  1.00  0.00     0.135 A 
ATOM     61  F   UNL A   1      45.962  29.643  34.449  1.00  0.00    -0.206 F 
ATOM     62  C   UNL A   1      46.625  27.908  35.879  1.00  0.00     0.059 A 
ATOM     63  C   UNL A   1      44.951  26.516  36.952  1.00  0.00     0.059 A 
ATOM     64  F   UNL A   1      42.677  26.882  36.513  1.00  0.00    -0.206 F 
ATOM     65  C   UNL A   1      46.285  26.847  36.721  1.00  0.00     0.060 A 
BRANCH  65  66
ATOM     66  S   UNL A   1      47.613  25.909  37.503  1.00  0.00     0.124 S 
ATOM     67  O   UNL A   1      48.608  26.951  37.733  1.00  0.00    -0.237 OA
ATOM     68  O   UNL A   1      46.960  25.381  38.697  1.00  0.00    -0.237 OA
ATOM     69  O   UNL A   1      47.967  24.914  36.494  1.00  0.00    -0.744 OA
ENDBRANCH  65  66
ENDBRANCH  44  58
BRANCH  45  70
ATOM     70  C   UNL A   1      36.752  32.996  30.789  1.00  0.00     0.058 A 
ATOM     71  C   UNL A   1      35.430  32.752  31.187  1.00  0.00     0.135 A 
ATOM     72  C   UNL A   1      36.961  33.919  29.751  1.00  0.00     0.135 A 
ATOM     73  F   UNL A   1      35.176  31.874  32.169  1.00  0.00    -0.206 F 
ATOM     74  C   UNL A   1      34.353  33.388  30.575  1.00  0.00     0.059 A 
ATOM     75  C   UNL A   1      35.905  34.588  29.142  1.00  0.00     0.059 A 
ATOM     76  F   UNL A   1      38.208  34.202  29.343  1.00  0.00    -0.206 F 
ATOM     77  C   UNL A   1      34.603  34.311  29.557  1.00  0.00     0.060 A 
BRANCH  77  78
ATOM     78  S   UNL A   1      33.204  35.178  28.814  1.00  0.00     0.124 S 
ATOM     79  O   UNL A   1      33.871  36.271  28.119  1.00  0.00    -0.237 OA
ATOM     80  O   UNL A   1      32.619  34.142  27.967  1.00  0.00    -0.237 OA
ATOM     81  O   UNL A   1      32.397  35.562  29.969  1.00  0.00    -0.744 OA
ENDBRANCH  77  78
ENDBRANCH  45  70
BRANCH  57  82
ATOM     82  C   UNL A   1      39.959  33.917  36.926  1.00  0.00     0.058 A 
ATOM     83  C   UNL A   1      40.535  35.195  36.878  1.00  0.00     0.135 A 
ATOM     84  C   UNL A   1      39.144  33.605  38.027  1.00  0.00     0.135 A 
ATOM     85  F   UNL A   1      41.328  35.543  35.853  1.00  0.00    -0.206 F 
ATOM     86  C   UNL A   1      40.328  36.124  37.895  1.00  0.00     0.059 A 
ATOM     87  C   UNL A   1      38.897  34.529  39.038  1.00  0.00     0.059 A 
ATOM     88  F   UNL A   1      38.561  32.400  38.118  1.00  0.00    -0.206 F 
ATOM     89  C   UNL A   1      39.504  35.782  38.968  1.00  0.00     0.060 A 
BRANCH  89  90
ATOM     90  S   UNL A   1      39.213  37.009  40.261  1.00  0.00     0.124 S 
ATOM     91  O   UNL A   1      38.591  38.091  39.504  1.00  0.00    -0.237 OA
ATOM     92  O   UNL A   1      38.336  36.291  41.179  1.00  0.00    -0.237 OA
ATOM     93  O   UNL A   1      40.552  37.289  40.772  1.00  0.00    -0.744 OA
ENDBRANCH  89  90
ENDBRANCH  57  82
ENDBRANCH  31  32
ENDBRANCH  23  26
ENDBRANCH   1  22
TORSDOF 14
ENDMDL
