MODEL 1
REMARK VINA RESULT:     -15.0      0.000      0.000
REMARK SMILES Cc1ccc(NC(=O)c2cnn3c2NC2=C(C(=O)CCC2)[C@H]3c2ccc(C(=O)NCCCNC(=O)c3ccc(-c4c5nc(c(-c6c(F)cc(S(=O)(=O)[O-])cc6F)c6ccc([nH]6)c(-c6c(F)cc(S(=O)(=O)[O-])cc6F)c6nc(c(-c7c(F)cc(S(=O)(=O)[O-])cc7F)c7ccc4[nH]7)C=C6)C=C5)cc3)cc2)cc1
REMARK SMILES IDX 31 1 30 2 29 3 27 4 28 5 26 7 23 8 24 9 103 10 25 11 102 12
REMARK SMILES IDX 22 13 9 14 10 15 13 16 11 17 12 18 14 19 15 20 16 22 21 23
REMARK SMILES IDX 17 24 20 25 18 26 19 27 7 28 6 29 8 31 5 32 1 33 2 34 3 35
REMARK SMILES IDX 105 36 4 37 104 38 32 39 33 40 34 41 35 43 36 44 37 45
REMARK SMILES IDX 101 46 38 47 100 48 39 49 40 50 41 51 94 52 42 53 99 54
REMARK SMILES IDX 93 55 95 56 43 57 98 58 92 59 91 60 44 62 78 63 57 64 77 65
REMARK SMILES IDX 58 66 61 67 76 68 96 69 59 70 60 71 75 73 97 74 62 75 45 76
REMARK SMILES IDX 46 77 55 78 47 79 48 80 54 81 56 82 49 83 50 84 51 85 52 86
REMARK SMILES IDX 53 87 79 88 80 89 89 90 81 91 82 92 88 93 90 94 83 95 84 96
REMARK SMILES IDX 85 97 86 98 87 99 63 100 64 101 73 102 65 103 66 104 72 105
REMARK SMILES IDX 74 106 67 107 68 108 69 109 70 110 71 111
REMARK H PARENT 29 6 14 21 6 30 33 42 95 61 61 72
REMARK Flexibility Score: inf
ROOT
ATOM      1  C   UNL A   1      37.382  22.132  26.069  1.00  0.00     0.042 C 
ENDROOT
BRANCH   1   2
ATOM      2  C   UNL A   1      36.877  21.349  24.858  1.00  0.00     0.118 C 
BRANCH   2   3
ATOM      3  N   UNL A   1      35.637  20.627  25.133  1.00  0.00    -0.352 N 
ATOM      4  C   UNL A   1      34.317  21.020  25.171  1.00  0.00     0.251 C 
ATOM      5  O   UNL A   1      33.458  20.138  25.238  1.00  0.00    -0.269 OA
ATOM      6  H   UNL A   1      35.771  19.672  25.329  1.00  0.00     0.163 HD
BRANCH   4   7
ATOM      7  C   UNL A   1      33.859  22.441  25.094  1.00  0.00     0.039 A 
ATOM      8  C   UNL A   1      33.132  25.170  24.701  1.00  0.00    -0.019 A 
ATOM      9  C   UNL A   1      32.787  24.192  23.754  1.00  0.00     0.007 A 
ATOM     10  C   UNL A   1      33.635  24.711  25.929  1.00  0.00     0.007 A 
ATOM     11  C   UNL A   1      33.156  22.848  23.948  1.00  0.00     0.014 A 
ATOM     12  C   UNL A   1      34.025  23.377  26.108  1.00  0.00     0.014 A 
BRANCH   8  13
ATOM     13  C   UNL A   1      33.163  26.687  24.328  1.00  0.00     0.175 C 
ATOM     14  C   UNL A   1      29.735  27.177  23.424  1.00  0.00     0.102 A 
ATOM     15  C   UNL A   1      30.458  27.531  22.243  1.00  0.00     0.151 A 
ATOM     16  C   UNL A   1      30.720  27.129  24.387  1.00  0.00     0.142 A 
ATOM     17  N   UNL A   1      31.785  27.438  22.384  1.00  0.00    -0.178 NA
ATOM     18  N   UNL A   1      31.903  27.062  23.668  1.00  0.00    -0.237 N 
ATOM     19  N   UNL A   1      30.809  27.102  25.753  1.00  0.00    -0.343 N 
ATOM     20  C   UNL A   1      32.014  27.497  26.360  1.00  0.00     0.026 C 
ATOM     21  H   UNL A   1      30.043  26.813  26.301  1.00  0.00     0.168 HD
ATOM     22  C   UNL A   1      33.129  27.531  25.587  1.00  0.00     0.044 C 
ATOM     23  C   UNL A   1      32.006  28.189  27.692  1.00  0.00     0.055 C 
ATOM     24  C   UNL A   1      33.788  28.863  25.572  1.00  0.00     0.163 C 
ATOM     25  C   UNL A   1      32.566  29.613  27.608  1.00  0.00     0.014 C 
ATOM     26  O   UNL A   1      34.826  29.049  24.946  1.00  0.00    -0.294 OA
ATOM     27  C   UNL A   1      32.990  29.999  26.197  1.00  0.00     0.081 C 
BRANCH  14  28
ATOM     28  C   UNL A   1      28.313  27.000  23.602  1.00  0.00     0.261 C 
ATOM     29  N   UNL A   1      27.471  28.095  23.501  1.00  0.00    -0.322 N 
ATOM     30  H   UNL A   1      26.575  27.948  23.881  1.00  0.00     0.170 HD
ATOM     31  O   UNL A   1      27.838  25.902  23.893  1.00  0.00    -0.269 OA
BRANCH  29  32
ATOM     32  C   UNL A   1      27.660  29.384  22.953  1.00  0.00     0.041 A 
ATOM     33  C   UNL A   1      27.973  33.267  21.068  1.00  0.00     0.044 C 
ATOM     34  C   UNL A   1      27.912  31.914  21.713  1.00  0.00    -0.051 A 
ATOM     35  C   UNL A   1      27.759  31.813  23.095  1.00  0.00     0.005 A 
ATOM     36  C   UNL A   1      27.985  30.739  20.959  1.00  0.00     0.005 A 
ATOM     37  C   UNL A   1      27.673  30.558  23.704  1.00  0.00     0.026 A 
ATOM     38  C   UNL A   1      27.870  29.484  21.576  1.00  0.00     0.026 A 
ENDBRANCH  29  32
ENDBRANCH  14  28
ENDBRANCH   8  13
ENDBRANCH   4   7
ENDBRANCH   2   3
ENDBRANCH   1   2
BRANCH   1  39
ATOM     39  C   UNL A   1      38.429  23.194  25.747  1.00  0.00     0.118 C 
BRANCH  39  40
ATOM     40  N   UNL A   1      39.679  22.961  26.470  1.00  0.00    -0.352 N 
ATOM     41  C   UNL A   1      40.455  23.873  27.165  1.00  0.00     0.251 C 
ATOM     42  H   UNL A   1      40.012  22.035  26.461  1.00  0.00     0.163 HD
ATOM     43  O   UNL A   1      41.555  23.601  27.612  1.00  0.00    -0.269 OA
BRANCH  41  44
ATOM     44  C   UNL A   1      39.837  25.184  27.427  1.00  0.00     0.039 A 
ATOM     45  C   UNL A   1      40.220  26.242  26.598  1.00  0.00     0.014 A 
ATOM     46  C   UNL A   1      39.207  25.400  28.648  1.00  0.00     0.014 A 
ATOM     47  C   UNL A   1      40.155  27.541  27.086  1.00  0.00     0.010 A 
ATOM     48  C   UNL A   1      39.218  26.681  29.161  1.00  0.00     0.010 A 
ATOM     49  C   UNL A   1      39.745  27.741  28.402  1.00  0.00    -0.014 A 
BRANCH  49  50
ATOM     50  C   UNL A   1      39.930  28.999  29.113  1.00  0.00     0.031 A 
ATOM     51  C   UNL A   1      38.885  30.043  29.056  1.00  0.00     0.074 A 
ATOM     52  C   UNL A   1      41.008  29.170  29.911  1.00  0.00     0.049 A 
ATOM     53  N   UNL A   1      39.072  31.283  29.358  1.00  0.00    -0.248 NA
ATOM     54  C   UNL A   1      37.529  29.765  28.599  1.00  0.00     0.031 C 
ATOM     55  C   UNL A   1      41.180  30.176  30.953  1.00  0.00     0.029 A 
ATOM     56  N   UNL A   1      42.266  28.570  29.795  1.00  0.00    -0.354 N 
ATOM     57  C   UNL A   1      37.839  31.895  29.417  1.00  0.00     0.074 A 
ATOM     58  C   UNL A   1      36.920  30.922  28.874  1.00  0.00     0.031 C 
ATOM     59  C   UNL A   1      42.488  30.312  31.218  1.00  0.00     0.029 A 
ATOM     60  C   UNL A   1      43.211  29.513  30.246  1.00  0.00     0.049 A 
ATOM     61  H   UNL A   1      42.455  27.663  29.464  1.00  0.00     0.167 HD
ATOM     62  C   UNL A   1      37.723  33.102  30.045  1.00  0.00     0.037 A 
ATOM     63  C   UNL A   1      44.182  29.998  29.419  1.00  0.00     0.037 A 
ATOM     64  C   UNL A   1      39.032  33.603  30.465  1.00  0.00     0.049 A 
ATOM     65  C   UNL A   1      44.119  31.493  29.209  1.00  0.00     0.074 A 
ATOM     66  C   UNL A   1      39.705  33.570  31.676  1.00  0.00     0.029 A 
ATOM     67  N   UNL A   1      39.970  33.970  29.506  1.00  0.00    -0.354 N 
ATOM     68  N   UNL A   1      43.069  32.224  29.460  1.00  0.00    -0.248 NA
ATOM     69  C   UNL A   1      45.235  32.286  28.703  1.00  0.00     0.031 C 
ATOM     70  C   UNL A   1      41.066  33.878  31.435  1.00  0.00     0.029 A 
ATOM     71  C   UNL A   1      41.220  34.113  30.080  1.00  0.00     0.049 A 
ATOM     72  H   UNL A   1      39.772  34.108  28.551  1.00  0.00     0.167 HD
ATOM     73  C   UNL A   1      43.327  33.536  29.148  1.00  0.00     0.074 A 
ATOM     74  C   UNL A   1      44.709  33.523  28.704  1.00  0.00     0.031 C 
ATOM     75  C   UNL A   1      42.374  34.510  29.282  1.00  0.00     0.037 A 
BRANCH  62  76
ATOM     76  C   UNL A   1      36.404  33.664  30.547  1.00  0.00     0.058 A 
ATOM     77  C   UNL A   1      35.448  34.187  29.646  1.00  0.00     0.135 A 
ATOM     78  C   UNL A   1      36.046  33.782  31.904  1.00  0.00     0.135 A 
ATOM     79  F   UNL A   1      35.582  34.048  28.320  1.00  0.00    -0.206 F 
ATOM     80  C   UNL A   1      34.311  34.887  30.058  1.00  0.00     0.059 A 
ATOM     81  C   UNL A   1      34.945  34.528  32.344  1.00  0.00     0.059 A 
ATOM     82  F   UNL A   1      36.720  33.131  32.861  1.00  0.00    -0.206 F 
ATOM     83  C   UNL A   1      34.089  35.092  31.411  1.00  0.00     0.060 A 
BRANCH  83  84
ATOM     84  S   UNL A   1      32.672  36.082  31.923  1.00  0.00     0.124 S 
ATOM     85  O   UNL A   1      32.211  36.639  30.654  1.00  0.00    -0.237 OA
ATOM     86  O   UNL A   1      31.804  35.080  32.530  1.00  0.00    -0.237 OA
ATOM     87  O   UNL A   1      33.252  37.052  32.848  1.00  0.00    -0.744 OA
ENDBRANCH  83  84
ENDBRANCH  62  76
BRANCH  63  88
ATOM     88  C   UNL A   1      44.674  28.993  28.439  1.00  0.00     0.058 A 
ATOM     89  C   UNL A   1      44.161  29.061  27.130  1.00  0.00     0.135 A 
ATOM     90  C   UNL A   1      45.894  28.328  28.623  1.00  0.00     0.135 A 
ATOM     91  F   UNL A   1      42.988  29.675  26.901  1.00  0.00    -0.206 F 
ATOM     92  C   UNL A   1      44.900  28.642  26.030  1.00  0.00     0.059 A 
ATOM     93  C   UNL A   1      46.651  27.892  27.532  1.00  0.00     0.059 A 
ATOM     94  F   UNL A   1      46.431  28.227  29.847  1.00  0.00    -0.206 F 
ATOM     95  C   UNL A   1      46.174  28.120  26.239  1.00  0.00     0.060 A 
BRANCH  95  96
ATOM     96  S   UNL A   1      47.251  27.940  24.796  1.00  0.00     0.124 S 
ATOM     97  O   UNL A   1      47.000  26.559  24.401  1.00  0.00    -0.237 OA
ATOM     98  O   UNL A   1      46.716  28.960  23.894  1.00  0.00    -0.237 OA
ATOM     99  O   UNL A   1      48.580  28.213  25.332  1.00  0.00    -0.744 OA
ENDBRANCH  95  96
ENDBRANCH  63  88
BRANCH  75 100
ATOM    100  C   UNL A   1      42.447  35.944  28.783  1.00  0.00     0.058 A 
ATOM    101  C   UNL A   1      42.995  37.017  29.507  1.00  0.00     0.135 A 
ATOM    102  C   UNL A   1      42.069  36.257  27.450  1.00  0.00     0.135 A 
ATOM    103  F   UNL A   1      43.507  36.848  30.733  1.00  0.00    -0.206 F 
ATOM    104  C   UNL A   1      43.097  38.309  28.981  1.00  0.00     0.059 A 
ATOM    105  C   UNL A   1      42.218  37.522  26.886  1.00  0.00     0.059 A 
ATOM    106  F   UNL A   1      41.552  35.331  26.628  1.00  0.00    -0.206 F 
ATOM    107  C   UNL A   1      42.709  38.554  27.668  1.00  0.00     0.060 A 
BRANCH 107 108
ATOM    108  S   UNL A   1      42.916  40.197  26.959  1.00  0.00     0.124 S 
ATOM    109  O   UNL A   1      43.826  39.924  25.851  1.00  0.00    -0.237 OA
ATOM    110  O   UNL A   1      41.554  40.561  26.581  1.00  0.00    -0.237 OA
ATOM    111  O   UNL A   1      43.477  40.969  28.064  1.00  0.00    -0.744 OA
ENDBRANCH 107 108
ENDBRANCH  75 100
ENDBRANCH  49  50
ENDBRANCH  41  44
ENDBRANCH  39  40
ENDBRANCH   1  39
TORSDOF 16
ENDMDL
MODEL 2
REMARK VINA RESULT:     -14.0      2.307      3.714
REMARK SMILES Cc1ccc(NC(=O)c2cnn3c2NC2=C(C(=O)CCC2)[C@H]3c2ccc(C(=O)NCCCNC(=O)c3ccc(-c4c5nc(c(-c6c(F)cc(S(=O)(=O)[O-])cc6F)c6ccc([nH]6)c(-c6c(F)cc(S(=O)(=O)[O-])cc6F)c6nc(c(-c7c(F)cc(S(=O)(=O)[O-])cc7F)c7ccc4[nH]7)C=C6)C=C5)cc3)cc2)cc1
REMARK SMILES IDX 31 1 30 2 29 3 27 4 28 5 26 7 23 8 24 9 103 10 25 11 102 12
REMARK SMILES IDX 22 13 9 14 10 15 13 16 11 17 12 18 14 19 15 20 16 22 21 23
REMARK SMILES IDX 17 24 20 25 18 26 19 27 7 28 6 29 8 31 5 32 1 33 2 34 3 35
REMARK SMILES IDX 105 36 4 37 104 38 32 39 33 40 34 41 35 43 36 44 37 45
REMARK SMILES IDX 101 46 38 47 100 48 39 49 40 50 41 51 94 52 42 53 99 54
REMARK SMILES IDX 93 55 95 56 43 57 98 58 92 59 91 60 44 62 78 63 57 64 77 65
REMARK SMILES IDX 58 66 61 67 76 68 96 69 59 70 60 71 75 73 97 74 62 75 45 76
REMARK SMILES IDX 46 77 55 78 47 79 48 80 54 81 56 82 49 83 50 84 51 85 52 86
REMARK SMILES IDX 53 87 79 88 80 89 89 90 81 91 82 92 88 93 90 94 83 95 84 96
REMARK SMILES IDX 85 97 86 98 87 99 63 100 64 101 73 102 65 103 66 104 72 105
REMARK SMILES IDX 74 106 67 107 68 108 69 109 70 110 71 111
REMARK H PARENT 29 6 14 21 6 30 33 42 95 61 61 72
REMARK Flexibility Score: inf
ROOT
ATOM      1  C   UNL A   1      40.904  20.073  26.793  1.00  0.00     0.042 C 
ENDROOT
BRANCH   1   2
ATOM      2  C   UNL A   1      39.641  20.678  26.180  1.00  0.00     0.118 C 
BRANCH   2   3
ATOM      3  N   UNL A   1      39.394  22.044  26.634  1.00  0.00    -0.352 N 
ATOM      4  C   UNL A   1      38.361  22.928  26.415  1.00  0.00     0.251 C 
ATOM      5  O   UNL A   1      38.331  23.954  27.097  1.00  0.00    -0.269 OA
ATOM      6  H   UNL A   1      40.107  22.403  27.210  1.00  0.00     0.163 HD
BRANCH   4   7
ATOM      7  C   UNL A   1      37.254  22.703  25.436  1.00  0.00     0.039 A 
ATOM      8  C   UNL A   1      35.128  22.561  23.541  1.00  0.00    -0.019 A 
ATOM      9  C   UNL A   1      36.353  23.157  23.202  1.00  0.00     0.007 A 
ATOM     10  C   UNL A   1      35.085  21.852  24.752  1.00  0.00     0.007 A 
ATOM     11  C   UNL A   1      37.396  23.233  24.143  1.00  0.00     0.014 A 
ATOM     12  C   UNL A   1      36.115  21.951  25.697  1.00  0.00     0.014 A 
BRANCH   8  13
ATOM     13  C   UNL A   1      33.827  22.857  22.728  1.00  0.00     0.175 C 
ATOM     14  C   UNL A   1      31.496  23.280  25.411  1.00  0.00     0.102 A 
ATOM     15  C   UNL A   1      30.956  22.197  24.651  1.00  0.00     0.151 A 
ATOM     16  C   UNL A   1      32.452  23.804  24.566  1.00  0.00     0.142 A 
ATOM     17  N   UNL A   1      31.681  21.892  23.569  1.00  0.00    -0.178 NA
ATOM     18  N   UNL A   1      32.660  22.810  23.622  1.00  0.00    -0.237 N 
ATOM     19  N   UNL A   1      33.200  24.945  24.458  1.00  0.00    -0.343 N 
ATOM     20  C   UNL A   1      33.744  25.279  23.206  1.00  0.00     0.026 C 
ATOM     21  H   UNL A   1      33.354  25.522  25.241  1.00  0.00     0.168 HD
ATOM     22  C   UNL A   1      33.820  24.301  22.268  1.00  0.00     0.044 C 
ATOM     23  C   UNL A   1      33.899  26.717  22.801  1.00  0.00     0.055 C 
ATOM     24  C   UNL A   1      33.115  24.646  21.007  1.00  0.00     0.163 C 
ATOM     25  C   UNL A   1      33.047  27.070  21.578  1.00  0.00     0.014 C 
ATOM     26  O   UNL A   1      33.119  23.880  20.049  1.00  0.00    -0.294 OA
ATOM     27  C   UNL A   1      32.235  25.887  21.063  1.00  0.00     0.081 C 
BRANCH  14  28
ATOM     28  C   UNL A   1      31.090  23.775  26.705  1.00  0.00     0.261 C 
ATOM     29  N   UNL A   1      30.865  25.131  26.877  1.00  0.00    -0.322 N 
ATOM     30  H   UNL A   1      30.847  25.418  27.819  1.00  0.00     0.170 HD
ATOM     31  O   UNL A   1      30.990  23.022  27.673  1.00  0.00    -0.269 OA
BRANCH  29  32
ATOM     32  C   UNL A   1      30.656  26.178  25.952  1.00  0.00     0.041 A 
ATOM     33  C   UNL A   1      30.347  29.366  23.041  1.00  0.00     0.044 C 
ATOM     34  C   UNL A   1      30.431  28.289  24.082  1.00  0.00    -0.051 A 
ATOM     35  C   UNL A   1      29.633  27.153  23.968  1.00  0.00     0.005 A 
ATOM     36  C   UNL A   1      31.311  28.384  25.164  1.00  0.00     0.005 A 
ATOM     37  C   UNL A   1      29.723  26.131  24.917  1.00  0.00     0.026 A 
ATOM     38  C   UNL A   1      31.415  27.340  26.097  1.00  0.00     0.026 A 
ENDBRANCH  29  32
ENDBRANCH  14  28
ENDBRANCH   8  13
ENDBRANCH   4   7
ENDBRANCH   2   3
ENDBRANCH   1   2
BRANCH   1  39
ATOM     39  C   UNL A   1      41.902  21.095  27.329  1.00  0.00     0.118 C 
BRANCH  39  40
ATOM     40  N   UNL A   1      42.741  21.645  26.265  1.00  0.00    -0.352 N 
ATOM     41  C   UNL A   1      42.777  22.941  25.779  1.00  0.00     0.251 C 
ATOM     42  H   UNL A   1      43.361  21.011  25.838  1.00  0.00     0.163 HD
ATOM     43  O   UNL A   1      43.413  23.260  24.791  1.00  0.00    -0.269 OA
BRANCH  41  44
ATOM     44  C   UNL A   1      42.073  23.955  26.584  1.00  0.00     0.039 A 
ATOM     45  C   UNL A   1      41.595  25.081  25.907  1.00  0.00     0.014 A 
ATOM     46  C   UNL A   1      42.219  23.938  27.967  1.00  0.00     0.014 A 
ATOM     47  C   UNL A   1      41.451  26.276  26.600  1.00  0.00     0.010 A 
ATOM     48  C   UNL A   1      42.153  25.143  28.637  1.00  0.00     0.010 A 
ATOM     49  C   UNL A   1      41.825  26.320  27.941  1.00  0.00    -0.014 A 
BRANCH  49  50
ATOM     50  C   UNL A   1      42.011  27.564  28.677  1.00  0.00     0.031 A 
ATOM     51  C   UNL A   1      40.872  28.486  28.874  1.00  0.00     0.074 A 
ATOM     52  C   UNL A   1      43.198  27.824  29.270  1.00  0.00     0.049 A 
ATOM     53  N   UNL A   1      40.984  29.727  29.208  1.00  0.00    -0.248 NA
ATOM     54  C   UNL A   1      39.490  28.075  28.661  1.00  0.00     0.031 C 
ATOM     55  C   UNL A   1      43.460  28.804  30.318  1.00  0.00     0.029 A 
ATOM     56  N   UNL A   1      44.465  27.374  28.889  1.00  0.00    -0.354 N 
ATOM     57  C   UNL A   1      39.729  30.194  29.530  1.00  0.00     0.074 A 
ATOM     58  C   UNL A   1      38.829  29.145  29.111  1.00  0.00     0.031 C 
ATOM     59  C   UNL A   1      44.774  29.076  30.344  1.00  0.00     0.029 A 
ATOM     60  C   UNL A   1      45.376  28.399  29.211  1.00  0.00     0.049 A 
ATOM     61  H   UNL A   1      44.680  26.507  28.476  1.00  0.00     0.167 HD
ATOM     62  C   UNL A   1      39.611  31.356  30.236  1.00  0.00     0.037 A 
ATOM     63  C   UNL A   1      46.117  29.021  28.248  1.00  0.00     0.037 A 
ATOM     64  C   UNL A   1      40.917  31.984  30.434  1.00  0.00     0.049 A 
ATOM     65  C   UNL A   1      45.862  30.506  28.139  1.00  0.00     0.074 A 
ATOM     66  C   UNL A   1      41.808  31.982  31.496  1.00  0.00     0.029 A 
ATOM     67  N   UNL A   1      41.613  32.489  29.341  1.00  0.00    -0.354 N 
ATOM     68  N   UNL A   1      44.809  31.105  28.622  1.00  0.00    -0.248 NA
ATOM     69  C   UNL A   1      46.774  31.437  27.481  1.00  0.00     0.031 C 
ATOM     70  C   UNL A   1      43.059  32.449  31.025  1.00  0.00     0.029 A 
ATOM     71  C   UNL A   1      42.927  32.750  29.681  1.00  0.00     0.049 A 
ATOM     72  H   UNL A   1      41.224  32.640  28.449  1.00  0.00     0.167 HD
ATOM     73  C   UNL A   1      44.866  32.448  28.343  1.00  0.00     0.074 A 
ATOM     74  C   UNL A   1      46.132  32.607  27.651  1.00  0.00     0.031 C 
ATOM     75  C   UNL A   1      43.861  33.304  28.707  1.00  0.00     0.037 A 
BRANCH  62  76
ATOM     76  C   UNL A   1      38.360  31.747  31.006  1.00  0.00     0.058 A 
ATOM     77  C   UNL A   1      37.282  32.393  30.357  1.00  0.00     0.135 A 
ATOM     78  C   UNL A   1      38.186  31.581  32.394  1.00  0.00     0.135 A 
ATOM     79  F   UNL A   1      37.239  32.523  29.025  1.00  0.00    -0.206 F 
ATOM     80  C   UNL A   1      36.198  32.945  31.044  1.00  0.00     0.059 A 
ATOM     81  C   UNL A   1      37.141  32.175  33.112  1.00  0.00     0.059 A 
ATOM     82  F   UNL A   1      38.995  30.786  33.106  1.00  0.00    -0.206 F 
ATOM     83  C   UNL A   1      36.156  32.871  32.428  1.00  0.00     0.060 A 
BRANCH  83  84
ATOM     84  S   UNL A   1      34.802  33.675  33.305  1.00  0.00     0.124 S 
ATOM     85  O   UNL A   1      35.156  33.440  34.702  1.00  0.00    -0.237 OA
ATOM     86  O   UNL A   1      34.918  35.054  32.844  1.00  0.00    -0.237 OA
ATOM     87  O   UNL A   1      33.620  32.956  32.838  1.00  0.00    -0.744 OA
ENDBRANCH  83  84
ENDBRANCH  62  76
BRANCH  63  88
ATOM     88  C   UNL A   1      46.515  28.114  27.137  1.00  0.00     0.058 A 
ATOM     89  C   UNL A   1      45.724  28.133  25.972  1.00  0.00     0.135 A 
ATOM     90  C   UNL A   1      47.824  27.626  27.023  1.00  0.00     0.135 A 
ATOM     91  F   UNL A   1      44.457  28.578  26.029  1.00  0.00    -0.206 F 
ATOM     92  C   UNL A   1      46.255  27.844  24.721  1.00  0.00     0.059 A 
ATOM     93  C   UNL A   1      48.376  27.322  25.776  1.00  0.00     0.059 A 
ATOM     94  F   UNL A   1      48.623  27.579  28.098  1.00  0.00    -0.206 F 
ATOM     95  C   UNL A   1      47.603  27.505  24.628  1.00  0.00     0.060 A 
BRANCH  95  96
ATOM     96  S   UNL A   1      48.354  27.507  22.981  1.00  0.00     0.124 S 
ATOM     97  O   UNL A   1      49.648  28.127  23.239  1.00  0.00    -0.237 OA
ATOM     98  O   UNL A   1      48.392  26.078  22.667  1.00  0.00    -0.237 OA
ATOM     99  O   UNL A   1      47.421  28.298  22.187  1.00  0.00    -0.744 OA
ENDBRANCH  95  96
ENDBRANCH  63  88
BRANCH  75 100
ATOM    100  C   UNL A   1      43.690  34.754  28.287  1.00  0.00     0.058 A 
ATOM    101  C   UNL A   1      43.372  35.179  26.985  1.00  0.00     0.135 A 
ATOM    102  C   UNL A   1      43.715  35.788  29.261  1.00  0.00     0.135 A 
ATOM    103  F   UNL A   1      43.195  34.306  25.985  1.00  0.00    -0.206 F 
ATOM    104  C   UNL A   1      43.165  36.524  26.659  1.00  0.00     0.059 A 
ATOM    105  C   UNL A   1      43.450  37.125  28.969  1.00  0.00     0.059 A 
ATOM    106  F   UNL A   1      43.980  35.535  30.552  1.00  0.00    -0.206 F 
ATOM    107  C   UNL A   1      43.202  37.491  27.658  1.00  0.00     0.060 A 
BRANCH 107 108
ATOM    108  S   UNL A   1      42.852  39.212  27.257  1.00  0.00     0.124 S 
ATOM    109  O   UNL A   1      41.533  39.105  26.641  1.00  0.00    -0.237 OA
ATOM    110  O   UNL A   1      42.886  39.862  28.564  1.00  0.00    -0.237 OA
ATOM    111  O   UNL A   1      43.944  39.575  26.359  1.00  0.00    -0.744 OA
ENDBRANCH 107 108
ENDBRANCH  75 100
ENDBRANCH  49  50
ENDBRANCH  41  44
ENDBRANCH  39  40
ENDBRANCH   1  39
TORSDOF 16
ENDMDL
MODEL 3
REMARK VINA RESULT:     -13.8      5.965     14.842
REMARK SMILES Cc1ccc(NC(=O)c2cnn3c2NC2=C(C(=O)CCC2)[C@H]3c2ccc(C(=O)NCCCNC(=O)c3ccc(-c4c5nc(c(-c6c(F)cc(S(=O)(=O)[O-])cc6F)c6ccc([nH]6)c(-c6c(F)cc(S(=O)(=O)[O-])cc6F)c6nc(c(-c7c(F)cc(S(=O)(=O)[O-])cc7F)c7ccc4[nH]7)C=C6)C=C5)cc3)cc2)cc1
REMARK SMILES IDX 31 1 30 2 29 3 27 4 28 5 26 7 23 8 24 9 103 10 25 11 102 12
REMARK SMILES IDX 22 13 9 14 10 15 13 16 11 17 12 18 14 19 15 20 16 22 21 23
REMARK SMILES IDX 17 24 20 25 18 26 19 27 7 28 6 29 8 31 5 32 1 33 2 34 3 35
REMARK SMILES IDX 105 36 4 37 104 38 32 39 33 40 34 41 35 43 36 44 37 45
REMARK SMILES IDX 101 46 38 47 100 48 39 49 40 50 41 51 94 52 42 53 99 54
REMARK SMILES IDX 93 55 95 56 43 57 98 58 92 59 91 60 44 62 78 63 57 64 77 65
REMARK SMILES IDX 58 66 61 67 76 68 96 69 59 70 60 71 75 73 97 74 62 75 45 76
REMARK SMILES IDX 46 77 55 78 47 79 48 80 54 81 56 82 49 83 50 84 51 85 52 86
REMARK SMILES IDX 53 87 79 88 80 89 89 90 81 91 82 92 88 93 90 94 83 95 84 96
REMARK SMILES IDX 85 97 86 98 87 99 63 100 64 101 73 102 65 103 66 104 72 105
REMARK SMILES IDX 74 106 67 107 68 108 69 109 70 110 71 111
REMARK H PARENT 29 6 14 21 6 30 33 42 95 61 61 72
REMARK Flexibility Score: inf
ROOT
ATOM      1  C   UNL A   1      38.844  33.857  29.682  1.00  0.00     0.042 C 
ENDROOT
BRANCH   1   2
ATOM      2  C   UNL A   1      39.983  34.051  30.681  1.00  0.00     0.118 C 
BRANCH   2   3
ATOM      3  N   UNL A   1      41.221  33.403  30.256  1.00  0.00    -0.352 N 
ATOM      4  C   UNL A   1      42.351  33.873  29.623  1.00  0.00     0.251 C 
ATOM      5  O   UNL A   1      43.329  33.126  29.568  1.00  0.00    -0.269 OA
ATOM      6  H   UNL A   1      41.254  32.442  30.462  1.00  0.00     0.163 HD
BRANCH   4   7
ATOM      7  C   UNL A   1      42.481  35.243  29.039  1.00  0.00     0.039 A 
ATOM      8  C   UNL A   1      42.569  37.949  28.145  1.00  0.00    -0.019 A 
ATOM      9  C   UNL A   1      43.076  37.593  29.405  1.00  0.00     0.007 A 
ATOM     10  C   UNL A   1      42.238  36.896  27.277  1.00  0.00     0.007 A 
ATOM     11  C   UNL A   1      43.022  36.258  29.845  1.00  0.00     0.014 A 
ATOM     12  C   UNL A   1      42.161  35.572  27.727  1.00  0.00     0.014 A 
BRANCH   8  13
ATOM     13  C   UNL A   1      42.188  39.427  27.811  1.00  0.00     0.175 C 
ATOM     14  C   UNL A   1      43.887  41.126  30.462  1.00  0.00     0.102 A 
ATOM     15  C   UNL A   1      42.517  41.489  30.642  1.00  0.00     0.151 A 
ATOM     16  C   UNL A   1      43.898  40.572  29.201  1.00  0.00     0.142 A 
ATOM     17  N   UNL A   1      41.702  40.966  29.718  1.00  0.00    -0.178 NA
ATOM     18  N   UNL A   1      42.565  40.303  28.930  1.00  0.00    -0.237 N 
ATOM     19  N   UNL A   1      44.819  40.223  28.249  1.00  0.00    -0.343 N 
ATOM     20  C   UNL A   1      44.393  40.089  26.915  1.00  0.00     0.026 C 
ATOM     21  H   UNL A   1      45.760  40.070  28.492  1.00  0.00     0.168 HD
ATOM     22  C   UNL A   1      43.063  39.947  26.688  1.00  0.00     0.044 C 
ATOM     23  C   UNL A   1      45.312  40.444  25.783  1.00  0.00     0.055 C 
ATOM     24  C   UNL A   1      42.513  40.983  25.775  1.00  0.00     0.163 C 
ATOM     25  C   UNL A   1      44.777  41.611  24.946  1.00  0.00     0.014 C 
ATOM     26  O   UNL A   1      41.333  40.973  25.443  1.00  0.00    -0.294 OA
ATOM     27  C   UNL A   1      43.446  42.145  25.462  1.00  0.00     0.081 C 
BRANCH  14  28
ATOM     28  C   UNL A   1      45.012  41.359  31.337  1.00  0.00     0.261 C 
ATOM     29  N   UNL A   1      45.205  40.537  32.435  1.00  0.00    -0.322 N 
ATOM     30  H   UNL A   1      45.820  40.906  33.109  1.00  0.00     0.170 HD
ATOM     31  O   UNL A   1      45.776  42.307  31.156  1.00  0.00    -0.269 OA
BRANCH  29  32
ATOM     32  C   UNL A   1      44.682  39.267  32.767  1.00  0.00     0.041 A 
ATOM     33  C   UNL A   1      43.376  35.312  33.943  1.00  0.00     0.044 C 
ATOM     34  C   UNL A   1      43.816  36.672  33.489  1.00  0.00    -0.051 A 
ATOM     35  C   UNL A   1      43.065  37.793  33.838  1.00  0.00     0.005 A 
ATOM     36  C   UNL A   1      44.980  36.852  32.736  1.00  0.00     0.005 A 
ATOM     37  C   UNL A   1      43.480  39.069  33.445  1.00  0.00     0.026 A 
ATOM     38  C   UNL A   1      45.403  38.139  32.369  1.00  0.00     0.026 A 
ENDBRANCH  29  32
ENDBRANCH  14  28
ENDBRANCH   8  13
ENDBRANCH   4   7
ENDBRANCH   2   3
ENDBRANCH   1   2
BRANCH   1  39
ATOM     39  C   UNL A   1      38.411  32.407  29.486  1.00  0.00     0.118 C 
BRANCH  39  40
ATOM     40  N   UNL A   1      37.032  32.312  29.011  1.00  0.00    -0.352 N 
ATOM     41  C   UNL A   1      36.440  31.294  28.281  1.00  0.00     0.251 C 
ATOM     42  H   UNL A   1      36.447  33.069  29.239  1.00  0.00     0.163 HD
ATOM     43  O   UNL A   1      35.319  31.381  27.813  1.00  0.00    -0.269 OA
BRANCH  41  44
ATOM     44  C   UNL A   1      37.207  30.041  28.176  1.00  0.00     0.039 A 
ATOM     45  C   UNL A   1      37.237  29.220  29.307  1.00  0.00     0.014 A 
ATOM     46  C   UNL A   1      38.125  29.897  27.141  1.00  0.00     0.014 A 
ATOM     47  C   UNL A   1      38.323  28.375  29.501  1.00  0.00     0.010 A 
ATOM     48  C   UNL A   1      39.241  29.119  27.373  1.00  0.00     0.010 A 
ATOM     49  C   UNL A   1      39.365  28.404  28.578  1.00  0.00    -0.014 A 
BRANCH  49  50
ATOM     50  C   UNL A   1      40.671  27.808  28.830  1.00  0.00     0.031 A 
ATOM     51  C   UNL A   1      40.931  26.404  28.444  1.00  0.00     0.074 A 
ATOM     52  C   UNL A   1      41.675  28.570  29.318  1.00  0.00     0.049 A 
ATOM     53  N   UNL A   1      41.903  25.689  28.900  1.00  0.00    -0.248 NA
ATOM     54  C   UNL A   1      40.066  25.674  27.527  1.00  0.00     0.031 C 
ATOM     55  C   UNL A   1      43.101  28.262  29.295  1.00  0.00     0.029 A 
ATOM     56  N   UNL A   1      41.577  29.709  30.122  1.00  0.00    -0.354 N 
ATOM     57  C   UNL A   1      41.970  24.537  28.148  1.00  0.00     0.074 A 
ATOM     58  C   UNL A   1      40.765  24.550  27.350  1.00  0.00     0.031 C 
ATOM     59  C   UNL A   1      43.724  29.008  30.220  1.00  0.00     0.029 A 
ATOM     60  C   UNL A   1      42.698  29.703  30.975  1.00  0.00     0.049 A 
ATOM     61  H   UNL A   1      40.862  30.385  30.097  1.00  0.00     0.167 HD
ATOM     62  C   UNL A   1      43.103  23.777  28.191  1.00  0.00     0.037 A 
ATOM     63  C   UNL A   1      42.560  29.634  32.332  1.00  0.00     0.037 A 
ATOM     64  C   UNL A   1      44.050  24.303  29.175  1.00  0.00     0.049 A 
ATOM     65  C   UNL A   1      43.201  28.415  32.953  1.00  0.00     0.074 A 
ATOM     66  C   UNL A   1      45.166  25.117  29.062  1.00  0.00     0.029 A 
ATOM     67  N   UNL A   1      43.733  24.259  30.528  1.00  0.00    -0.354 N 
ATOM     68  N   UNL A   1      43.533  27.344  32.288  1.00  0.00    -0.248 NA
ATOM     69  C   UNL A   1      43.524  28.307  34.373  1.00  0.00     0.031 C 
ATOM     70  C   UNL A   1      45.495  25.598  30.352  1.00  0.00     0.029 A 
ATOM     71  C   UNL A   1      44.589  25.067  31.253  1.00  0.00     0.049 A 
ATOM     72  H   UNL A   1      43.001  23.727  30.917  1.00  0.00     0.167 HD
ATOM     73  C   UNL A   1      44.075  26.414  33.141  1.00  0.00     0.074 A 
ATOM     74  C   UNL A   1      44.072  27.080  34.431  1.00  0.00     0.031 C 
ATOM     75  C   UNL A   1      44.472  25.179  32.703  1.00  0.00     0.037 A 
BRANCH  62  76
ATOM     76  C   UNL A   1      43.471  22.758  27.126  1.00  0.00     0.058 A 
ATOM     77  C   UNL A   1      42.744  21.553  26.993  1.00  0.00     0.135 A 
ATOM     78  C   UNL A   1      44.570  22.872  26.251  1.00  0.00     0.135 A 
ATOM     79  F   UNL A   1      41.607  21.340  27.667  1.00  0.00    -0.206 F 
ATOM     80  C   UNL A   1      43.152  20.501  26.169  1.00  0.00     0.059 A 
ATOM     81  C   UNL A   1      45.032  21.812  25.460  1.00  0.00     0.059 A 
ATOM     82  F   UNL A   1      45.210  24.036  26.085  1.00  0.00    -0.206 F 
ATOM     83  C   UNL A   1      44.324  20.621  25.438  1.00  0.00     0.060 A 
BRANCH  83  84
ATOM     84  S   UNL A   1      44.888  19.218  24.457  1.00  0.00     0.124 S 
ATOM     85  O   UNL A   1      44.150  18.108  25.054  1.00  0.00    -0.237 OA
ATOM     86  O   UNL A   1      44.479  19.603  23.111  1.00  0.00    -0.237 OA
ATOM     87  O   UNL A   1      46.330  19.198  24.691  1.00  0.00    -0.744 OA
ENDBRANCH  83  84
ENDBRANCH  62  76
BRANCH  63  88
ATOM     88  C   UNL A   1      41.354  30.346  32.835  1.00  0.00     0.058 A 
ATOM     89  C   UNL A   1      40.224  29.566  33.142  1.00  0.00     0.135 A 
ATOM     90  C   UNL A   1      41.447  31.614  33.427  1.00  0.00     0.135 A 
ATOM     91  F   UNL A   1      40.079  28.349  32.591  1.00  0.00    -0.206 F 
ATOM     92  C   UNL A   1      39.312  29.949  34.119  1.00  0.00     0.059 A 
ATOM     93  C   UNL A   1      40.538  32.022  34.407  1.00  0.00     0.059 A 
ATOM     94  F   UNL A   1      42.498  32.404  33.169  1.00  0.00    -0.206 F 
ATOM     95  C   UNL A   1      39.519  31.150  34.794  1.00  0.00     0.060 A 
BRANCH  95  96
ATOM     96  S   UNL A   1      38.555  31.440  36.298  1.00  0.00     0.124 S 
ATOM     97  O   UNL A   1      39.508  32.164  37.133  1.00  0.00    -0.237 OA
ATOM     98  O   UNL A   1      37.435  32.232  35.789  1.00  0.00    -0.237 OA
ATOM     99  O   UNL A   1      38.218  30.094  36.747  1.00  0.00    -0.744 OA
ENDBRANCH  95  96
ENDBRANCH  63  88
BRANCH  75 100
ATOM    100  C   UNL A   1      44.886  23.990  33.554  1.00  0.00     0.058 A 
ATOM    101  C   UNL A   1      44.022  22.961  33.967  1.00  0.00     0.135 A 
ATOM    102  C   UNL A   1      46.254  23.784  33.877  1.00  0.00     0.135 A 
ATOM    103  F   UNL A   1      42.725  22.956  33.632  1.00  0.00    -0.206 F 
ATOM    104  C   UNL A   1      44.462  21.853  34.700  1.00  0.00     0.059 A 
ATOM    105  C   UNL A   1      46.723  22.658  34.552  1.00  0.00     0.059 A 
ATOM    106  F   UNL A   1      47.202  24.667  33.528  1.00  0.00    -0.206 F 
ATOM    107  C   UNL A   1      45.816  21.707  34.986  1.00  0.00     0.060 A 
BRANCH 107 108
ATOM    108  S   UNL A   1      46.398  20.241  35.855  1.00  0.00     0.124 S 
ATOM    109  O   UNL A   1      47.840  20.466  35.873  1.00  0.00    -0.237 OA
ATOM    110  O   UNL A   1      45.729  20.344  37.148  1.00  0.00    -0.237 OA
ATOM    111  O   UNL A   1      45.938  19.145  35.007  1.00  0.00    -0.744 OA
ENDBRANCH 107 108
ENDBRANCH  75 100
ENDBRANCH  49  50
ENDBRANCH  41  44
ENDBRANCH  39  40
ENDBRANCH   1  39
TORSDOF 16
ENDMDL
