MODEL 1
REMARK VINA RESULT:     -15.2      0.000      0.000
REMARK SMILES Cc1oc2c(C)c3oc(=O)c(CCC(=O)N[C@H](Cc4ccc(Cl)cc4)C(=O)NCCCNC(=O)c4ccc(-c5c6nc(c(-c7c(F)cc(S(=O)(=O)[O-])cc7F)c7ccc([nH]7)c(-c7c(F)cc(S(=O)(=O)[O-])cc7F)c7nc(c(-c8c(F)cc(S(=O)(=O)[O-])cc8F)c8ccc5[nH]8)C=C7)C=C6)cc4)c(C)c3cc2c1C
REMARK SMILES IDX 29 1 28 2 26 3 27 4 17 6 16 7 14 8 15 9 13 11 12 12 11 13
REMARK SMILES IDX 1 14 2 15 3 16 106 17 4 18 105 19 107 20 5 21 104 22 6 23
REMARK SMILES IDX 7 24 103 25 8 26 101 27 9 28 102 29 10 30 18 31 19 32 20 33
REMARK SMILES IDX 25 34 21 35 24 36 22 37 23 38 30 39 31 40 32 41 33 42 34 44
REMARK SMILES IDX 35 45 36 46 100 47 37 48 99 49 38 50 39 51 40 52 93 53 41 54
REMARK SMILES IDX 98 55 92 56 94 57 42 58 97 59 91 60 90 61 43 63 77 64 56 65
REMARK SMILES IDX 76 66 57 67 60 68 75 69 95 70 58 71 59 72 74 74 96 75 61 76
REMARK SMILES IDX 44 77 45 78 54 79 46 80 47 81 53 82 55 83 48 84 49 85 50 86
REMARK SMILES IDX 51 87 52 88 78 89 79 90 88 91 80 92 81 93 87 94 89 95 82 96
REMARK SMILES IDX 83 97 84 98 85 99 86 100 62 101 63 102 72 103 64 104 65 105
REMARK SMILES IDX 71 106 73 107 66 108 67 109 68 110 69 111 70 112
REMARK H PARENT 28 5 16 10 32 43 94 62 60 73
REMARK Flexibility Score: inf
ROOT
ATOM      1  C   UNL A   1      36.548  29.621  29.172  1.00  0.00     0.117 C 
ENDROOT
BRANCH   1   2
ATOM      2  N   UNL A   1      35.391  30.918  28.894  1.00  0.00    -0.354 N 
ATOM      3  C   UNL A   1      34.238  31.507  28.244  1.00  0.00     0.242 C 
ATOM      4  O   UNL A   1      34.102  32.698  28.620  1.00  0.00    -0.273 OA
ATOM      5  H   UNL A   1      35.688  31.624  29.513  1.00  0.00     0.163 HD
BRANCH   3   6
ATOM      6  C   UNL A   1      32.832  30.954  27.170  1.00  0.00     0.175 C 
BRANCH   6   7
ATOM      7  N   UNL A   1      33.615  30.052  26.359  1.00  0.00    -0.344 N 
ATOM      8  C   UNL A   1      33.513  28.719  26.576  1.00  0.00     0.220 C 
ATOM      9  O   UNL A   1      34.360  27.968  26.099  1.00  0.00    -0.275 OA
ATOM     10  H   UNL A   1      34.214  30.400  25.659  1.00  0.00     0.164 HD
BRANCH   8  11
ATOM     11  C   UNL A   1      32.258  28.215  27.292  1.00  0.00     0.105 C 
BRANCH  11  12
ATOM     12  C   UNL A   1      31.263  27.041  26.682  1.00  0.00     0.053 C 
BRANCH  12  13
ATOM     13  C   UNL A   1      31.465  25.315  26.298  1.00  0.00     0.042 A 
ATOM     14  C   UNL A   1      37.839  20.437  24.588  1.00  0.00     0.088 C 
ATOM     15  C   UNL A   1      36.725  21.118  25.286  1.00  0.00     0.105 A 
ATOM     16  O   UNL A   1      35.492  20.513  25.231  1.00  0.00    -0.461 OA
ATOM     17  C   UNL A   1      36.638  22.367  25.871  1.00  0.00    -0.002 A 
ATOM     18  C   UNL A   1      34.564  21.450  25.599  1.00  0.00     0.141 A 
ATOM     19  C   UNL A   1      35.230  22.573  26.038  1.00  0.00     0.025 A 
ATOM     20  C   UNL A   1      37.725  23.385  26.014  1.00  0.00     0.049 C 
ATOM     21  C   UNL A   1      33.160  21.386  25.544  1.00  0.00     0.036 A 
ATOM     22  C   UNL A   1      34.451  23.697  26.334  1.00  0.00     0.024 A 
ATOM     23  C   UNL A   1      32.432  20.100  25.386  1.00  0.00     0.052 C 
ATOM     24  C   UNL A   1      32.523  22.654  25.564  1.00  0.00     0.145 A 
ATOM     25  C   UNL A   1      33.206  23.828  25.688  1.00  0.00     0.022 A 
ATOM     26  O   UNL A   1      31.140  22.830  25.588  1.00  0.00    -0.422 OA
ATOM     27  C   UNL A   1      32.444  25.084  25.445  1.00  0.00    -0.030 A 
ATOM     28  C   UNL A   1      30.720  23.871  26.466  1.00  0.00     0.339 A 
ATOM     29  C   UNL A   1      32.175  25.899  24.206  1.00  0.00     0.046 C 
ATOM     30  O   UNL A   1      29.769  23.588  27.194  1.00  0.00    -0.246 OA
ENDBRANCH  12  13
ENDBRANCH  11  12
ENDBRANCH   8  11
ENDBRANCH   6   7
BRANCH   6  31
ATOM     31  C   UNL A   1      31.414  31.243  26.040  1.00  0.00     0.070 C 
BRANCH  31  32
ATOM     32  C   UNL A   1      30.572  30.709  24.713  1.00  0.00    -0.045 A 
ATOM     33  C   UNL A   1      30.653  29.493  23.987  1.00  0.00     0.005 A 
ATOM     34  C   UNL A   1      29.504  31.501  24.242  1.00  0.00     0.005 A 
ATOM     35  C   UNL A   1      29.552  28.872  23.349  1.00  0.00     0.021 A 
ATOM     36  C   UNL A   1      28.413  30.936  23.515  1.00  0.00     0.021 A 
ATOM     37  C   UNL A   1      28.389  29.585  23.193  1.00  0.00     0.041 A 
ATOM     38  Cl  UNL A   1      26.927  28.782  22.775  1.00  0.00    -0.084 Cl
ENDBRANCH  31  32
ENDBRANCH   6  31
ENDBRANCH   3   6
ENDBRANCH   1   2
BRANCH   1  39
ATOM     39  C   UNL A   1      37.296  29.220  30.629  1.00  0.00     0.042 C 
BRANCH  39  40
ATOM     40  C   UNL A   1      38.747  29.635  31.095  1.00  0.00     0.118 C 
BRANCH  40  41
ATOM     41  N   UNL A   1      38.934  29.814  32.544  1.00  0.00    -0.352 N 
ATOM     42  C   UNL A   1      39.833  29.356  33.503  1.00  0.00     0.251 C 
ATOM     43  H   UNL A   1      38.251  30.406  32.933  1.00  0.00     0.163 HD
ATOM     44  O   UNL A   1      39.566  29.700  34.662  1.00  0.00    -0.269 OA
BRANCH  42  45
ATOM     45  C   UNL A   1      41.066  28.505  33.307  1.00  0.00     0.039 A 
ATOM     46  C   UNL A   1      41.723  28.574  32.052  1.00  0.00     0.014 A 
ATOM     47  C   UNL A   1      41.570  27.589  34.227  1.00  0.00     0.014 A 
ATOM     48  C   UNL A   1      42.867  27.803  31.752  1.00  0.00     0.010 A 
ATOM     49  C   UNL A   1      42.725  26.822  33.932  1.00  0.00     0.010 A 
ATOM     50  C   UNL A   1      43.400  26.934  32.706  1.00  0.00    -0.014 A 
BRANCH  50  51
ATOM     51  C   UNL A   1      44.710  26.271  32.444  1.00  0.00     0.031 A 
ATOM     52  C   UNL A   1      44.705  25.285  31.319  1.00  0.00     0.074 A 
ATOM     53  C   UNL A   1      45.918  26.810  32.733  1.00  0.00     0.049 A 
ATOM     54  N   UNL A   1      44.710  25.665  30.074  1.00  0.00    -0.248 NA
ATOM     55  C   UNL A   1      44.484  23.851  31.499  1.00  0.00     0.031 C 
ATOM     56  C   UNL A   1      46.155  28.253  32.848  1.00  0.00     0.029 A 
ATOM     57  N   UNL A   1      47.187  26.262  32.727  1.00  0.00    -0.354 N 
ATOM     58  C   UNL A   1      44.438  24.554  29.304  1.00  0.00     0.074 A 
ATOM     59  C   UNL A   1      44.315  23.447  30.229  1.00  0.00     0.031 C 
ATOM     60  C   UNL A   1      47.478  28.488  32.715  1.00  0.00     0.029 A 
ATOM     61  C   UNL A   1      48.202  27.220  32.683  1.00  0.00     0.049 A 
ATOM     62  H   UNL A   1      47.358  25.293  32.752  1.00  0.00     0.167 HD
ATOM     63  C   UNL A   1      44.321  24.609  27.952  1.00  0.00     0.037 A 
ATOM     64  C   UNL A   1      49.436  27.061  32.123  1.00  0.00     0.037 A 
ATOM     65  C   UNL A   1      44.565  25.890  27.358  1.00  0.00     0.049 A 
ATOM     66  C   UNL A   1      49.089  26.937  30.662  1.00  0.00     0.074 A 
ATOM     67  C   UNL A   1      43.832  27.009  27.025  1.00  0.00     0.029 A 
ATOM     68  N   UNL A   1      45.870  26.238  27.090  1.00  0.00    -0.354 N 
ATOM     69  N   UNL A   1      48.808  27.923  29.850  1.00  0.00    -0.248 NA
ATOM     70  C   UNL A   1      48.708  25.613  30.167  1.00  0.00     0.031 C 
ATOM     71  C   UNL A   1      44.765  28.093  27.021  1.00  0.00     0.029 A 
ATOM     72  C   UNL A   1      45.998  27.569  27.406  1.00  0.00     0.049 A 
ATOM     73  H   UNL A   1      46.576  25.647  26.740  1.00  0.00     0.167 HD
ATOM     74  C   UNL A   1      47.970  27.372  28.879  1.00  0.00     0.074 A 
ATOM     75  C   UNL A   1      47.976  25.943  29.113  1.00  0.00     0.031 C 
ATOM     76  C   UNL A   1      47.167  28.115  28.062  1.00  0.00     0.037 A 
BRANCH  63  77
ATOM     77  C   UNL A   1      44.118  23.430  27.092  1.00  0.00     0.058 A 
ATOM     78  C   UNL A   1      42.848  22.839  27.047  1.00  0.00     0.135 A 
ATOM     79  C   UNL A   1      45.186  22.767  26.475  1.00  0.00     0.135 A 
ATOM     80  F   UNL A   1      41.807  23.443  27.646  1.00  0.00    -0.206 F 
ATOM     81  C   UNL A   1      42.645  21.607  26.446  1.00  0.00     0.059 A 
ATOM     82  C   UNL A   1      45.005  21.530  25.862  1.00  0.00     0.059 A 
ATOM     83  F   UNL A   1      46.419  23.295  26.504  1.00  0.00    -0.206 F 
ATOM     84  C   UNL A   1      43.734  20.950  25.872  1.00  0.00     0.060 A 
BRANCH  84  85
ATOM     85  S   UNL A   1      43.461  19.303  25.186  1.00  0.00     0.124 S 
ATOM     86  O   UNL A   1      42.007  19.190  25.247  1.00  0.00    -0.237 OA
ATOM     87  O   UNL A   1      44.033  19.436  23.850  1.00  0.00    -0.237 OA
ATOM     88  O   UNL A   1      44.196  18.430  26.095  1.00  0.00    -0.744 OA
ENDBRANCH  84  85
ENDBRANCH  63  77
BRANCH  64  89
ATOM     89  C   UNL A   1      50.363  26.114  32.831  1.00  0.00     0.058 A 
ATOM     90  C   UNL A   1      50.202  25.932  34.221  1.00  0.00     0.135 A 
ATOM     91  C   UNL A   1      51.401  25.376  32.236  1.00  0.00     0.135 A 
ATOM     92  F   UNL A   1      49.343  26.702  34.909  1.00  0.00    -0.206 F 
ATOM     93  C   UNL A   1      50.895  24.958  34.936  1.00  0.00     0.059 A 
ATOM     94  C   UNL A   1      52.093  24.374  32.923  1.00  0.00     0.059 A 
ATOM     95  F   UNL A   1      51.762  25.589  30.964  1.00  0.00    -0.206 F 
ATOM     96  C   UNL A   1      51.802  24.146  34.264  1.00  0.00     0.060 A 
BRANCH  96  97
ATOM     97  S   UNL A   1      52.531  22.753  35.152  1.00  0.00     0.124 S 
ATOM     98  O   UNL A   1      52.136  23.030  36.529  1.00  0.00    -0.237 OA
ATOM     99  O   UNL A   1      51.869  21.617  34.517  1.00  0.00    -0.237 OA
ATOM    100  O   UNL A   1      53.956  22.879  34.869  1.00  0.00    -0.744 OA
ENDBRANCH  96  97
ENDBRANCH  64  89
BRANCH  76 101
ATOM    101  C   UNL A   1      47.391  29.590  28.079  1.00  0.00     0.058 A 
ATOM    102  C   UNL A   1      48.320  30.171  27.203  1.00  0.00     0.135 A 
ATOM    103  C   UNL A   1      46.642  30.448  28.901  1.00  0.00     0.135 A 
ATOM    104  F   UNL A   1      49.058  29.399  26.389  1.00  0.00    -0.206 F 
ATOM    105  C   UNL A   1      48.468  31.552  27.113  1.00  0.00     0.059 A 
ATOM    106  C   UNL A   1      46.759  31.833  28.812  1.00  0.00     0.059 A 
ATOM    107  F   UNL A   1      45.749  29.952  29.774  1.00  0.00    -0.206 F 
ATOM    108  C   UNL A   1      47.670  32.376  27.907  1.00  0.00     0.060 A 
BRANCH 108 109
ATOM    109  S   UNL A   1      47.774  34.163  27.677  1.00  0.00     0.124 S 
ATOM    110  O   UNL A   1      46.379  34.571  27.799  1.00  0.00    -0.237 OA
ATOM    111  O   UNL A   1      48.650  34.568  28.774  1.00  0.00    -0.237 OA
ATOM    112  O   UNL A   1      48.355  34.305  26.344  1.00  0.00    -0.744 OA
ENDBRANCH 108 109
ENDBRANCH  76 101
ENDBRANCH  50  51
ENDBRANCH  42  45
ENDBRANCH  40  41
ENDBRANCH  39  40
ENDBRANCH   1  39
TORSDOF 19
ENDMDL
MODEL 2
REMARK VINA RESULT:     -14.4      6.330     12.340
REMARK SMILES Cc1oc2c(C)c3oc(=O)c(CCC(=O)N[C@H](Cc4ccc(Cl)cc4)C(=O)NCCCNC(=O)c4ccc(-c5c6nc(c(-c7c(F)cc(S(=O)(=O)[O-])cc7F)c7ccc([nH]7)c(-c7c(F)cc(S(=O)(=O)[O-])cc7F)c7nc(c(-c8c(F)cc(S(=O)(=O)[O-])cc8F)c8ccc5[nH]8)C=C7)C=C6)cc4)c(C)c3cc2c1C
REMARK SMILES IDX 29 1 28 2 26 3 27 4 17 6 16 7 14 8 15 9 13 11 12 12 11 13
REMARK SMILES IDX 1 14 2 15 3 16 106 17 4 18 105 19 107 20 5 21 104 22 6 23
REMARK SMILES IDX 7 24 103 25 8 26 101 27 9 28 102 29 10 30 18 31 19 32 20 33
REMARK SMILES IDX 25 34 21 35 24 36 22 37 23 38 30 39 31 40 32 41 33 42 34 44
REMARK SMILES IDX 35 45 36 46 100 47 37 48 99 49 38 50 39 51 40 52 93 53 41 54
REMARK SMILES IDX 98 55 92 56 94 57 42 58 97 59 91 60 90 61 43 63 77 64 56 65
REMARK SMILES IDX 76 66 57 67 60 68 75 69 95 70 58 71 59 72 74 74 96 75 61 76
REMARK SMILES IDX 44 77 45 78 54 79 46 80 47 81 53 82 55 83 48 84 49 85 50 86
REMARK SMILES IDX 51 87 52 88 78 89 79 90 88 91 80 92 81 93 87 94 89 95 82 96
REMARK SMILES IDX 83 97 84 98 85 99 86 100 62 101 63 102 72 103 64 104 65 105
REMARK SMILES IDX 71 106 73 107 66 108 67 109 68 110 69 111 70 112
REMARK H PARENT 28 5 16 10 32 43 94 62 60 73
REMARK Flexibility Score: inf
ROOT
ATOM      1  C   UNL A   1      44.996  24.922  36.176  1.00  0.00     0.117 C 
ENDROOT
BRANCH   1   2
ATOM      2  N   UNL A   1      45.559  26.427  35.458  1.00  0.00    -0.354 N 
ATOM      3  C   UNL A   1      45.754  27.339  34.350  1.00  0.00     0.242 C 
ATOM      4  O   UNL A   1      46.425  28.331  34.730  1.00  0.00    -0.273 OA
ATOM      5  H   UNL A   1      45.957  26.907  36.220  1.00  0.00     0.163 HD
BRANCH   3   6
ATOM      6  C   UNL A   1      45.153  27.535  32.607  1.00  0.00     0.175 C 
BRANCH   6   7
ATOM      7  N   UNL A   1      46.410  27.200  31.982  1.00  0.00    -0.344 N 
ATOM      8  C   UNL A   1      46.696  25.899  31.739  1.00  0.00     0.220 C 
ATOM      9  O   UNL A   1      47.852  25.580  31.471  1.00  0.00    -0.275 OA
ATOM     10  H   UNL A   1      47.050  27.907  31.735  1.00  0.00     0.164 HD
BRANCH   8  11
ATOM     11  C   UNL A   1      45.523  24.918  31.677  1.00  0.00     0.105 C 
BRANCH  11  12
ATOM     12  C   UNL A   1      44.660  24.607  30.300  1.00  0.00     0.053 C 
BRANCH  12  13
ATOM     13  C   UNL A   1      43.921  25.622  29.038  1.00  0.00     0.042 A 
ATOM     14  C   UNL A   1      36.764  29.541  28.168  1.00  0.00     0.088 C 
ATOM     15  C   UNL A   1      38.193  29.242  28.412  1.00  0.00     0.105 A 
ATOM     16  O   UNL A   1      39.041  29.322  27.333  1.00  0.00    -0.461 OA
ATOM     17  C   UNL A   1      38.845  28.726  29.517  1.00  0.00    -0.002 A 
ATOM     18  C   UNL A   1      40.195  28.670  27.675  1.00  0.00     0.141 A 
ATOM     19  C   UNL A   1      40.126  28.335  29.010  1.00  0.00     0.025 A 
ATOM     20  C   UNL A   1      38.251  28.376  30.845  1.00  0.00     0.049 C 
ATOM     21  C   UNL A   1      41.297  28.325  26.872  1.00  0.00     0.036 A 
ATOM     22  C   UNL A   1      41.161  27.542  29.518  1.00  0.00     0.024 A 
ATOM     23  C   UNL A   1      41.532  28.944  25.542  1.00  0.00     0.052 C 
ATOM     24  C   UNL A   1      42.098  27.281  27.408  1.00  0.00     0.145 A 
ATOM     25  C   UNL A   1      41.856  26.708  28.621  1.00  0.00     0.022 A 
ATOM     26  O   UNL A   1      43.276  26.825  26.820  1.00  0.00    -0.422 OA
ATOM     27  C   UNL A   1      42.615  25.467  28.946  1.00  0.00    -0.030 A 
ATOM     28  C   UNL A   1      44.312  26.565  27.763  1.00  0.00     0.339 A 
ATOM     29  C   UNL A   1      42.341  24.004  28.711  1.00  0.00     0.046 C 
ATOM     30  O   UNL A   1      45.420  27.007  27.457  1.00  0.00    -0.246 OA
ENDBRANCH  12  13
ENDBRANCH  11  12
ENDBRANCH   8  11
ENDBRANCH   6   7
BRANCH   6  31
ATOM     31  C   UNL A   1      44.355  28.461  31.238  1.00  0.00     0.070 C 
BRANCH  31  32
ATOM     32  C   UNL A   1      44.431  29.781  30.232  1.00  0.00    -0.045 A 
ATOM     33  C   UNL A   1      43.877  30.003  28.946  1.00  0.00     0.005 A 
ATOM     34  C   UNL A   1      45.041  30.954  30.722  1.00  0.00     0.005 A 
ATOM     35  C   UNL A   1      43.441  31.265  28.473  1.00  0.00     0.021 A 
ATOM     36  C   UNL A   1      44.701  32.245  30.217  1.00  0.00     0.021 A 
ATOM     37  C   UNL A   1      43.792  32.391  29.176  1.00  0.00     0.041 A 
ATOM     38  Cl  UNL A   1      42.998  33.886  28.874  1.00  0.00    -0.084 Cl
ENDBRANCH  31  32
ENDBRANCH   6  31
ENDBRANCH   3   6
ENDBRANCH   1   2
BRANCH   1  39
ATOM     39  C   UNL A   1      44.181  23.666  35.399  1.00  0.00     0.042 C 
BRANCH  39  40
ATOM     40  C   UNL A   1      42.691  23.685  34.873  1.00  0.00     0.118 C 
BRANCH  40  41
ATOM     41  N   UNL A   1      41.684  24.221  35.804  1.00  0.00    -0.352 N 
ATOM     42  C   UNL A   1      41.248  25.485  36.191  1.00  0.00     0.251 C 
ATOM     43  H   UNL A   1      41.197  23.504  36.271  1.00  0.00     0.163 HD
ATOM     44  O   UNL A   1      40.403  25.480  37.096  1.00  0.00    -0.269 OA
BRANCH  42  45
ATOM     45  C   UNL A   1      41.673  26.832  35.655  1.00  0.00     0.039 A 
ATOM     46  C   UNL A   1      41.376  27.128  34.300  1.00  0.00     0.014 A 
ATOM     47  C   UNL A   1      42.410  27.783  36.356  1.00  0.00     0.014 A 
ATOM     48  C   UNL A   1      41.750  28.345  33.691  1.00  0.00     0.010 A 
ATOM     49  C   UNL A   1      42.778  29.010  35.749  1.00  0.00     0.010 A 
ATOM     50  C   UNL A   1      42.435  29.317  34.422  1.00  0.00    -0.014 A 
BRANCH  50  51
ATOM     51  C   UNL A   1      42.657  30.665  33.823  1.00  0.00     0.031 A 
ATOM     52  C   UNL A   1      41.483  31.230  33.088  1.00  0.00     0.074 A 
ATOM     53  C   UNL A   1      43.540  31.579  34.290  1.00  0.00     0.049 A 
ATOM     54  N   UNL A   1      40.460  31.736  33.714  1.00  0.00    -0.248 NA
ATOM     55  C   UNL A   1      41.280  31.079  31.648  1.00  0.00     0.031 C 
ATOM     56  C   UNL A   1      44.011  31.617  35.678  1.00  0.00     0.029 A 
ATOM     57  N   UNL A   1      43.990  32.770  33.751  1.00  0.00    -0.354 N 
ATOM     58  C   UNL A   1      39.459  31.920  32.784  1.00  0.00     0.074 A 
ATOM     59  C   UNL A   1      40.015  31.509  31.512  1.00  0.00     0.031 C 
ATOM     60  C   UNL A   1      44.517  32.842  35.932  1.00  0.00     0.029 A 
ATOM     61  C   UNL A   1      44.573  33.618  34.696  1.00  0.00     0.049 A 
ATOM     62  H   UNL A   1      43.908  32.998  32.798  1.00  0.00     0.167 HD
ATOM     63  C   UNL A   1      38.228  32.390  33.114  1.00  0.00     0.037 A 
ATOM     64  C   UNL A   1      44.592  34.981  34.652  1.00  0.00     0.037 A 
ATOM     65  C   UNL A   1      38.049  32.753  34.489  1.00  0.00     0.049 A 
ATOM     66  C   UNL A   1      43.132  35.308  34.829  1.00  0.00     0.074 A 
ATOM     67  C   UNL A   1      37.641  32.139  35.654  1.00  0.00     0.029 A 
ATOM     68  N   UNL A   1      38.450  34.011  34.881  1.00  0.00    -0.354 N 
ATOM     69  N   UNL A   1      42.477  35.318  35.960  1.00  0.00    -0.248 NA
ATOM     70  C   UNL A   1      42.286  35.294  33.635  1.00  0.00     0.031 C 
ATOM     71  C   UNL A   1      38.247  32.885  36.714  1.00  0.00     0.029 A 
ATOM     72  C   UNL A   1      39.030  33.873  36.119  1.00  0.00     0.049 A 
ATOM     73  H   UNL A   1      38.342  34.847  34.372  1.00  0.00     0.167 HD
ATOM     74  C   UNL A   1      41.153  35.030  35.622  1.00  0.00     0.074 A 
ATOM     75  C   UNL A   1      41.099  35.060  34.175  1.00  0.00     0.031 C 
ATOM     76  C   UNL A   1      40.219  34.594  36.517  1.00  0.00     0.037 A 
BRANCH  63  77
ATOM     77  C   UNL A   1      37.165  32.681  32.136  1.00  0.00     0.058 A 
ATOM     78  C   UNL A   1      36.256  31.666  31.809  1.00  0.00     0.135 A 
ATOM     79  C   UNL A   1      37.150  33.860  31.383  1.00  0.00     0.135 A 
ATOM     80  F   UNL A   1      36.258  30.515  32.502  1.00  0.00    -0.206 F 
ATOM     81  C   UNL A   1      35.382  31.796  30.741  1.00  0.00     0.059 A 
ATOM     82  C   UNL A   1      36.279  34.015  30.308  1.00  0.00     0.059 A 
ATOM     83  F   UNL A   1      38.012  34.852  31.658  1.00  0.00    -0.206 F 
ATOM     84  C   UNL A   1      35.414  32.967  29.983  1.00  0.00     0.060 A 
BRANCH  84  85
ATOM     85  S   UNL A   1      34.337  33.068  28.538  1.00  0.00     0.124 S 
ATOM     86  O   UNL A   1      35.212  33.701  27.556  1.00  0.00    -0.237 OA
ATOM     87  O   UNL A   1      34.023  31.663  28.299  1.00  0.00    -0.237 OA
ATOM     88  O   UNL A   1      33.222  33.887  29.002  1.00  0.00    -0.744 OA
ENDBRANCH  84  85
ENDBRANCH  63  77
BRANCH  64  89
ATOM     89  C   UNL A   1      45.446  35.593  33.578  1.00  0.00     0.058 A 
ATOM     90  C   UNL A   1      46.587  36.329  33.966  1.00  0.00     0.135 A 
ATOM     91  C   UNL A   1      45.219  35.509  32.193  1.00  0.00     0.135 A 
ATOM     92  F   UNL A   1      46.808  36.598  35.263  1.00  0.00    -0.206 F 
ATOM     93  C   UNL A   1      47.529  36.791  33.051  1.00  0.00     0.059 A 
ATOM     94  C   UNL A   1      46.161  35.940  31.254  1.00  0.00     0.059 A 
ATOM     95  F   UNL A   1      44.085  34.987  31.708  1.00  0.00    -0.206 F 
ATOM     96  C   UNL A   1      47.333  36.544  31.697  1.00  0.00     0.060 A 
BRANCH  96  97
ATOM     97  S   UNL A   1      48.661  36.957  30.546  1.00  0.00     0.124 S 
ATOM     98  O   UNL A   1      48.651  38.415  30.582  1.00  0.00    -0.237 OA
ATOM     99  O   UNL A   1      49.810  36.314  31.176  1.00  0.00    -0.237 OA
ATOM    100  O   UNL A   1      48.222  36.354  29.292  1.00  0.00    -0.744 OA
ENDBRANCH  96  97
ENDBRANCH  64  89
BRANCH  76 101
ATOM    101  C   UNL A   1      40.605  34.660  37.957  1.00  0.00     0.058 A 
ATOM    102  C   UNL A   1      40.260  35.779  38.728  1.00  0.00     0.135 A 
ATOM    103  C   UNL A   1      41.247  33.592  38.606  1.00  0.00     0.135 A 
ATOM    104  F   UNL A   1      39.637  36.826  38.162  1.00  0.00    -0.206 F 
ATOM    105  C   UNL A   1      40.501  35.821  40.098  1.00  0.00     0.059 A 
ATOM    106  C   UNL A   1      41.480  33.604  39.979  1.00  0.00     0.059 A 
ATOM    107  F   UNL A   1      41.620  32.499  37.919  1.00  0.00    -0.206 F 
ATOM    108  C   UNL A   1      41.094  34.720  40.719  1.00  0.00     0.060 A 
BRANCH 108 109
ATOM    109  S   UNL A   1      41.272  34.732  42.515  1.00  0.00     0.124 S 
ATOM    110  O   UNL A   1      42.360  33.782  42.722  1.00  0.00    -0.237 OA
ATOM    111  O   UNL A   1      41.592  36.131  42.787  1.00  0.00    -0.237 OA
ATOM    112  O   UNL A   1      39.961  34.298  42.993  1.00  0.00    -0.744 OA
ENDBRANCH 108 109
ENDBRANCH  76 101
ENDBRANCH  50  51
ENDBRANCH  42  45
ENDBRANCH  40  41
ENDBRANCH  39  40
ENDBRANCH   1  39
TORSDOF 19
ENDMDL
MODEL 3
REMARK VINA RESULT:     -14.1      2.560      7.615
REMARK SMILES Cc1oc2c(C)c3oc(=O)c(CCC(=O)N[C@H](Cc4ccc(Cl)cc4)C(=O)NCCCNC(=O)c4ccc(-c5c6nc(c(-c7c(F)cc(S(=O)(=O)[O-])cc7F)c7ccc([nH]7)c(-c7c(F)cc(S(=O)(=O)[O-])cc7F)c7nc(c(-c8c(F)cc(S(=O)(=O)[O-])cc8F)c8ccc5[nH]8)C=C7)C=C6)cc4)c(C)c3cc2c1C
REMARK SMILES IDX 29 1 28 2 26 3 27 4 17 6 16 7 14 8 15 9 13 11 12 12 11 13
REMARK SMILES IDX 1 14 2 15 3 16 106 17 4 18 105 19 107 20 5 21 104 22 6 23
REMARK SMILES IDX 7 24 103 25 8 26 101 27 9 28 102 29 10 30 18 31 19 32 20 33
REMARK SMILES IDX 25 34 21 35 24 36 22 37 23 38 30 39 31 40 32 41 33 42 34 44
REMARK SMILES IDX 35 45 36 46 100 47 37 48 99 49 38 50 39 51 40 52 93 53 41 54
REMARK SMILES IDX 98 55 92 56 94 57 42 58 97 59 91 60 90 61 43 63 77 64 56 65
REMARK SMILES IDX 76 66 57 67 60 68 75 69 95 70 58 71 59 72 74 74 96 75 61 76
REMARK SMILES IDX 44 77 45 78 54 79 46 80 47 81 53 82 55 83 48 84 49 85 50 86
REMARK SMILES IDX 51 87 52 88 78 89 79 90 88 91 80 92 81 93 87 94 89 95 82 96
REMARK SMILES IDX 83 97 84 98 85 99 86 100 62 101 63 102 72 103 64 104 65 105
REMARK SMILES IDX 71 106 73 107 66 108 67 109 68 110 69 111 70 112
REMARK H PARENT 28 5 16 10 32 43 94 62 60 73
REMARK Flexibility Score: inf
ROOT
ATOM      1  C   UNL A   1      35.222  32.061  28.699  1.00  0.00     0.117 C 
ENDROOT
BRANCH   1   2
ATOM      2  N   UNL A   1      33.668  32.475  27.985  1.00  0.00    -0.354 N 
ATOM      3  C   UNL A   1      32.535  32.226  27.118  1.00  0.00     0.242 C 
ATOM      4  O   UNL A   1      31.767  33.221  27.128  1.00  0.00    -0.273 OA
ATOM      5  H   UNL A   1      33.453  33.344  28.395  1.00  0.00     0.163 HD
BRANCH   3   6
ATOM      6  C   UNL A   1      31.823  30.810  26.155  1.00  0.00     0.175 C 
BRANCH   6   7
ATOM      7  N   UNL A   1      33.084  30.147  25.920  1.00  0.00    -0.344 N 
ATOM      8  C   UNL A   1      33.432  29.103  26.709  1.00  0.00     0.220 C 
ATOM      9  O   UNL A   1      34.598  28.713  26.707  1.00  0.00    -0.275 OA
ATOM     10  H   UNL A   1      33.681  30.448  25.198  1.00  0.00     0.164 HD
BRANCH   8  11
ATOM     11  C   UNL A   1      32.311  28.378  27.457  1.00  0.00     0.105 C 
BRANCH  11  12
ATOM     12  C   UNL A   1      31.328  27.244  26.759  1.00  0.00     0.053 C 
BRANCH  12  13
ATOM     13  C   UNL A   1      31.515  25.524  26.339  1.00  0.00     0.042 A 
ATOM     14  C   UNL A   1      37.858  20.598  24.653  1.00  0.00     0.088 C 
ATOM     15  C   UNL A   1      36.738  21.278  25.343  1.00  0.00     0.105 A 
ATOM     16  O   UNL A   1      35.499  20.692  25.248  1.00  0.00    -0.461 OA
ATOM     17  C   UNL A   1      36.656  22.515  25.955  1.00  0.00    -0.002 A 
ATOM     18  C   UNL A   1      34.576  21.633  25.618  1.00  0.00     0.141 A 
ATOM     19  C   UNL A   1      35.248  22.737  26.096  1.00  0.00     0.025 A 
ATOM     20  C   UNL A   1      37.753  23.514  26.144  1.00  0.00     0.049 C 
ATOM     21  C   UNL A   1      33.173  21.589  25.531  1.00  0.00     0.036 A 
ATOM     22  C   UNL A   1      34.477  23.864  26.402  1.00  0.00     0.024 A 
ATOM     23  C   UNL A   1      32.431  20.318  25.328  1.00  0.00     0.052 C 
ATOM     24  C   UNL A   1      32.552  22.866  25.567  1.00  0.00     0.145 A 
ATOM     25  C   UNL A   1      33.249  24.027  25.733  1.00  0.00     0.022 A 
ATOM     26  O   UNL A   1      31.172  23.061  25.566  1.00  0.00    -0.422 OA
ATOM     27  C   UNL A   1      32.508  25.299  25.502  1.00  0.00    -0.030 A 
ATOM     28  C   UNL A   1      30.747  24.087  26.459  1.00  0.00     0.339 A 
ATOM     29  C   UNL A   1      32.278  26.146  24.278  1.00  0.00     0.046 C 
ATOM     30  O   UNL A   1      29.777  23.801  27.160  1.00  0.00    -0.246 OA
ENDBRANCH  12  13
ENDBRANCH  11  12
ENDBRANCH   8  11
ENDBRANCH   6   7
BRANCH   6  31
ATOM     31  C   UNL A   1      30.826  30.083  24.797  1.00  0.00     0.070 C 
BRANCH  31  32
ATOM     32  C   UNL A   1      29.615  30.326  23.687  1.00  0.00    -0.045 A 
ATOM     33  C   UNL A   1      28.386  31.027  23.789  1.00  0.00     0.005 A 
ATOM     34  C   UNL A   1      29.828  29.882  22.365  1.00  0.00     0.005 A 
ATOM     35  C   UNL A   1      27.768  31.712  22.715  1.00  0.00     0.021 A 
ATOM     36  C   UNL A   1      29.161  30.481  21.254  1.00  0.00     0.021 A 
ATOM     37  C   UNL A   1      28.229  31.494  21.440  1.00  0.00     0.041 A 
ATOM     38  Cl  UNL A   1      27.783  32.556  20.162  1.00  0.00    -0.084 Cl
ENDBRANCH  31  32
ENDBRANCH   6  31
ENDBRANCH   3   6
ENDBRANCH   1   2
BRANCH   1  39
ATOM     39  C   UNL A   1      35.972  32.812  30.010  1.00  0.00     0.042 C 
BRANCH  39  40
ATOM     40  C   UNL A   1      36.168  32.215  31.460  1.00  0.00     0.118 C 
BRANCH  40  41
ATOM     41  N   UNL A   1      37.286  32.768  32.241  1.00  0.00    -0.352 N 
ATOM     42  C   UNL A   1      38.671  32.629  32.247  1.00  0.00     0.251 C 
ATOM     43  H   UNL A   1      36.976  33.394  32.935  1.00  0.00     0.163 HD
ATOM     44  O   UNL A   1      39.243  33.238  33.160  1.00  0.00    -0.269 OA
BRANCH  42  45
ATOM     45  C   UNL A   1      39.541  31.838  31.299  1.00  0.00     0.039 A 
ATOM     46  C   UNL A   1      40.944  32.032  31.373  1.00  0.00     0.014 A 
ATOM     47  C   UNL A   1      39.079  30.991  30.295  1.00  0.00     0.014 A 
ATOM     48  C   UNL A   1      41.847  31.365  30.517  1.00  0.00     0.010 A 
ATOM     49  C   UNL A   1      39.984  30.312  29.442  1.00  0.00     0.010 A 
ATOM     50  C   UNL A   1      41.375  30.470  29.555  1.00  0.00    -0.014 A 
BRANCH  50  51
ATOM     51  C   UNL A   1      42.346  29.635  28.789  1.00  0.00     0.031 A 
ATOM     52  C   UNL A   1      43.466  30.395  28.151  1.00  0.00     0.074 A 
ATOM     53  C   UNL A   1      42.603  28.329  29.037  1.00  0.00     0.049 A 
ATOM     54  N   UNL A   1      44.475  30.839  28.841  1.00  0.00    -0.248 NA
ATOM     55  C   UNL A   1      43.431  30.884  26.773  1.00  0.00     0.031 C 
ATOM     56  C   UNL A   1      42.391  27.696  30.343  1.00  0.00     0.029 A 
ATOM     57  N   UNL A   1      43.316  27.387  28.320  1.00  0.00    -0.354 N 
ATOM     58  C   UNL A   1      45.180  31.704  28.031  1.00  0.00     0.074 A 
ATOM     59  C   UNL A   1      44.502  31.694  26.752  1.00  0.00     0.031 C 
ATOM     60  C   UNL A   1      43.114  26.557  30.396  1.00  0.00     0.029 A 
ATOM     61  C   UNL A   1      43.698  26.284  29.085  1.00  0.00     0.049 A 
ATOM     62  H   UNL A   1      43.532  27.484  27.365  1.00  0.00     0.167 HD
ATOM     63  C   UNL A   1      46.273  32.386  28.461  1.00  0.00     0.037 A 
ATOM     64  C   UNL A   1      44.806  25.513  28.890  1.00  0.00     0.037 A 
ATOM     65  C   UNL A   1      46.697  32.100  29.799  1.00  0.00     0.049 A 
ATOM     66  C   UNL A   1      45.909  26.486  29.214  1.00  0.00     0.074 A 
ATOM     67  C   UNL A   1      46.447  32.582  31.066  1.00  0.00     0.029 A 
ATOM     68  N   UNL A   1      47.511  31.006  29.998  1.00  0.00    -0.354 N 
ATOM     69  N   UNL A   1      46.311  26.826  30.411  1.00  0.00    -0.248 NA
ATOM     70  C   UNL A   1      46.358  27.380  28.145  1.00  0.00     0.031 C 
ATOM     71  C   UNL A   1      46.734  31.497  31.954  1.00  0.00     0.029 A 
ATOM     72  C   UNL A   1      47.090  30.407  31.160  1.00  0.00     0.049 A 
ATOM     73  H   UNL A   1      48.249  30.711  29.418  1.00  0.00     0.167 HD
ATOM     74  C   UNL A   1      46.822  28.118  30.276  1.00  0.00     0.074 A 
ATOM     75  C   UNL A   1      46.852  28.386  28.852  1.00  0.00     0.031 C 
ATOM     76  C   UNL A   1      47.012  28.972  31.324  1.00  0.00     0.037 A 
BRANCH  63  77
ATOM     77  C   UNL A   1      47.099  33.249  27.598  1.00  0.00     0.058 A 
ATOM     78  C   UNL A   1      48.153  32.670  26.879  1.00  0.00     0.135 A 
ATOM     79  C   UNL A   1      46.994  34.644  27.623  1.00  0.00     0.135 A 
ATOM     80  F   UNL A   1      48.291  31.334  26.851  1.00  0.00    -0.206 F 
ATOM     81  C   UNL A   1      49.102  33.448  26.234  1.00  0.00     0.059 A 
ATOM     82  C   UNL A   1      47.933  35.447  26.980  1.00  0.00     0.059 A 
ATOM     83  F   UNL A   1      46.004  35.238  28.309  1.00  0.00    -0.206 F 
ATOM     84  C   UNL A   1      48.995  34.838  26.307  1.00  0.00     0.060 A 
BRANCH  84  85
ATOM     85  S   UNL A   1      50.298  35.827  25.545  1.00  0.00     0.124 S 
ATOM     86  O   UNL A   1      49.661  36.256  24.304  1.00  0.00    -0.237 OA
ATOM     87  O   UNL A   1      50.509  36.867  26.545  1.00  0.00    -0.237 OA
ATOM     88  O   UNL A   1      51.397  34.879  25.389  1.00  0.00    -0.744 OA
ENDBRANCH  84  85
ENDBRANCH  63  77
BRANCH  64  89
ATOM     89  C   UNL A   1      44.803  24.655  27.657  1.00  0.00     0.058 A 
ATOM     90  C   UNL A   1      45.994  23.984  27.304  1.00  0.00     0.135 A 
ATOM     91  C   UNL A   1      43.711  24.450  26.795  1.00  0.00     0.135 A 
ATOM     92  F   UNL A   1      47.133  24.234  27.971  1.00  0.00    -0.206 F 
ATOM     93  C   UNL A   1      46.050  23.040  26.282  1.00  0.00     0.059 A 
ATOM     94  C   UNL A   1      43.732  23.489  25.781  1.00  0.00     0.059 A 
ATOM     95  F   UNL A   1      42.583  25.160  26.926  1.00  0.00    -0.206 F 
ATOM     96  C   UNL A   1      44.895  22.760  25.559  1.00  0.00     0.060 A 
BRANCH  96  97
ATOM     97  S   UNL A   1      44.927  21.388  24.387  1.00  0.00     0.124 S 
ATOM     98  O   UNL A   1      43.919  20.491  24.942  1.00  0.00    -0.237 OA
ATOM     99  O   UNL A   1      44.566  22.055  23.139  1.00  0.00    -0.237 OA
ATOM    100  O   UNL A   1      46.303  20.911  24.460  1.00  0.00    -0.744 OA
ENDBRANCH  96  97
ENDBRANCH  64  89
BRANCH  76 101
ATOM    101  C   UNL A   1      46.872  28.383  32.688  1.00  0.00     0.058 A 
ATOM    102  C   UNL A   1      45.609  28.302  33.293  1.00  0.00     0.135 A 
ATOM    103  C   UNL A   1      47.963  27.825  33.374  1.00  0.00     0.135 A 
ATOM    104  F   UNL A   1      44.529  28.811  32.678  1.00  0.00    -0.206 F 
ATOM    105  C   UNL A   1      45.427  27.654  34.512  1.00  0.00     0.059 A 
ATOM    106  C   UNL A   1      47.800  27.154  34.584  1.00  0.00     0.059 A 
ATOM    107  F   UNL A   1      49.201  27.886  32.856  1.00  0.00    -0.206 F 
ATOM    108  C   UNL A   1      46.526  27.066  35.141  1.00  0.00     0.060 A 
BRANCH 108 109
ATOM    109  S   UNL A   1      46.250  26.110  36.647  1.00  0.00     0.124 S 
ATOM    110  O   UNL A   1      45.189  26.867  37.301  1.00  0.00    -0.237 OA
ATOM    111  O   UNL A   1      45.864  24.803  36.121  1.00  0.00    -0.237 OA
ATOM    112  O   UNL A   1      47.549  26.143  37.317  1.00  0.00    -0.744 OA
ENDBRANCH 108 109
ENDBRANCH  76 101
ENDBRANCH  50  51
ENDBRANCH  42  45
ENDBRANCH  40  41
ENDBRANCH  39  40
ENDBRANCH   1  39
TORSDOF 19
ENDMDL
