MODEL 1
REMARK VINA RESULT:     -11.8      0.000      0.000
REMARK SMILES COC(=O)Cc1nc(NC(=O)[C@H]2CC[C@@H]2C(=O)NCCCNC(=O)c2ccc(-c3c4nc(c(-c5c(F)cc(S(=O)(=O)[O-])cc5F)c5ccc([nH]5)c(-c5c(F)cc(S(=O)(=O)[O-])cc5F)c5nc(c(-c6c(F)cc(S(=O)(=O)[O-])cc6F)c6ccc3[nH]6)C=C5)C=C4)cc2)sc1C
REMARK SMILES IDX 19 1 18 2 16 3 17 4 15 6 12 7 13 8 14 9 10 10 9 11 11 13
REMARK SMILES IDX 8 14 6 15 7 16 92 17 91 18 93 19 5 20 3 21 4 22 2 23 1 24
REMARK SMILES IDX 20 25 21 26 22 27 23 28 24 30 25 31 26 32 90 33 27 34 89 35
REMARK SMILES IDX 28 36 29 37 30 38 83 39 31 40 88 41 82 42 84 43 32 44 87 45
REMARK SMILES IDX 81 46 80 47 33 49 67 50 46 51 66 52 47 53 50 54 65 55 85 56
REMARK SMILES IDX 48 57 49 58 64 60 86 61 51 62 34 63 35 64 44 65 36 66 37 67
REMARK SMILES IDX 43 68 45 69 38 70 39 71 40 72 41 73 42 74 68 75 69 76 78 77
REMARK SMILES IDX 70 78 71 79 77 80 79 81 72 82 73 83 74 84 75 85 76 86 52 87
REMARK SMILES IDX 53 88 62 89 54 90 55 91 61 92 63 93 56 94 57 95 58 96 59 97
REMARK SMILES IDX 60 98
REMARK H PARENT 18 5 9 12 22 29 84 48 50 59
REMARK Flexibility Score: inf
ROOT
ATOM      1  C   UNL A   1      36.993  22.455  25.534  1.00  0.00     0.117 C 
ENDROOT
BRANCH   1   2
ATOM      2  N   UNL A   1      35.781  22.251  26.307  1.00  0.00    -0.356 N 
ATOM      3  C   UNL A   1      34.573  21.627  26.076  1.00  0.00     0.223 C 
ATOM      4  O   UNL A   1      33.839  21.576  27.078  1.00  0.00    -0.275 OA
ATOM      5  H   UNL A   1      35.833  22.652  27.203  1.00  0.00     0.163 HD
BRANCH   3   6
ATOM      6  C   UNL A   1      34.086  21.054  24.713  1.00  0.00     0.091 C 
ATOM      7  C   UNL A   1      32.622  21.110  24.219  1.00  0.00     0.091 C 
ATOM      8  C   UNL A   1      32.486  19.634  24.718  1.00  0.00     0.015 C 
ATOM      9  C   UNL A   1      34.005  19.510  24.664  1.00  0.00     0.015 C 
BRANCH   7  10
ATOM     10  C   UNL A   1      32.195  21.360  22.757  1.00  0.00     0.230 C 
ATOM     11  N   UNL A   1      32.146  22.660  22.264  1.00  0.00    -0.302 N 
ATOM     12  H   UNL A   1      31.846  22.749  21.331  1.00  0.00     0.172 HD
ATOM     13  O   UNL A   1      31.848  20.447  21.996  1.00  0.00    -0.274 OA
BRANCH  11  14
ATOM     14  C   UNL A   1      32.459  23.839  22.899  1.00  0.00     0.189 A 
ATOM     15  C   UNL A   1      32.197  25.572  24.246  1.00  0.00     0.068 A 
ATOM     16  N   UNL A   1      31.583  24.730  23.303  1.00  0.00    -0.224 NA
ATOM     17  C   UNL A   1      33.506  25.209  24.528  1.00  0.00     0.027 A 
ATOM     18  S   UNL A   1      34.067  24.330  23.177  1.00  0.00    -0.102 S 
ATOM     19  C   UNL A   1      34.415  25.506  25.664  1.00  0.00     0.058 C 
BRANCH  15  20
ATOM     20  C   UNL A   1      31.407  26.656  24.906  1.00  0.00     0.180 C 
BRANCH  20  21
ATOM     21  C   UNL A   1      30.844  26.160  26.225  1.00  0.00     0.311 C 
ATOM     22  O   UNL A   1      29.890  25.402  26.335  1.00  0.00    -0.252 OA
BRANCH  21  23
ATOM     23  O   UNL A   1      31.481  26.766  27.266  1.00  0.00    -0.469 OA
ATOM     24  C   UNL A   1      31.474  28.197  27.257  1.00  0.00     0.282 C 
ENDBRANCH  21  23
ENDBRANCH  20  21
ENDBRANCH  15  20
ENDBRANCH  11  14
ENDBRANCH   7  10
ENDBRANCH   3   6
ENDBRANCH   1   2
BRANCH   1  25
ATOM     25  C   UNL A   1      37.697  23.775  25.811  1.00  0.00     0.042 C 
BRANCH  25  26
ATOM     26  C   UNL A   1      38.848  23.654  26.799  1.00  0.00     0.118 C 
BRANCH  26  27
ATOM     27  N   UNL A   1      40.143  23.902  26.169  1.00  0.00    -0.352 N 
ATOM     28  C   UNL A   1      41.016  24.954  26.282  1.00  0.00     0.251 C 
ATOM     29  H   UNL A   1      40.439  23.192  25.556  1.00  0.00     0.163 HD
ATOM     30  O   UNL A   1      41.946  25.043  25.483  1.00  0.00    -0.269 OA
BRANCH  28  31
ATOM     31  C   UNL A   1      40.846  25.978  27.336  1.00  0.00     0.039 A 
ATOM     32  C   UNL A   1      39.909  25.754  28.350  1.00  0.00     0.014 A 
ATOM     33  C   UNL A   1      41.568  27.173  27.310  1.00  0.00     0.014 A 
ATOM     34  C   UNL A   1      39.750  26.696  29.368  1.00  0.00     0.010 A 
ATOM     35  C   UNL A   1      41.480  28.062  28.374  1.00  0.00     0.010 A 
ATOM     36  C   UNL A   1      40.562  27.839  29.410  1.00  0.00    -0.014 A 
BRANCH  36  37
ATOM     37  C   UNL A   1      40.468  28.816  30.522  1.00  0.00     0.031 A 
ATOM     38  C   UNL A   1      41.354  28.673  31.731  1.00  0.00     0.074 A 
ATOM     39  C   UNL A   1      39.535  29.787  30.472  1.00  0.00     0.049 A 
ATOM     40  N   UNL A   1      41.367  29.379  32.832  1.00  0.00    -0.248 NA
ATOM     41  C   UNL A   1      42.332  27.573  31.714  1.00  0.00     0.031 C 
ATOM     42  C   UNL A   1      38.582  29.988  29.377  1.00  0.00     0.029 A 
ATOM     43  N   UNL A   1      39.224  30.779  31.365  1.00  0.00    -0.354 N 
ATOM     44  C   UNL A   1      42.339  28.801  33.641  1.00  0.00     0.074 A 
ATOM     45  C   UNL A   1      42.853  27.652  32.930  1.00  0.00     0.031 C 
ATOM     46  C   UNL A   1      37.813  31.053  29.652  1.00  0.00     0.029 A 
ATOM     47  C   UNL A   1      38.186  31.585  30.958  1.00  0.00     0.049 A 
ATOM     48  H   UNL A   1      39.700  30.904  32.219  1.00  0.00     0.167 HD
ATOM     49  C   UNL A   1      42.781  29.208  34.855  1.00  0.00     0.037 A 
ATOM     50  C   UNL A   1      37.597  32.628  31.573  1.00  0.00     0.037 A 
ATOM     51  C   UNL A   1      42.279  30.370  35.541  1.00  0.00     0.049 A 
ATOM     52  C   UNL A   1      38.107  33.064  32.919  1.00  0.00     0.074 A 
ATOM     53  C   UNL A   1      42.700  30.906  36.746  1.00  0.00     0.029 A 
ATOM     54  N   UNL A   1      41.244  31.175  35.086  1.00  0.00    -0.354 N 
ATOM     55  N   UNL A   1      39.075  32.547  33.639  1.00  0.00    -0.248 NA
ATOM     56  C   UNL A   1      37.453  34.227  33.533  1.00  0.00     0.031 C 
ATOM     57  C   UNL A   1      41.888  32.006  37.042  1.00  0.00     0.029 A 
ATOM     58  C   UNL A   1      40.997  32.189  35.996  1.00  0.00     0.049 A 
ATOM     59  H   UNL A   1      40.758  31.044  34.241  1.00  0.00     0.167 HD
ATOM     60  C   UNL A   1      39.162  33.337  34.780  1.00  0.00     0.074 A 
ATOM     61  C   UNL A   1      38.160  34.374  34.645  1.00  0.00     0.031 C 
ATOM     62  C   UNL A   1      39.996  33.215  35.843  1.00  0.00     0.037 A 
BRANCH  49  63
ATOM     63  C   UNL A   1      43.863  28.397  35.514  1.00  0.00     0.058 A 
ATOM     64  C   UNL A   1      43.564  27.333  36.382  1.00  0.00     0.135 A 
ATOM     65  C   UNL A   1      45.217  28.660  35.248  1.00  0.00     0.135 A 
ATOM     66  F   UNL A   1      42.288  27.046  36.685  1.00  0.00    -0.206 F 
ATOM     67  C   UNL A   1      44.567  26.580  36.985  1.00  0.00     0.059 A 
ATOM     68  C   UNL A   1      46.236  27.900  35.817  1.00  0.00     0.059 A 
ATOM     69  F   UNL A   1      45.562  29.665  34.428  1.00  0.00    -0.206 F 
ATOM     70  C   UNL A   1      45.900  26.871  36.695  1.00  0.00     0.060 A 
BRANCH  70  71
ATOM     71  S   UNL A   1      47.187  25.880  37.480  1.00  0.00     0.124 S 
ATOM     72  O   UNL A   1      48.118  26.913  37.926  1.00  0.00    -0.237 OA
ATOM     73  O   UNL A   1      46.451  25.194  38.538  1.00  0.00    -0.237 OA
ATOM     74  O   UNL A   1      47.669  25.026  36.399  1.00  0.00    -0.744 OA
ENDBRANCH  70  71
ENDBRANCH  49  63
BRANCH  50  75
ATOM     75  C   UNL A   1      36.475  33.344  30.908  1.00  0.00     0.058 A 
ATOM     76  C   UNL A   1      35.161  33.225  31.384  1.00  0.00     0.135 A 
ATOM     77  C   UNL A   1      36.696  34.175  29.799  1.00  0.00     0.135 A 
ATOM     78  F   UNL A   1      34.898  32.440  32.439  1.00  0.00    -0.206 F 
ATOM     79  C   UNL A   1      34.102  33.892  30.775  1.00  0.00     0.059 A 
ATOM     80  C   UNL A   1      35.658  34.873  29.190  1.00  0.00     0.059 A 
ATOM     81  F   UNL A   1      37.938  34.340  29.318  1.00  0.00    -0.206 F 
ATOM     82  C   UNL A   1      34.363  34.717  29.680  1.00  0.00     0.060 A 
BRANCH  82  83
ATOM     83  S   UNL A   1      32.991  35.623  28.932  1.00  0.00     0.124 S 
ATOM     84  O   UNL A   1      32.419  34.612  28.050  1.00  0.00    -0.237 OA
ATOM     85  O   UNL A   1      32.191  35.982  30.099  1.00  0.00    -0.237 OA
ATOM     86  O   UNL A   1      33.652  36.742  28.268  1.00  0.00    -0.744 OA
ENDBRANCH  82  83
ENDBRANCH  50  75
BRANCH  62  87
ATOM     87  C   UNL A   1      39.881  34.247  36.930  1.00  0.00     0.058 A 
ATOM     88  C   UNL A   1      40.450  35.524  36.799  1.00  0.00     0.135 A 
ATOM     89  C   UNL A   1      39.150  33.971  38.097  1.00  0.00     0.135 A 
ATOM     90  F   UNL A   1      41.165  35.837  35.706  1.00  0.00    -0.206 F 
ATOM     91  C   UNL A   1      40.323  36.481  37.800  1.00  0.00     0.059 A 
ATOM     92  C   UNL A   1      38.984  34.924  39.097  1.00  0.00     0.059 A 
ATOM     93  F   UNL A   1      38.575  32.769  38.266  1.00  0.00    -0.206 F 
ATOM     94  C   UNL A   1      39.586  36.172  38.945  1.00  0.00     0.060 A 
BRANCH  94  95
ATOM     95  S   UNL A   1      39.405  37.432  40.224  1.00  0.00     0.124 S 
ATOM     96  O   UNL A   1      38.482  38.366  39.586  1.00  0.00    -0.237 OA
ATOM     97  O   UNL A   1      38.861  36.667  41.341  1.00  0.00    -0.237 OA
ATOM     98  O   UNL A   1      40.766  37.924  40.412  1.00  0.00    -0.744 OA
ENDBRANCH  94  95
ENDBRANCH  62  87
ENDBRANCH  36  37
ENDBRANCH  28  31
ENDBRANCH  26  27
ENDBRANCH  25  26
ENDBRANCH   1  25
TORSDOF 18
ENDMDL
MODEL 2
REMARK VINA RESULT:     -11.8      3.364      9.174
REMARK SMILES COC(=O)Cc1nc(NC(=O)[C@H]2CC[C@@H]2C(=O)NCCCNC(=O)c2ccc(-c3c4nc(c(-c5c(F)cc(S(=O)(=O)[O-])cc5F)c5ccc([nH]5)c(-c5c(F)cc(S(=O)(=O)[O-])cc5F)c5nc(c(-c6c(F)cc(S(=O)(=O)[O-])cc6F)c6ccc3[nH]6)C=C5)C=C4)cc2)sc1C
REMARK SMILES IDX 19 1 18 2 16 3 17 4 15 6 12 7 13 8 14 9 10 10 9 11 11 13
REMARK SMILES IDX 8 14 6 15 7 16 92 17 91 18 93 19 5 20 3 21 4 22 2 23 1 24
REMARK SMILES IDX 20 25 21 26 22 27 23 28 24 30 25 31 26 32 90 33 27 34 89 35
REMARK SMILES IDX 28 36 29 37 30 38 83 39 31 40 88 41 82 42 84 43 32 44 87 45
REMARK SMILES IDX 81 46 80 47 33 49 67 50 46 51 66 52 47 53 50 54 65 55 85 56
REMARK SMILES IDX 48 57 49 58 64 60 86 61 51 62 34 63 35 64 44 65 36 66 37 67
REMARK SMILES IDX 43 68 45 69 38 70 39 71 40 72 41 73 42 74 68 75 69 76 78 77
REMARK SMILES IDX 70 78 71 79 77 80 79 81 72 82 73 83 74 84 75 85 76 86 52 87
REMARK SMILES IDX 53 88 62 89 54 90 55 91 61 92 63 93 56 94 57 95 58 96 59 97
REMARK SMILES IDX 60 98
REMARK H PARENT 18 5 9 12 22 29 84 48 50 59
REMARK Flexibility Score: inf
ROOT
ATOM      1  C   UNL A   1      31.755  27.237  26.514  1.00  0.00     0.117 C 
ENDROOT
BRANCH   1   2
ATOM      2  N   UNL A   1      31.353  25.909  26.939  1.00  0.00    -0.356 N 
ATOM      3  C   UNL A   1      31.626  24.627  26.512  1.00  0.00     0.223 C 
ATOM      4  O   UNL A   1      31.161  23.744  27.255  1.00  0.00    -0.275 OA
ATOM      5  H   UNL A   1      30.743  25.928  27.710  1.00  0.00     0.163 HD
BRANCH   3   6
ATOM      6  C   UNL A   1      32.399  24.239  25.218  1.00  0.00     0.091 C 
ATOM      7  C   UNL A   1      32.001  24.701  23.796  1.00  0.00     0.091 C 
ATOM      8  C   UNL A   1      31.316  23.306  23.626  1.00  0.00     0.015 C 
ATOM      9  C   UNL A   1      32.184  22.776  24.762  1.00  0.00     0.015 C 
BRANCH   7  10
ATOM     10  C   UNL A   1      33.000  25.091  22.686  1.00  0.00     0.230 C 
ATOM     11  N   UNL A   1      32.874  26.319  22.044  1.00  0.00    -0.302 N 
ATOM     12  H   UNL A   1      33.531  26.495  21.332  1.00  0.00     0.172 HD
ATOM     13  O   UNL A   1      33.903  24.336  22.302  1.00  0.00    -0.274 OA
BRANCH  11  14
ATOM     14  C   UNL A   1      31.959  27.322  22.265  1.00  0.00     0.189 A 
ATOM     15  C   UNL A   1      30.030  28.248  22.822  1.00  0.00     0.068 A 
ATOM     16  N   UNL A   1      30.657  27.192  22.139  1.00  0.00    -0.224 NA
ATOM     17  C   UNL A   1      30.927  29.084  23.473  1.00  0.00     0.027 A 
ATOM     18  S   UNL A   1      32.422  28.912  22.667  1.00  0.00    -0.102 S 
ATOM     19  C   UNL A   1      30.779  30.055  24.586  1.00  0.00     0.058 C 
BRANCH  15  20
ATOM     20  C   UNL A   1      28.538  28.320  22.879  1.00  0.00     0.180 C 
BRANCH  20  21
ATOM     21  C   UNL A   1      28.056  29.619  22.259  1.00  0.00     0.311 C 
ATOM     22  O   UNL A   1      28.376  30.023  21.150  1.00  0.00    -0.252 OA
BRANCH  21  23
ATOM     23  O   UNL A   1      27.307  30.318  23.159  1.00  0.00    -0.469 OA
ATOM     24  C   UNL A   1      27.698  31.677  23.376  1.00  0.00     0.282 C 
ENDBRANCH  21  23
ENDBRANCH  20  21
ENDBRANCH  15  20
ENDBRANCH  11  14
ENDBRANCH   7  10
ENDBRANCH   3   6
ENDBRANCH   1   2
BRANCH   1  25
ATOM     25  C   UNL A   1      33.060  27.723  27.128  1.00  0.00     0.042 C 
BRANCH  25  26
ATOM     26  C   UNL A   1      33.901  28.564  26.179  1.00  0.00     0.118 C 
BRANCH  26  27
ATOM     27  N   UNL A   1      33.789  29.993  26.464  1.00  0.00    -0.352 N 
ATOM     28  C   UNL A   1      34.483  30.799  27.331  1.00  0.00     0.251 C 
ATOM     29  H   UNL A   1      33.095  30.458  25.943  1.00  0.00     0.163 HD
ATOM     30  O   UNL A   1      34.061  31.931  27.555  1.00  0.00    -0.269 OA
BRANCH  28  31
ATOM     31  C   UNL A   1      35.710  30.320  28.002  1.00  0.00     0.039 A 
ATOM     32  C   UNL A   1      36.940  30.479  27.355  1.00  0.00     0.014 A 
ATOM     33  C   UNL A   1      35.657  29.680  29.242  1.00  0.00     0.014 A 
ATOM     34  C   UNL A   1      38.114  30.056  27.981  1.00  0.00     0.010 A 
ATOM     35  C   UNL A   1      36.832  29.350  29.906  1.00  0.00     0.010 A 
ATOM     36  C   UNL A   1      38.074  29.525  29.279  1.00  0.00    -0.014 A 
BRANCH  36  37
ATOM     37  C   UNL A   1      39.313  29.142  29.998  1.00  0.00     0.031 A 
ATOM     38  C   UNL A   1      39.729  29.888  31.238  1.00  0.00     0.074 A 
ATOM     39  C   UNL A   1      40.098  28.171  29.491  1.00  0.00     0.049 A 
ATOM     40  N   UNL A   1      40.813  29.751  31.958  1.00  0.00    -0.248 NA
ATOM     41  C   UNL A   1      38.826  30.948  31.712  1.00  0.00     0.031 C 
ATOM     42  C   UNL A   1      39.825  27.417  28.263  1.00  0.00     0.029 A 
ATOM     43  N   UNL A   1      41.288  27.656  29.935  1.00  0.00    -0.354 N 
ATOM     44  C   UNL A   1      40.728  30.713  32.957  1.00  0.00     0.074 A 
ATOM     45  C   UNL A   1      39.517  31.466  32.717  1.00  0.00     0.031 C 
ATOM     46  C   UNL A   1      40.806  26.521  28.069  1.00  0.00     0.029 A 
ATOM     47  C   UNL A   1      41.797  26.663  29.129  1.00  0.00     0.049 A 
ATOM     48  H   UNL A   1      41.738  27.968  30.754  1.00  0.00     0.167 HD
ATOM     49  C   UNL A   1      41.569  30.931  33.996  1.00  0.00     0.037 A 
ATOM     50  C   UNL A   1      42.938  25.955  29.231  1.00  0.00     0.037 A 
ATOM     51  C   UNL A   1      42.758  30.156  34.240  1.00  0.00     0.049 A 
ATOM     52  C   UNL A   1      43.854  26.212  30.395  1.00  0.00     0.074 A 
ATOM     53  C   UNL A   1      43.647  30.253  35.296  1.00  0.00     0.029 A 
ATOM     54  N   UNL A   1      43.227  29.143  33.415  1.00  0.00    -0.354 N 
ATOM     55  N   UNL A   1      43.723  27.081  31.370  1.00  0.00    -0.248 NA
ATOM     56  C   UNL A   1      45.069  25.391  30.478  1.00  0.00     0.031 C 
ATOM     57  C   UNL A   1      44.678  29.332  35.085  1.00  0.00     0.029 A 
ATOM     58  C   UNL A   1      44.404  28.623  33.927  1.00  0.00     0.049 A 
ATOM     59  H   UNL A   1      42.788  28.840  32.589  1.00  0.00     0.167 HD
ATOM     60  C   UNL A   1      44.825  26.893  32.197  1.00  0.00     0.074 A 
ATOM     61  C   UNL A   1      45.603  25.818  31.614  1.00  0.00     0.031 C 
ATOM     62  C   UNL A   1      45.164  27.550  33.334  1.00  0.00     0.037 A 
BRANCH  49  63
ATOM     63  C   UNL A   1      41.231  32.045  34.949  1.00  0.00     0.058 A 
ATOM     64  C   UNL A   1      40.343  31.856  36.021  1.00  0.00     0.135 A 
ATOM     65  C   UNL A   1      41.828  33.309  34.812  1.00  0.00     0.135 A 
ATOM     66  F   UNL A   1      39.730  30.674  36.191  1.00  0.00    -0.206 F 
ATOM     67  C   UNL A   1      40.036  32.887  36.904  1.00  0.00     0.059 A 
ATOM     68  C   UNL A   1      41.558  34.346  35.702  1.00  0.00     0.059 A 
ATOM     69  F   UNL A   1      42.683  33.548  33.806  1.00  0.00    -0.206 F 
ATOM     70  C   UNL A   1      40.650  34.128  36.737  1.00  0.00     0.060 A 
BRANCH  70  71
ATOM     71  S   UNL A   1      40.246  35.451  37.896  1.00  0.00     0.124 S 
ATOM     72  O   UNL A   1      39.159  34.846  38.660  1.00  0.00    -0.237 OA
ATOM     73  O   UNL A   1      41.503  35.628  38.616  1.00  0.00    -0.237 OA
ATOM     74  O   UNL A   1      39.862  36.560  37.028  1.00  0.00    -0.744 OA
ENDBRANCH  70  71
ENDBRANCH  49  63
BRANCH  50  75
ATOM     75  C   UNL A   1      43.261  24.920  28.212  1.00  0.00     0.058 A 
ATOM     76  C   UNL A   1      42.922  23.575  28.418  1.00  0.00     0.135 A 
ATOM     77  C   UNL A   1      43.895  25.257  27.006  1.00  0.00     0.135 A 
ATOM     78  F   UNL A   1      42.318  23.202  29.556  1.00  0.00    -0.206 F 
ATOM     79  C   UNL A   1      43.214  22.597  27.472  1.00  0.00     0.059 A 
ATOM     80  C   UNL A   1      44.173  24.302  26.034  1.00  0.00     0.059 A 
ATOM     81  F   UNL A   1      44.220  26.534  26.750  1.00  0.00    -0.206 F 
ATOM     82  C   UNL A   1      43.836  22.972  26.280  1.00  0.00     0.060 A 
BRANCH  82  83
ATOM     83  S   UNL A   1      44.159  21.705  25.036  1.00  0.00     0.124 S 
ATOM     84  O   UNL A   1      43.138  20.714  25.354  1.00  0.00    -0.237 OA
ATOM     85  O   UNL A   1      43.970  22.444  23.792  1.00  0.00    -0.237 OA
ATOM     86  O   UNL A   1      45.536  21.307  25.314  1.00  0.00    -0.744 OA
ENDBRANCH  82  83
ENDBRANCH  50  75
BRANCH  62  87
ATOM     87  C   UNL A   1      46.413  27.104  34.041  1.00  0.00     0.058 A 
ATOM     88  C   UNL A   1      47.662  27.687  33.771  1.00  0.00     0.135 A 
ATOM     89  C   UNL A   1      46.352  26.114  35.035  1.00  0.00     0.135 A 
ATOM     90  F   UNL A   1      47.776  28.633  32.825  1.00  0.00    -0.206 F 
ATOM     91  C   UNL A   1      48.810  27.283  34.443  1.00  0.00     0.059 A 
ATOM     92  C   UNL A   1      47.483  25.717  35.740  1.00  0.00     0.059 A 
ATOM     93  F   UNL A   1      45.180  25.533  35.339  1.00  0.00    -0.206 F 
ATOM     94  C   UNL A   1      48.710  26.298  35.428  1.00  0.00     0.060 A 
BRANCH  94  95
ATOM     95  S   UNL A   1      50.204  25.803  36.311  1.00  0.00     0.124 S 
ATOM     96  O   UNL A   1      49.664  25.432  37.615  1.00  0.00    -0.237 OA
ATOM     97  O   UNL A   1      50.700  24.702  35.493  1.00  0.00    -0.237 OA
ATOM     98  O   UNL A   1      51.025  27.010  36.292  1.00  0.00    -0.744 OA
ENDBRANCH  94  95
ENDBRANCH  62  87
ENDBRANCH  36  37
ENDBRANCH  28  31
ENDBRANCH  26  27
ENDBRANCH  25  26
ENDBRANCH   1  25
TORSDOF 18
ENDMDL
MODEL 3
REMARK VINA RESULT:     -11.7      4.706     10.184
REMARK SMILES COC(=O)Cc1nc(NC(=O)[C@H]2CC[C@@H]2C(=O)NCCCNC(=O)c2ccc(-c3c4nc(c(-c5c(F)cc(S(=O)(=O)[O-])cc5F)c5ccc([nH]5)c(-c5c(F)cc(S(=O)(=O)[O-])cc5F)c5nc(c(-c6c(F)cc(S(=O)(=O)[O-])cc6F)c6ccc3[nH]6)C=C5)C=C4)cc2)sc1C
REMARK SMILES IDX 19 1 18 2 16 3 17 4 15 6 12 7 13 8 14 9 10 10 9 11 11 13
REMARK SMILES IDX 8 14 6 15 7 16 92 17 91 18 93 19 5 20 3 21 4 22 2 23 1 24
REMARK SMILES IDX 20 25 21 26 22 27 23 28 24 30 25 31 26 32 90 33 27 34 89 35
REMARK SMILES IDX 28 36 29 37 30 38 83 39 31 40 88 41 82 42 84 43 32 44 87 45
REMARK SMILES IDX 81 46 80 47 33 49 67 50 46 51 66 52 47 53 50 54 65 55 85 56
REMARK SMILES IDX 48 57 49 58 64 60 86 61 51 62 34 63 35 64 44 65 36 66 37 67
REMARK SMILES IDX 43 68 45 69 38 70 39 71 40 72 41 73 42 74 68 75 69 76 78 77
REMARK SMILES IDX 70 78 71 79 77 80 79 81 72 82 73 83 74 84 75 85 76 86 52 87
REMARK SMILES IDX 53 88 62 89 54 90 55 91 61 92 63 93 56 94 57 95 58 96 59 97
REMARK SMILES IDX 60 98
REMARK H PARENT 18 5 9 12 22 29 84 48 50 59
REMARK Flexibility Score: inf
ROOT
ATOM      1  C   UNL A   1      32.086  27.230  26.530  1.00  0.00     0.117 C 
ENDROOT
BRANCH   1   2
ATOM      2  N   UNL A   1      31.648  25.927  26.995  1.00  0.00    -0.356 N 
ATOM      3  C   UNL A   1      31.805  24.632  26.550  1.00  0.00     0.223 C 
ATOM      4  O   UNL A   1      31.360  23.777  27.336  1.00  0.00    -0.275 OA
ATOM      5  H   UNL A   1      31.114  25.980  27.819  1.00  0.00     0.163 HD
BRANCH   3   6
ATOM      6  C   UNL A   1      32.430  24.201  25.191  1.00  0.00     0.091 C 
ATOM      7  C   UNL A   1      31.930  24.687  23.811  1.00  0.00     0.091 C 
ATOM      8  C   UNL A   1      31.152  23.334  23.711  1.00  0.00     0.015 C 
ATOM      9  C   UNL A   1      32.090  22.754  24.763  1.00  0.00     0.015 C 
BRANCH   7  10
ATOM     10  C   UNL A   1      32.842  25.020  22.611  1.00  0.00     0.230 C 
ATOM     11  N   UNL A   1      32.697  26.235  21.950  1.00  0.00    -0.302 N 
ATOM     12  H   UNL A   1      33.297  26.374  21.181  1.00  0.00     0.172 HD
ATOM     13  O   UNL A   1      33.687  24.228  22.172  1.00  0.00    -0.274 OA
BRANCH  11  14
ATOM     14  C   UNL A   1      31.834  27.271  22.220  1.00  0.00     0.189 A 
ATOM     15  C   UNL A   1      29.967  28.266  22.862  1.00  0.00     0.068 A 
ATOM     16  N   UNL A   1      30.524  27.198  22.140  1.00  0.00    -0.224 NA
ATOM     17  C   UNL A   1      30.921  29.052  23.494  1.00  0.00     0.027 A 
ATOM     18  S   UNL A   1      32.377  28.833  22.631  1.00  0.00    -0.102 S 
ATOM     19  C   UNL A   1      30.853  30.009  24.627  1.00  0.00     0.058 C 
BRANCH  15  20
ATOM     20  C   UNL A   1      28.482  28.399  22.975  1.00  0.00     0.180 C 
BRANCH  20  21
ATOM     21  C   UNL A   1      28.022  29.679  22.304  1.00  0.00     0.311 C 
ATOM     22  O   UNL A   1      28.259  29.982  21.142  1.00  0.00    -0.252 OA
BRANCH  21  23
ATOM     23  O   UNL A   1      27.405  30.489  23.211  1.00  0.00    -0.469 OA
ATOM     24  C   UNL A   1      27.788  31.868  23.181  1.00  0.00     0.282 C 
ENDBRANCH  21  23
ENDBRANCH  20  21
ENDBRANCH  15  20
ENDBRANCH  11  14
ENDBRANCH   7  10
ENDBRANCH   3   6
ENDBRANCH   1   2
BRANCH   1  25
ATOM     25  C   UNL A   1      33.575  27.490  26.704  1.00  0.00     0.042 C 
BRANCH  25  26
ATOM     26  C   UNL A   1      34.065  28.731  25.973  1.00  0.00     0.118 C 
BRANCH  26  27
ATOM     27  N   UNL A   1      33.829  29.951  26.740  1.00  0.00    -0.352 N 
ATOM     28  C   UNL A   1      34.551  30.539  27.748  1.00  0.00     0.251 C 
ATOM     29  H   UNL A   1      33.009  30.435  26.492  1.00  0.00     0.163 HD
ATOM     30  O   UNL A   1      34.037  31.451  28.392  1.00  0.00    -0.269 OA
BRANCH  28  31
ATOM     31  C   UNL A   1      35.920  30.084  28.072  1.00  0.00     0.039 A 
ATOM     32  C   UNL A   1      36.921  30.209  27.103  1.00  0.00     0.014 A 
ATOM     33  C   UNL A   1      36.217  29.498  29.304  1.00  0.00     0.014 A 
ATOM     34  C   UNL A   1      38.225  29.809  27.397  1.00  0.00     0.010 A 
ATOM     35  C   UNL A   1      37.532  29.192  29.630  1.00  0.00     0.010 A 
ATOM     36  C   UNL A   1      38.550  29.334  28.677  1.00  0.00    -0.014 A 
BRANCH  36  37
ATOM     37  C   UNL A   1      39.943  28.976  29.040  1.00  0.00     0.031 A 
ATOM     38  C   UNL A   1      40.832  29.988  29.712  1.00  0.00     0.074 A 
ATOM     39  C   UNL A   1      40.425  27.765  28.698  1.00  0.00     0.049 A 
ATOM     40  N   UNL A   1      42.096  29.888  30.037  1.00  0.00    -0.248 NA
ATOM     41  C   UNL A   1      40.234  31.293  30.032  1.00  0.00     0.031 C 
ATOM     42  C   UNL A   1      39.673  26.723  27.992  1.00  0.00     0.029 A 
ATOM     43  N   UNL A   1      41.663  27.207  28.885  1.00  0.00    -0.354 N 
ATOM     44  C   UNL A   1      42.444  31.118  30.584  1.00  0.00     0.074 A 
ATOM     45  C   UNL A   1      41.278  31.967  30.493  1.00  0.00     0.031 C 
ATOM     46  C   UNL A   1      40.456  25.646  27.831  1.00  0.00     0.029 A 
ATOM     47  C   UNL A   1      41.777  25.932  28.381  1.00  0.00     0.049 A 
ATOM     48  H   UNL A   1      42.402  27.674  29.339  1.00  0.00     0.167 HD
ATOM     49  C   UNL A   1      43.623  31.495  31.136  1.00  0.00     0.037 A 
ATOM     50  C   UNL A   1      42.830  25.093  28.357  1.00  0.00     0.037 A 
ATOM     51  C   UNL A   1      44.769  30.631  31.244  1.00  0.00     0.049 A 
ATOM     52  C   UNL A   1      44.126  25.533  28.979  1.00  0.00     0.074 A 
ATOM     53  C   UNL A   1      45.991  30.894  31.840  1.00  0.00     0.029 A 
ATOM     54  N   UNL A   1      44.839  29.339  30.743  1.00  0.00    -0.354 N 
ATOM     55  N   UNL A   1      44.418  26.676  29.553  1.00  0.00    -0.248 NA
ATOM     56  C   UNL A   1      45.235  24.569  28.957  1.00  0.00     0.031 C 
ATOM     57  C   UNL A   1      46.814  29.778  31.657  1.00  0.00     0.029 A 
ATOM     58  C   UNL A   1      46.089  28.799  30.996  1.00  0.00     0.049 A 
ATOM     59  H   UNL A   1      44.107  28.875  30.277  1.00  0.00     0.167 HD
ATOM     60  C   UNL A   1      45.735  26.560  29.984  1.00  0.00     0.074 A 
ATOM     61  C   UNL A   1      46.177  25.230  29.616  1.00  0.00     0.031 C 
ATOM     62  C   UNL A   1      46.509  27.471  30.625  1.00  0.00     0.037 A 
BRANCH  49  63
ATOM     63  C   UNL A   1      43.728  32.898  31.669  1.00  0.00     0.058 A 
ATOM     64  C   UNL A   1      43.532  33.188  33.030  1.00  0.00     0.135 A 
ATOM     65  C   UNL A   1      44.064  33.963  30.817  1.00  0.00     0.135 A 
ATOM     66  F   UNL A   1      43.192  32.212  33.887  1.00  0.00    -0.206 F 
ATOM     67  C   UNL A   1      43.636  34.486  33.521  1.00  0.00     0.059 A 
ATOM     68  C   UNL A   1      44.203  35.265  31.293  1.00  0.00     0.059 A 
ATOM     69  F   UNL A   1      44.261  33.746  29.508  1.00  0.00    -0.206 F 
ATOM     70  C   UNL A   1      43.972  35.518  32.644  1.00  0.00     0.060 A 
BRANCH  70  71
ATOM     71  S   UNL A   1      44.110  37.193  33.300  1.00  0.00     0.124 S 
ATOM     72  O   UNL A   1      45.257  37.062  34.194  1.00  0.00    -0.237 OA
ATOM     73  O   UNL A   1      44.337  37.982  32.093  1.00  0.00    -0.237 OA
ATOM     74  O   UNL A   1      42.825  37.410  33.956  1.00  0.00    -0.744 OA
ENDBRANCH  70  71
ENDBRANCH  49  63
BRANCH  50  75
ATOM     75  C   UNL A   1      42.691  23.745  27.742  1.00  0.00     0.058 A 
ATOM     76  C   UNL A   1      42.863  23.560  26.363  1.00  0.00     0.135 A 
ATOM     77  C   UNL A   1      42.404  22.614  28.523  1.00  0.00     0.135 A 
ATOM     78  F   UNL A   1      43.135  24.611  25.575  1.00  0.00    -0.206 F 
ATOM     79  C   UNL A   1      42.740  22.305  25.775  1.00  0.00     0.059 A 
ATOM     80  C   UNL A   1      42.303  21.345  27.962  1.00  0.00     0.059 A 
ATOM     81  F   UNL A   1      42.252  22.733  29.851  1.00  0.00    -0.206 F 
ATOM     82  C   UNL A   1      42.464  21.202  26.585  1.00  0.00     0.060 A 
BRANCH  82  83
ATOM     83  S   UNL A   1      42.362  19.570  25.820  1.00  0.00     0.124 S 
ATOM     84  O   UNL A   1      40.959  19.517  25.425  1.00  0.00    -0.237 OA
ATOM     85  O   UNL A   1      43.330  19.683  24.733  1.00  0.00    -0.237 OA
ATOM     86  O   UNL A   1      42.751  18.670  26.901  1.00  0.00    -0.744 OA
ENDBRANCH  82  83
ENDBRANCH  50  75
BRANCH  62  87
ATOM     87  C   UNL A   1      47.903  27.049  30.997  1.00  0.00     0.058 A 
ATOM     88  C   UNL A   1      48.159  26.260  32.129  1.00  0.00     0.135 A 
ATOM     89  C   UNL A   1      48.992  27.400  30.182  1.00  0.00     0.135 A 
ATOM     90  F   UNL A   1      47.153  25.904  32.945  1.00  0.00    -0.206 F 
ATOM     91  C   UNL A   1      49.448  25.857  32.456  1.00  0.00     0.059 A 
ATOM     92  C   UNL A   1      50.286  26.982  30.474  1.00  0.00     0.059 A 
ATOM     93  F   UNL A   1      48.801  28.144  29.080  1.00  0.00    -0.206 F 
ATOM     94  C   UNL A   1      50.506  26.222  31.621  1.00  0.00     0.060 A 
BRANCH  94  95
ATOM     95  S   UNL A   1      52.171  25.668  32.042  1.00  0.00     0.124 S 
ATOM     96  O   UNL A   1      52.867  25.837  30.771  1.00  0.00    -0.237 OA
ATOM     97  O   UNL A   1      52.551  26.598  33.101  1.00  0.00    -0.237 OA
ATOM     98  O   UNL A   1      51.972  24.287  32.471  1.00  0.00    -0.744 OA
ENDBRANCH  94  95
ENDBRANCH  62  87
ENDBRANCH  36  37
ENDBRANCH  28  31
ENDBRANCH  26  27
ENDBRANCH  25  26
ENDBRANCH   1  25
TORSDOF 18
ENDMDL
