MODEL 1
REMARK VINA RESULT:     -12.8      0.000      0.000
REMARK SMILES CC1=C(C)C[C@@H](C(=O)NCCCNC(=O)c2ccc(-c3c4nc(c(-c5c(F)cc(S(=O)(=O)[O-])cc5F)c5ccc([nH]5)c(-c5c(F)cc(S(=O)(=O)[O-])cc5F)c5nc(c(-c6c(F)cc(S(=O)(=O)[O-])cc6F)c6ccc3[nH]6)C=C5)C=C4)cc2)[C@@H](C(=O)NCC[NH+]2CCOCC2)C1
REMARK SMILES IDX 10 1 9 2 7 3 8 4 6 6 1 7 2 8 3 9 94 10 4 11 5 12 82 13 83 14
REMARK SMILES IDX 84 15 85 16 86 18 87 19 88 20 89 21 93 22 90 24 92 25 91 26
REMARK SMILES IDX 11 27 12 28 13 29 14 30 15 32 16 33 17 34 81 35 18 36 80 37
REMARK SMILES IDX 19 38 20 39 21 40 74 41 22 42 79 43 73 44 75 45 23 46 78 47
REMARK SMILES IDX 72 48 71 49 24 51 58 52 37 53 57 54 38 55 41 56 56 57 76 58
REMARK SMILES IDX 39 59 40 60 55 62 77 63 42 64 25 65 26 66 35 67 27 68 28 69
REMARK SMILES IDX 34 70 36 71 29 72 30 73 31 74 32 75 33 76 59 77 60 78 69 79
REMARK SMILES IDX 61 80 62 81 68 82 70 83 63 84 64 85 65 86 66 87 67 88 43 89
REMARK SMILES IDX 44 90 53 91 45 92 46 93 52 94 54 95 47 96 48 97 49 98 50 99
REMARK SMILES IDX 51 100
REMARK H PARENT 9 5 85 17 88 23 13 31 75 50 41 61
REMARK Flexibility Score: inf
ROOT
ATOM      1  C   UNL A   1      36.484  22.587  25.554  1.00  0.00     0.117 C 
ENDROOT
BRANCH   1   2
ATOM      2  N   UNL A   1      35.547  22.726  26.654  1.00  0.00    -0.356 N 
ATOM      3  C   UNL A   1      34.336  23.314  26.790  1.00  0.00     0.224 C 
ATOM      4  O   UNL A   1      33.788  23.183  27.894  1.00  0.00    -0.275 OA
ATOM      5  H   UNL A   1      35.860  22.296  27.482  1.00  0.00     0.163 HD
BRANCH   3   6
ATOM      6  C   UNL A   1      33.612  24.121  25.702  1.00  0.00     0.095 C 
ATOM      7  C   UNL A   1      31.240  27.601  27.041  1.00  0.00     0.039 C 
ATOM      8  C   UNL A   1      32.086  26.533  26.387  1.00  0.00    -0.074 C 
ATOM      9  C   UNL A   1      33.385  26.671  26.048  1.00  0.00    -0.074 C 
ATOM     10  C   UNL A   1      31.320  25.240  26.199  1.00  0.00     0.045 C 
ATOM     11  C   UNL A   1      34.218  27.914  26.249  1.00  0.00     0.039 C 
ATOM     12  C   UNL A   1      34.184  25.520  25.486  1.00  0.00     0.045 C 
ATOM     13  C   UNL A   1      32.076  24.017  25.664  1.00  0.00     0.095 C 
BRANCH  13  14
ATOM     14  C   UNL A   1      31.632  22.771  26.412  1.00  0.00     0.224 C 
ATOM     15  O   UNL A   1      30.982  22.811  27.456  1.00  0.00    -0.275 OA
ATOM     16  N   UNL A   1      32.060  21.552  26.027  1.00  0.00    -0.350 N 
ATOM     17  H   UNL A   1      32.377  20.978  26.761  1.00  0.00     0.163 HD
BRANCH  16  18
ATOM     18  C   UNL A   1      32.128  20.946  24.719  1.00  0.00     0.177 C 
BRANCH  18  19
ATOM     19  C   UNL A   1      33.214  19.848  24.679  1.00  0.00     0.283 C 
BRANCH  19  20
ATOM     20  N   UNL A   1      32.788  18.461  24.508  1.00  0.00    -0.330 N 
ATOM     21  C   UNL A   1      32.661  17.548  25.639  1.00  0.00     0.291 C 
ATOM     22  C   UNL A   1      32.976  17.811  23.215  1.00  0.00     0.291 C 
ATOM     23  H   UNL A   1      31.831  18.814  24.489  1.00  0.00     0.348 HD
ATOM     24  C   UNL A   1      33.576  16.302  25.573  1.00  0.00     0.221 C 
ATOM     25  C   UNL A   1      33.965  16.638  23.256  1.00  0.00     0.221 C 
ATOM     26  O   UNL A   1      33.600  15.699  24.273  1.00  0.00    -0.370 OA
ENDBRANCH  19  20
ENDBRANCH  18  19
ENDBRANCH  16  18
ENDBRANCH  13  14
ENDBRANCH   3   6
ENDBRANCH   1   2
BRANCH   1  27
ATOM     27  C   UNL A   1      37.390  23.794  25.326  1.00  0.00     0.042 C 
BRANCH  27  28
ATOM     28  C   UNL A   1      38.250  24.148  26.533  1.00  0.00     0.118 C 
BRANCH  28  29
ATOM     29  N   UNL A   1      39.652  23.845  26.267  1.00  0.00    -0.352 N 
ATOM     30  C   UNL A   1      40.758  24.610  26.542  1.00  0.00     0.251 C 
ATOM     31  H   UNL A   1      39.827  22.979  25.834  1.00  0.00     0.163 HD
ATOM     32  O   UNL A   1      41.809  24.398  25.943  1.00  0.00    -0.269 OA
BRANCH  30  33
ATOM     33  C   UNL A   1      40.686  25.676  27.567  1.00  0.00     0.039 A 
ATOM     34  C   UNL A   1      41.609  26.725  27.534  1.00  0.00     0.014 A 
ATOM     35  C   UNL A   1      39.745  25.602  28.597  1.00  0.00     0.014 A 
ATOM     36  C   UNL A   1      41.568  27.717  28.518  1.00  0.00     0.010 A 
ATOM     37  C   UNL A   1      39.666  26.622  29.541  1.00  0.00     0.010 A 
ATOM     38  C   UNL A   1      40.588  27.679  29.523  1.00  0.00    -0.014 A 
BRANCH  38  39
ATOM     39  C   UNL A   1      40.527  28.705  30.595  1.00  0.00     0.031 A 
ATOM     40  C   UNL A   1      41.418  28.573  31.801  1.00  0.00     0.074 A 
ATOM     41  C   UNL A   1      39.622  29.700  30.526  1.00  0.00     0.049 A 
ATOM     42  N   UNL A   1      41.430  29.277  32.904  1.00  0.00    -0.248 NA
ATOM     43  C   UNL A   1      42.409  27.484  31.774  1.00  0.00     0.031 C 
ATOM     44  C   UNL A   1      38.681  29.914  29.425  1.00  0.00     0.029 A 
ATOM     45  N   UNL A   1      39.329  30.707  31.412  1.00  0.00    -0.354 N 
ATOM     46  C   UNL A   1      42.403  28.700  33.712  1.00  0.00     0.074 A 
ATOM     47  C   UNL A   1      42.934  27.565  32.988  1.00  0.00     0.031 C 
ATOM     48  C   UNL A   1      37.922  30.986  29.698  1.00  0.00     0.029 A 
ATOM     49  C   UNL A   1      38.292  31.513  31.009  1.00  0.00     0.049 A 
ATOM     50  H   UNL A   1      39.817  30.838  32.258  1.00  0.00     0.167 HD
ATOM     51  C   UNL A   1      42.829  29.091  34.936  1.00  0.00     0.037 A 
ATOM     52  C   UNL A   1      37.696  32.549  31.631  1.00  0.00     0.037 A 
ATOM     53  C   UNL A   1      42.318  30.242  35.634  1.00  0.00     0.049 A 
ATOM     54  C   UNL A   1      38.192  32.975  32.987  1.00  0.00     0.074 A 
ATOM     55  C   UNL A   1      42.721  30.758  36.853  1.00  0.00     0.029 A 
ATOM     56  N   UNL A   1      41.296  31.058  35.172  1.00  0.00    -0.354 N 
ATOM     57  N   UNL A   1      39.147  32.448  33.717  1.00  0.00    -0.248 NA
ATOM     58  C   UNL A   1      37.536  34.137  33.603  1.00  0.00     0.031 C 
ATOM     59  C   UNL A   1      41.918  31.866  37.145  1.00  0.00     0.029 A 
ATOM     60  C   UNL A   1      41.045  32.067  36.087  1.00  0.00     0.049 A 
ATOM     61  H   UNL A   1      40.819  30.937  34.318  1.00  0.00     0.167 HD
ATOM     62  C   UNL A   1      39.226  33.231  34.863  1.00  0.00     0.074 A 
ATOM     63  C   UNL A   1      38.224  34.269  34.730  1.00  0.00     0.031 C 
ATOM     64  C   UNL A   1      40.056  33.103  35.928  1.00  0.00     0.037 A 
BRANCH  51  65
ATOM     65  C   UNL A   1      43.897  28.265  35.599  1.00  0.00     0.058 A 
ATOM     66  C   UNL A   1      45.262  28.497  35.362  1.00  0.00     0.135 A 
ATOM     67  C   UNL A   1      43.555  27.242  36.499  1.00  0.00     0.135 A 
ATOM     68  F   UNL A   1      45.645  29.453  34.501  1.00  0.00    -0.206 F 
ATOM     69  C   UNL A   1      46.248  27.722  35.964  1.00  0.00     0.059 A 
ATOM     70  C   UNL A   1      44.526  26.473  37.134  1.00  0.00     0.059 A 
ATOM     71  F   UNL A   1      42.266  26.979  36.765  1.00  0.00    -0.206 F 
ATOM     72  C   UNL A   1      45.868  26.709  36.846  1.00  0.00     0.060 A 
BRANCH  72  73
ATOM     73  S   UNL A   1      47.159  25.708  37.617  1.00  0.00     0.124 S 
ATOM     74  O   UNL A   1      48.037  26.738  38.164  1.00  0.00    -0.237 OA
ATOM     75  O   UNL A   1      46.410  24.929  38.598  1.00  0.00    -0.237 OA
ATOM     76  O   UNL A   1      47.706  24.943  36.501  1.00  0.00    -0.744 OA
ENDBRANCH  72  73
ENDBRANCH  51  65
BRANCH  52  77
ATOM     77  C   UNL A   1      36.580  33.267  30.964  1.00  0.00     0.058 A 
ATOM     78  C   UNL A   1      36.815  34.089  29.852  1.00  0.00     0.135 A 
ATOM     79  C   UNL A   1      35.254  33.122  31.401  1.00  0.00     0.135 A 
ATOM     80  F   UNL A   1      38.066  34.264  29.401  1.00  0.00    -0.206 F 
ATOM     81  C   UNL A   1      35.778  34.748  29.200  1.00  0.00     0.059 A 
ATOM     82  C   UNL A   1      34.197  33.754  30.752  1.00  0.00     0.059 A 
ATOM     83  F   UNL A   1      34.973  32.334  32.450  1.00  0.00    -0.206 F 
ATOM     84  C   UNL A   1      34.471  34.571  29.656  1.00  0.00     0.060 A 
BRANCH  84  85
ATOM     85  S   UNL A   1      33.124  35.381  28.765  1.00  0.00     0.124 S 
ATOM     86  O   UNL A   1      32.332  35.926  29.862  1.00  0.00    -0.237 OA
ATOM     87  O   UNL A   1      33.840  36.357  27.948  1.00  0.00    -0.237 OA
ATOM     88  O   UNL A   1      32.508  34.287  28.022  1.00  0.00    -0.744 OA
ENDBRANCH  84  85
ENDBRANCH  52  77
BRANCH  64  89
ATOM     89  C   UNL A   1      39.955  34.133  37.016  1.00  0.00     0.058 A 
ATOM     90  C   UNL A   1      40.613  35.369  36.927  1.00  0.00     0.135 A 
ATOM     91  C   UNL A   1      39.121  33.910  38.125  1.00  0.00     0.135 A 
ATOM     92  F   UNL A   1      41.427  35.627  35.891  1.00  0.00    -0.206 F 
ATOM     93  C   UNL A   1      40.453  36.347  37.903  1.00  0.00     0.059 A 
ATOM     94  C   UNL A   1      38.929  34.883  39.100  1.00  0.00     0.059 A 
ATOM     95  F   UNL A   1      38.463  32.747  38.253  1.00  0.00    -0.206 F 
ATOM     96  C   UNL A   1      39.605  36.097  38.983  1.00  0.00     0.060 A 
BRANCH  96  97
ATOM     97  S   UNL A   1      39.360  37.396  40.213  1.00  0.00     0.124 S 
ATOM     98  O   UNL A   1      38.767  36.650  41.317  1.00  0.00    -0.237 OA
ATOM     99  O   UNL A   1      40.719  37.881  40.432  1.00  0.00    -0.237 OA
ATOM    100  O   UNL A   1      38.468  38.337  39.540  1.00  0.00    -0.744 OA
ENDBRANCH  96  97
ENDBRANCH  64  89
ENDBRANCH  38  39
ENDBRANCH  30  33
ENDBRANCH  28  29
ENDBRANCH  27  28
ENDBRANCH   1  27
TORSDOF 17
ENDMDL
MODEL 2
REMARK VINA RESULT:     -12.7      4.623      9.931
REMARK SMILES CC1=C(C)C[C@@H](C(=O)NCCCNC(=O)c2ccc(-c3c4nc(c(-c5c(F)cc(S(=O)(=O)[O-])cc5F)c5ccc([nH]5)c(-c5c(F)cc(S(=O)(=O)[O-])cc5F)c5nc(c(-c6c(F)cc(S(=O)(=O)[O-])cc6F)c6ccc3[nH]6)C=C5)C=C4)cc2)[C@@H](C(=O)NCC[NH+]2CCOCC2)C1
REMARK SMILES IDX 10 1 9 2 7 3 8 4 6 6 1 7 2 8 3 9 94 10 4 11 5 12 82 13 83 14
REMARK SMILES IDX 84 15 85 16 86 18 87 19 88 20 89 21 93 22 90 24 92 25 91 26
REMARK SMILES IDX 11 27 12 28 13 29 14 30 15 32 16 33 17 34 81 35 18 36 80 37
REMARK SMILES IDX 19 38 20 39 21 40 74 41 22 42 79 43 73 44 75 45 23 46 78 47
REMARK SMILES IDX 72 48 71 49 24 51 58 52 37 53 57 54 38 55 41 56 56 57 76 58
REMARK SMILES IDX 39 59 40 60 55 62 77 63 42 64 25 65 26 66 35 67 27 68 28 69
REMARK SMILES IDX 34 70 36 71 29 72 30 73 31 74 32 75 33 76 59 77 60 78 69 79
REMARK SMILES IDX 61 80 62 81 68 82 70 83 63 84 64 85 65 86 66 87 67 88 43 89
REMARK SMILES IDX 44 90 53 91 45 92 46 93 52 94 54 95 47 96 48 97 49 98 50 99
REMARK SMILES IDX 51 100
REMARK H PARENT 9 5 85 17 88 23 13 31 75 50 41 61
REMARK Flexibility Score: inf
ROOT
ATOM      1  C   UNL A   1      33.466  26.325  25.539  1.00  0.00     0.117 C 
ENDROOT
BRANCH   1   2
ATOM      2  N   UNL A   1      34.522  25.397  25.177  1.00  0.00    -0.356 N 
ATOM      3  C   UNL A   1      34.607  24.358  24.314  1.00  0.00     0.224 C 
ATOM      4  O   UNL A   1      35.716  23.811  24.227  1.00  0.00    -0.275 OA
ATOM      5  H   UNL A   1      35.361  25.560  25.665  1.00  0.00     0.163 HD
BRANCH   3   6
ATOM      6  C   UNL A   1      33.451  23.815  23.460  1.00  0.00     0.095 C 
ATOM      7  C   UNL A   1      29.503  25.725  23.995  1.00  0.00     0.039 C 
ATOM      8  C   UNL A   1      30.785  25.035  23.592  1.00  0.00    -0.074 C 
ATOM      9  C   UNL A   1      31.653  25.491  22.665  1.00  0.00    -0.074 C 
ATOM     10  C   UNL A   1      31.028  23.776  24.398  1.00  0.00     0.045 C 
ATOM     11  C   UNL A   1      31.495  26.759  21.861  1.00  0.00     0.039 C 
ATOM     12  C   UNL A   1      32.961  24.788  22.391  1.00  0.00     0.045 C 
ATOM     13  C   UNL A   1      32.352  23.027  24.197  1.00  0.00     0.095 C 
BRANCH  13  14
ATOM     14  C   UNL A   1      32.882  22.550  25.539  1.00  0.00     0.224 C 
ATOM     15  O   UNL A   1      32.603  23.101  26.604  1.00  0.00    -0.275 OA
ATOM     16  N   UNL A   1      33.803  21.569  25.602  1.00  0.00    -0.350 N 
ATOM     17  H   UNL A   1      34.557  21.754  26.208  1.00  0.00     0.163 HD
BRANCH  16  18
ATOM     18  C   UNL A   1      33.869  20.292  24.933  1.00  0.00     0.177 C 
BRANCH  18  19
ATOM     19  C   UNL A   1      32.606  19.452  25.228  1.00  0.00     0.283 C 
BRANCH  19  20
ATOM     20  N   UNL A   1      32.570  18.070  24.757  1.00  0.00    -0.330 N 
ATOM     21  C   UNL A   1      32.769  16.942  25.660  1.00  0.00     0.291 C 
ATOM     22  C   UNL A   1      32.854  17.787  23.354  1.00  0.00     0.291 C 
ATOM     23  H   UNL A   1      31.554  18.133  24.814  1.00  0.00     0.348 HD
ATOM     24  C   UNL A   1      33.987  16.049  25.325  1.00  0.00     0.221 C 
ATOM     25  C   UNL A   1      34.129  16.961  23.139  1.00  0.00     0.221 C 
ATOM     26  O   UNL A   1      34.100  15.765  23.925  1.00  0.00    -0.370 OA
ENDBRANCH  19  20
ENDBRANCH  18  19
ENDBRANCH  16  18
ENDBRANCH  13  14
ENDBRANCH   3   6
ENDBRANCH   1   2
BRANCH   1  27
ATOM     27  C   UNL A   1      33.938  27.738  25.870  1.00  0.00     0.042 C 
BRANCH  27  28
ATOM     28  C   UNL A   1      33.558  28.197  27.271  1.00  0.00     0.118 C 
BRANCH  28  29
ATOM     29  N   UNL A   1      33.469  29.652  27.325  1.00  0.00    -0.352 N 
ATOM     30  C   UNL A   1      34.317  30.538  27.943  1.00  0.00     0.251 C 
ATOM     31  H   UNL A   1      32.700  30.051  26.858  1.00  0.00     0.163 HD
ATOM     32  O   UNL A   1      33.925  31.669  28.211  1.00  0.00    -0.269 OA
BRANCH  30  33
ATOM     33  C   UNL A   1      35.703  30.131  28.268  1.00  0.00     0.039 A 
ATOM     34  C   UNL A   1      36.007  29.708  29.565  1.00  0.00     0.014 A 
ATOM     35  C   UNL A   1      36.712  30.231  27.308  1.00  0.00     0.014 A 
ATOM     36  C   UNL A   1      37.321  29.354  29.889  1.00  0.00     0.010 A 
ATOM     37  C   UNL A   1      38.006  29.822  27.614  1.00  0.00     0.010 A 
ATOM     38  C   UNL A   1      38.328  29.397  28.912  1.00  0.00    -0.014 A 
BRANCH  38  39
ATOM     39  C   UNL A   1      39.737  29.048  29.225  1.00  0.00     0.031 A 
ATOM     40  C   UNL A   1      40.642  30.086  29.834  1.00  0.00     0.074 A 
ATOM     41  C   UNL A   1      40.222  27.837  28.891  1.00  0.00     0.049 A 
ATOM     42  N   UNL A   1      41.930  30.033  30.061  1.00  0.00    -0.248 NA
ATOM     43  C   UNL A   1      40.020  31.366  30.210  1.00  0.00     0.031 C 
ATOM     44  C   UNL A   1      39.452  26.760  28.267  1.00  0.00     0.029 A 
ATOM     45  N   UNL A   1      41.486  27.315  29.010  1.00  0.00    -0.354 N 
ATOM     46  C   UNL A   1      42.276  31.276  30.576  1.00  0.00     0.074 A 
ATOM     47  C   UNL A   1      41.071  32.076  30.592  1.00  0.00     0.031 C 
ATOM     48  C   UNL A   1      40.258  25.705  28.064  1.00  0.00     0.029 A 
ATOM     49  C   UNL A   1      41.608  26.043  28.505  1.00  0.00     0.049 A 
ATOM     50  H   UNL A   1      42.236  27.807  29.418  1.00  0.00     0.167 HD
ATOM     51  C   UNL A   1      43.483  31.706  31.012  1.00  0.00     0.037 A 
ATOM     52  C   UNL A   1      42.689  25.245  28.396  1.00  0.00     0.037 A 
ATOM     53  C   UNL A   1      44.670  30.891  31.023  1.00  0.00     0.049 A 
ATOM     54  C   UNL A   1      44.020  25.738  28.897  1.00  0.00     0.074 A 
ATOM     55  C   UNL A   1      45.930  31.212  31.497  1.00  0.00     0.029 A 
ATOM     56  N   UNL A   1      44.742  29.593  30.541  1.00  0.00    -0.354 N 
ATOM     57  N   UNL A   1      44.321  26.901  29.425  1.00  0.00    -0.248 NA
ATOM     58  C   UNL A   1      45.156  24.813  28.792  1.00  0.00     0.031 C 
ATOM     59  C   UNL A   1      46.773  30.118  31.270  1.00  0.00     0.029 A 
ATOM     60  C   UNL A   1      46.027  29.101  30.695  1.00  0.00     0.049 A 
ATOM     61  H   UNL A   1      43.989  29.093  30.148  1.00  0.00     0.167 HD
ATOM     62  C   UNL A   1      45.672  26.835  29.744  1.00  0.00     0.074 A 
ATOM     63  C   UNL A   1      46.131  25.519  29.351  1.00  0.00     0.031 C 
ATOM     64  C   UNL A   1      46.461  27.780  30.314  1.00  0.00     0.037 A 
BRANCH  51  65
ATOM     65  C   UNL A   1      43.580  33.123  31.510  1.00  0.00     0.058 A 
ATOM     66  C   UNL A   1      43.386  33.443  32.864  1.00  0.00     0.135 A 
ATOM     67  C   UNL A   1      43.892  34.171  30.629  1.00  0.00     0.135 A 
ATOM     68  F   UNL A   1      43.073  32.482  33.747  1.00  0.00    -0.206 F 
ATOM     69  C   UNL A   1      43.461  34.755  33.320  1.00  0.00     0.059 A 
ATOM     70  C   UNL A   1      43.999  35.488  31.069  1.00  0.00     0.059 A 
ATOM     71  F   UNL A   1      44.091  33.921  29.325  1.00  0.00    -0.206 F 
ATOM     72  C   UNL A   1      43.765  35.771  32.412  1.00  0.00     0.060 A 
BRANCH  72  73
ATOM     73  S   UNL A   1      43.854  37.470  33.018  1.00  0.00     0.124 S 
ATOM     74  O   UNL A   1      43.829  38.225  31.768  1.00  0.00    -0.237 OA
ATOM     75  O   UNL A   1      42.653  37.574  33.843  1.00  0.00    -0.237 OA
ATOM     76  O   UNL A   1      45.116  37.504  33.748  1.00  0.00    -0.744 OA
ENDBRANCH  72  73
ENDBRANCH  51  65
BRANCH  52  77
ATOM     77  C   UNL A   1      42.547  23.889  27.805  1.00  0.00     0.058 A 
ATOM     78  C   UNL A   1      42.564  23.705  26.415  1.00  0.00     0.135 A 
ATOM     79  C   UNL A   1      42.424  22.749  28.615  1.00  0.00     0.135 A 
ATOM     80  F   UNL A   1      42.672  24.764  25.600  1.00  0.00    -0.206 F 
ATOM     81  C   UNL A   1      42.457  22.440  25.846  1.00  0.00     0.059 A 
ATOM     82  C   UNL A   1      42.339  21.471  28.070  1.00  0.00     0.059 A 
ATOM     83  F   UNL A   1      42.419  22.870  29.951  1.00  0.00    -0.206 F 
ATOM     84  C   UNL A   1      42.349  21.328  26.683  1.00  0.00     0.060 A 
BRANCH  84  85
ATOM     85  S   UNL A   1      42.274  19.685  25.936  1.00  0.00     0.124 S 
ATOM     86  O   UNL A   1      43.279  19.793  24.885  1.00  0.00    -0.237 OA
ATOM     87  O   UNL A   1      42.618  18.820  27.062  1.00  0.00    -0.237 OA
ATOM     88  O   UNL A   1      40.891  19.586  25.482  1.00  0.00    -0.744 OA
ENDBRANCH  84  85
ENDBRANCH  52  77
BRANCH  64  89
ATOM     89  C   UNL A   1      47.891  27.417  30.593  1.00  0.00     0.058 A 
ATOM     90  C   UNL A   1      48.269  26.755  31.771  1.00  0.00     0.135 A 
ATOM     91  C   UNL A   1      48.884  27.661  29.629  1.00  0.00     0.135 A 
ATOM     92  F   UNL A   1      47.360  26.505  32.726  1.00  0.00    -0.206 F 
ATOM     93  C   UNL A   1      49.583  26.354  31.988  1.00  0.00     0.059 A 
ATOM     94  C   UNL A   1      50.199  27.249  29.814  1.00  0.00     0.059 A 
ATOM     95  F   UNL A   1      48.571  28.284  28.481  1.00  0.00    -0.206 F 
ATOM     96  C   UNL A   1      50.540  26.601  31.001  1.00  0.00     0.060 A 
BRANCH  96  97
ATOM     97  S   UNL A   1      52.230  26.023  31.268  1.00  0.00     0.124 S 
ATOM     98  O   UNL A   1      52.003  24.679  31.786  1.00  0.00    -0.237 OA
ATOM     99  O   UNL A   1      52.802  26.098  29.928  1.00  0.00    -0.237 OA
ATOM    100  O   UNL A   1      52.770  26.984  32.227  1.00  0.00    -0.744 OA
ENDBRANCH  96  97
ENDBRANCH  64  89
ENDBRANCH  38  39
ENDBRANCH  30  33
ENDBRANCH  28  29
ENDBRANCH  27  28
ENDBRANCH   1  27
TORSDOF 17
ENDMDL
MODEL 3
REMARK VINA RESULT:     -12.5      6.829     12.467
REMARK SMILES CC1=C(C)C[C@@H](C(=O)NCCCNC(=O)c2ccc(-c3c4nc(c(-c5c(F)cc(S(=O)(=O)[O-])cc5F)c5ccc([nH]5)c(-c5c(F)cc(S(=O)(=O)[O-])cc5F)c5nc(c(-c6c(F)cc(S(=O)(=O)[O-])cc6F)c6ccc3[nH]6)C=C5)C=C4)cc2)[C@@H](C(=O)NCC[NH+]2CCOCC2)C1
REMARK SMILES IDX 10 1 9 2 7 3 8 4 6 6 1 7 2 8 3 9 94 10 4 11 5 12 82 13 83 14
REMARK SMILES IDX 84 15 85 16 86 18 87 19 88 20 89 21 93 22 90 24 92 25 91 26
REMARK SMILES IDX 11 27 12 28 13 29 14 30 15 32 16 33 17 34 81 35 18 36 80 37
REMARK SMILES IDX 19 38 20 39 21 40 74 41 22 42 79 43 73 44 75 45 23 46 78 47
REMARK SMILES IDX 72 48 71 49 24 51 58 52 37 53 57 54 38 55 41 56 56 57 76 58
REMARK SMILES IDX 39 59 40 60 55 62 77 63 42 64 25 65 26 66 35 67 27 68 28 69
REMARK SMILES IDX 34 70 36 71 29 72 30 73 31 74 32 75 33 76 59 77 60 78 69 79
REMARK SMILES IDX 61 80 62 81 68 82 70 83 63 84 64 85 65 86 66 87 67 88 43 89
REMARK SMILES IDX 44 90 53 91 45 92 46 93 52 94 54 95 47 96 48 97 49 98 50 99
REMARK SMILES IDX 51 100
REMARK H PARENT 9 5 85 17 88 23 13 31 75 50 41 61
REMARK Flexibility Score: inf
ROOT
ATOM      1  C   UNL A   1      33.452  29.216  25.756  1.00  0.00     0.117 C 
ENDROOT
BRANCH   1   2
ATOM      2  N   UNL A   1      33.950  28.051  25.049  1.00  0.00    -0.356 N 
ATOM      3  C   UNL A   1      33.450  26.819  24.794  1.00  0.00     0.224 C 
ATOM      4  O   UNL A   1      34.155  26.080  24.093  1.00  0.00    -0.275 OA
ATOM      5  H   UNL A   1      34.848  28.186  24.670  1.00  0.00     0.163 HD
BRANCH   3   6
ATOM      6  C   UNL A   1      32.105  26.283  25.307  1.00  0.00     0.095 C 
ATOM      7  C   UNL A   1      31.317  21.975  24.715  1.00  0.00     0.039 C 
ATOM      8  C   UNL A   1      31.454  23.427  25.109  1.00  0.00    -0.074 C 
ATOM      9  C   UNL A   1      32.049  23.873  26.236  1.00  0.00    -0.074 C 
ATOM     10  C   UNL A   1      30.893  24.356  24.053  1.00  0.00     0.045 C 
ATOM     11  C   UNL A   1      32.668  23.005  27.304  1.00  0.00     0.039 C 
ATOM     12  C   UNL A   1      32.230  25.347  26.507  1.00  0.00     0.045 C 
ATOM     13  C   UNL A   1      31.071  25.868  24.245  1.00  0.00     0.095 C 
BRANCH  13  14
ATOM     14  C   UNL A   1      31.419  26.517  22.915  1.00  0.00     0.224 C 
ATOM     15  O   UNL A   1      31.893  25.891  21.968  1.00  0.00    -0.275 OA
ATOM     16  N   UNL A   1      31.348  27.854  22.767  1.00  0.00    -0.350 N 
ATOM     17  H   UNL A   1      32.128  28.259  22.323  1.00  0.00     0.163 HD
BRANCH  16  18
ATOM     18  C   UNL A   1      30.319  28.793  23.146  1.00  0.00     0.177 C 
BRANCH  18  19
ATOM     19  C   UNL A   1      29.865  29.631  21.930  1.00  0.00     0.283 C 
BRANCH  19  20
ATOM     20  N   UNL A   1      28.770  30.579  22.115  1.00  0.00    -0.330 N 
ATOM     21  C   UNL A   1      27.938  31.024  21.002  1.00  0.00     0.291 C 
ATOM     22  C   UNL A   1      28.796  31.486  23.258  1.00  0.00     0.291 C 
ATOM     23  H   UNL A   1      28.205  29.786  22.419  1.00  0.00     0.348 HD
ATOM     24  C   UNL A   1      27.979  32.546  20.728  1.00  0.00     0.221 C 
ATOM     25  C   UNL A   1      28.918  32.965  22.867  1.00  0.00     0.221 C 
ATOM     26  O   UNL A   1      27.901  33.328  21.927  1.00  0.00    -0.370 OA
ENDBRANCH  19  20
ENDBRANCH  18  19
ENDBRANCH  16  18
ENDBRANCH  13  14
ENDBRANCH   3   6
ENDBRANCH   1   2
BRANCH   1  27
ATOM     27  C   UNL A   1      33.668  29.191  27.267  1.00  0.00     0.042 C 
BRANCH  27  28
ATOM     28  C   UNL A   1      35.107  29.463  27.684  1.00  0.00     0.118 C 
BRANCH  28  29
ATOM     29  N   UNL A   1      35.146  30.400  28.801  1.00  0.00    -0.352 N 
ATOM     30  C   UNL A   1      36.132  30.568  29.741  1.00  0.00     0.251 C 
ATOM     31  H   UNL A   1      34.362  30.989  28.893  1.00  0.00     0.163 HD
ATOM     32  O   UNL A   1      35.870  31.119  30.807  1.00  0.00    -0.269 OA
BRANCH  30  33
ATOM     33  C   UNL A   1      37.509  30.100  29.462  1.00  0.00     0.039 A 
ATOM     34  C   UNL A   1      38.348  29.761  30.528  1.00  0.00     0.014 A 
ATOM     35  C   UNL A   1      37.989  30.058  28.151  1.00  0.00     0.014 A 
ATOM     36  C   UNL A   1      39.660  29.349  30.274  1.00  0.00     0.010 A 
ATOM     37  C   UNL A   1      39.274  29.591  27.896  1.00  0.00     0.010 A 
ATOM     38  C   UNL A   1      40.130  29.250  28.955  1.00  0.00    -0.014 A 
BRANCH  38  39
ATOM     39  C   UNL A   1      41.522  28.835  28.649  1.00  0.00     0.031 A 
ATOM     40  C   UNL A   1      42.616  29.870  28.625  1.00  0.00     0.074 A 
ATOM     41  C   UNL A   1      41.788  27.558  28.316  1.00  0.00     0.049 A 
ATOM     42  N   UNL A   1      43.865  29.746  28.254  1.00  0.00    -0.248 NA
ATOM     43  C   UNL A   1      42.248  31.231  29.047  1.00  0.00     0.031 C 
ATOM     44  C   UNL A   1      40.807  26.473  28.271  1.00  0.00     0.029 A 
ATOM     45  N   UNL A   1      42.962  26.960  27.929  1.00  0.00    -0.354 N 
ATOM     46  C   UNL A   1      44.422  31.015  28.368  1.00  0.00     0.074 A 
ATOM     47  C   UNL A   1      43.365  31.901  28.806  1.00  0.00     0.031 C 
ATOM     48  C   UNL A   1      41.420  25.343  27.885  1.00  0.00     0.029 A 
ATOM     49  C   UNL A   1      42.826  25.629  27.618  1.00  0.00     0.049 A 
ATOM     50  H   UNL A   1      43.820  27.440  27.879  1.00  0.00     0.167 HD
ATOM     51  C   UNL A   1      45.700  31.402  28.146  1.00  0.00     0.037 A 
ATOM     52  C   UNL A   1      43.729  24.742  27.153  1.00  0.00     0.037 A 
ATOM     53  C   UNL A   1      46.752  30.506  27.743  1.00  0.00     0.049 A 
ATOM     54  C   UNL A   1      45.148  25.191  26.924  1.00  0.00     0.074 A 
ATOM     55  C   UNL A   1      48.092  30.786  27.546  1.00  0.00     0.029 A 
ATOM     56  N   UNL A   1      46.582  29.155  27.478  1.00  0.00    -0.354 N 
ATOM     57  N   UNL A   1      45.669  26.384  27.082  1.00  0.00    -0.248 NA
ATOM     58  C   UNL A   1      46.101  24.175  26.458  1.00  0.00     0.031 C 
ATOM     59  C   UNL A   1      48.728  29.611  27.129  1.00  0.00     0.029 A 
ATOM     60  C   UNL A   1      47.791  28.590  27.108  1.00  0.00     0.049 A 
ATOM     61  H   UNL A   1      45.727  28.670  27.544  1.00  0.00     0.167 HD
ATOM     62  C   UNL A   1      47.016  26.256  26.765  1.00  0.00     0.074 A 
ATOM     63  C   UNL A   1      47.231  24.869  26.407  1.00  0.00     0.031 C 
ATOM     64  C   UNL A   1      47.989  27.202  26.773  1.00  0.00     0.037 A 
BRANCH  51  65
ATOM     65  C   UNL A   1      46.029  32.858  28.332  1.00  0.00     0.058 A 
ATOM     66  C   UNL A   1      46.453  33.366  29.571  1.00  0.00     0.135 A 
ATOM     67  C   UNL A   1      45.939  33.755  27.254  1.00  0.00     0.135 A 
ATOM     68  F   UNL A   1      46.543  32.556  30.638  1.00  0.00    -0.206 F 
ATOM     69  C   UNL A   1      46.742  34.715  29.745  1.00  0.00     0.059 A 
ATOM     70  C   UNL A   1      46.251  35.104  27.399  1.00  0.00     0.059 A 
ATOM     71  F   UNL A   1      45.543  33.323  26.047  1.00  0.00    -0.206 F 
ATOM     72  C   UNL A   1      46.634  35.578  28.652  1.00  0.00     0.060 A 
BRANCH  72  73
ATOM     73  S   UNL A   1      47.007  37.328  28.894  1.00  0.00     0.124 S 
ATOM     74  O   UNL A   1      47.751  37.637  27.676  1.00  0.00    -0.237 OA
ATOM     75  O   UNL A   1      45.677  37.923  28.991  1.00  0.00    -0.237 OA
ATOM     76  O   UNL A   1      47.787  37.341  30.127  1.00  0.00    -0.744 OA
ENDBRANCH  72  73
ENDBRANCH  51  65
BRANCH  52  77
ATOM     77  C   UNL A   1      43.319  23.337  26.897  1.00  0.00     0.058 A 
ATOM     78  C   UNL A   1      43.212  22.847  25.588  1.00  0.00     0.135 A 
ATOM     79  C   UNL A   1      43.057  22.449  27.952  1.00  0.00     0.135 A 
ATOM     80  F   UNL A   1      43.445  23.659  24.547  1.00  0.00    -0.206 F 
ATOM     81  C   UNL A   1      42.853  21.528  25.331  1.00  0.00     0.059 A 
ATOM     82  C   UNL A   1      42.718  21.119  27.721  1.00  0.00     0.059 A 
ATOM     83  F   UNL A   1      43.161  22.865  29.224  1.00  0.00    -0.206 F 
ATOM     84  C   UNL A   1      42.612  20.670  26.405  1.00  0.00     0.060 A 
BRANCH  84  85
ATOM     85  S   UNL A   1      42.208  18.943  26.062  1.00  0.00     0.124 S 
ATOM     86  O   UNL A   1      43.090  18.651  24.938  1.00  0.00    -0.237 OA
ATOM     87  O   UNL A   1      42.546  18.292  27.325  1.00  0.00    -0.237 OA
ATOM     88  O   UNL A   1      40.783  18.988  25.753  1.00  0.00    -0.744 OA
ENDBRANCH  84  85
ENDBRANCH  52  77
BRANCH  64  89
ATOM     89  C   UNL A   1      49.385  26.768  26.430  1.00  0.00     0.058 A 
ATOM     90  C   UNL A   1      50.184  26.063  27.341  1.00  0.00     0.135 A 
ATOM     91  C   UNL A   1      49.897  26.989  25.140  1.00  0.00     0.135 A 
ATOM     92  F   UNL A   1      49.744  25.832  28.588  1.00  0.00    -0.206 F 
ATOM     93  C   UNL A   1      51.447  25.597  26.990  1.00  0.00     0.059 A 
ATOM     94  C   UNL A   1      51.147  26.513  24.759  1.00  0.00     0.059 A 
ATOM     95  F   UNL A   1      49.167  27.652  24.228  1.00  0.00    -0.206 F 
ATOM     96  C   UNL A   1      51.918  25.823  25.694  1.00  0.00     0.060 A 
BRANCH  96  97
ATOM     97  S   UNL A   1      53.534  25.163  25.231  1.00  0.00     0.124 S 
ATOM     98  O   UNL A   1      53.340  23.734  25.444  1.00  0.00    -0.237 OA
ATOM     99  O   UNL A   1      53.658  25.586  23.840  1.00  0.00    -0.237 OA
ATOM    100  O   UNL A   1      54.448  25.819  26.163  1.00  0.00    -0.744 OA
ENDBRANCH  96  97
ENDBRANCH  64  89
ENDBRANCH  38  39
ENDBRANCH  30  33
ENDBRANCH  28  29
ENDBRANCH  27  28
ENDBRANCH   1  27
TORSDOF 17
ENDMDL
