MODEL 1
REMARK VINA RESULT:     -12.1      0.000      0.000
REMARK SMILES C[C@H]1[C@@H](C(=O)NCCCNC(=O)c2ccc(-c3c4nc(c(-c5c(F)cc(S(=O)(=O)[O-])cc5F)c5ccc([nH]5)c(-c5c(F)cc(S(=O)(=O)[O-])cc5F)c5nc(c(-c6c(F)cc(S(=O)(=O)[O-])cc6F)c6ccc3[nH]6)C=C5)C=C4)cc2)CCN1S(=O)(=O)Cc1cccc(C#N)c1
REMARK SMILES IDX 7 1 6 2 4 3 5 4 3 6 1 7 2 8 81 9 79 10 80 11 82 12 83 13
REMARK SMILES IDX 84 14 85 15 86 16 87 17 93 18 88 19 90 20 89 21 91 22 92 23
REMARK SMILES IDX 8 24 9 25 10 26 11 27 12 29 13 30 14 31 78 32 15 33 77 34
REMARK SMILES IDX 16 35 17 36 18 37 71 38 19 39 76 40 70 41 72 42 20 43 75 44
REMARK SMILES IDX 69 45 68 46 21 48 55 49 34 50 54 51 35 52 38 53 53 54 73 55
REMARK SMILES IDX 36 56 37 57 52 59 74 60 39 61 22 62 23 63 32 64 24 65 25 66
REMARK SMILES IDX 31 67 33 68 26 69 27 70 28 71 29 72 30 73 56 74 57 75 66 76
REMARK SMILES IDX 58 77 59 78 65 79 67 80 60 81 61 82 62 83 63 84 64 85 40 86
REMARK SMILES IDX 41 87 50 88 42 89 43 90 49 91 51 92 44 93 45 94 46 95 47 96
REMARK SMILES IDX 48 97
REMARK H PARENT 6 5 10 28 72 47 38 58
REMARK Flexibility Score: inf
ROOT
ATOM      1  C   UNL A   1      37.658  22.599  25.792  1.00  0.00     0.117 C 
ENDROOT
BRANCH   1   2
ATOM      2  N   UNL A   1      37.404  22.681  24.361  1.00  0.00    -0.356 N 
ATOM      3  C   UNL A   1      36.318  23.024  23.613  1.00  0.00     0.224 C 
ATOM      4  O   UNL A   1      36.473  22.922  22.391  1.00  0.00    -0.275 OA
ATOM      5  H   UNL A   1      38.185  22.434  23.816  1.00  0.00     0.163 HD
BRANCH   3   6
ATOM      6  C   UNL A   1      35.029  23.627  24.199  1.00  0.00     0.098 C 
ATOM      7  C   UNL A   1      34.239  21.246  24.867  1.00  0.00     0.026 C 
ATOM      8  C   UNL A   1      33.995  22.733  24.913  1.00  0.00     0.082 C 
ATOM      9  N   UNL A   1      32.705  22.860  24.206  1.00  0.00    -0.198 NA
ATOM     10  C   UNL A   1      34.186  24.349  23.125  1.00  0.00     0.032 C 
ATOM     11  C   UNL A   1      32.992  23.440  22.883  1.00  0.00     0.103 C 
BRANCH   9  12
ATOM     12  S   UNL A   1      31.312  23.311  25.018  1.00  0.00     0.218 S 
ATOM     13  O   UNL A   1      30.442  23.888  24.010  1.00  0.00    -0.212 OA
ATOM     14  O   UNL A   1      30.861  22.158  25.770  1.00  0.00    -0.212 OA
BRANCH  12  15
ATOM     15  C   UNL A   1      31.750  24.659  26.162  1.00  0.00     0.189 C 
BRANCH  15  16
ATOM     16  C   UNL A   1      32.179  25.959  25.519  1.00  0.00    -0.030 A 
ATOM     17  C   UNL A   1      33.379  26.591  25.863  1.00  0.00     0.005 A 
ATOM     18  C   UNL A   1      31.324  26.624  24.618  1.00  0.00     0.024 A 
ATOM     19  C   UNL A   1      33.740  27.813  25.279  1.00  0.00     0.002 A 
ATOM     20  C   UNL A   1      31.715  27.809  23.974  1.00  0.00     0.052 A 
ATOM     21  C   UNL A   1      32.922  28.411  24.318  1.00  0.00     0.019 A 
BRANCH  20  22
ATOM     22  C   UNL A   1      30.899  28.348  22.924  1.00  0.00     0.099 C 
ATOM     23  N   UNL A   1      30.181  28.729  22.093  1.00  0.00    -0.192 NA
ENDBRANCH  20  22
ENDBRANCH  15  16
ENDBRANCH  12  15
ENDBRANCH   9  12
ENDBRANCH   3   6
ENDBRANCH   1   2
BRANCH   1  24
ATOM     24  C   UNL A   1      38.518  23.768  26.293  1.00  0.00     0.042 C 
BRANCH  24  25
ATOM     25  C   UNL A   1      39.883  23.397  26.837  1.00  0.00     0.118 C 
BRANCH  25  26
ATOM     26  N   UNL A   1      40.941  23.984  26.045  1.00  0.00    -0.352 N 
ATOM     27  C   UNL A   1      41.432  25.268  26.066  1.00  0.00     0.251 C 
ATOM     28  H   UNL A   1      41.371  23.377  25.401  1.00  0.00     0.163 HD
ATOM     29  O   UNL A   1      42.083  25.656  25.098  1.00  0.00    -0.269 OA
BRANCH  27  30
ATOM     30  C   UNL A   1      41.193  26.179  27.216  1.00  0.00     0.039 A 
ATOM     31  C   UNL A   1      41.956  27.347  27.313  1.00  0.00     0.014 A 
ATOM     32  C   UNL A   1      40.290  25.871  28.239  1.00  0.00     0.014 A 
ATOM     33  C   UNL A   1      41.798  28.200  28.409  1.00  0.00     0.010 A 
ATOM     34  C   UNL A   1      40.050  26.779  29.271  1.00  0.00     0.010 A 
ATOM     35  C   UNL A   1      40.825  27.940  29.388  1.00  0.00    -0.014 A 
BRANCH  35  36
ATOM     36  C   UNL A   1      40.639  28.855  30.547  1.00  0.00     0.031 A 
ATOM     37  C   UNL A   1      41.500  28.717  31.778  1.00  0.00     0.074 A 
ATOM     38  C   UNL A   1      39.682  29.802  30.498  1.00  0.00     0.049 A 
ATOM     39  N   UNL A   1      41.483  29.421  32.883  1.00  0.00    -0.248 NA
ATOM     40  C   UNL A   1      42.493  27.630  31.783  1.00  0.00     0.031 C 
ATOM     41  C   UNL A   1      38.748  30.001  29.386  1.00  0.00     0.029 A 
ATOM     42  N   UNL A   1      39.335  30.778  31.400  1.00  0.00    -0.354 N 
ATOM     43  C   UNL A   1      42.454  28.862  33.708  1.00  0.00     0.074 A 
ATOM     44  C   UNL A   1      42.991  27.716  33.008  1.00  0.00     0.031 C 
ATOM     45  C   UNL A   1      37.963  31.055  29.656  1.00  0.00     0.029 A 
ATOM     46  C   UNL A   1      38.299  31.578  30.976  1.00  0.00     0.049 A 
ATOM     47  H   UNL A   1      39.784  30.893  32.268  1.00  0.00     0.167 HD
ATOM     48  C   UNL A   1      42.882  29.280  34.924  1.00  0.00     0.037 A 
ATOM     49  C   UNL A   1      37.684  32.610  31.585  1.00  0.00     0.037 A 
ATOM     50  C   UNL A   1      42.346  30.428  35.611  1.00  0.00     0.049 A 
ATOM     51  C   UNL A   1      38.165  33.050  32.940  1.00  0.00     0.074 A 
ATOM     52  C   UNL A   1      42.736  30.962  36.827  1.00  0.00     0.029 A 
ATOM     53  N   UNL A   1      41.301  31.214  35.148  1.00  0.00    -0.354 N 
ATOM     54  N   UNL A   1      39.130  32.549  33.676  1.00  0.00    -0.248 NA
ATOM     55  C   UNL A   1      37.482  34.200  33.545  1.00  0.00     0.031 C 
ATOM     56  C   UNL A   1      41.887  32.033  37.126  1.00  0.00     0.029 A 
ATOM     57  C   UNL A   1      41.013  32.212  36.065  1.00  0.00     0.049 A 
ATOM     58  H   UNL A   1      40.832  31.083  34.291  1.00  0.00     0.167 HD
ATOM     59  C   UNL A   1      39.184  33.338  34.822  1.00  0.00     0.074 A 
ATOM     60  C   UNL A   1      38.170  34.362  34.666  1.00  0.00     0.031 C 
ATOM     61  C   UNL A   1      39.996  33.223  35.902  1.00  0.00     0.037 A 
BRANCH  48  62
ATOM     62  C   UNL A   1      43.982  28.493  35.589  1.00  0.00     0.058 A 
ATOM     63  C   UNL A   1      45.339  28.773  35.354  1.00  0.00     0.135 A 
ATOM     64  C   UNL A   1      43.681  27.467  36.500  1.00  0.00     0.135 A 
ATOM     65  F   UNL A   1      45.692  29.733  34.483  1.00  0.00    -0.206 F 
ATOM     66  C   UNL A   1      46.354  28.044  35.967  1.00  0.00     0.059 A 
ATOM     67  C   UNL A   1      44.679  26.747  37.153  1.00  0.00     0.059 A 
ATOM     68  F   UNL A   1      42.403  27.153  36.767  1.00  0.00    -0.206 F 
ATOM     69  C   UNL A   1      46.013  27.033  36.867  1.00  0.00     0.060 A 
BRANCH  69  70
ATOM     70  S   UNL A   1      47.342  26.101  37.657  1.00  0.00     0.124 S 
ATOM     71  O   UNL A   1      46.906  26.095  39.051  1.00  0.00    -0.237 OA
ATOM     72  O   UNL A   1      47.272  24.816  36.968  1.00  0.00    -0.237 OA
ATOM     73  O   UNL A   1      48.532  26.896  37.377  1.00  0.00    -0.744 OA
ENDBRANCH  69  70
ENDBRANCH  48  62
BRANCH  49  74
ATOM     74  C   UNL A   1      36.550  33.298  30.908  1.00  0.00     0.058 A 
ATOM     75  C   UNL A   1      35.226  33.119  31.333  1.00  0.00     0.135 A 
ATOM     76  C   UNL A   1      36.776  34.171  29.831  1.00  0.00     0.135 A 
ATOM     77  F   UNL A   1      34.955  32.290  32.353  1.00  0.00    -0.206 F 
ATOM     78  C   UNL A   1      34.164  33.766  30.708  1.00  0.00     0.059 A 
ATOM     79  C   UNL A   1      35.735  34.854  29.210  1.00  0.00     0.059 A 
ATOM     80  F   UNL A   1      38.025  34.392  29.392  1.00  0.00    -0.206 F 
ATOM     81  C   UNL A   1      34.430  34.639  29.651  1.00  0.00     0.060 A 
BRANCH  81  82
ATOM     82  S   UNL A   1      33.054  35.520  28.884  1.00  0.00     0.124 S 
ATOM     83  O   UNL A   1      32.417  34.459  28.114  1.00  0.00    -0.237 OA
ATOM     84  O   UNL A   1      32.314  36.003  30.045  1.00  0.00    -0.237 OA
ATOM     85  O   UNL A   1      33.717  36.558  28.099  1.00  0.00    -0.744 OA
ENDBRANCH  81  82
ENDBRANCH  49  74
BRANCH  61  86
ATOM     86  C   UNL A   1      39.843  34.252  36.992  1.00  0.00     0.058 A 
ATOM     87  C   UNL A   1      40.408  35.533  36.890  1.00  0.00     0.135 A 
ATOM     88  C   UNL A   1      39.097  33.958  38.146  1.00  0.00     0.135 A 
ATOM     89  F   UNL A   1      41.135  35.868  35.811  1.00  0.00    -0.206 F 
ATOM     90  C   UNL A   1      40.274  36.472  37.908  1.00  0.00     0.059 A 
ATOM     91  C   UNL A   1      38.919  34.894  39.160  1.00  0.00     0.059 A 
ATOM     92  F   UNL A   1      38.523  32.754  38.294  1.00  0.00    -0.206 F 
ATOM     93  C   UNL A   1      39.527  36.142  39.040  1.00  0.00     0.060 A 
BRANCH  93  94
ATOM     94  S   UNL A   1      39.354  37.372  40.350  1.00  0.00     0.124 S 
ATOM     95  O   UNL A   1      38.596  38.418  39.672  1.00  0.00    -0.237 OA
ATOM     96  O   UNL A   1      38.631  36.631  41.379  1.00  0.00    -0.237 OA
ATOM     97  O   UNL A   1      40.734  37.712  40.681  1.00  0.00    -0.744 OA
ENDBRANCH  93  94
ENDBRANCH  61  86
ENDBRANCH  35  36
ENDBRANCH  27  30
ENDBRANCH  25  26
ENDBRANCH  24  25
ENDBRANCH   1  24
TORSDOF 17
ENDMDL
MODEL 2
REMARK VINA RESULT:     -12.1      1.099      2.022
REMARK SMILES C[C@H]1[C@@H](C(=O)NCCCNC(=O)c2ccc(-c3c4nc(c(-c5c(F)cc(S(=O)(=O)[O-])cc5F)c5ccc([nH]5)c(-c5c(F)cc(S(=O)(=O)[O-])cc5F)c5nc(c(-c6c(F)cc(S(=O)(=O)[O-])cc6F)c6ccc3[nH]6)C=C5)C=C4)cc2)CCN1S(=O)(=O)Cc1cccc(C#N)c1
REMARK SMILES IDX 7 1 6 2 4 3 5 4 3 6 1 7 2 8 81 9 79 10 80 11 82 12 83 13
REMARK SMILES IDX 84 14 85 15 86 16 87 17 93 18 88 19 90 20 89 21 91 22 92 23
REMARK SMILES IDX 8 24 9 25 10 26 11 27 12 29 13 30 14 31 78 32 15 33 77 34
REMARK SMILES IDX 16 35 17 36 18 37 71 38 19 39 76 40 70 41 72 42 20 43 75 44
REMARK SMILES IDX 69 45 68 46 21 48 55 49 34 50 54 51 35 52 38 53 53 54 73 55
REMARK SMILES IDX 36 56 37 57 52 59 74 60 39 61 22 62 23 63 32 64 24 65 25 66
REMARK SMILES IDX 31 67 33 68 26 69 27 70 28 71 29 72 30 73 56 74 57 75 66 76
REMARK SMILES IDX 58 77 59 78 65 79 67 80 60 81 61 82 62 83 63 84 64 85 40 86
REMARK SMILES IDX 41 87 50 88 42 89 43 90 49 91 51 92 44 93 45 94 46 95 47 96
REMARK SMILES IDX 48 97
REMARK H PARENT 6 5 10 28 72 47 38 58
REMARK Flexibility Score: inf
ROOT
ATOM      1  C   UNL A   1      37.912  22.150  25.583  1.00  0.00     0.117 C 
ENDROOT
BRANCH   1   2
ATOM      2  N   UNL A   1      36.637  21.733  26.150  1.00  0.00    -0.356 N 
ATOM      3  C   UNL A   1      35.341  21.843  25.744  1.00  0.00     0.224 C 
ATOM      4  O   UNL A   1      34.506  21.399  26.539  1.00  0.00    -0.275 OA
ATOM      5  H   UNL A   1      36.733  21.271  27.015  1.00  0.00     0.163 HD
BRANCH   3   6
ATOM      6  C   UNL A   1      34.920  22.349  24.353  1.00  0.00     0.098 C 
ATOM      7  C   UNL A   1      35.006  24.790  25.232  1.00  0.00     0.026 C 
ATOM      8  C   UNL A   1      34.821  23.859  24.060  1.00  0.00     0.082 C 
ATOM      9  N   UNL A   1      33.438  24.161  23.637  1.00  0.00    -0.198 NA
ATOM     10  C   UNL A   1      33.528  21.821  23.942  1.00  0.00     0.032 C 
ATOM     11  C   UNL A   1      32.602  23.022  24.050  1.00  0.00     0.103 C 
BRANCH   9  12
ATOM     12  S   UNL A   1      33.126  24.930  22.183  1.00  0.00     0.218 S 
ATOM     13  O   UNL A   1      33.977  26.106  22.174  1.00  0.00    -0.212 OA
ATOM     14  O   UNL A   1      33.270  23.941  21.134  1.00  0.00    -0.212 OA
BRANCH  12  15
ATOM     15  C   UNL A   1      31.407  25.530  22.232  1.00  0.00     0.189 C 
BRANCH  15  16
ATOM     16  C   UNL A   1      31.192  26.867  22.905  1.00  0.00    -0.030 A 
ATOM     17  C   UNL A   1      31.686  27.136  24.186  1.00  0.00     0.005 A 
ATOM     18  C   UNL A   1      30.395  27.853  22.290  1.00  0.00     0.024 A 
ATOM     19  C   UNL A   1      31.445  28.370  24.804  1.00  0.00     0.002 A 
ATOM     20  C   UNL A   1      30.215  29.119  22.872  1.00  0.00     0.052 A 
ATOM     21  C   UNL A   1      30.732  29.371  24.141  1.00  0.00     0.019 A 
BRANCH  20  22
ATOM     22  C   UNL A   1      29.559  30.155  22.128  1.00  0.00     0.099 C 
ATOM     23  N   UNL A   1      28.956  30.964  21.551  1.00  0.00    -0.192 NA
ENDBRANCH  20  22
ENDBRANCH  15  16
ENDBRANCH  12  15
ENDBRANCH   9  12
ENDBRANCH   3   6
ENDBRANCH   1   2
BRANCH   1  24
ATOM     24  C   UNL A   1      38.382  23.497  26.151  1.00  0.00     0.042 C 
BRANCH  24  25
ATOM     25  C   UNL A   1      39.697  23.474  26.902  1.00  0.00     0.118 C 
BRANCH  25  26
ATOM     26  N   UNL A   1      40.777  23.983  26.086  1.00  0.00    -0.352 N 
ATOM     27  C   UNL A   1      41.366  25.225  26.099  1.00  0.00     0.251 C 
ATOM     28  H   UNL A   1      41.143  23.348  25.428  1.00  0.00     0.163 HD
ATOM     29  O   UNL A   1      42.020  25.567  25.116  1.00  0.00    -0.269 OA
BRANCH  27  30
ATOM     30  C   UNL A   1      41.226  26.144  27.259  1.00  0.00     0.039 A 
ATOM     31  C   UNL A   1      40.206  25.900  28.184  1.00  0.00     0.014 A 
ATOM     32  C   UNL A   1      42.026  27.281  27.414  1.00  0.00     0.014 A 
ATOM     33  C   UNL A   1      40.009  26.773  29.258  1.00  0.00     0.010 A 
ATOM     34  C   UNL A   1      41.904  28.085  28.547  1.00  0.00     0.010 A 
ATOM     35  C   UNL A   1      40.871  27.862  29.467  1.00  0.00    -0.014 A 
BRANCH  35  36
ATOM     36  C   UNL A   1      40.677  28.783  30.619  1.00  0.00     0.031 A 
ATOM     37  C   UNL A   1      41.527  28.651  31.859  1.00  0.00     0.074 A 
ATOM     38  C   UNL A   1      39.721  29.731  30.558  1.00  0.00     0.049 A 
ATOM     39  N   UNL A   1      41.502  29.361  32.960  1.00  0.00    -0.248 NA
ATOM     40  C   UNL A   1      42.520  27.563  31.878  1.00  0.00     0.031 C 
ATOM     41  C   UNL A   1      38.796  29.925  29.438  1.00  0.00     0.029 A 
ATOM     42  N   UNL A   1      39.367  30.712  31.451  1.00  0.00    -0.354 N 
ATOM     43  C   UNL A   1      42.466  28.806  33.795  1.00  0.00     0.074 A 
ATOM     44  C   UNL A   1      43.008  27.656  33.106  1.00  0.00     0.031 C 
ATOM     45  C   UNL A   1      38.010  30.981  29.696  1.00  0.00     0.029 A 
ATOM     46  C   UNL A   1      38.336  31.510  31.015  1.00  0.00     0.049 A 
ATOM     47  H   UNL A   1      39.810  30.831  32.323  1.00  0.00     0.167 HD
ATOM     48  C   UNL A   1      42.884  29.230  35.013  1.00  0.00     0.037 A 
ATOM     49  C   UNL A   1      37.716  32.545  31.613  1.00  0.00     0.037 A 
ATOM     50  C   UNL A   1      42.343  30.382  35.689  1.00  0.00     0.049 A 
ATOM     51  C   UNL A   1      38.187  32.992  32.970  1.00  0.00     0.074 A 
ATOM     52  C   UNL A   1      42.724  30.922  36.905  1.00  0.00     0.029 A 
ATOM     53  N   UNL A   1      41.303  31.166  35.213  1.00  0.00    -0.354 N 
ATOM     54  N   UNL A   1      39.145  32.495  33.717  1.00  0.00    -0.248 NA
ATOM     55  C   UNL A   1      37.500  34.147  33.564  1.00  0.00     0.031 C 
ATOM     56  C   UNL A   1      41.873  31.995  37.193  1.00  0.00     0.029 A 
ATOM     57  C   UNL A   1      41.008  32.169  36.123  1.00  0.00     0.049 A 
ATOM     58  H   UNL A   1      40.840  31.031  34.354  1.00  0.00     0.167 HD
ATOM     59  C   UNL A   1      39.190  33.289  34.859  1.00  0.00     0.074 A 
ATOM     60  C   UNL A   1      38.179  34.314  34.690  1.00  0.00     0.031 C 
ATOM     61  C   UNL A   1      39.994  33.180  35.946  1.00  0.00     0.037 A 
BRANCH  48  62
ATOM     62  C   UNL A   1      43.978  28.445  35.691  1.00  0.00     0.058 A 
ATOM     63  C   UNL A   1      43.694  27.394  36.580  1.00  0.00     0.135 A 
ATOM     64  C   UNL A   1      45.330  28.722  35.425  1.00  0.00     0.135 A 
ATOM     65  F   UNL A   1      42.422  27.090  36.885  1.00  0.00    -0.206 F 
ATOM     66  C   UNL A   1      44.706  26.673  37.207  1.00  0.00     0.059 A 
ATOM     67  C   UNL A   1      46.359  27.990  36.014  1.00  0.00     0.059 A 
ATOM     68  F   UNL A   1      45.664  29.713  34.584  1.00  0.00    -0.206 F 
ATOM     69  C   UNL A   1      46.036  26.978  36.915  1.00  0.00     0.060 A 
BRANCH  69  70
ATOM     70  S   UNL A   1      47.335  26.028  37.734  1.00  0.00     0.124 S 
ATOM     71  O   UNL A   1      46.558  25.202  38.654  1.00  0.00    -0.237 OA
ATOM     72  O   UNL A   1      47.954  25.321  36.617  1.00  0.00    -0.237 OA
ATOM     73  O   UNL A   1      48.164  27.052  38.361  1.00  0.00    -0.744 OA
ENDBRANCH  69  70
ENDBRANCH  48  62
BRANCH  49  74
ATOM     74  C   UNL A   1      36.589  33.231  30.924  1.00  0.00     0.058 A 
ATOM     75  C   UNL A   1      35.258  33.034  31.322  1.00  0.00     0.135 A 
ATOM     76  C   UNL A   1      36.825  34.119  29.862  1.00  0.00     0.135 A 
ATOM     77  F   UNL A   1      34.976  32.190  32.325  1.00  0.00    -0.206 F 
ATOM     78  C   UNL A   1      34.202  33.678  30.684  1.00  0.00     0.059 A 
ATOM     79  C   UNL A   1      35.790  34.799  29.230  1.00  0.00     0.059 A 
ATOM     80  F   UNL A   1      38.080  34.358  29.449  1.00  0.00    -0.206 F 
ATOM     81  C   UNL A   1      34.480  34.567  29.643  1.00  0.00     0.060 A 
BRANCH  81  82
ATOM     82  S   UNL A   1      33.109  35.444  28.861  1.00  0.00     0.124 S 
ATOM     83  O   UNL A   1      32.464  34.374  28.110  1.00  0.00    -0.237 OA
ATOM     84  O   UNL A   1      32.373  35.952  30.014  1.00  0.00    -0.237 OA
ATOM     85  O   UNL A   1      33.779  36.463  28.058  1.00  0.00    -0.744 OA
ENDBRANCH  81  82
ENDBRANCH  49  74
BRANCH  61  86
ATOM     86  C   UNL A   1      39.832  34.214  37.030  1.00  0.00     0.058 A 
ATOM     87  C   UNL A   1      39.133  33.943  38.218  1.00  0.00     0.135 A 
ATOM     88  C   UNL A   1      40.410  35.487  36.889  1.00  0.00     0.135 A 
ATOM     89  F   UNL A   1      38.558  32.745  38.405  1.00  0.00    -0.206 F 
ATOM     90  C   UNL A   1      38.977  34.909  39.206  1.00  0.00     0.059 A 
ATOM     91  C   UNL A   1      40.297  36.456  37.881  1.00  0.00     0.059 A 
ATOM     92  F   UNL A   1      41.100  35.799  35.781  1.00  0.00    -0.206 F 
ATOM     93  C   UNL A   1      39.563  36.164  39.028  1.00  0.00     0.060 A 
BRANCH  93  94
ATOM     94  S   UNL A   1      39.359  37.404  40.324  1.00  0.00     0.124 S 
ATOM     95  O   UNL A   1      40.745  37.736  40.634  1.00  0.00    -0.237 OA
ATOM     96  O   UNL A   1      38.597  38.444  39.640  1.00  0.00    -0.237 OA
ATOM     97  O   UNL A   1      38.636  36.688  41.370  1.00  0.00    -0.744 OA
ENDBRANCH  93  94
ENDBRANCH  61  86
ENDBRANCH  35  36
ENDBRANCH  27  30
ENDBRANCH  25  26
ENDBRANCH  24  25
ENDBRANCH   1  24
TORSDOF 17
ENDMDL
MODEL 3
REMARK VINA RESULT:     -11.9      6.527     12.092
REMARK SMILES C[C@H]1[C@@H](C(=O)NCCCNC(=O)c2ccc(-c3c4nc(c(-c5c(F)cc(S(=O)(=O)[O-])cc5F)c5ccc([nH]5)c(-c5c(F)cc(S(=O)(=O)[O-])cc5F)c5nc(c(-c6c(F)cc(S(=O)(=O)[O-])cc6F)c6ccc3[nH]6)C=C5)C=C4)cc2)CCN1S(=O)(=O)Cc1cccc(C#N)c1
REMARK SMILES IDX 7 1 6 2 4 3 5 4 3 6 1 7 2 8 81 9 79 10 80 11 82 12 83 13
REMARK SMILES IDX 84 14 85 15 86 16 87 17 93 18 88 19 90 20 89 21 91 22 92 23
REMARK SMILES IDX 8 24 9 25 10 26 11 27 12 29 13 30 14 31 78 32 15 33 77 34
REMARK SMILES IDX 16 35 17 36 18 37 71 38 19 39 76 40 70 41 72 42 20 43 75 44
REMARK SMILES IDX 69 45 68 46 21 48 55 49 34 50 54 51 35 52 38 53 53 54 73 55
REMARK SMILES IDX 36 56 37 57 52 59 74 60 39 61 22 62 23 63 32 64 24 65 25 66
REMARK SMILES IDX 31 67 33 68 26 69 27 70 28 71 29 72 30 73 56 74 57 75 66 76
REMARK SMILES IDX 58 77 59 78 65 79 67 80 60 81 61 82 62 83 63 84 64 85 40 86
REMARK SMILES IDX 41 87 50 88 42 89 43 90 49 91 51 92 44 93 45 94 46 95 47 96
REMARK SMILES IDX 48 97
REMARK H PARENT 6 5 10 28 72 47 38 58
REMARK Flexibility Score: inf
ROOT
ATOM      1  C   UNL A   1      33.036  29.963  27.263  1.00  0.00     0.117 C 
ENDROOT
BRANCH   1   2
ATOM      2  N   UNL A   1      32.016  30.401  26.320  1.00  0.00    -0.356 N 
ATOM      3  C   UNL A   1      31.424  29.828  25.235  1.00  0.00     0.224 C 
ATOM      4  O   UNL A   1      30.615  30.547  24.641  1.00  0.00    -0.275 OA
ATOM      5  H   UNL A   1      31.682  31.308  26.507  1.00  0.00     0.163 HD
BRANCH   3   6
ATOM      6  C   UNL A   1      31.619  28.355  24.832  1.00  0.00     0.098 C 
ATOM      7  C   UNL A   1      33.671  29.037  23.396  1.00  0.00     0.026 C 
ATOM      8  C   UNL A   1      32.812  27.930  23.953  1.00  0.00     0.082 C 
ATOM      9  N   UNL A   1      32.284  27.296  22.728  1.00  0.00    -0.198 NA
ATOM     10  C   UNL A   1      30.401  27.800  24.061  1.00  0.00     0.032 C 
ATOM     11  C   UNL A   1      30.867  27.680  22.619  1.00  0.00     0.103 C 
BRANCH   9  12
ATOM     12  S   UNL A   1      32.759  25.755  22.277  1.00  0.00     0.218 S 
ATOM     13  O   UNL A   1      31.528  25.007  22.094  1.00  0.00    -0.212 OA
ATOM     14  O   UNL A   1      33.676  25.896  21.165  1.00  0.00    -0.212 OA
BRANCH  12  15
ATOM     15  C   UNL A   1      33.620  25.003  23.695  1.00  0.00     0.189 C 
BRANCH  15  16
ATOM     16  C   UNL A   1      32.995  23.747  24.258  1.00  0.00    -0.030 A 
ATOM     17  C   UNL A   1      33.398  22.472  23.845  1.00  0.00     0.005 A 
ATOM     18  C   UNL A   1      31.908  23.831  25.150  1.00  0.00     0.024 A 
ATOM     19  C   UNL A   1      32.781  21.323  24.355  1.00  0.00     0.002 A 
ATOM     20  C   UNL A   1      31.336  22.683  25.722  1.00  0.00     0.052 A 
ATOM     21  C   UNL A   1      31.767  21.424  25.310  1.00  0.00     0.019 A 
BRANCH  20  22
ATOM     22  C   UNL A   1      30.364  22.819  26.768  1.00  0.00     0.099 C 
ATOM     23  N   UNL A   1      29.533  22.977  27.565  1.00  0.00    -0.192 NA
ENDBRANCH  20  22
ENDBRANCH  15  16
ENDBRANCH  12  15
ENDBRANCH   9  12
ENDBRANCH   3   6
ENDBRANCH   1   2
BRANCH   1  24
ATOM     24  C   UNL A   1      34.020  31.089  27.611  1.00  0.00     0.042 C 
BRANCH  24  25
ATOM     25  C   UNL A   1      35.377  30.646  28.119  1.00  0.00     0.118 C 
BRANCH  25  26
ATOM     26  N   UNL A   1      35.477  30.800  29.554  1.00  0.00    -0.352 N 
ATOM     27  C   UNL A   1      36.451  30.346  30.412  1.00  0.00     0.251 C 
ATOM     28  H   UNL A   1      34.743  31.303  29.975  1.00  0.00     0.163 HD
ATOM     29  O   UNL A   1      36.185  30.282  31.610  1.00  0.00    -0.269 OA
BRANCH  27  30
ATOM     30  C   UNL A   1      37.794  29.936  29.923  1.00  0.00     0.039 A 
ATOM     31  C   UNL A   1      38.741  29.506  30.858  1.00  0.00     0.014 A 
ATOM     32  C   UNL A   1      38.165  30.040  28.579  1.00  0.00     0.014 A 
ATOM     33  C   UNL A   1      40.032  29.164  30.443  1.00  0.00     0.010 A 
ATOM     34  C   UNL A   1      39.414  29.589  28.150  1.00  0.00     0.010 A 
ATOM     35  C   UNL A   1      40.376  29.177  29.081  1.00  0.00    -0.014 A 
BRANCH  35  36
ATOM     36  C   UNL A   1      41.743  28.797  28.633  1.00  0.00     0.031 A 
ATOM     37  C   UNL A   1      42.840  29.830  28.554  1.00  0.00     0.074 A 
ATOM     38  C   UNL A   1      41.994  27.521  28.278  1.00  0.00     0.049 A 
ATOM     39  N   UNL A   1      44.089  29.685  28.186  1.00  0.00    -0.248 NA
ATOM     40  C   UNL A   1      42.483  31.214  28.909  1.00  0.00     0.031 C 
ATOM     41  C   UNL A   1      41.005  26.441  28.257  1.00  0.00     0.029 A 
ATOM     42  N   UNL A   1      43.156  26.912  27.871  1.00  0.00    -0.354 N 
ATOM     43  C   UNL A   1      44.660  30.951  28.264  1.00  0.00     0.074 A 
ATOM     44  C   UNL A   1      43.605  31.866  28.642  1.00  0.00     0.031 C 
ATOM     45  C   UNL A   1      41.609  25.299  27.896  1.00  0.00     0.029 A 
ATOM     46  C   UNL A   1      43.014  25.569  27.611  1.00  0.00     0.049 A 
ATOM     47  H   UNL A   1      44.010  27.393  27.774  1.00  0.00     0.167 HD
ATOM     48  C   UNL A   1      45.950  31.317  28.067  1.00  0.00     0.037 A 
ATOM     49  C   UNL A   1      43.910  24.660  27.183  1.00  0.00     0.037 A 
ATOM     50  C   UNL A   1      46.996  30.398  27.698  1.00  0.00     0.049 A 
ATOM     51  C   UNL A   1      45.335  25.090  26.958  1.00  0.00     0.074 A 
ATOM     52  C   UNL A   1      48.343  30.656  27.515  1.00  0.00     0.029 A 
ATOM     53  N   UNL A   1      46.813  29.046  27.447  1.00  0.00    -0.354 N 
ATOM     54  N   UNL A   1      45.870  26.279  27.100  1.00  0.00    -0.248 NA
ATOM     55  C   UNL A   1      46.279  24.053  26.524  1.00  0.00     0.031 C 
ATOM     56  C   UNL A   1      48.963  29.474  27.094  1.00  0.00     0.029 A 
ATOM     57  C   UNL A   1      48.017  28.461  27.084  1.00  0.00     0.049 A 
ATOM     58  H   UNL A   1      45.954  28.569  27.518  1.00  0.00     0.167 HD
ATOM     59  C   UNL A   1      47.220  26.129  26.794  1.00  0.00     0.074 A 
ATOM     60  C   UNL A   1      47.419  24.728  26.484  1.00  0.00     0.031 C 
ATOM     61  C   UNL A   1      48.201  27.065  26.771  1.00  0.00     0.037 A 
BRANCH  48  62
ATOM     62  C   UNL A   1      46.302  32.773  28.248  1.00  0.00     0.058 A 
ATOM     63  C   UNL A   1      46.805  33.267  29.463  1.00  0.00     0.135 A 
ATOM     64  C   UNL A   1      46.167  33.680  27.184  1.00  0.00     0.135 A 
ATOM     65  F   UNL A   1      46.943  32.451  30.521  1.00  0.00    -0.206 F 
ATOM     66  C   UNL A   1      47.128  34.611  29.628  1.00  0.00     0.059 A 
ATOM     67  C   UNL A   1      46.517  35.022  27.316  1.00  0.00     0.059 A 
ATOM     68  F   UNL A   1      45.693  33.267  25.998  1.00  0.00    -0.206 F 
ATOM     69  C   UNL A   1      46.981  35.481  28.547  1.00  0.00     0.060 A 
BRANCH  69  70
ATOM     70  S   UNL A   1      47.408  37.220  28.779  1.00  0.00     0.124 S 
ATOM     71  O   UNL A   1      48.824  37.223  28.422  1.00  0.00    -0.237 OA
ATOM     72  O   UNL A   1      46.517  37.886  27.834  1.00  0.00    -0.237 OA
ATOM     73  O   UNL A   1      47.117  37.459  30.188  1.00  0.00    -0.744 OA
ENDBRANCH  69  70
ENDBRANCH  48  62
BRANCH  49  74
ATOM     74  C   UNL A   1      43.483  23.253  26.948  1.00  0.00     0.058 A 
ATOM     75  C   UNL A   1      43.228  22.378  28.014  1.00  0.00     0.135 A 
ATOM     76  C   UNL A   1      43.300  22.763  25.645  1.00  0.00     0.135 A 
ATOM     77  F   UNL A   1      43.395  22.794  29.278  1.00  0.00    -0.206 F 
ATOM     78  C   UNL A   1      42.821  21.065  27.799  1.00  0.00     0.059 A 
ATOM     79  C   UNL A   1      42.864  21.464  25.405  1.00  0.00     0.059 A 
ATOM     80  F   UNL A   1      43.514  23.561  24.587  1.00  0.00    -0.206 F 
ATOM     81  C   UNL A   1      42.635  20.619  26.489  1.00  0.00     0.060 A 
BRANCH  81  82
ATOM     82  S   UNL A   1      42.050  18.932  26.220  1.00  0.00     0.124 S 
ATOM     83  O   UNL A   1      42.979  18.457  25.202  1.00  0.00    -0.237 OA
ATOM     84  O   UNL A   1      42.196  18.342  27.547  1.00  0.00    -0.237 OA
ATOM     85  O   UNL A   1      40.672  19.122  25.777  1.00  0.00    -0.744 OA
ENDBRANCH  81  82
ENDBRANCH  49  74
BRANCH  61  86
ATOM     86  C   UNL A   1      49.591  26.598  26.425  1.00  0.00     0.058 A 
ATOM     87  C   UNL A   1      50.124  26.743  25.134  1.00  0.00     0.135 A 
ATOM     88  C   UNL A   1      50.412  26.022  27.409  1.00  0.00     0.135 A 
ATOM     89  F   UNL A   1      49.383  27.284  24.153  1.00  0.00    -0.206 F 
ATOM     90  C   UNL A   1      51.403  26.296  24.820  1.00  0.00     0.059 A 
ATOM     91  C   UNL A   1      51.708  25.601  27.126  1.00  0.00     0.059 A 
ATOM     92  F   UNL A   1      49.961  25.869  28.664  1.00  0.00    -0.206 F 
ATOM     93  C   UNL A   1      52.188  25.726  25.824  1.00  0.00     0.060 A 
BRANCH  93  94
ATOM     94  S   UNL A   1      53.849  25.157  25.404  1.00  0.00     0.124 S 
ATOM     95  O   UNL A   1      54.064  25.804  24.114  1.00  0.00    -0.237 OA
ATOM     96  O   UNL A   1      54.644  25.676  26.513  1.00  0.00    -0.237 OA
ATOM     97  O   UNL A   1      53.712  23.705  25.362  1.00  0.00    -0.744 OA
ENDBRANCH  93  94
ENDBRANCH  61  86
ENDBRANCH  35  36
ENDBRANCH  27  30
ENDBRANCH  25  26
ENDBRANCH  24  25
ENDBRANCH   1  24
TORSDOF 17
ENDMDL
