MODEL 1
REMARK VINA RESULT:     -12.6      0.000      0.000
REMARK SMILES O=C(COc1nc(-c2cccnc2)nc2c1CCCC2)NCCCNC(=O)c1ccc(-c2c3nc(c(-c4c(F)cc(S(=O)(=O)[O-])cc4F)c4ccc([nH]4)c(-c4c(F)cc(S(=O)(=O)[O-])cc4F)c4nc(c(-c5c(F)cc(S(=O)(=O)[O-])cc5F)c5ccc2[nH]5)C=C4)C=C3)cc1
REMARK SMILES IDX 23 1 22 2 21 3 1 4 2 5 3 7 4 8 5 9 6 10 16 11 7 12 15 13
REMARK SMILES IDX 17 14 14 15 20 16 18 17 19 18 8 19 9 20 13 21 10 22 12 23
REMARK SMILES IDX 11 24 24 25 25 26 26 27 27 29 28 30 29 31 93 32 30 33 92 34
REMARK SMILES IDX 31 35 32 36 33 37 86 38 34 39 91 40 85 41 87 42 35 43 90 44
REMARK SMILES IDX 84 45 83 46 36 48 70 49 49 50 69 51 50 52 53 53 68 54 88 55
REMARK SMILES IDX 51 56 52 57 67 59 89 60 54 61 37 62 38 63 47 64 39 65 40 66
REMARK SMILES IDX 46 67 48 68 41 69 42 70 43 71 44 72 45 73 71 74 72 75 81 76
REMARK SMILES IDX 73 77 74 78 80 79 82 80 75 81 76 82 77 83 78 84 79 85 55 86
REMARK SMILES IDX 56 87 65 88 57 89 58 90 64 91 66 92 59 93 60 94 61 95 62 96
REMARK SMILES IDX 63 97
REMARK H PARENT 21 6 25 28 87 47 53 58
REMARK Flexibility Score: inf
ROOT
ATOM      1  C   UNL A   1      40.767  22.185  27.588  1.00  0.00     0.042 C 
ENDROOT
BRANCH   1   2
ATOM      2  C   UNL A   1      40.154  21.694  26.286  1.00  0.00     0.117 C 
BRANCH   2   3
ATOM      3  N   UNL A   1      38.913  22.360  25.953  1.00  0.00    -0.353 N 
ATOM      4  O   UNL A   1      37.905  20.538  24.979  1.00  0.00    -0.271 OA
ATOM      5  C   UNL A   1      37.843  21.689  25.403  1.00  0.00     0.258 C 
ATOM      6  H   UNL A   1      38.832  23.326  26.127  1.00  0.00     0.163 HD
BRANCH   5   7
ATOM      7  C   UNL A   1      36.558  22.526  25.291  1.00  0.00     0.331 C 
BRANCH   7   8
ATOM      8  O   UNL A   1      35.593  22.453  26.337  1.00  0.00    -0.467 OA
BRANCH   8   9
ATOM      9  C   UNL A   1      34.405  21.908  25.899  1.00  0.00     0.220 A 
ATOM     10  N   UNL A   1      34.409  20.598  25.620  1.00  0.00    -0.193 NA
ATOM     11  C   UNL A   1      33.269  22.693  25.905  1.00  0.00     0.036 A 
ATOM     12  C   UNL A   1      33.235  20.058  25.267  1.00  0.00     0.164 A 
ATOM     13  C   UNL A   1      32.097  22.028  25.576  1.00  0.00     0.051 A 
ATOM     14  C   UNL A   1      33.294  24.140  26.299  1.00  0.00     0.043 C 
ATOM     15  N   UNL A   1      32.071  20.726  25.217  1.00  0.00    -0.232 NA
ATOM     16  C   UNL A   1      30.766  22.735  25.574  1.00  0.00     0.057 C 
ATOM     17  C   UNL A   1      32.001  24.878  25.946  1.00  0.00     0.005 C 
ATOM     18  C   UNL A   1      30.788  24.049  26.351  1.00  0.00     0.007 C 
BRANCH  12  19
ATOM     19  C   UNL A   1      33.223  18.634  24.962  1.00  0.00     0.038 A 
ATOM     20  C   UNL A   1      33.723  18.128  23.755  1.00  0.00     0.015 A 
ATOM     21  C   UNL A   1      32.706  17.700  25.857  1.00  0.00     0.123 A 
ATOM     22  C   UNL A   1      33.683  16.761  23.491  1.00  0.00     0.021 A 
ATOM     23  N   UNL A   1      32.647  16.362  25.633  1.00  0.00    -0.264 NA
ATOM     24  C   UNL A   1      33.135  15.926  24.451  1.00  0.00     0.111 A 
ENDBRANCH  12  19
ENDBRANCH   8   9
ENDBRANCH   7   8
ENDBRANCH   5   7
ENDBRANCH   2   3
ENDBRANCH   1   2
BRANCH   1  25
ATOM     25  C   UNL A   1      42.003  23.062  27.405  1.00  0.00     0.118 C 
BRANCH  25  26
ATOM     26  N   UNL A   1      41.930  23.922  26.231  1.00  0.00    -0.352 N 
ATOM     27  C   UNL A   1      41.633  25.258  26.122  1.00  0.00     0.251 C 
ATOM     28  H   UNL A   1      42.126  23.471  25.377  1.00  0.00     0.163 HD
ATOM     29  O   UNL A   1      41.484  25.751  25.005  1.00  0.00    -0.269 OA
BRANCH  27  30
ATOM     30  C   UNL A   1      41.466  26.098  27.328  1.00  0.00     0.039 A 
ATOM     31  C   UNL A   1      42.437  27.062  27.616  1.00  0.00     0.014 A 
ATOM     32  C   UNL A   1      40.376  25.931  28.187  1.00  0.00     0.014 A 
ATOM     33  C   UNL A   1      42.278  27.902  28.721  1.00  0.00     0.010 A 
ATOM     34  C   UNL A   1      40.180  26.818  29.243  1.00  0.00     0.010 A 
ATOM     35  C   UNL A   1      41.129  27.813  29.523  1.00  0.00    -0.014 A 
BRANCH  35  36
ATOM     36  C   UNL A   1      40.908  28.745  30.659  1.00  0.00     0.031 A 
ATOM     37  C   UNL A   1      41.751  28.638  31.901  1.00  0.00     0.074 A 
ATOM     38  C   UNL A   1      39.922  29.661  30.589  1.00  0.00     0.049 A 
ATOM     39  N   UNL A   1      41.675  29.326  33.012  1.00  0.00    -0.248 NA
ATOM     40  C   UNL A   1      42.806  27.612  31.902  1.00  0.00     0.031 C 
ATOM     41  C   UNL A   1      39.018  29.844  29.452  1.00  0.00     0.029 A 
ATOM     42  N   UNL A   1      39.512  30.610  31.493  1.00  0.00    -0.354 N 
ATOM     43  C   UNL A   1      42.669  28.819  33.840  1.00  0.00     0.074 A 
ATOM     44  C   UNL A   1      43.294  27.725  33.130  1.00  0.00     0.031 C 
ATOM     45  C   UNL A   1      38.182  30.863  29.713  1.00  0.00     0.029 A 
ATOM     46  C   UNL A   1      38.461  31.380  31.050  1.00  0.00     0.049 A 
ATOM     47  H   UNL A   1      39.931  30.730  32.376  1.00  0.00     0.167 HD
ATOM     48  C   UNL A   1      43.045  29.245  35.070  1.00  0.00     0.037 A 
ATOM     49  C   UNL A   1      37.793  32.383  31.653  1.00  0.00     0.037 A 
ATOM     50  C   UNL A   1      42.430  30.344  35.766  1.00  0.00     0.049 A 
ATOM     51  C   UNL A   1      38.203  32.811  33.036  1.00  0.00     0.074 A 
ATOM     52  C   UNL A   1      42.763  30.872  37.002  1.00  0.00     0.029 A 
ATOM     53  N   UNL A   1      41.357  31.085  35.292  1.00  0.00    -0.354 N 
ATOM     54  N   UNL A   1      39.172  32.346  33.788  1.00  0.00    -0.248 NA
ATOM     55  C   UNL A   1      37.431  33.899  33.654  1.00  0.00     0.031 C 
ATOM     56  C   UNL A   1      41.862  31.901  37.295  1.00  0.00     0.029 A 
ATOM     57  C   UNL A   1      41.001  32.050  36.220  1.00  0.00     0.049 A 
ATOM     58  H   UNL A   1      40.914  30.946  34.424  1.00  0.00     0.167 HD
ATOM     59  C   UNL A   1      39.141  33.099  34.958  1.00  0.00     0.074 A 
ATOM     60  C   UNL A   1      38.067  34.059  34.807  1.00  0.00     0.031 C 
ATOM     61  C   UNL A   1      39.930  33.002  36.057  1.00  0.00     0.037 A 
BRANCH  48  62
ATOM     62  C   UNL A   1      44.188  28.529  35.738  1.00  0.00     0.058 A 
ATOM     63  C   UNL A   1      45.520  28.925  35.533  1.00  0.00     0.135 A 
ATOM     64  C   UNL A   1      43.949  27.474  36.634  1.00  0.00     0.135 A 
ATOM     65  F   UNL A   1      45.806  29.917  34.675  1.00  0.00    -0.206 F 
ATOM     66  C   UNL A   1      46.575  28.286  36.174  1.00  0.00     0.059 A 
ATOM     67  C   UNL A   1      44.989  26.840  37.309  1.00  0.00     0.059 A 
ATOM     68  F   UNL A   1      42.696  27.054  36.867  1.00  0.00    -0.206 F 
ATOM     69  C   UNL A   1      46.299  27.246  37.064  1.00  0.00     0.060 A 
BRANCH  69  70
ATOM     70  S   UNL A   1      47.684  26.441  37.896  1.00  0.00     0.124 S 
ATOM     71  O   UNL A   1      48.760  27.399  37.665  1.00  0.00    -0.237 OA
ATOM     72  O   UNL A   1      47.205  26.345  39.271  1.00  0.00    -0.237 OA
ATOM     73  O   UNL A   1      47.814  25.171  37.189  1.00  0.00    -0.744 OA
ENDBRANCH  69  70
ENDBRANCH  48  62
BRANCH  49  74
ATOM     74  C   UNL A   1      36.686  33.073  30.937  1.00  0.00     0.058 A 
ATOM     75  C   UNL A   1      35.347  32.807  31.258  1.00  0.00     0.135 A 
ATOM     76  C   UNL A   1      36.941  34.026  29.938  1.00  0.00     0.135 A 
ATOM     77  F   UNL A   1      35.051  31.897  32.199  1.00  0.00    -0.206 F 
ATOM     78  C   UNL A   1      34.299  33.455  30.612  1.00  0.00     0.059 A 
ATOM     79  C   UNL A   1      35.911  34.706  29.295  1.00  0.00     0.059 A 
ATOM     80  F   UNL A   1      38.205  34.327  29.601  1.00  0.00    -0.206 F 
ATOM     81  C   UNL A   1      34.592  34.409  29.635  1.00  0.00     0.060 A 
BRANCH  81  82
ATOM     82  S   UNL A   1      33.222  35.283  28.846  1.00  0.00     0.124 S 
ATOM     83  O   UNL A   1      33.923  36.341  28.128  1.00  0.00    -0.237 OA
ATOM     84  O   UNL A   1      32.630  34.236  28.020  1.00  0.00    -0.237 OA
ATOM     85  O   UNL A   1      32.406  35.719  29.975  1.00  0.00    -0.744 OA
ENDBRANCH  81  82
ENDBRANCH  49  74
BRANCH  61  86
ATOM     86  C   UNL A   1      39.680  33.967  37.184  1.00  0.00     0.058 A 
ATOM     87  C   UNL A   1      38.892  33.614  38.290  1.00  0.00     0.135 A 
ATOM     88  C   UNL A   1      40.299  35.227  37.193  1.00  0.00     0.135 A 
ATOM     89  F   UNL A   1      38.273  32.424  38.328  1.00  0.00    -0.206 F 
ATOM     90  C   UNL A   1      38.716  34.483  39.362  1.00  0.00     0.059 A 
ATOM     91  C   UNL A   1      40.159  36.101  38.267  1.00  0.00     0.059 A 
ATOM     92  F   UNL A   1      41.072  35.610  36.165  1.00  0.00    -0.206 F 
ATOM     93  C   UNL A   1      39.359  35.723  39.344  1.00  0.00     0.060 A 
BRANCH  93  94
ATOM     94  S   UNL A   1      39.158  36.819  40.765  1.00  0.00     0.124 S 
ATOM     95  O   UNL A   1      40.544  37.122  41.103  1.00  0.00    -0.237 OA
ATOM     96  O   UNL A   1      38.388  37.922  40.197  1.00  0.00    -0.237 OA
ATOM     97  O   UNL A   1      38.441  35.995  41.733  1.00  0.00    -0.744 OA
ENDBRANCH  93  94
ENDBRANCH  61  86
ENDBRANCH  35  36
ENDBRANCH  27  30
ENDBRANCH  25  26
ENDBRANCH   1  25
TORSDOF 16
ENDMDL
MODEL 2
REMARK VINA RESULT:     -12.5      0.372      8.276
REMARK SMILES O=C(COc1nc(-c2cccnc2)nc2c1CCCC2)NCCCNC(=O)c1ccc(-c2c3nc(c(-c4c(F)cc(S(=O)(=O)[O-])cc4F)c4ccc([nH]4)c(-c4c(F)cc(S(=O)(=O)[O-])cc4F)c4nc(c(-c5c(F)cc(S(=O)(=O)[O-])cc5F)c5ccc2[nH]5)C=C4)C=C3)cc1
REMARK SMILES IDX 23 1 22 2 21 3 1 4 2 5 3 7 4 8 5 9 6 10 16 11 7 12 15 13
REMARK SMILES IDX 17 14 14 15 20 16 18 17 19 18 8 19 9 20 13 21 10 22 12 23
REMARK SMILES IDX 11 24 24 25 25 26 26 27 27 29 28 30 29 31 93 32 30 33 92 34
REMARK SMILES IDX 31 35 32 36 33 37 86 38 34 39 91 40 85 41 87 42 35 43 90 44
REMARK SMILES IDX 84 45 83 46 36 48 70 49 49 50 69 51 50 52 53 53 68 54 88 55
REMARK SMILES IDX 51 56 52 57 67 59 89 60 54 61 37 62 38 63 47 64 39 65 40 66
REMARK SMILES IDX 46 67 48 68 41 69 42 70 43 71 44 72 45 73 71 74 72 75 81 76
REMARK SMILES IDX 73 77 74 78 80 79 82 80 75 81 76 82 77 83 78 84 79 85 55 86
REMARK SMILES IDX 56 87 65 88 57 89 58 90 64 91 66 92 59 93 60 94 61 95 62 96
REMARK SMILES IDX 63 97
REMARK H PARENT 21 6 25 28 87 47 53 58
REMARK Flexibility Score: inf
ROOT
ATOM      1  C   UNL A   1      40.741  22.332  27.622  1.00  0.00     0.042 C 
ENDROOT
BRANCH   1   2
ATOM      2  C   UNL A   1      39.927  21.864  26.426  1.00  0.00     0.117 C 
BRANCH   2   3
ATOM      3  N   UNL A   1      38.610  22.460  26.363  1.00  0.00    -0.353 N 
ATOM      4  O   UNL A   1      37.787  21.074  24.723  1.00  0.00    -0.271 OA
ATOM      5  C   UNL A   1      37.608  21.945  25.570  1.00  0.00     0.258 C 
ATOM      6  H   UNL A   1      38.425  23.260  26.906  1.00  0.00     0.163 HD
BRANCH   5   7
ATOM      7  C   UNL A   1      36.233  22.603  25.778  1.00  0.00     0.331 C 
BRANCH   7   8
ATOM      8  O   UNL A   1      35.371  22.769  24.656  1.00  0.00    -0.467 OA
BRANCH   8   9
ATOM      9  C   UNL A   1      34.194  22.068  24.808  1.00  0.00     0.220 A 
ATOM     10  N   UNL A   1      34.267  20.735  24.692  1.00  0.00    -0.193 NA
ATOM     11  C   UNL A   1      33.058  22.748  25.199  1.00  0.00     0.036 A 
ATOM     12  C   UNL A   1      33.135  20.053  24.913  1.00  0.00     0.164 A 
ATOM     13  C   UNL A   1      31.955  21.946  25.454  1.00  0.00     0.051 A 
ATOM     14  C   UNL A   1      33.039  24.235  25.393  1.00  0.00     0.043 C 
ATOM     15  N   UNL A   1      31.968  20.607  25.278  1.00  0.00    -0.232 NA
ATOM     16  C   UNL A   1      30.650  22.533  25.927  1.00  0.00     0.057 C 
ATOM     17  C   UNL A   1      31.624  24.802  25.529  1.00  0.00     0.005 C 
ATOM     18  C   UNL A   1      30.798  23.947  26.484  1.00  0.00     0.007 C 
BRANCH  12  19
ATOM     19  C   UNL A   1      33.199  18.603  24.792  1.00  0.00     0.038 A 
ATOM     20  C   UNL A   1      33.696  17.974  23.643  1.00  0.00     0.015 A 
ATOM     21  C   UNL A   1      32.761  17.765  25.815  1.00  0.00     0.123 A 
ATOM     22  C   UNL A   1      33.729  16.584  23.556  1.00  0.00     0.021 A 
ATOM     23  N   UNL A   1      32.775  16.408  25.764  1.00  0.00    -0.264 NA
ATOM     24  C   UNL A   1      33.256  15.851  24.631  1.00  0.00     0.111 A 
ENDBRANCH  12  19
ENDBRANCH   8   9
ENDBRANCH   7   8
ENDBRANCH   5   7
ENDBRANCH   2   3
ENDBRANCH   1   2
BRANCH   1  25
ATOM     25  C   UNL A   1      42.015  23.086  27.254  1.00  0.00     0.118 C 
BRANCH  25  26
ATOM     26  N   UNL A   1      41.846  23.983  26.118  1.00  0.00    -0.352 N 
ATOM     27  C   UNL A   1      41.498  25.311  26.076  1.00  0.00     0.251 C 
ATOM     28  H   UNL A   1      42.008  23.571  25.239  1.00  0.00     0.163 HD
ATOM     29  O   UNL A   1      41.269  25.837  24.987  1.00  0.00    -0.269 OA
BRANCH  27  30
ATOM     30  C   UNL A   1      41.372  26.102  27.319  1.00  0.00     0.039 A 
ATOM     31  C   UNL A   1      42.380  27.016  27.641  1.00  0.00     0.014 A 
ATOM     32  C   UNL A   1      40.283  25.937  28.180  1.00  0.00     0.014 A 
ATOM     33  C   UNL A   1      42.260  27.810  28.784  1.00  0.00     0.010 A 
ATOM     34  C   UNL A   1      40.128  26.783  29.276  1.00  0.00     0.010 A 
ATOM     35  C   UNL A   1      41.115  27.728  29.592  1.00  0.00    -0.014 A 
BRANCH  35  36
ATOM     36  C   UNL A   1      40.938  28.616  30.770  1.00  0.00     0.031 A 
ATOM     37  C   UNL A   1      39.885  29.691  30.757  1.00  0.00     0.074 A 
ATOM     38  C   UNL A   1      41.753  28.482  31.835  1.00  0.00     0.049 A 
ATOM     39  N   UNL A   1      39.614  30.592  31.666  1.00  0.00    -0.248 NA
ATOM     40  C   UNL A   1      39.036  29.776  29.558  1.00  0.00     0.031 C 
ATOM     41  C   UNL A   1      42.831  27.498  31.956  1.00  0.00     0.029 A 
ATOM     42  N   UNL A   1      41.805  29.175  33.019  1.00  0.00    -0.354 N 
ATOM     43  C   UNL A   1      38.568  31.348  31.152  1.00  0.00     0.074 A 
ATOM     44  C   UNL A   1      38.292  30.841  29.826  1.00  0.00     0.031 C 
ATOM     45  C   UNL A   1      43.415  27.630  33.158  1.00  0.00     0.029 A 
ATOM     46  C   UNL A   1      42.784  28.732  33.878  1.00  0.00     0.049 A 
ATOM     47  H   UNL A   1      41.198  29.920  33.234  1.00  0.00     0.167 HD
ATOM     48  C   UNL A   1      37.880  32.354  31.742  1.00  0.00     0.037 A 
ATOM     49  C   UNL A   1      43.138  29.167  35.104  1.00  0.00     0.037 A 
ATOM     50  C   UNL A   1      38.148  32.845  33.069  1.00  0.00     0.049 A 
ATOM     51  C   UNL A   1      42.385  30.313  35.722  1.00  0.00     0.074 A 
ATOM     52  C   UNL A   1      37.483  33.839  33.767  1.00  0.00     0.029 A 
ATOM     53  N   UNL A   1      39.159  32.383  33.898  1.00  0.00    -0.354 N 
ATOM     54  N   UNL A   1      41.371  30.989  35.237  1.00  0.00    -0.248 NA
ATOM     55  C   UNL A   1      42.822  30.758  37.053  1.00  0.00     0.031 C 
ATOM     56  C   UNL A   1      38.122  34.009  34.999  1.00  0.00     0.029 A 
ATOM     57  C   UNL A   1      39.151  33.086  35.092  1.00  0.00     0.049 A 
ATOM     58  H   UNL A   1      39.789  31.661  33.673  1.00  0.00     0.167 HD
ATOM     59  C   UNL A   1      41.034  31.924  36.212  1.00  0.00     0.074 A 
ATOM     60  C   UNL A   1      41.944  31.715  37.319  1.00  0.00     0.031 C 
ATOM     61  C   UNL A   1      40.061  32.868  36.188  1.00  0.00     0.037 A 
BRANCH  48  62
ATOM     62  C   UNL A   1      36.757  32.984  30.964  1.00  0.00     0.058 A 
ATOM     63  C   UNL A   1      35.413  32.735  31.286  1.00  0.00     0.135 A 
ATOM     64  C   UNL A   1      37.023  33.887  29.922  1.00  0.00     0.135 A 
ATOM     65  F   UNL A   1      35.100  31.869  32.263  1.00  0.00    -0.206 F 
ATOM     66  C   UNL A   1      34.373  33.341  30.589  1.00  0.00     0.059 A 
ATOM     67  C   UNL A   1      35.998  34.527  29.229  1.00  0.00     0.059 A 
ATOM     68  F   UNL A   1      38.289  34.161  29.570  1.00  0.00    -0.206 F 
ATOM     69  C   UNL A   1      34.676  34.239  29.564  1.00  0.00     0.060 A 
BRANCH  69  70
ATOM     70  S   UNL A   1      33.311  35.024  28.681  1.00  0.00     0.124 S 
ATOM     71  O   UNL A   1      32.451  35.439  29.785  1.00  0.00    -0.237 OA
ATOM     72  O   UNL A   1      33.985  36.101  27.964  1.00  0.00    -0.237 OA
ATOM     73  O   UNL A   1      32.783  33.951  27.846  1.00  0.00    -0.744 OA
ENDBRANCH  69  70
ENDBRANCH  48  62
BRANCH  49  74
ATOM     74  C   UNL A   1      44.241  28.491  35.841  1.00  0.00     0.058 A 
ATOM     75  C   UNL A   1      45.570  28.907  35.682  1.00  0.00     0.135 A 
ATOM     76  C   UNL A   1      43.988  27.438  36.734  1.00  0.00     0.135 A 
ATOM     77  F   UNL A   1      45.865  29.904  34.832  1.00  0.00    -0.206 F 
ATOM     78  C   UNL A   1      46.613  28.300  36.375  1.00  0.00     0.059 A 
ATOM     79  C   UNL A   1      45.011  26.832  37.458  1.00  0.00     0.059 A 
ATOM     80  F   UNL A   1      42.732  27.010  36.932  1.00  0.00    -0.206 F 
ATOM     81  C   UNL A   1      46.321  27.266  37.267  1.00  0.00     0.060 A 
BRANCH  81  82
ATOM     82  S   UNL A   1      47.678  26.527  38.202  1.00  0.00     0.124 S 
ATOM     83  O   UNL A   1      48.781  27.425  37.881  1.00  0.00    -0.237 OA
ATOM     84  O   UNL A   1      47.176  26.597  39.571  1.00  0.00    -0.237 OA
ATOM     85  O   UNL A   1      47.776  25.181  37.646  1.00  0.00    -0.744 OA
ENDBRANCH  81  82
ENDBRANCH  49  74
BRANCH  61  86
ATOM     86  C   UNL A   1      39.910  33.745  37.402  1.00  0.00     0.058 A 
ATOM     87  C   UNL A   1      40.550  34.990  37.492  1.00  0.00     0.135 A 
ATOM     88  C   UNL A   1      39.053  33.369  38.450  1.00  0.00     0.135 A 
ATOM     89  F   UNL A   1      41.384  35.394  36.521  1.00  0.00    -0.206 F 
ATOM     90  C   UNL A   1      40.357  35.827  38.586  1.00  0.00     0.059 A 
ATOM     91  C   UNL A   1      38.824  34.203  39.540  1.00  0.00     0.059 A 
ATOM     92  F   UNL A   1      38.408  32.193  38.408  1.00  0.00    -0.206 F 
ATOM     93  C   UNL A   1      39.486  35.429  39.602  1.00  0.00     0.060 A 
BRANCH  93  94
ATOM     94  S   UNL A   1      39.210  36.549  40.990  1.00  0.00     0.124 S 
ATOM     95  O   UNL A   1      38.637  37.713  40.322  1.00  0.00    -0.237 OA
ATOM     96  O   UNL A   1      38.291  35.783  41.827  1.00  0.00    -0.237 OA
ATOM     97  O   UNL A   1      40.546  36.739  41.547  1.00  0.00    -0.744 OA
ENDBRANCH  93  94
ENDBRANCH  61  86
ENDBRANCH  35  36
ENDBRANCH  27  30
ENDBRANCH  25  26
ENDBRANCH   1  25
TORSDOF 16
ENDMDL
MODEL 3
REMARK VINA RESULT:     -12.4      4.758     10.240
REMARK SMILES O=C(COc1nc(-c2cccnc2)nc2c1CCCC2)NCCCNC(=O)c1ccc(-c2c3nc(c(-c4c(F)cc(S(=O)(=O)[O-])cc4F)c4ccc([nH]4)c(-c4c(F)cc(S(=O)(=O)[O-])cc4F)c4nc(c(-c5c(F)cc(S(=O)(=O)[O-])cc5F)c5ccc2[nH]5)C=C4)C=C3)cc1
REMARK SMILES IDX 23 1 22 2 21 3 1 4 2 5 3 7 4 8 5 9 6 10 16 11 7 12 15 13
REMARK SMILES IDX 17 14 14 15 20 16 18 17 19 18 8 19 9 20 13 21 10 22 12 23
REMARK SMILES IDX 11 24 24 25 25 26 26 27 27 29 28 30 29 31 93 32 30 33 92 34
REMARK SMILES IDX 31 35 32 36 33 37 86 38 34 39 91 40 85 41 87 42 35 43 90 44
REMARK SMILES IDX 84 45 83 46 36 48 70 49 49 50 69 51 50 52 53 53 68 54 88 55
REMARK SMILES IDX 51 56 52 57 67 59 89 60 54 61 37 62 38 63 47 64 39 65 40 66
REMARK SMILES IDX 46 67 48 68 41 69 42 70 43 71 44 72 45 73 71 74 72 75 81 76
REMARK SMILES IDX 73 77 74 78 80 79 82 80 75 81 76 82 77 83 78 84 79 85 55 86
REMARK SMILES IDX 56 87 65 88 57 89 58 90 64 91 66 92 59 93 60 94 61 95 62 96
REMARK SMILES IDX 63 97
REMARK H PARENT 21 6 25 28 87 47 53 58
REMARK Flexibility Score: inf
ROOT
ATOM      1  C   UNL A   1      32.722  27.798  26.012  1.00  0.00     0.042 C 
ENDROOT
BRANCH   1   2
ATOM      2  C   UNL A   1      31.609  26.804  26.299  1.00  0.00     0.117 C 
BRANCH   2   3
ATOM      3  N   UNL A   1      32.046  25.425  26.244  1.00  0.00    -0.353 N 
ATOM      4  O   UNL A   1      30.016  24.498  26.798  1.00  0.00    -0.271 OA
ATOM      5  C   UNL A   1      31.174  24.371  26.410  1.00  0.00     0.258 C 
ATOM      6  H   UNL A   1      32.998  25.236  26.082  1.00  0.00     0.163 HD
BRANCH   5   7
ATOM      7  C   UNL A   1      31.791  22.989  26.136  1.00  0.00     0.331 C 
BRANCH   7   8
ATOM      8  O   UNL A   1      32.853  22.530  26.968  1.00  0.00    -0.467 OA
BRANCH   8   9
ATOM      9  C   UNL A   1      33.741  21.737  26.273  1.00  0.00     0.220 A 
ATOM     10  N   UNL A   1      33.354  20.482  26.014  1.00  0.00    -0.193 NA
ATOM     11  C   UNL A   1      34.894  22.309  25.774  1.00  0.00     0.036 A 
ATOM     12  C   UNL A   1      34.188  19.739  25.275  1.00  0.00     0.164 A 
ATOM     13  C   UNL A   1      35.664  21.472  24.978  1.00  0.00     0.051 A 
ATOM     14  C   UNL A   1      35.254  23.743  26.022  1.00  0.00     0.043 C 
ATOM     15  N   UNL A   1      35.345  20.178  24.754  1.00  0.00    -0.232 NA
ATOM     16  C   UNL A   1      36.933  21.957  24.326  1.00  0.00     0.057 C 
ATOM     17  C   UNL A   1      36.698  24.073  25.638  1.00  0.00     0.005 C 
ATOM     18  C   UNL A   1      37.034  23.479  24.275  1.00  0.00     0.007 C 
BRANCH  12  19
ATOM     19  C   UNL A   1      33.780  18.371  24.984  1.00  0.00     0.038 A 
ATOM     20  C   UNL A   1      34.383  17.615  23.970  1.00  0.00     0.015 A 
ATOM     21  C   UNL A   1      32.761  17.746  25.698  1.00  0.00     0.123 A 
ATOM     22  C   UNL A   1      33.957  16.315  23.710  1.00  0.00     0.021 A 
ATOM     23  N   UNL A   1      32.317  16.483  25.470  1.00  0.00    -0.264 NA
ATOM     24  C   UNL A   1      32.926  15.800  24.476  1.00  0.00     0.111 A 
ENDBRANCH  12  19
ENDBRANCH   8   9
ENDBRANCH   7   8
ENDBRANCH   5   7
ENDBRANCH   2   3
ENDBRANCH   1   2
BRANCH   1  25
ATOM     25  C   UNL A   1      33.539  28.194  27.238  1.00  0.00     0.118 C 
BRANCH  25  26
ATOM     26  N   UNL A   1      33.452  29.614  27.554  1.00  0.00    -0.352 N 
ATOM     27  C   UNL A   1      34.386  30.466  28.092  1.00  0.00     0.251 C 
ATOM     28  H   UNL A   1      32.584  30.031  27.347  1.00  0.00     0.163 HD
ATOM     29  O   UNL A   1      34.046  31.604  28.412  1.00  0.00    -0.269 OA
BRANCH  27  30
ATOM     30  C   UNL A   1      35.779  30.022  28.313  1.00  0.00     0.039 A 
ATOM     31  C   UNL A   1      36.677  30.063  27.242  1.00  0.00     0.014 A 
ATOM     32  C   UNL A   1      36.203  29.545  29.556  1.00  0.00     0.014 A 
ATOM     33  C   UNL A   1      38.011  29.696  27.436  1.00  0.00     0.010 A 
ATOM     34  C   UNL A   1      37.549  29.253  29.768  1.00  0.00     0.010 A 
ATOM     35  C   UNL A   1      38.468  29.324  28.710  1.00  0.00    -0.014 A 
BRANCH  35  36
ATOM     36  C   UNL A   1      39.898  29.000  28.951  1.00  0.00     0.031 A 
ATOM     37  C   UNL A   1      40.820  30.034  29.538  1.00  0.00     0.074 A 
ATOM     38  C   UNL A   1      40.376  27.789  28.602  1.00  0.00     0.049 A 
ATOM     39  N   UNL A   1      42.105  29.956  29.774  1.00  0.00    -0.248 NA
ATOM     40  C   UNL A   1      40.224  31.333  29.891  1.00  0.00     0.031 C 
ATOM     41  C   UNL A   1      39.589  26.712  27.997  1.00  0.00     0.029 A 
ATOM     42  N   UNL A   1      41.638  27.258  28.704  1.00  0.00    -0.354 N 
ATOM     43  C   UNL A   1      42.470  31.188  30.301  1.00  0.00     0.074 A 
ATOM     44  C   UNL A   1      41.286  32.019  30.294  1.00  0.00     0.031 C 
ATOM     45  C   UNL A   1      40.378  25.641  27.812  1.00  0.00     0.029 A 
ATOM     46  C   UNL A   1      41.734  25.965  28.244  1.00  0.00     0.049 A 
ATOM     47  H   UNL A   1      42.404  27.756  29.072  1.00  0.00     0.167 HD
ATOM     48  C   UNL A   1      43.676  31.583  30.775  1.00  0.00     0.037 A 
ATOM     49  C   UNL A   1      42.794  25.136  28.173  1.00  0.00     0.037 A 
ATOM     50  C   UNL A   1      44.848  30.748  30.794  1.00  0.00     0.049 A 
ATOM     51  C   UNL A   1      44.133  25.612  28.668  1.00  0.00     0.074 A 
ATOM     52  C   UNL A   1      46.108  31.047  31.285  1.00  0.00     0.029 A 
ATOM     53  N   UNL A   1      44.909  29.452  30.302  1.00  0.00    -0.354 N 
ATOM     54  N   UNL A   1      44.450  26.768  29.201  1.00  0.00    -0.248 NA
ATOM     55  C   UNL A   1      45.259  24.674  28.552  1.00  0.00     0.031 C 
ATOM     56  C   UNL A   1      46.941  29.949  31.047  1.00  0.00     0.029 A 
ATOM     57  C   UNL A   1      46.189  28.946  30.457  1.00  0.00     0.049 A 
ATOM     58  H   UNL A   1      44.153  28.963  29.903  1.00  0.00     0.167 HD
ATOM     59  C   UNL A   1      45.806  26.688  29.506  1.00  0.00     0.074 A 
ATOM     60  C   UNL A   1      46.244  25.365  29.110  1.00  0.00     0.031 C 
ATOM     61  C   UNL A   1      46.613  27.626  30.060  1.00  0.00     0.037 A 
BRANCH  48  62
ATOM     62  C   UNL A   1      43.787  32.978  31.328  1.00  0.00     0.058 A 
ATOM     63  C   UNL A   1      43.606  33.240  32.696  1.00  0.00     0.135 A 
ATOM     64  C   UNL A   1      44.132  34.055  30.496  1.00  0.00     0.135 A 
ATOM     65  F   UNL A   1      43.260  32.250  33.534  1.00  0.00    -0.206 F 
ATOM     66  C   UNL A   1      43.739  34.523  33.215  1.00  0.00     0.059 A 
ATOM     67  C   UNL A   1      44.299  35.343  30.999  1.00  0.00     0.059 A 
ATOM     68  F   UNL A   1      44.315  33.863  29.180  1.00  0.00    -0.206 F 
ATOM     69  C   UNL A   1      44.091  35.568  32.358  1.00  0.00     0.060 A 
BRANCH  69  70
ATOM     70  S   UNL A   1      44.273  37.223  33.056  1.00  0.00     0.124 S 
ATOM     71  O   UNL A   1      44.410  38.034  31.851  1.00  0.00    -0.237 OA
ATOM     72  O   UNL A   1      43.024  37.388  33.792  1.00  0.00    -0.237 OA
ATOM     73  O   UNL A   1      45.473  37.115  33.878  1.00  0.00    -0.744 OA
ENDBRANCH  69  70
ENDBRANCH  48  62
BRANCH  49  74
ATOM     74  C   UNL A   1      42.623  23.757  27.639  1.00  0.00     0.058 A 
ATOM     75  C   UNL A   1      42.420  22.673  28.505  1.00  0.00     0.135 A 
ATOM     76  C   UNL A   1      42.635  23.500  26.260  1.00  0.00     0.135 A 
ATOM     77  F   UNL A   1      42.411  22.866  29.832  1.00  0.00    -0.206 F 
ATOM     78  C   UNL A   1      42.242  21.380  28.024  1.00  0.00     0.059 A 
ATOM     79  C   UNL A   1      42.433  22.218  25.753  1.00  0.00     0.059 A 
ATOM     80  F   UNL A   1      42.813  24.504  25.388  1.00  0.00    -0.206 F 
ATOM     81  C   UNL A   1      42.243  21.164  26.644  1.00  0.00     0.060 A 
BRANCH  81  82
ATOM     82  S   UNL A   1      41.952  19.489  26.034  1.00  0.00     0.124 S 
ATOM     83  O   UNL A   1      42.793  19.459  24.843  1.00  0.00    -0.237 OA
ATOM     84  O   UNL A   1      42.406  18.674  27.156  1.00  0.00    -0.237 OA
ATOM     85  O   UNL A   1      40.513  19.464  25.791  1.00  0.00    -0.744 OA
ENDBRANCH  81  82
ENDBRANCH  49  74
BRANCH  61  86
ATOM     86  C   UNL A   1      48.053  27.259  30.293  1.00  0.00     0.058 A 
ATOM     87  C   UNL A   1      49.050  27.569  29.355  1.00  0.00     0.135 A 
ATOM     88  C   UNL A   1      48.450  26.663  31.502  1.00  0.00     0.135 A 
ATOM     89  F   UNL A   1      48.724  28.133  28.182  1.00  0.00    -0.206 F 
ATOM     90  C   UNL A   1      50.390  27.288  29.602  1.00  0.00     0.059 A 
ATOM     91  C   UNL A   1      49.787  26.398  31.780  1.00  0.00     0.059 A 
ATOM     92  F   UNL A   1      47.538  26.356  32.437  1.00  0.00    -0.206 F 
ATOM     93  C   UNL A   1      50.750  26.709  30.820  1.00  0.00     0.060 A 
BRANCH  93  94
ATOM     94  S   UNL A   1      52.499  26.395  31.142  1.00  0.00     0.124 S 
ATOM     95  O   UNL A   1      52.868  27.563  31.934  1.00  0.00    -0.237 OA
ATOM     96  O   UNL A   1      52.457  25.127  31.865  1.00  0.00    -0.237 OA
ATOM     97  O   UNL A   1      53.086  26.330  29.808  1.00  0.00    -0.744 OA
ENDBRANCH  93  94
ENDBRANCH  61  86
ENDBRANCH  35  36
ENDBRANCH  27  30
ENDBRANCH  25  26
ENDBRANCH   1  25
TORSDOF 16
ENDMDL
