MODEL 1
REMARK VINA RESULT:     -10.9      0.000      0.000
REMARK SMILES COCCCNC(=O)/C(C#N)=C/c1ccc(C(=O)NCCCNC(=O)c2ccc(-c3c4nc(c(-c5c(F)cc(S(=O)(=O)[O-])cc5F)c5ccc([nH]5)c(-c5c(F)cc(S(=O)(=O)[O-])cc5F)c5nc(c(-c6c(F)cc(S(=O)(=O)[O-])cc6F)c6ccc3[nH]6)C=C5)C=C4)cc2)cc1
REMARK SMILES IDX 17 1 18 2 19 3 16 5 13 6 14 7 93 8 15 9 92 10 12 11 9 12
REMARK SMILES IDX 7 13 6 14 8 16 5 17 4 18 3 19 2 20 1 21 10 22 11 23 20 24
REMARK SMILES IDX 21 25 22 26 23 27 24 28 25 30 26 31 27 32 91 33 28 34 90 35
REMARK SMILES IDX 29 36 30 37 31 38 84 39 32 40 89 41 83 42 85 43 33 44 88 45
REMARK SMILES IDX 82 46 81 47 34 49 68 50 47 51 67 52 48 53 51 54 66 55 86 56
REMARK SMILES IDX 49 57 50 58 65 60 87 61 52 62 35 63 36 64 45 65 37 66 38 67
REMARK SMILES IDX 44 68 46 69 39 70 40 71 41 72 42 73 43 74 69 75 70 76 79 77
REMARK SMILES IDX 71 78 72 79 78 80 80 81 73 82 74 83 75 84 76 85 77 86 53 87
REMARK SMILES IDX 54 88 63 89 55 90 56 91 62 92 64 93 57 94 58 95 59 96 60 97
REMARK SMILES IDX 61 98
REMARK H PARENT 19 4 6 15 23 29 85 48 51 59
REMARK Flexibility Score: inf
ROOT
ATOM      1  C   UNL A   1      31.026  29.195  24.171  1.00  0.00     0.251 C 
ATOM      2  O   UNL A   1      30.248  29.168  23.218  1.00  0.00    -0.269 OA
ATOM      3  N   UNL A   1      31.055  30.320  24.956  1.00  0.00    -0.352 N 
ATOM      4  H   UNL A   1      30.495  31.059  24.624  1.00  0.00     0.163 HD
ENDROOT
BRANCH   1   5
ATOM      5  C   UNL A   1      31.847  27.992  24.468  1.00  0.00     0.039 A 
ATOM      6  C   UNL A   1      33.323  25.734  25.243  1.00  0.00    -0.024 A 
ATOM      7  C   UNL A   1      31.964  25.820  25.555  1.00  0.00     0.009 A 
ATOM      8  C   UNL A   1      33.915  26.730  24.464  1.00  0.00     0.009 A 
ATOM      9  C   UNL A   1      31.232  26.947  25.171  1.00  0.00     0.014 A 
ATOM     10  C   UNL A   1      33.175  27.843  24.065  1.00  0.00     0.014 A 
BRANCH   6  11
ATOM     11  C   UNL A   1      34.123  24.622  25.754  1.00  0.00     0.033 C 
ATOM     12  C   UNL A   1      34.517  23.583  24.995  1.00  0.00     0.117 C 
BRANCH  12  13
ATOM     13  C   UNL A   1      35.393  22.520  25.609  1.00  0.00     0.261 C 
ATOM     14  N   UNL A   1      34.897  21.440  26.297  1.00  0.00    -0.351 N 
ATOM     15  H   UNL A   1      35.589  20.810  26.604  1.00  0.00     0.163 HD
ATOM     16  O   UNL A   1      36.620  22.587  25.494  1.00  0.00    -0.268 OA
BRANCH  14  17
ATOM     17  C   UNL A   1      33.536  21.049  26.657  1.00  0.00     0.118 C 
BRANCH  17  18
ATOM     18  C   UNL A   1      32.693  20.438  25.542  1.00  0.00     0.050 C 
BRANCH  18  19
ATOM     19  C   UNL A   1      33.111  19.078  25.004  1.00  0.00     0.161 C 
BRANCH  19  20
ATOM     20  O   UNL A   1      32.074  18.106  25.037  1.00  0.00    -0.385 OA
ATOM     21  C   UNL A   1      32.478  16.823  25.490  1.00  0.00     0.194 C 
ENDBRANCH  19  20
ENDBRANCH  18  19
ENDBRANCH  17  18
ENDBRANCH  14  17
ENDBRANCH  12  13
BRANCH  12  22
ATOM     22  C   UNL A   1      34.184  23.459  23.517  1.00  0.00     0.105 C 
ATOM     23  N   UNL A   1      33.909  23.356  22.291  1.00  0.00    -0.192 NA
ENDBRANCH  12  22
ENDBRANCH   6  11
ENDBRANCH   1   5
BRANCH   3  24
ATOM     24  C   UNL A   1      31.761  30.619  26.192  1.00  0.00     0.118 C 
BRANCH  24  25
ATOM     25  C   UNL A   1      31.515  32.059  26.642  1.00  0.00     0.042 C 
BRANCH  25  26
ATOM     26  C   UNL A   1      32.708  32.684  27.359  1.00  0.00     0.118 C 
BRANCH  26  27
ATOM     27  N   UNL A   1      32.485  34.090  27.665  1.00  0.00    -0.352 N 
ATOM     28  C   UNL A   1      33.037  34.877  28.646  1.00  0.00     0.251 C 
ATOM     29  H   UNL A   1      31.838  34.547  27.079  1.00  0.00     0.163 HD
ATOM     30  O   UNL A   1      32.545  35.975  28.885  1.00  0.00    -0.269 OA
BRANCH  28  31
ATOM     31  C   UNL A   1      34.207  34.405  29.419  1.00  0.00     0.039 A 
ATOM     32  C   UNL A   1      33.997  33.812  30.666  1.00  0.00     0.014 A 
ATOM     33  C   UNL A   1      35.507  34.572  28.934  1.00  0.00     0.014 A 
ATOM     34  C   UNL A   1      35.084  33.324  31.396  1.00  0.00     0.010 A 
ATOM     35  C   UNL A   1      36.583  34.023  29.629  1.00  0.00     0.010 A 
ATOM     36  C   UNL A   1      36.383  33.391  30.866  1.00  0.00    -0.014 A 
BRANCH  36  37
ATOM     37  C   UNL A   1      37.539  32.781  31.572  1.00  0.00     0.031 A 
ATOM     38  C   UNL A   1      38.224  31.567  31.006  1.00  0.00     0.074 A 
ATOM     39  C   UNL A   1      37.919  33.278  32.766  1.00  0.00     0.049 A 
ATOM     40  N   UNL A   1      39.185  30.845  31.522  1.00  0.00    -0.248 NA
ATOM     41  C   UNL A   1      37.752  31.089  29.696  1.00  0.00     0.031 C 
ATOM     42  C   UNL A   1      37.304  34.425  33.438  1.00  0.00     0.029 A 
ATOM     43  N   UNL A   1      38.901  32.874  33.635  1.00  0.00    -0.354 N 
ATOM     44  C   UNL A   1      39.425  29.824  30.611  1.00  0.00     0.074 A 
ATOM     45  C   UNL A   1      38.476  29.992  29.531  1.00  0.00     0.031 C 
ATOM     46  C   UNL A   1      37.932  34.641  34.604  1.00  0.00     0.029 A 
ATOM     47  C   UNL A   1      38.962  33.624  34.787  1.00  0.00     0.049 A 
ATOM     48  H   UNL A   1      39.506  32.119  33.452  1.00  0.00     0.167 HD
ATOM     49  C   UNL A   1      40.363  28.846  30.662  1.00  0.00     0.037 A 
ATOM     50  C   UNL A   1      39.745  33.496  35.877  1.00  0.00     0.037 A 
ATOM     51  C   UNL A   1      41.312  28.697  31.736  1.00  0.00     0.049 A 
ATOM     52  C   UNL A   1      40.763  32.390  35.919  1.00  0.00     0.074 A 
ATOM     53  C   UNL A   1      42.338  27.776  31.853  1.00  0.00     0.029 A 
ATOM     54  N   UNL A   1      41.347  29.481  32.880  1.00  0.00    -0.354 N 
ATOM     55  N   UNL A   1      41.021  31.471  35.018  1.00  0.00    -0.248 NA
ATOM     56  C   UNL A   1      41.598  32.301  37.125  1.00  0.00     0.031 C 
ATOM     57  C   UNL A   1      42.960  27.969  33.091  1.00  0.00     0.029 A 
ATOM     58  C   UNL A   1      42.358  29.045  33.722  1.00  0.00     0.049 A 
ATOM     59  H   UNL A   1      40.742  30.235  33.067  1.00  0.00     0.167 HD
ATOM     60  C   UNL A   1      42.061  30.709  35.540  1.00  0.00     0.074 A 
ATOM     61  C   UNL A   1      42.395  31.285  36.825  1.00  0.00     0.031 C 
ATOM     62  C   UNL A   1      42.680  29.629  35.002  1.00  0.00     0.037 A 
BRANCH  49  63
ATOM     63  C   UNL A   1      40.408  27.860  29.526  1.00  0.00     0.058 A 
ATOM     64  C   UNL A   1      41.295  28.016  28.449  1.00  0.00     0.135 A 
ATOM     65  C   UNL A   1      39.584  26.722  29.534  1.00  0.00     0.135 A 
ATOM     66  F   UNL A   1      42.096  29.091  28.382  1.00  0.00    -0.206 F 
ATOM     67  C   UNL A   1      41.343  27.096  27.406  1.00  0.00     0.059 A 
ATOM     68  C   UNL A   1      39.637  25.773  28.516  1.00  0.00     0.059 A 
ATOM     69  F   UNL A   1      38.719  26.522  30.540  1.00  0.00    -0.206 F 
ATOM     70  C   UNL A   1      40.510  25.978  27.448  1.00  0.00     0.060 A 
BRANCH  70  71
ATOM     71  S   UNL A   1      40.590  24.792  26.090  1.00  0.00     0.124 S 
ATOM     72  O   UNL A   1      41.244  25.582  25.052  1.00  0.00    -0.237 OA
ATOM     73  O   UNL A   1      41.390  23.714  26.664  1.00  0.00    -0.237 OA
ATOM     74  O   UNL A   1      39.190  24.465  25.840  1.00  0.00    -0.744 OA
ENDBRANCH  70  71
ENDBRANCH  49  63
BRANCH  50  75
ATOM     75  C   UNL A   1      39.600  34.447  37.011  1.00  0.00     0.058 A 
ATOM     76  C   UNL A   1      38.890  34.089  38.166  1.00  0.00     0.135 A 
ATOM     77  C   UNL A   1      40.179  35.726  36.970  1.00  0.00     0.135 A 
ATOM     78  F   UNL A   1      38.313  32.881  38.251  1.00  0.00    -0.206 F 
ATOM     79  C   UNL A   1      38.747  34.968  39.236  1.00  0.00     0.059 A 
ATOM     80  C   UNL A   1      40.071  36.612  38.037  1.00  0.00     0.059 A 
ATOM     81  F   UNL A   1      40.881  36.112  35.894  1.00  0.00    -0.206 F 
ATOM     82  C   UNL A   1      39.345  36.227  39.162  1.00  0.00     0.060 A 
BRANCH  82  83
ATOM     83  S   UNL A   1      39.196  37.340  40.577  1.00  0.00     0.124 S 
ATOM     84  O   UNL A   1      38.352  38.397  40.033  1.00  0.00    -0.237 OA
ATOM     85  O   UNL A   1      38.576  36.479  41.580  1.00  0.00    -0.237 OA
ATOM     86  O   UNL A   1      40.580  37.715  40.855  1.00  0.00    -0.744 OA
ENDBRANCH  82  83
ENDBRANCH  50  75
BRANCH  62  87
ATOM     87  C   UNL A   1      43.800  29.010  35.793  1.00  0.00     0.058 A 
ATOM     88  C   UNL A   1      45.113  29.501  35.721  1.00  0.00     0.135 A 
ATOM     89  C   UNL A   1      43.545  27.945  36.673  1.00  0.00     0.135 A 
ATOM     90  F   UNL A   1      45.411  30.512  34.890  1.00  0.00    -0.206 F 
ATOM     91  C   UNL A   1      46.139  28.944  36.477  1.00  0.00     0.059 A 
ATOM     92  C   UNL A   1      44.551  27.391  37.459  1.00  0.00     0.059 A 
ATOM     93  F   UNL A   1      42.306  27.443  36.787  1.00  0.00    -0.206 F 
ATOM     94  C   UNL A   1      45.847  27.891  37.346  1.00  0.00     0.060 A 
BRANCH  94  95
ATOM     95  S   UNL A   1      47.182  27.203  38.348  1.00  0.00     0.124 S 
ATOM     96  O   UNL A   1      48.101  28.333  38.431  1.00  0.00    -0.237 OA
ATOM     97  O   UNL A   1      46.494  26.852  39.586  1.00  0.00    -0.237 OA
ATOM     98  O   UNL A   1      47.651  26.069  37.556  1.00  0.00    -0.744 OA
ENDBRANCH  94  95
ENDBRANCH  62  87
ENDBRANCH  36  37
ENDBRANCH  28  31
ENDBRANCH  26  27
ENDBRANCH  25  26
ENDBRANCH  24  25
ENDBRANCH   3  24
TORSDOF 20
ENDMDL
MODEL 2
REMARK VINA RESULT:     -10.6      2.516      8.837
REMARK SMILES COCCCNC(=O)/C(C#N)=C/c1ccc(C(=O)NCCCNC(=O)c2ccc(-c3c4nc(c(-c5c(F)cc(S(=O)(=O)[O-])cc5F)c5ccc([nH]5)c(-c5c(F)cc(S(=O)(=O)[O-])cc5F)c5nc(c(-c6c(F)cc(S(=O)(=O)[O-])cc6F)c6ccc3[nH]6)C=C5)C=C4)cc2)cc1
REMARK SMILES IDX 17 1 18 2 19 3 16 5 13 6 14 7 93 8 15 9 92 10 12 11 9 12
REMARK SMILES IDX 7 13 6 14 8 16 5 17 4 18 3 19 2 20 1 21 10 22 11 23 20 24
REMARK SMILES IDX 21 25 22 26 23 27 24 28 25 30 26 31 27 32 91 33 28 34 90 35
REMARK SMILES IDX 29 36 30 37 31 38 84 39 32 40 89 41 83 42 85 43 33 44 88 45
REMARK SMILES IDX 82 46 81 47 34 49 68 50 47 51 67 52 48 53 51 54 66 55 86 56
REMARK SMILES IDX 49 57 50 58 65 60 87 61 52 62 35 63 36 64 45 65 37 66 38 67
REMARK SMILES IDX 44 68 46 69 39 70 40 71 41 72 42 73 43 74 69 75 70 76 79 77
REMARK SMILES IDX 71 78 72 79 78 80 80 81 73 82 74 83 75 84 76 85 77 86 53 87
REMARK SMILES IDX 54 88 63 89 55 90 56 91 62 92 64 93 57 94 58 95 59 96 60 97
REMARK SMILES IDX 61 98
REMARK H PARENT 19 4 6 15 23 29 85 48 51 59
REMARK Flexibility Score: inf
ROOT
ATOM      1  C   UNL A   1      36.763  20.852  25.045  1.00  0.00     0.251 C 
ATOM      2  O   UNL A   1      36.304  19.784  24.644  1.00  0.00    -0.269 OA
ATOM      3  N   UNL A   1      38.120  20.951  25.225  1.00  0.00    -0.352 N 
ATOM      4  H   UNL A   1      38.607  20.105  25.096  1.00  0.00     0.163 HD
ENDROOT
BRANCH   1   5
ATOM      5  C   UNL A   1      35.844  22.002  25.251  1.00  0.00     0.039 A 
ATOM      6  C   UNL A   1      34.258  24.301  25.531  1.00  0.00    -0.024 A 
ATOM      7  C   UNL A   1      34.766  23.952  24.277  1.00  0.00     0.009 A 
ATOM      8  C   UNL A   1      34.465  23.450  26.619  1.00  0.00     0.009 A 
ATOM      9  C   UNL A   1      35.559  22.808  24.141  1.00  0.00     0.014 A 
ATOM     10  C   UNL A   1      35.238  22.299  26.473  1.00  0.00     0.014 A 
BRANCH   6  11
ATOM     11  C   UNL A   1      33.542  25.564  25.705  1.00  0.00     0.033 C 
ATOM     12  C   UNL A   1      32.304  25.646  26.227  1.00  0.00     0.117 C 
BRANCH  12  13
ATOM     13  C   UNL A   1      31.681  27.006  26.420  1.00  0.00     0.261 C 
ATOM     14  N   UNL A   1      31.282  27.806  25.379  1.00  0.00    -0.351 N 
ATOM     15  H   UNL A   1      30.856  28.647  25.662  1.00  0.00     0.163 HD
ATOM     16  O   UNL A   1      31.494  27.444  27.559  1.00  0.00    -0.268 OA
BRANCH  14  17
ATOM     17  C   UNL A   1      31.370  27.644  23.929  1.00  0.00     0.118 C 
BRANCH  17  18
ATOM     18  C   UNL A   1      30.422  26.623  23.307  1.00  0.00     0.050 C 
BRANCH  18  19
ATOM     19  C   UNL A   1      31.032  25.366  22.704  1.00  0.00     0.161 C 
BRANCH  19  20
ATOM     20  O   UNL A   1      30.499  24.160  23.235  1.00  0.00    -0.385 OA
ATOM     21  C   UNL A   1      31.429  23.092  23.332  1.00  0.00     0.194 C 
ENDBRANCH  19  20
ENDBRANCH  18  19
ENDBRANCH  17  18
ENDBRANCH  14  17
ENDBRANCH  12  13
BRANCH  12  22
ATOM     22  C   UNL A   1      31.520  24.434  26.705  1.00  0.00     0.105 C 
ATOM     23  N   UNL A   1      30.871  23.429  27.102  1.00  0.00    -0.192 NA
ENDBRANCH  12  22
ENDBRANCH   6  11
ENDBRANCH   1   5
BRANCH   3  24
ATOM     24  C   UNL A   1      38.970  22.080  25.572  1.00  0.00     0.118 C 
BRANCH  24  25
ATOM     25  C   UNL A   1      39.672  21.859  26.911  1.00  0.00     0.042 C 
BRANCH  25  26
ATOM     26  C   UNL A   1      40.508  23.053  27.363  1.00  0.00     0.118 C 
BRANCH  26  27
ATOM     27  N   UNL A   1      40.966  23.856  26.238  1.00  0.00    -0.352 N 
ATOM     28  C   UNL A   1      41.117  25.216  26.130  1.00  0.00     0.251 C 
ATOM     29  H   UNL A   1      41.206  23.344  25.431  1.00  0.00     0.163 HD
ATOM     30  O   UNL A   1      41.293  25.716  25.023  1.00  0.00    -0.269 OA
BRANCH  28  31
ATOM     31  C   UNL A   1      41.054  26.078  27.331  1.00  0.00     0.039 A 
ATOM     32  C   UNL A   1      42.115  26.949  27.594  1.00  0.00     0.014 A 
ATOM     33  C   UNL A   1      39.971  26.009  28.212  1.00  0.00     0.014 A 
ATOM     34  C   UNL A   1      42.058  27.799  28.701  1.00  0.00     0.010 A 
ATOM     35  C   UNL A   1      39.883  26.906  29.276  1.00  0.00     0.010 A 
ATOM     36  C   UNL A   1      40.924  27.812  29.529  1.00  0.00    -0.014 A 
BRANCH  36  37
ATOM     37  C   UNL A   1      40.794  28.784  30.646  1.00  0.00     0.031 A 
ATOM     38  C   UNL A   1      41.644  28.645  31.879  1.00  0.00     0.074 A 
ATOM     39  C   UNL A   1      39.852  29.745  30.576  1.00  0.00     0.049 A 
ATOM     40  N   UNL A   1      41.609  29.337  32.988  1.00  0.00    -0.248 NA
ATOM     41  C   UNL A   1      42.651  27.572  31.874  1.00  0.00     0.031 C 
ATOM     42  C   UNL A   1      38.939  29.954  29.450  1.00  0.00     0.029 A 
ATOM     43  N   UNL A   1      39.493  30.717  31.477  1.00  0.00    -0.354 N 
ATOM     44  C   UNL A   1      42.576  28.781  33.816  1.00  0.00     0.074 A 
ATOM     45  C   UNL A   1      43.149  27.662  33.099  1.00  0.00     0.031 C 
ATOM     46  C   UNL A   1      38.137  30.996  29.720  1.00  0.00     0.029 A 
ATOM     47  C   UNL A   1      38.445  31.501  31.054  1.00  0.00     0.049 A 
ATOM     48  H   UNL A   1      39.944  30.842  32.343  1.00  0.00     0.167 HD
ATOM     49  C   UNL A   1      42.963  29.177  35.053  1.00  0.00     0.037 A 
ATOM     50  C   UNL A   1      37.792  32.503  31.677  1.00  0.00     0.037 A 
ATOM     51  C   UNL A   1      42.395  30.302  35.752  1.00  0.00     0.049 A 
ATOM     52  C   UNL A   1      38.225  32.909  33.058  1.00  0.00     0.074 A 
ATOM     53  C   UNL A   1      42.757  30.820  36.983  1.00  0.00     0.029 A 
ATOM     54  N   UNL A   1      41.341  31.076  35.287  1.00  0.00    -0.354 N 
ATOM     55  N   UNL A   1      39.187  32.413  33.801  1.00  0.00    -0.248 NA
ATOM     56  C   UNL A   1      37.487  34.013  33.688  1.00  0.00     0.031 C 
ATOM     57  C   UNL A   1      41.889  31.874  37.286  1.00  0.00     0.029 A 
ATOM     58  C   UNL A   1      41.020  32.049  36.221  1.00  0.00     0.049 A 
ATOM     59  H   UNL A   1      40.888  30.952  34.422  1.00  0.00     0.167 HD
ATOM     60  C   UNL A   1      39.182  33.157  34.976  1.00  0.00     0.074 A 
ATOM     61  C   UNL A   1      38.134  34.147  34.838  1.00  0.00     0.031 C 
ATOM     62  C   UNL A   1      39.973  33.030  36.070  1.00  0.00     0.037 A 
BRANCH  49  63
ATOM     63  C   UNL A   1      44.051  28.390  35.732  1.00  0.00     0.058 A 
ATOM     64  C   UNL A   1      43.761  27.322  36.597  1.00  0.00     0.135 A 
ATOM     65  C   UNL A   1      45.404  28.678  35.482  1.00  0.00     0.135 A 
ATOM     66  F   UNL A   1      42.486  27.011  36.882  1.00  0.00    -0.206 F 
ATOM     67  C   UNL A   1      44.769  26.588  37.213  1.00  0.00     0.059 A 
ATOM     68  C   UNL A   1      46.429  27.938  36.065  1.00  0.00     0.059 A 
ATOM     69  F   UNL A   1      45.740  29.686  34.663  1.00  0.00    -0.206 F 
ATOM     70  C   UNL A   1      46.101  26.904  36.941  1.00  0.00     0.060 A 
BRANCH  70  71
ATOM     71  S   UNL A   1      47.397  25.938  37.745  1.00  0.00     0.124 S 
ATOM     72  O   UNL A   1      47.635  26.721  38.954  1.00  0.00    -0.237 OA
ATOM     73  O   UNL A   1      46.744  24.647  37.945  1.00  0.00    -0.237 OA
ATOM     74  O   UNL A   1      48.482  25.945  36.770  1.00  0.00    -0.744 OA
ENDBRANCH  70  71
ENDBRANCH  49  63
BRANCH  50  75
ATOM     75  C   UNL A   1      36.665  33.191  30.994  1.00  0.00     0.058 A 
ATOM     76  C   UNL A   1      36.902  34.166  30.014  1.00  0.00     0.135 A 
ATOM     77  C   UNL A   1      35.329  32.880  31.295  1.00  0.00     0.135 A 
ATOM     78  F   UNL A   1      38.161  34.503  29.695  1.00  0.00    -0.206 F 
ATOM     79  C   UNL A   1      35.857  34.818  29.366  1.00  0.00     0.059 A 
ATOM     80  C   UNL A   1      34.268  33.499  30.643  1.00  0.00     0.059 A 
ATOM     81  F   UNL A   1      35.047  31.943  32.214  1.00  0.00    -0.206 F 
ATOM     82  C   UNL A   1      34.542  34.474  29.685  1.00  0.00     0.060 A 
BRANCH  82  83
ATOM     83  S   UNL A   1      33.195  35.290  28.801  1.00  0.00     0.124 S 
ATOM     84  O   UNL A   1      32.453  35.903  29.896  1.00  0.00    -0.237 OA
ATOM     85  O   UNL A   1      33.916  36.208  27.924  1.00  0.00    -0.237 OA
ATOM     86  O   UNL A   1      32.523  34.186  28.122  1.00  0.00    -0.744 OA
ENDBRANCH  82  83
ENDBRANCH  50  75
BRANCH  62  87
ATOM     87  C   UNL A   1      39.751  33.998  37.200  1.00  0.00     0.058 A 
ATOM     88  C   UNL A   1      38.899  33.694  38.274  1.00  0.00     0.135 A 
ATOM     89  C   UNL A   1      40.438  35.222  37.234  1.00  0.00     0.135 A 
ATOM     90  F   UNL A   1      38.212  32.540  38.287  1.00  0.00    -0.206 F 
ATOM     91  C   UNL A   1      38.720  34.580  39.331  1.00  0.00     0.059 A 
ATOM     92  C   UNL A   1      40.295  36.110  38.295  1.00  0.00     0.059 A 
ATOM     93  F   UNL A   1      41.271  35.558  36.237  1.00  0.00    -0.206 F 
ATOM     94  C   UNL A   1      39.425  35.785  39.334  1.00  0.00     0.060 A 
BRANCH  94  95
ATOM     95  S   UNL A   1      39.210  36.908  40.731  1.00  0.00     0.124 S 
ATOM     96  O   UNL A   1      38.553  36.044  41.706  1.00  0.00    -0.237 OA
ATOM     97  O   UNL A   1      40.585  37.286  41.042  1.00  0.00    -0.237 OA
ATOM     98  O   UNL A   1      38.381  37.978  40.182  1.00  0.00    -0.744 OA
ENDBRANCH  94  95
ENDBRANCH  62  87
ENDBRANCH  36  37
ENDBRANCH  28  31
ENDBRANCH  26  27
ENDBRANCH  25  26
ENDBRANCH  24  25
ENDBRANCH   3  24
TORSDOF 20
ENDMDL
MODEL 3
REMARK VINA RESULT:     -10.6      2.461      8.970
REMARK SMILES COCCCNC(=O)/C(C#N)=C/c1ccc(C(=O)NCCCNC(=O)c2ccc(-c3c4nc(c(-c5c(F)cc(S(=O)(=O)[O-])cc5F)c5ccc([nH]5)c(-c5c(F)cc(S(=O)(=O)[O-])cc5F)c5nc(c(-c6c(F)cc(S(=O)(=O)[O-])cc6F)c6ccc3[nH]6)C=C5)C=C4)cc2)cc1
REMARK SMILES IDX 17 1 18 2 19 3 16 5 13 6 14 7 93 8 15 9 92 10 12 11 9 12
REMARK SMILES IDX 7 13 6 14 8 16 5 17 4 18 3 19 2 20 1 21 10 22 11 23 20 24
REMARK SMILES IDX 21 25 22 26 23 27 24 28 25 30 26 31 27 32 91 33 28 34 90 35
REMARK SMILES IDX 29 36 30 37 31 38 84 39 32 40 89 41 83 42 85 43 33 44 88 45
REMARK SMILES IDX 82 46 81 47 34 49 68 50 47 51 67 52 48 53 51 54 66 55 86 56
REMARK SMILES IDX 49 57 50 58 65 60 87 61 52 62 35 63 36 64 45 65 37 66 38 67
REMARK SMILES IDX 44 68 46 69 39 70 40 71 41 72 42 73 43 74 69 75 70 76 79 77
REMARK SMILES IDX 71 78 72 79 78 80 80 81 73 82 74 83 75 84 76 85 77 86 53 87
REMARK SMILES IDX 54 88 63 89 55 90 56 91 62 92 64 93 57 94 58 95 59 96 60 97
REMARK SMILES IDX 61 98
REMARK H PARENT 19 4 6 15 23 29 85 48 51 59
REMARK Flexibility Score: inf
ROOT
ATOM      1  C   UNL A   1      36.949  21.096  25.246  1.00  0.00     0.251 C 
ATOM      2  O   UNL A   1      36.602  20.048  24.701  1.00  0.00    -0.269 OA
ATOM      3  N   UNL A   1      38.276  21.265  25.550  1.00  0.00    -0.352 N 
ATOM      4  H   UNL A   1      38.833  20.471  25.378  1.00  0.00     0.163 HD
ENDROOT
BRANCH   1   5
ATOM      5  C   UNL A   1      35.933  22.154  25.487  1.00  0.00     0.039 A 
ATOM      6  C   UNL A   1      33.863  23.989  25.965  1.00  0.00    -0.024 A 
ATOM      7  C   UNL A   1      34.047  22.904  26.826  1.00  0.00     0.009 A 
ATOM      8  C   UNL A   1      34.771  24.205  24.926  1.00  0.00     0.009 A 
ATOM      9  C   UNL A   1      35.077  21.990  26.584  1.00  0.00     0.014 A 
ATOM     10  C   UNL A   1      35.810  23.302  24.702  1.00  0.00     0.014 A 
BRANCH   6  11
ATOM     11  C   UNL A   1      32.710  24.872  26.135  1.00  0.00     0.033 C 
ATOM     12  C   UNL A   1      31.631  24.842  25.331  1.00  0.00     0.117 C 
BRANCH  12  13
ATOM     13  C   UNL A   1      30.469  25.755  25.634  1.00  0.00     0.261 C 
ATOM     14  N   UNL A   1      30.300  26.981  25.039  1.00  0.00    -0.351 N 
ATOM     15  H   UNL A   1      29.474  27.444  25.307  1.00  0.00     0.163 HD
ATOM     16  O   UNL A   1      29.602  25.406  26.440  1.00  0.00    -0.268 OA
BRANCH  14  17
ATOM     17  C   UNL A   1      31.117  27.727  24.084  1.00  0.00     0.118 C 
BRANCH  17  18
ATOM     18  C   UNL A   1      30.544  27.872  22.677  1.00  0.00     0.050 C 
BRANCH  18  19
ATOM     19  C   UNL A   1      29.306  28.739  22.503  1.00  0.00     0.161 C 
BRANCH  19  20
ATOM     20  O   UNL A   1      29.448  29.745  21.508  1.00  0.00    -0.385 OA
ATOM     21  C   UNL A   1      29.019  31.038  21.906  1.00  0.00     0.194 C 
ENDBRANCH  19  20
ENDBRANCH  18  19
ENDBRANCH  17  18
ENDBRANCH  14  17
ENDBRANCH  12  13
BRANCH  12  22
ATOM     22  C   UNL A   1      31.487  23.876  24.167  1.00  0.00     0.105 C 
ATOM     23  N   UNL A   1      31.367  23.074  23.201  1.00  0.00    -0.192 NA
ENDBRANCH  12  22
ENDBRANCH   6  11
ENDBRANCH   1   5
BRANCH   3  24
ATOM     24  C   UNL A   1      39.010  22.404  26.078  1.00  0.00     0.118 C 
BRANCH  24  25
ATOM     25  C   UNL A   1      40.239  21.957  26.869  1.00  0.00     0.042 C 
BRANCH  25  26
ATOM     26  C   UNL A   1      41.131  23.114  27.310  1.00  0.00     0.118 C 
BRANCH  26  27
ATOM     27  N   UNL A   1      41.403  24.040  26.221  1.00  0.00    -0.352 N 
ATOM     28  C   UNL A   1      41.344  25.412  26.195  1.00  0.00     0.251 C 
ATOM     29  H   UNL A   1      41.670  23.618  25.372  1.00  0.00     0.163 HD
ATOM     30  O   UNL A   1      41.383  25.996  25.116  1.00  0.00    -0.269 OA
BRANCH  28  31
ATOM     31  C   UNL A   1      41.221  26.183  27.451  1.00  0.00     0.039 A 
ATOM     32  C   UNL A   1      42.203  27.126  27.764  1.00  0.00     0.014 A 
ATOM     33  C   UNL A   1      40.160  25.960  28.334  1.00  0.00     0.014 A 
ATOM     34  C   UNL A   1      42.087  27.893  28.926  1.00  0.00     0.010 A 
ATOM     35  C   UNL A   1      40.008  26.773  29.456  1.00  0.00     0.010 A 
ATOM     36  C   UNL A   1      40.967  27.750  29.762  1.00  0.00    -0.014 A 
BRANCH  36  37
ATOM     37  C   UNL A   1      40.766  28.630  30.942  1.00  0.00     0.031 A 
ATOM     38  C   UNL A   1      39.718  29.708  30.918  1.00  0.00     0.074 A 
ATOM     39  C   UNL A   1      41.585  28.503  32.005  1.00  0.00     0.049 A 
ATOM     40  N   UNL A   1      39.459  30.627  31.812  1.00  0.00    -0.248 NA
ATOM     41  C   UNL A   1      38.864  29.777  29.722  1.00  0.00     0.031 C 
ATOM     42  C   UNL A   1      42.666  27.523  32.128  1.00  0.00     0.029 A 
ATOM     43  N   UNL A   1      41.648  29.213  33.179  1.00  0.00    -0.354 N 
ATOM     44  C   UNL A   1      38.423  31.390  31.285  1.00  0.00     0.074 A 
ATOM     45  C   UNL A   1      38.133  30.855  29.972  1.00  0.00     0.031 C 
ATOM     46  C   UNL A   1      43.273  27.682  33.314  1.00  0.00     0.029 A 
ATOM     47  C   UNL A   1      42.658  28.803  34.018  1.00  0.00     0.049 A 
ATOM     48  H   UNL A   1      41.029  29.945  33.400  1.00  0.00     0.167 HD
ATOM     49  C   UNL A   1      37.763  32.429  31.852  1.00  0.00     0.037 A 
ATOM     50  C   UNL A   1      43.058  29.286  35.211  1.00  0.00     0.037 A 
ATOM     51  C   UNL A   1      38.050  32.944  33.166  1.00  0.00     0.049 A 
ATOM     52  C   UNL A   1      42.324  30.455  35.809  1.00  0.00     0.074 A 
ATOM     53  C   UNL A   1      37.401  33.955  33.853  1.00  0.00     0.029 A 
ATOM     54  N   UNL A   1      39.075  32.498  33.988  1.00  0.00    -0.354 N 
ATOM     55  N   UNL A   1      41.302  31.122  35.325  1.00  0.00    -0.248 NA
ATOM     56  C   UNL A   1      42.792  30.937  37.115  1.00  0.00     0.031 C 
ATOM     57  C   UNL A   1      38.065  34.154  35.068  1.00  0.00     0.029 A 
ATOM     58  C   UNL A   1      39.095  33.233  35.163  1.00  0.00     0.049 A 
ATOM     59  H   UNL A   1      39.697  31.767  33.769  1.00  0.00     0.167 HD
ATOM     60  C   UNL A   1      40.995  32.088  36.277  1.00  0.00     0.074 A 
ATOM     61  C   UNL A   1      41.926  31.907  37.371  1.00  0.00     0.031 C 
ATOM     62  C   UNL A   1      40.030  33.041  36.246  1.00  0.00     0.037 A 
BRANCH  49  63
ATOM     63  C   UNL A   1      36.665  33.079  31.054  1.00  0.00     0.058 A 
ATOM     64  C   UNL A   1      35.309  32.865  31.352  1.00  0.00     0.135 A 
ATOM     65  C   UNL A   1      36.970  33.961  30.004  1.00  0.00     0.135 A 
ATOM     66  F   UNL A   1      34.958  32.022  32.337  1.00  0.00    -0.206 F 
ATOM     67  C   UNL A   1      34.297  33.478  30.621  1.00  0.00     0.059 A 
ATOM     68  C   UNL A   1      35.974  34.607  29.277  1.00  0.00     0.059 A 
ATOM     69  F   UNL A   1      38.249  34.203  29.676  1.00  0.00    -0.206 F 
ATOM     70  C   UNL A   1      34.639  34.347  29.584  1.00  0.00     0.060 A 
BRANCH  70  71
ATOM     71  S   UNL A   1      33.312  35.137  28.649  1.00  0.00     0.124 S 
ATOM     72  O   UNL A   1      34.068  35.996  27.743  1.00  0.00    -0.237 OA
ATOM     73  O   UNL A   1      32.646  33.995  28.030  1.00  0.00    -0.237 OA
ATOM     74  O   UNL A   1      32.539  35.831  29.673  1.00  0.00    -0.744 OA
ENDBRANCH  70  71
ENDBRANCH  49  63
BRANCH  50  75
ATOM     75  C   UNL A   1      44.206  28.661  35.918  1.00  0.00     0.058 A 
ATOM     76  C   UNL A   1      45.519  29.100  35.695  1.00  0.00     0.135 A 
ATOM     77  C   UNL A   1      44.015  27.620  36.843  1.00  0.00     0.135 A 
ATOM     78  F   UNL A   1      45.755  30.086  34.816  1.00  0.00    -0.206 F 
ATOM     79  C   UNL A   1      46.603  28.524  36.351  1.00  0.00     0.059 A 
ATOM     80  C   UNL A   1      45.079  27.048  37.530  1.00  0.00     0.059 A 
ATOM     81  F   UNL A   1      42.777  27.173  37.106  1.00  0.00    -0.206 F 
ATOM     82  C   UNL A   1      46.372  27.500  37.270  1.00  0.00     0.060 A 
BRANCH  82  83
ATOM     83  S   UNL A   1      47.780  26.795  38.154  1.00  0.00     0.124 S 
ATOM     84  O   UNL A   1      47.119  26.059  39.223  1.00  0.00    -0.237 OA
ATOM     85  O   UNL A   1      48.417  25.986  37.118  1.00  0.00    -0.237 OA
ATOM     86  O   UNL A   1      48.537  27.972  38.570  1.00  0.00    -0.744 OA
ENDBRANCH  82  83
ENDBRANCH  50  75
BRANCH  62  87
ATOM     87  C   UNL A   1      39.916  33.949  37.439  1.00  0.00     0.058 A 
ATOM     88  C   UNL A   1      40.587  35.181  37.494  1.00  0.00     0.135 A 
ATOM     89  C   UNL A   1      39.085  33.606  38.518  1.00  0.00     0.135 A 
ATOM     90  F   UNL A   1      41.400  35.553  36.493  1.00  0.00    -0.206 F 
ATOM     91  C   UNL A   1      40.455  36.031  38.587  1.00  0.00     0.059 A 
ATOM     92  C   UNL A   1      38.917  34.454  39.608  1.00  0.00     0.059 A 
ATOM     93  F   UNL A   1      38.413  32.444  38.512  1.00  0.00    -0.206 F 
ATOM     94  C   UNL A   1      39.615  35.660  39.639  1.00  0.00     0.060 A 
BRANCH  94  95
ATOM     95  S   UNL A   1      39.426  36.790  41.033  1.00  0.00     0.124 S 
ATOM     96  O   UNL A   1      40.816  37.062  41.383  1.00  0.00    -0.237 OA
ATOM     97  O   UNL A   1      38.693  37.902  40.437  1.00  0.00    -0.237 OA
ATOM     98  O   UNL A   1      38.675  36.004  42.009  1.00  0.00    -0.744 OA
ENDBRANCH  94  95
ENDBRANCH  62  87
ENDBRANCH  36  37
ENDBRANCH  28  31
ENDBRANCH  26  27
ENDBRANCH  25  26
ENDBRANCH  24  25
ENDBRANCH   3  24
TORSDOF 20
ENDMDL
