MODEL 1
REMARK VINA RESULT:     -11.2      0.000      0.000
REMARK SMILES CCCn1cc(S(=O)(=O)N[C@H]2C=C[C@@H](C(=O)NCCCNC(=O)c3ccc(-c4c5nc(c(-c6c(F)cc(S(=O)(=O)[O-])cc6F)c6ccc([nH]6)c(-c6c(F)cc(S(=O)(=O)[O-])cc6F)c6nc(c(-c7c(F)cc(S(=O)(=O)[O-])cc7F)c7ccc4[nH]7)C=C6)C=C5)cc3)C2)nc1C
REMARK SMILES IDX 18 1 17 2 15 3 16 4 14 6 11 7 12 8 90 9 13 10 10 11 7 13
REMARK SMILES IDX 8 14 9 15 6 16 4 17 5 18 92 19 91 20 93 21 3 22 2 23 1 24
REMARK SMILES IDX 19 25 20 26 21 27 22 28 23 30 24 31 25 32 89 33 26 34 88 35
REMARK SMILES IDX 27 36 28 37 29 38 82 39 30 40 87 41 81 42 83 43 31 44 86 45
REMARK SMILES IDX 80 46 79 47 32 49 66 50 45 51 65 52 46 53 49 54 64 55 84 56
REMARK SMILES IDX 47 57 48 58 63 60 85 61 50 62 33 63 34 64 43 65 35 66 36 67
REMARK SMILES IDX 42 68 44 69 37 70 38 71 39 72 40 73 41 74 67 75 68 76 77 77
REMARK SMILES IDX 69 78 70 79 76 80 78 81 71 82 72 83 73 84 74 85 75 86 51 87
REMARK SMILES IDX 52 88 61 89 53 90 54 91 60 92 62 93 55 94 56 95 57 96 58 97
REMARK SMILES IDX 59 98
REMARK H PARENT 17 5 10 12 21 29 83 48 49 59
REMARK Flexibility Score: inf
ROOT
ATOM      1  C   UNL A   1      33.981  30.150  27.407  1.00  0.00     0.117 C 
ENDROOT
BRANCH   1   2
ATOM      2  N   UNL A   1      32.894  29.269  27.800  1.00  0.00    -0.356 N 
ATOM      3  C   UNL A   1      32.146  28.376  27.094  1.00  0.00     0.226 C 
ATOM      4  O   UNL A   1      31.371  27.660  27.736  1.00  0.00    -0.274 OA
ATOM      5  H   UNL A   1      32.653  29.328  28.753  1.00  0.00     0.163 HD
BRANCH   3   6
ATOM      6  C   UNL A   1      32.237  28.216  25.574  1.00  0.00     0.103 C 
ATOM      7  C   UNL A   1      32.325  26.264  24.065  1.00  0.00     0.093 C 
ATOM      8  C   UNL A   1      30.966  26.866  24.137  1.00  0.00    -0.011 C 
ATOM      9  C   UNL A   1      33.143  27.083  25.085  1.00  0.00     0.042 C 
ATOM     10  C   UNL A   1      30.917  27.937  24.935  1.00  0.00    -0.016 C 
BRANCH   7  11
ATOM     11  N   UNL A   1      32.381  24.846  24.431  1.00  0.00    -0.203 NA
ATOM     12  H   UNL A   1      33.296  24.693  24.854  1.00  0.00     0.142 HD
BRANCH  11  13
ATOM     13  S   UNL A   1      32.182  23.631  23.276  1.00  0.00     0.260 S 
ATOM     14  O   UNL A   1      32.792  24.094  22.053  1.00  0.00    -0.205 OA
ATOM     15  O   UNL A   1      30.783  23.253  23.324  1.00  0.00    -0.205 OA
BRANCH  13  16
ATOM     16  C   UNL A   1      33.056  22.205  23.755  1.00  0.00     0.188 A 
ATOM     17  N   UNL A   1      33.535  20.164  24.383  1.00  0.00    -0.334 N 
ATOM     18  C   UNL A   1      32.551  20.923  23.800  1.00  0.00     0.129 A 
ATOM     19  C   UNL A   1      34.623  20.986  24.596  1.00  0.00     0.107 A 
ATOM     20  N   UNL A   1      34.353  22.221  24.223  1.00  0.00    -0.221 NA
ATOM     21  C   UNL A   1      35.921  20.568  25.179  1.00  0.00     0.088 C 
BRANCH  17  22
ATOM     22  C   UNL A   1      33.330  18.812  24.864  1.00  0.00     0.123 C 
BRANCH  22  23
ATOM     23  C   UNL A   1      33.836  17.698  23.949  1.00  0.00     0.018 C 
ATOM     24  C   UNL A   1      34.721  16.682  24.651  1.00  0.00     0.006 C 
ENDBRANCH  22  23
ENDBRANCH  17  22
ENDBRANCH  13  16
ENDBRANCH  11  13
ENDBRANCH   7  11
ENDBRANCH   3   6
ENDBRANCH   1   2
BRANCH   1  25
ATOM     25  C   UNL A   1      33.584  31.629  27.387  1.00  0.00     0.042 C 
BRANCH  25  26
ATOM     26  C   UNL A   1      34.635  32.527  28.008  1.00  0.00     0.118 C 
BRANCH  26  27
ATOM     27  N   UNL A   1      34.456  32.694  29.451  1.00  0.00    -0.352 N 
ATOM     28  C   UNL A   1      35.190  32.112  30.467  1.00  0.00     0.251 C 
ATOM     29  H   UNL A   1      33.726  33.292  29.731  1.00  0.00     0.163 HD
ATOM     30  O   UNL A   1      34.745  32.049  31.607  1.00  0.00    -0.269 OA
BRANCH  28  31
ATOM     31  C   UNL A   1      36.514  31.555  30.142  1.00  0.00     0.039 A 
ATOM     32  C   UNL A   1      37.629  32.376  29.969  1.00  0.00     0.014 A 
ATOM     33  C   UNL A   1      36.634  30.170  30.093  1.00  0.00     0.014 A 
ATOM     34  C   UNL A   1      38.882  31.781  29.837  1.00  0.00     0.010 A 
ATOM     35  C   UNL A   1      37.877  29.599  30.163  1.00  0.00     0.010 A 
ATOM     36  C   UNL A   1      39.004  30.387  29.966  1.00  0.00    -0.014 A 
BRANCH  36  37
ATOM     37  C   UNL A   1      40.318  29.749  29.993  1.00  0.00     0.031 A 
ATOM     38  C   UNL A   1      40.844  29.455  31.355  1.00  0.00     0.074 A 
ATOM     39  C   UNL A   1      40.928  29.263  28.889  1.00  0.00     0.049 A 
ATOM     40  N   UNL A   1      41.858  29.996  31.945  1.00  0.00    -0.248 NA
ATOM     41  C   UNL A   1      40.067  28.552  32.222  1.00  0.00     0.031 C 
ATOM     42  C   UNL A   1      40.416  29.172  27.516  1.00  0.00     0.029 A 
ATOM     43  N   UNL A   1      42.127  28.629  28.791  1.00  0.00    -0.354 N 
ATOM     44  C   UNL A   1      41.992  29.333  33.162  1.00  0.00     0.074 A 
ATOM     45  C   UNL A   1      40.764  28.604  33.359  1.00  0.00     0.031 C 
ATOM     46  C   UNL A   1      41.172  28.309  26.803  1.00  0.00     0.029 A 
ATOM     47  C   UNL A   1      42.322  27.935  27.602  1.00  0.00     0.049 A 
ATOM     48  H   UNL A   1      42.804  28.660  29.506  1.00  0.00     0.167 HD
ATOM     49  C   UNL A   1      43.195  29.240  33.794  1.00  0.00     0.037 A 
ATOM     50  C   UNL A   1      43.344  27.091  27.312  1.00  0.00     0.037 A 
ATOM     51  C   UNL A   1      44.133  30.211  33.287  1.00  0.00     0.049 A 
ATOM     52  C   UNL A   1      44.451  27.427  28.248  1.00  0.00     0.074 A 
ATOM     53  C   UNL A   1      44.110  31.588  33.153  1.00  0.00     0.029 A 
ATOM     54  N   UNL A   1      45.122  29.781  32.435  1.00  0.00    -0.354 N 
ATOM     55  N   UNL A   1      45.095  28.565  28.235  1.00  0.00    -0.248 NA
ATOM     56  C   UNL A   1      44.514  26.692  29.502  1.00  0.00     0.031 C 
ATOM     57  C   UNL A   1      44.682  31.839  31.870  1.00  0.00     0.029 A 
ATOM     58  C   UNL A   1      45.098  30.616  31.344  1.00  0.00     0.049 A 
ATOM     59  H   UNL A   1      45.731  29.020  32.579  1.00  0.00     0.167 HD
ATOM     60  C   UNL A   1      45.274  28.890  29.572  1.00  0.00     0.074 A 
ATOM     61  C   UNL A   1      44.963  27.661  30.303  1.00  0.00     0.031 C 
ATOM     62  C   UNL A   1      45.377  30.187  29.989  1.00  0.00     0.037 A 
BRANCH  49  63
ATOM     63  C   UNL A   1      43.618  28.049  34.619  1.00  0.00     0.058 A 
ATOM     64  C   UNL A   1      44.128  28.237  35.919  1.00  0.00     0.135 A 
ATOM     65  C   UNL A   1      43.780  26.750  34.085  1.00  0.00     0.135 A 
ATOM     66  F   UNL A   1      44.059  29.439  36.512  1.00  0.00    -0.206 F 
ATOM     67  C   UNL A   1      44.785  27.221  36.618  1.00  0.00     0.059 A 
ATOM     68  C   UNL A   1      44.378  25.710  34.786  1.00  0.00     0.059 A 
ATOM     69  F   UNL A   1      43.456  26.453  32.821  1.00  0.00    -0.206 F 
ATOM     70  C   UNL A   1      44.910  25.963  36.038  1.00  0.00     0.060 A 
BRANCH  70  71
ATOM     71  S   UNL A   1      45.818  24.670  36.903  1.00  0.00     0.124 S 
ATOM     72  O   UNL A   1      46.994  25.400  37.363  1.00  0.00    -0.237 OA
ATOM     73  O   UNL A   1      44.867  24.270  37.935  1.00  0.00    -0.237 OA
ATOM     74  O   UNL A   1      46.058  23.674  35.862  1.00  0.00    -0.744 OA
ENDBRANCH  70  71
ENDBRANCH  49  63
BRANCH  50  75
ATOM     75  C   UNL A   1      43.283  25.807  26.559  1.00  0.00     0.058 A 
ATOM     76  C   UNL A   1      44.072  25.605  25.413  1.00  0.00     0.135 A 
ATOM     77  C   UNL A   1      42.680  24.654  27.104  1.00  0.00     0.135 A 
ATOM     78  F   UNL A   1      44.692  26.643  24.831  1.00  0.00    -0.206 F 
ATOM     79  C   UNL A   1      44.310  24.331  24.881  1.00  0.00     0.059 A 
ATOM     80  C   UNL A   1      42.891  23.376  26.584  1.00  0.00     0.059 A 
ATOM     81  F   UNL A   1      41.941  24.716  28.220  1.00  0.00    -0.206 F 
ATOM     82  C   UNL A   1      43.735  23.218  25.492  1.00  0.00     0.060 A 
BRANCH  82  83
ATOM     83  S   UNL A   1      44.204  21.560  24.943  1.00  0.00     0.124 S 
ATOM     84  O   UNL A   1      43.046  20.769  25.345  1.00  0.00    -0.237 OA
ATOM     85  O   UNL A   1      44.381  21.747  23.507  1.00  0.00    -0.237 OA
ATOM     86  O   UNL A   1      45.432  21.291  25.687  1.00  0.00    -0.744 OA
ENDBRANCH  82  83
ENDBRANCH  50  75
BRANCH  62  87
ATOM     87  C   UNL A   1      45.567  31.277  28.959  1.00  0.00     0.058 A 
ATOM     88  C   UNL A   1      44.522  31.952  28.299  1.00  0.00     0.135 A 
ATOM     89  C   UNL A   1      46.865  31.771  28.756  1.00  0.00     0.135 A 
ATOM     90  F   UNL A   1      43.242  31.620  28.513  1.00  0.00    -0.206 F 
ATOM     91  C   UNL A   1      44.762  33.036  27.450  1.00  0.00     0.059 A 
ATOM     92  C   UNL A   1      47.124  32.870  27.940  1.00  0.00     0.059 A 
ATOM     93  F   UNL A   1      47.904  31.214  29.400  1.00  0.00    -0.206 F 
ATOM     94  C   UNL A   1      46.069  33.491  27.279  1.00  0.00     0.060 A 
BRANCH  94  95
ATOM     95  S   UNL A   1      46.372  34.934  26.237  1.00  0.00     0.124 S 
ATOM     96  O   UNL A   1      47.793  35.182  26.461  1.00  0.00    -0.237 OA
ATOM     97  O   UNL A   1      46.015  34.448  24.907  1.00  0.00    -0.237 OA
ATOM     98  O   UNL A   1      45.470  35.946  26.783  1.00  0.00    -0.744 OA
ENDBRANCH  94  95
ENDBRANCH  62  87
ENDBRANCH  36  37
ENDBRANCH  28  31
ENDBRANCH  26  27
ENDBRANCH  25  26
ENDBRANCH   1  25
TORSDOF 18
ENDMDL
MODEL 2
REMARK VINA RESULT:     -11.1      4.395      8.701
REMARK SMILES CCCn1cc(S(=O)(=O)N[C@H]2C=C[C@@H](C(=O)NCCCNC(=O)c3ccc(-c4c5nc(c(-c6c(F)cc(S(=O)(=O)[O-])cc6F)c6ccc([nH]6)c(-c6c(F)cc(S(=O)(=O)[O-])cc6F)c6nc(c(-c7c(F)cc(S(=O)(=O)[O-])cc7F)c7ccc4[nH]7)C=C6)C=C5)cc3)C2)nc1C
REMARK SMILES IDX 18 1 17 2 15 3 16 4 14 6 11 7 12 8 90 9 13 10 10 11 7 13
REMARK SMILES IDX 8 14 9 15 6 16 4 17 5 18 92 19 91 20 93 21 3 22 2 23 1 24
REMARK SMILES IDX 19 25 20 26 21 27 22 28 23 30 24 31 25 32 89 33 26 34 88 35
REMARK SMILES IDX 27 36 28 37 29 38 82 39 30 40 87 41 81 42 83 43 31 44 86 45
REMARK SMILES IDX 80 46 79 47 32 49 66 50 45 51 65 52 46 53 49 54 64 55 84 56
REMARK SMILES IDX 47 57 48 58 63 60 85 61 50 62 33 63 34 64 43 65 35 66 36 67
REMARK SMILES IDX 42 68 44 69 37 70 38 71 39 72 40 73 41 74 67 75 68 76 77 77
REMARK SMILES IDX 69 78 70 79 76 80 78 81 71 82 72 83 73 84 74 85 75 86 51 87
REMARK SMILES IDX 52 88 61 89 53 90 54 91 60 92 62 93 55 94 56 95 57 96 58 97
REMARK SMILES IDX 59 98
REMARK H PARENT 17 5 10 12 21 29 83 48 49 59
REMARK Flexibility Score: inf
ROOT
ATOM      1  C   UNL A   1      36.414  34.331  32.719  1.00  0.00     0.117 C 
ENDROOT
BRANCH   1   2
ATOM      2  N   UNL A   1      37.260  34.826  31.644  1.00  0.00    -0.356 N 
ATOM      3  C   UNL A   1      38.510  34.473  31.235  1.00  0.00     0.226 C 
ATOM      4  O   UNL A   1      38.924  34.985  30.191  1.00  0.00    -0.274 OA
ATOM      5  H   UNL A   1      36.855  35.550  31.115  1.00  0.00     0.163 HD
BRANCH   3   6
ATOM      6  C   UNL A   1      39.395  33.478  31.990  1.00  0.00     0.103 C 
ATOM      7  C   UNL A   1      39.518  32.750  34.347  1.00  0.00     0.093 C 
ATOM      8  C   UNL A   1      38.785  31.779  33.488  1.00  0.00    -0.011 C 
ATOM      9  C   UNL A   1      39.833  33.919  33.390  1.00  0.00     0.042 C 
ATOM     10  C   UNL A   1      38.735  32.156  32.208  1.00  0.00    -0.016 C 
BRANCH   7  11
ATOM     11  N   UNL A   1      38.746  33.256  35.486  1.00  0.00    -0.203 NA
ATOM     12  H   UNL A   1      39.091  34.197  35.672  1.00  0.00     0.142 HD
BRANCH  11  13
ATOM     13  S   UNL A   1      38.737  32.450  36.969  1.00  0.00     0.260 S 
ATOM     14  O   UNL A   1      39.703  31.381  36.885  1.00  0.00    -0.205 OA
ATOM     15  O   UNL A   1      37.344  32.184  37.275  1.00  0.00    -0.205 OA
BRANCH  13  16
ATOM     16  C   UNL A   1      39.286  33.515  38.229  1.00  0.00     0.188 A 
ATOM     17  N   UNL A   1      39.377  35.127  39.706  1.00  0.00    -0.334 N 
ATOM     18  C   UNL A   1      38.501  34.390  38.950  1.00  0.00     0.129 A 
ATOM     19  C   UNL A   1      40.642  34.628  39.482  1.00  0.00     0.107 A 
ATOM     20  N   UNL A   1      40.609  33.655  38.594  1.00  0.00    -0.221 NA
ATOM     21  C   UNL A   1      41.889  35.112  40.124  1.00  0.00     0.088 C 
BRANCH  17  22
ATOM     22  C   UNL A   1      39.006  36.336  40.416  1.00  0.00     0.123 C 
BRANCH  22  23
ATOM     23  C   UNL A   1      38.835  37.586  39.554  1.00  0.00     0.018 C 
ATOM     24  C   UNL A   1      39.284  38.867  40.237  1.00  0.00     0.006 C 
ENDBRANCH  22  23
ENDBRANCH  17  22
ENDBRANCH  13  16
ENDBRANCH  11  13
ENDBRANCH   7  11
ENDBRANCH   3   6
ENDBRANCH   1   2
BRANCH   1  25
ATOM     25  C   UNL A   1      35.107  33.709  32.222  1.00  0.00     0.042 C 
BRANCH  25  26
ATOM     26  C   UNL A   1      35.300  32.319  31.647  1.00  0.00     0.118 C 
BRANCH  26  27
ATOM     27  N   UNL A   1      34.441  32.062  30.490  1.00  0.00    -0.352 N 
ATOM     28  C   UNL A   1      34.827  31.693  29.215  1.00  0.00     0.251 C 
ATOM     29  H   UNL A   1      33.473  32.163  30.638  1.00  0.00     0.163 HD
ATOM     30  O   UNL A   1      34.070  31.840  28.263  1.00  0.00    -0.269 OA
BRANCH  28  31
ATOM     31  C   UNL A   1      36.177  31.135  29.028  1.00  0.00     0.039 A 
ATOM     32  C   UNL A   1      37.278  31.955  28.779  1.00  0.00     0.014 A 
ATOM     33  C   UNL A   1      36.332  29.762  29.191  1.00  0.00     0.014 A 
ATOM     34  C   UNL A   1      38.549  31.385  28.786  1.00  0.00     0.010 A 
ATOM     35  C   UNL A   1      37.584  29.246  29.394  1.00  0.00     0.010 A 
ATOM     36  C   UNL A   1      38.699  30.029  29.126  1.00  0.00    -0.014 A 
BRANCH  36  37
ATOM     37  C   UNL A   1      40.026  29.443  29.298  1.00  0.00     0.031 A 
ATOM     38  C   UNL A   1      40.450  29.258  30.715  1.00  0.00     0.074 A 
ATOM     39  C   UNL A   1      40.737  28.908  28.281  1.00  0.00     0.049 A 
ATOM     40  N   UNL A   1      41.396  29.873  31.344  1.00  0.00    -0.248 NA
ATOM     41  C   UNL A   1      39.634  28.387  31.578  1.00  0.00     0.031 C 
ATOM     42  C   UNL A   1      40.340  28.708  26.882  1.00  0.00     0.029 A 
ATOM     43  N   UNL A   1      41.960  28.313  28.321  1.00  0.00    -0.354 N 
ATOM     44  C   UNL A   1      41.452  29.297  32.609  1.00  0.00     0.074 A 
ATOM     45  C   UNL A   1      40.236  28.539  32.759  1.00  0.00     0.031 C 
ATOM     46  C   UNL A   1      41.177  27.828  26.291  1.00  0.00     0.029 A 
ATOM     47  C   UNL A   1      42.270  27.549  27.201  1.00  0.00     0.049 A 
ATOM     48  H   UNL A   1      42.575  28.415  29.082  1.00  0.00     0.167 HD
ATOM     49  C   UNL A   1      42.603  29.289  33.338  1.00  0.00     0.037 A 
ATOM     50  C   UNL A   1      43.338  26.726  27.050  1.00  0.00     0.037 A 
ATOM     51  C   UNL A   1      43.548  30.258  32.841  1.00  0.00     0.049 A 
ATOM     52  C   UNL A   1      44.355  27.162  28.045  1.00  0.00     0.074 A 
ATOM     53  C   UNL A   1      43.494  31.622  32.612  1.00  0.00     0.029 A 
ATOM     54  N   UNL A   1      44.615  29.809  32.100  1.00  0.00    -0.354 N 
ATOM     55  N   UNL A   1      44.963  28.319  28.003  1.00  0.00    -0.248 NA
ATOM     56  C   UNL A   1      44.340  26.514  29.346  1.00  0.00     0.031 C 
ATOM     57  C   UNL A   1      44.159  31.808  31.363  1.00  0.00     0.029 A 
ATOM     58  C   UNL A   1      44.653  30.569  30.956  1.00  0.00     0.049 A 
ATOM     59  H   UNL A   1      45.234  29.081  32.343  1.00  0.00     0.167 HD
ATOM     60  C   UNL A   1      45.023  28.738  29.325  1.00  0.00     0.074 A 
ATOM     61  C   UNL A   1      44.693  27.549  30.112  1.00  0.00     0.031 C 
ATOM     62  C   UNL A   1      45.053  30.062  29.659  1.00  0.00     0.037 A 
BRANCH  49  63
ATOM     63  C   UNL A   1      42.995  28.171  34.274  1.00  0.00     0.058 A 
ATOM     64  C   UNL A   1      43.311  28.454  35.617  1.00  0.00     0.135 A 
ATOM     65  C   UNL A   1      43.319  26.866  33.835  1.00  0.00     0.135 A 
ATOM     66  F   UNL A   1      43.078  29.672  36.131  1.00  0.00    -0.206 F 
ATOM     67  C   UNL A   1      43.939  27.523  36.449  1.00  0.00     0.059 A 
ATOM     68  C   UNL A   1      43.890  25.907  34.661  1.00  0.00     0.059 A 
ATOM     69  F   UNL A   1      43.189  26.491  32.557  1.00  0.00    -0.206 F 
ATOM     70  C   UNL A   1      44.230  26.254  35.957  1.00  0.00     0.060 A 
BRANCH  70  71
ATOM     71  S   UNL A   1      45.103  25.074  37.001  1.00  0.00     0.124 S 
ATOM     72  O   UNL A   1      44.201  24.973  38.142  1.00  0.00    -0.237 OA
ATOM     73  O   UNL A   1      45.177  23.901  36.136  1.00  0.00    -0.237 OA
ATOM     74  O   UNL A   1      46.379  25.735  37.259  1.00  0.00    -0.744 OA
ENDBRANCH  70  71
ENDBRANCH  49  63
BRANCH  50  75
ATOM     75  C   UNL A   1      43.377  25.394  26.384  1.00  0.00     0.058 A 
ATOM     76  C   UNL A   1      44.226  25.160  25.287  1.00  0.00     0.135 A 
ATOM     77  C   UNL A   1      42.811  24.247  26.981  1.00  0.00     0.135 A 
ATOM     78  F   UNL A   1      44.817  26.190  24.662  1.00  0.00    -0.206 F 
ATOM     79  C   UNL A   1      44.553  23.869  24.854  1.00  0.00     0.059 A 
ATOM     80  C   UNL A   1      43.111  22.951  26.558  1.00  0.00     0.059 A 
ATOM     81  F   UNL A   1      42.020  24.342  28.059  1.00  0.00    -0.206 F 
ATOM     82  C   UNL A   1      44.009  22.769  25.515  1.00  0.00     0.060 A 
BRANCH  82  83
ATOM     83  S   UNL A   1      44.588  21.105  25.099  1.00  0.00     0.124 S 
ATOM     84  O   UNL A   1      45.918  21.091  25.696  1.00  0.00    -0.237 OA
ATOM     85  O   UNL A   1      43.590  20.260  25.745  1.00  0.00    -0.237 OA
ATOM     86  O   UNL A   1      44.559  21.092  23.639  1.00  0.00    -0.744 OA
ENDBRANCH  82  83
ENDBRANCH  50  75
BRANCH  62  87
ATOM     87  C   UNL A   1      45.291  31.088  28.575  1.00  0.00     0.058 A 
ATOM     88  C   UNL A   1      44.291  31.629  27.745  1.00  0.00     0.135 A 
ATOM     89  C   UNL A   1      46.566  31.669  28.487  1.00  0.00     0.135 A 
ATOM     90  F   UNL A   1      43.021  31.213  27.832  1.00  0.00    -0.206 F 
ATOM     91  C   UNL A   1      44.557  32.666  26.846  1.00  0.00     0.059 A 
ATOM     92  C   UNL A   1      46.846  32.724  27.623  1.00  0.00     0.059 A 
ATOM     93  F   UNL A   1      47.555  31.243  29.292  1.00  0.00    -0.206 F 
ATOM     94  C   UNL A   1      45.839  33.211  26.794  1.00  0.00     0.060 A 
BRANCH  94  95
ATOM     95  S   UNL A   1      46.166  34.596  25.683  1.00  0.00     0.124 S 
ATOM     96  O   UNL A   1      45.786  35.744  26.502  1.00  0.00    -0.237 OA
ATOM     97  O   UNL A   1      47.595  34.457  25.412  1.00  0.00    -0.237 OA
ATOM     98  O   UNL A   1      45.296  34.331  24.540  1.00  0.00    -0.744 OA
ENDBRANCH  94  95
ENDBRANCH  62  87
ENDBRANCH  36  37
ENDBRANCH  28  31
ENDBRANCH  26  27
ENDBRANCH  25  26
ENDBRANCH   1  25
TORSDOF 18
ENDMDL
MODEL 3
REMARK VINA RESULT:     -11.1      1.448      2.073
REMARK SMILES CCCn1cc(S(=O)(=O)N[C@H]2C=C[C@@H](C(=O)NCCCNC(=O)c3ccc(-c4c5nc(c(-c6c(F)cc(S(=O)(=O)[O-])cc6F)c6ccc([nH]6)c(-c6c(F)cc(S(=O)(=O)[O-])cc6F)c6nc(c(-c7c(F)cc(S(=O)(=O)[O-])cc7F)c7ccc4[nH]7)C=C6)C=C5)cc3)C2)nc1C
REMARK SMILES IDX 18 1 17 2 15 3 16 4 14 6 11 7 12 8 90 9 13 10 10 11 7 13
REMARK SMILES IDX 8 14 9 15 6 16 4 17 5 18 92 19 91 20 93 21 3 22 2 23 1 24
REMARK SMILES IDX 19 25 20 26 21 27 22 28 23 30 24 31 25 32 89 33 26 34 88 35
REMARK SMILES IDX 27 36 28 37 29 38 82 39 30 40 87 41 81 42 83 43 31 44 86 45
REMARK SMILES IDX 80 46 79 47 32 49 66 50 45 51 65 52 46 53 49 54 64 55 84 56
REMARK SMILES IDX 47 57 48 58 63 60 85 61 50 62 33 63 34 64 43 65 35 66 36 67
REMARK SMILES IDX 42 68 44 69 37 70 38 71 39 72 40 73 41 74 67 75 68 76 77 77
REMARK SMILES IDX 69 78 70 79 76 80 78 81 71 82 72 83 73 84 74 85 75 86 51 87
REMARK SMILES IDX 52 88 61 89 53 90 54 91 60 92 62 93 55 94 56 95 57 96 58 97
REMARK SMILES IDX 59 98
REMARK H PARENT 17 5 10 12 21 29 83 48 49 59
REMARK Flexibility Score: inf
ROOT
ATOM      1  C   UNL A   1      35.066  30.756  27.723  1.00  0.00     0.117 C 
ENDROOT
BRANCH   1   2
ATOM      2  N   UNL A   1      34.035  29.756  27.952  1.00  0.00    -0.356 N 
ATOM      3  C   UNL A   1      33.136  29.168  27.115  1.00  0.00     0.226 C 
ATOM      4  O   UNL A   1      32.464  28.240  27.575  1.00  0.00    -0.274 OA
ATOM      5  H   UNL A   1      33.974  29.448  28.885  1.00  0.00     0.163 HD
BRANCH   3   6
ATOM      6  C   UNL A   1      32.942  29.590  25.656  1.00  0.00     0.103 C 
ATOM      7  C   UNL A   1      32.244  28.394  23.612  1.00  0.00     0.093 C 
ATOM      8  C   UNL A   1      31.136  29.186  24.214  1.00  0.00    -0.011 C 
ATOM      9  C   UNL A   1      33.406  28.573  24.610  1.00  0.00     0.042 C 
ATOM     10  C   UNL A   1      31.514  29.853  25.308  1.00  0.00    -0.016 C 
BRANCH   7  11
ATOM     11  N   UNL A   1      31.956  26.965  23.459  1.00  0.00    -0.203 NA
ATOM     12  H   UNL A   1      32.074  26.547  24.382  1.00  0.00     0.142 HD
BRANCH  11  13
ATOM     13  S   UNL A   1      32.831  26.001  22.384  1.00  0.00     0.260 S 
ATOM     14  O   UNL A   1      33.783  26.855  21.716  1.00  0.00    -0.205 OA
ATOM     15  O   UNL A   1      31.850  25.238  21.637  1.00  0.00    -0.205 OA
BRANCH  13  16
ATOM     16  C   UNL A   1      33.757  24.819  23.262  1.00  0.00     0.188 A 
ATOM     17  N   UNL A   1      34.635  23.642  24.884  1.00  0.00    -0.334 N 
ATOM     18  C   UNL A   1      33.594  24.486  24.590  1.00  0.00     0.129 A 
ATOM     19  C   UNL A   1      35.341  23.431  23.719  1.00  0.00     0.107 A 
ATOM     20  N   UNL A   1      34.826  24.132  22.729  1.00  0.00    -0.221 NA
ATOM     21  C   UNL A   1      36.530  22.555  23.575  1.00  0.00     0.088 C 
BRANCH  17  22
ATOM     22  C   UNL A   1      35.002  23.258  26.233  1.00  0.00     0.123 C 
BRANCH  22  23
ATOM     23  C   UNL A   1      34.698  21.810  26.617  1.00  0.00     0.018 C 
ATOM     24  C   UNL A   1      33.485  21.230  25.908  1.00  0.00     0.006 C 
ENDBRANCH  22  23
ENDBRANCH  17  22
ENDBRANCH  13  16
ENDBRANCH  11  13
ENDBRANCH   7  11
ENDBRANCH   3   6
ENDBRANCH   1   2
BRANCH   1  25
ATOM     25  C   UNL A   1      34.540  32.192  27.785  1.00  0.00     0.042 C 
BRANCH  25  26
ATOM     26  C   UNL A   1      35.322  33.062  28.749  1.00  0.00     0.118 C 
BRANCH  26  27
ATOM     27  N   UNL A   1      34.650  33.223  30.039  1.00  0.00    -0.352 N 
ATOM     28  C   UNL A   1      34.888  32.529  31.210  1.00  0.00     0.251 C 
ATOM     29  H   UNL A   1      33.944  33.909  30.077  1.00  0.00     0.163 HD
ATOM     30  O   UNL A   1      34.054  32.505  32.107  1.00  0.00    -0.269 OA
BRANCH  28  31
ATOM     31  C   UNL A   1      36.165  31.807  31.346  1.00  0.00     0.039 A 
ATOM     32  C   UNL A   1      36.250  30.430  31.141  1.00  0.00     0.014 A 
ATOM     33  C   UNL A   1      37.304  32.561  31.608  1.00  0.00     0.014 A 
ATOM     34  C   UNL A   1      37.510  29.836  31.111  1.00  0.00     0.010 A 
ATOM     35  C   UNL A   1      38.540  32.013  31.382  1.00  0.00     0.010 A 
ATOM     36  C   UNL A   1      38.657  30.641  31.203  1.00  0.00    -0.014 A 
BRANCH  36  37
ATOM     37  C   UNL A   1      39.989  30.071  31.016  1.00  0.00     0.031 A 
ATOM     38  C   UNL A   1      40.708  29.730  32.276  1.00  0.00     0.074 A 
ATOM     39  C   UNL A   1      40.465  29.678  29.813  1.00  0.00     0.049 A 
ATOM     40  N   UNL A   1      41.768  30.289  32.758  1.00  0.00    -0.248 NA
ATOM     41  C   UNL A   1      40.095  28.743  33.182  1.00  0.00     0.031 C 
ATOM     42  C   UNL A   1      39.776  29.636  28.517  1.00  0.00     0.029 A 
ATOM     43  N   UNL A   1      41.666  29.113  29.519  1.00  0.00    -0.354 N 
ATOM     44  C   UNL A   1      42.094  29.568  33.903  1.00  0.00     0.074 A 
ATOM     45  C   UNL A   1      40.937  28.768  34.217  1.00  0.00     0.031 C 
ATOM     46  C   UNL A   1      40.465  28.853  27.659  1.00  0.00     0.029 A 
ATOM     47  C   UNL A   1      41.728  28.495  28.274  1.00  0.00     0.049 A 
ATOM     48  H   UNL A   1      42.431  29.139  30.137  1.00  0.00     0.167 HD
ATOM     49  C   UNL A   1      43.375  29.503  34.363  1.00  0.00     0.037 A 
ATOM     50  C   UNL A   1      42.737  27.722  27.800  1.00  0.00     0.037 A 
ATOM     51  C   UNL A   1      44.192  30.546  33.797  1.00  0.00     0.049 A 
ATOM     52  C   UNL A   1      43.945  28.062  28.600  1.00  0.00     0.074 A 
ATOM     53  C   UNL A   1      44.092  31.926  33.751  1.00  0.00     0.029 A 
ATOM     54  N   UNL A   1      45.075  30.214  32.796  1.00  0.00    -0.354 N 
ATOM     55  N   UNL A   1      44.531  29.230  28.570  1.00  0.00    -0.248 NA
ATOM     56  C   UNL A   1      44.208  27.263  29.786  1.00  0.00     0.031 C 
ATOM     57  C   UNL A   1      44.473  32.275  32.421  1.00  0.00     0.029 A 
ATOM     58  C   UNL A   1      44.867  31.105  31.770  1.00  0.00     0.049 A 
ATOM     59  H   UNL A   1      45.730  29.478  32.811  1.00  0.00     0.167 HD
ATOM     60  C   UNL A   1      44.875  29.490  29.889  1.00  0.00     0.074 A 
ATOM     61  C   UNL A   1      44.720  28.209  30.578  1.00  0.00     0.031 C 
ATOM     62  C   UNL A   1      44.978  30.766  30.367  1.00  0.00     0.037 A 
BRANCH  49  63
ATOM     63  C   UNL A   1      43.957  28.291  35.051  1.00  0.00     0.058 A 
ATOM     64  C   UNL A   1      44.648  28.436  36.270  1.00  0.00     0.135 A 
ATOM     65  C   UNL A   1      44.082  27.027  34.428  1.00  0.00     0.135 A 
ATOM     66  F   UNL A   1      44.626  29.604  36.931  1.00  0.00    -0.206 F 
ATOM     67  C   UNL A   1      45.436  27.416  36.808  1.00  0.00     0.059 A 
ATOM     68  C   UNL A   1      44.813  25.981  34.975  1.00  0.00     0.059 A 
ATOM     69  F   UNL A   1      43.583  26.780  33.211  1.00  0.00    -0.206 F 
ATOM     70  C   UNL A   1      45.516  26.194  36.148  1.00  0.00     0.060 A 
BRANCH  70  71
ATOM     71  S   UNL A   1      46.587  24.900  36.798  1.00  0.00     0.124 S 
ATOM     72  O   UNL A   1      46.702  24.013  35.646  1.00  0.00    -0.237 OA
ATOM     73  O   UNL A   1      47.788  25.649  37.152  1.00  0.00    -0.237 OA
ATOM     74  O   UNL A   1      45.829  24.374  37.929  1.00  0.00    -0.744 OA
ENDBRANCH  70  71
ENDBRANCH  49  63
BRANCH  50  75
ATOM     75  C   UNL A   1      42.629  26.479  26.985  1.00  0.00     0.058 A 
ATOM     76  C   UNL A   1      43.385  26.320  25.810  1.00  0.00     0.135 A 
ATOM     77  C   UNL A   1      42.016  25.312  27.486  1.00  0.00     0.135 A 
ATOM     78  F   UNL A   1      44.013  27.374  25.265  1.00  0.00    -0.206 F 
ATOM     79  C   UNL A   1      43.582  25.071  25.209  1.00  0.00     0.059 A 
ATOM     80  C   UNL A   1      42.187  24.058  26.897  1.00  0.00     0.059 A 
ATOM     81  F   UNL A   1      41.305  25.332  28.623  1.00  0.00    -0.206 F 
ATOM     82  C   UNL A   1      42.999  23.940  25.777  1.00  0.00     0.060 A 
BRANCH  82  83
ATOM     83  S   UNL A   1      43.419  22.302  25.133  1.00  0.00     0.124 S 
ATOM     84  O   UNL A   1      43.630  22.580  23.717  1.00  0.00    -0.237 OA
ATOM     85  O   UNL A   1      44.611  21.963  25.901  1.00  0.00    -0.237 OA
ATOM     86  O   UNL A   1      42.236  21.503  25.441  1.00  0.00    -0.744 OA
ENDBRANCH  82  83
ENDBRANCH  50  75
BRANCH  62  87
ATOM     87  C   UNL A   1      44.979  31.918  29.389  1.00  0.00     0.058 A 
ATOM     88  C   UNL A   1      46.104  32.361  28.667  1.00  0.00     0.135 A 
ATOM     89  C   UNL A   1      43.743  32.492  29.047  1.00  0.00     0.135 A 
ATOM     90  F   UNL A   1      47.306  31.798  28.849  1.00  0.00    -0.206 F 
ATOM     91  C   UNL A   1      46.010  33.351  27.686  1.00  0.00     0.059 A 
ATOM     92  C   UNL A   1      43.621  33.456  28.050  1.00  0.00     0.059 A 
ATOM     93  F   UNL A   1      42.619  32.075  29.653  1.00  0.00    -0.206 F 
ATOM     94  C   UNL A   1      44.761  33.892  27.381  1.00  0.00     0.060 A 
BRANCH  94  95
ATOM     95  S   UNL A   1      44.628  35.122  26.065  1.00  0.00     0.124 S 
ATOM     96  O   UNL A   1      44.336  36.342  26.812  1.00  0.00    -0.237 OA
ATOM     97  O   UNL A   1      45.946  35.062  25.438  1.00  0.00    -0.237 OA
ATOM     98  O   UNL A   1      43.533  34.621  25.238  1.00  0.00    -0.744 OA
ENDBRANCH  94  95
ENDBRANCH  62  87
ENDBRANCH  36  37
ENDBRANCH  28  31
ENDBRANCH  26  27
ENDBRANCH  25  26
ENDBRANCH   1  25
TORSDOF 18
ENDMDL
