MODEL 1
REMARK VINA RESULT:     -12.7      0.000      0.000
REMARK SMILES COc1ccc([C@H]2[NH2+][C@@H](C(=O)NCCCNC(=O)c3ccc(-c4c5nc(c(-c6c(F)cc(S(=O)(=O)[O-])cc6F)c6ccc([nH]6)c(-c6c(F)cc(S(=O)(=O)[O-])cc6F)c6nc(c(-c7c(F)cc(S(=O)(=O)[O-])cc7F)c7ccc4[nH]7)C=C6)C=C5)cc3)CC3=c4ccccc4=N[C@H]32)cc1Cn1cc([N+](=O)[O-])cn1
REMARK SMILES IDX 13 1 12 2 10 3 11 4 9 6 7 7 8 8 94 9 86 12 93 13 85 14 87 15
REMARK SMILES IDX 92 16 88 17 91 18 89 19 90 20 6 21 3 22 4 23 96 24 5 25
REMARK SMILES IDX 95 26 2 27 1 28 97 29 98 30 99 31 105 32 100 33 104 34
REMARK SMILES IDX 101 35 102 36 103 37 14 38 15 39 16 40 17 41 18 43 19 44
REMARK SMILES IDX 20 45 84 46 21 47 83 48 22 49 23 50 24 51 77 52 25 53 82 54
REMARK SMILES IDX 76 55 78 56 26 57 81 58 75 59 74 60 27 62 61 63 40 64 60 65
REMARK SMILES IDX 41 66 44 67 59 68 79 69 42 70 43 71 58 73 80 74 45 75 28 76
REMARK SMILES IDX 29 77 38 78 30 79 31 80 37 81 39 82 32 83 33 84 34 85 35 86
REMARK SMILES IDX 36 87 62 88 63 89 72 90 64 91 65 92 71 93 73 94 66 95 67 96
REMARK SMILES IDX 68 97 69 98 70 99 46 100 47 101 56 102 48 103 49 104 55 105
REMARK SMILES IDX 57 106 50 107 51 108 52 109 53 110 54 111
REMARK H PARENT 12 5 8 10 8 11 16 42 78 61 44 72
REMARK Flexibility Score: inf
ROOT
ATOM      1  C   UNL A   1      31.265  27.905  27.470  1.00  0.00     0.118 C 
ENDROOT
BRANCH   1   2
ATOM      2  N   UNL A   1      31.934  26.680  27.081  1.00  0.00    -0.351 N 
ATOM      3  C   UNL A   1      31.390  25.538  26.590  1.00  0.00     0.278 C 
ATOM      4  O   UNL A   1      31.878  24.486  27.015  1.00  0.00    -0.268 OA
ATOM      5  H   UNL A   1      32.913  26.676  27.187  1.00  0.00     0.163 HD
BRANCH   3   6
ATOM      6  C   UNL A   1      30.183  25.536  25.622  1.00  0.00     0.277 C 
ATOM      7  C   UNL A   1      31.036  24.210  23.589  1.00  0.00     0.243 C 
ATOM      8  N   UNL A   1      30.168  24.261  24.818  1.00  0.00    -0.327 N 
ATOM      9  C   UNL A   1      30.805  25.548  22.721  1.00  0.00     0.196 C 
ATOM     10  H   UNL A   1      30.467  23.505  25.436  1.00  0.00     0.347 HD
ATOM     11  H   UNL A   1      29.213  24.183  24.469  1.00  0.00     0.347 HD
ATOM     12  C   UNL A   1      30.969  26.736  23.611  1.00  0.00    -0.024 C 
ATOM     13  N   UNL A   1      31.752  25.819  21.601  1.00  0.00    -0.270 NA
ATOM     14  C   UNL A   1      30.015  26.778  24.736  1.00  0.00     0.109 C 
ATOM     15  C   UNL A   1      32.022  27.470  23.283  1.00  0.00     0.002 A 
ATOM     16  C   UNL A   1      32.439  26.841  22.023  1.00  0.00     0.066 A 
ATOM     17  C   UNL A   1      32.743  28.559  23.851  1.00  0.00     0.010 A 
ATOM     18  C   UNL A   1      33.639  27.415  21.372  1.00  0.00     0.028 A 
ATOM     19  C   UNL A   1      33.878  28.965  23.259  1.00  0.00     0.001 A 
ATOM     20  C   UNL A   1      34.324  28.383  22.006  1.00  0.00     0.002 A 
BRANCH   7  21
ATOM     21  C   UNL A   1      32.487  23.714  23.833  1.00  0.00     0.012 A 
ATOM     22  C   UNL A   1      35.056  22.571  24.357  1.00  0.00     0.123 A 
ATOM     23  C   UNL A   1      34.915  23.700  23.542  1.00  0.00     0.047 A 
ATOM     24  C   UNL A   1      33.947  22.070  25.034  1.00  0.00     0.016 A 
ATOM     25  C   UNL A   1      33.649  24.267  23.294  1.00  0.00     0.014 A 
ATOM     26  C   UNL A   1      32.722  22.711  24.780  1.00  0.00     0.019 A 
BRANCH  22  27
ATOM     27  O   UNL A   1      36.328  22.100  24.538  1.00  0.00    -0.496 OA
ATOM     28  C   UNL A   1      37.267  23.107  24.916  1.00  0.00     0.278 C 
ENDBRANCH  22  27
BRANCH  24  29
ATOM     29  C   UNL A   1      33.961  20.812  25.872  1.00  0.00     0.183 C 
BRANCH  29  30
ATOM     30  N   UNL A   1      33.556  19.552  25.227  1.00  0.00    -0.261 N 
ATOM     31  C   UNL A   1      34.340  18.532  24.757  1.00  0.00     0.194 A 
ATOM     32  N   UNL A   1      32.252  19.176  25.318  1.00  0.00    -0.174 NA
ATOM     33  C   UNL A   1      33.494  17.508  24.401  1.00  0.00     0.307 A 
ATOM     34  C   UNL A   1      32.224  17.947  24.793  1.00  0.00     0.220 A 
BRANCH  33  35
ATOM     35  N   UNL A   1      33.862  16.263  23.806  1.00  0.00     0.066 N 
ATOM     36  O   UNL A   1      33.742  15.253  24.510  1.00  0.00    -0.258 OA
ATOM     37  O   UNL A   1      34.273  16.289  22.639  1.00  0.00    -0.258 OA
ENDBRANCH  33  35
ENDBRANCH  29  30
ENDBRANCH  24  29
ENDBRANCH   7  21
ENDBRANCH   3   6
ENDBRANCH   1   2
BRANCH   1  38
ATOM     38  C   UNL A   1      31.772  29.110  26.699  1.00  0.00     0.042 C 
BRANCH  38  39
ATOM     39  C   UNL A   1      33.103  29.659  27.184  1.00  0.00     0.118 C 
BRANCH  39  40
ATOM     40  N   UNL A   1      33.134  31.112  27.296  1.00  0.00    -0.352 N 
ATOM     41  C   UNL A   1      34.106  31.932  27.822  1.00  0.00     0.251 C 
ATOM     42  H   UNL A   1      32.341  31.577  26.941  1.00  0.00     0.163 HD
ATOM     43  O   UNL A   1      33.890  33.134  27.946  1.00  0.00    -0.269 OA
BRANCH  41  44
ATOM     44  C   UNL A   1      35.386  31.347  28.276  1.00  0.00     0.039 A 
ATOM     45  C   UNL A   1      36.555  32.105  28.182  1.00  0.00     0.014 A 
ATOM     46  C   UNL A   1      35.421  30.075  28.850  1.00  0.00     0.014 A 
ATOM     47  C   UNL A   1      37.734  31.627  28.761  1.00  0.00     0.010 A 
ATOM     48  C   UNL A   1      36.561  29.655  29.526  1.00  0.00     0.010 A 
ATOM     49  C   UNL A   1      37.732  30.425  29.489  1.00  0.00    -0.014 A 
BRANCH  49  50
ATOM     50  C   UNL A   1      38.936  29.951  30.221  1.00  0.00     0.031 A 
ATOM     51  C   UNL A   1      39.300  30.570  31.546  1.00  0.00     0.074 A 
ATOM     52  C   UNL A   1      39.746  29.032  29.656  1.00  0.00     0.049 A 
ATOM     53  N   UNL A   1      40.356  30.365  32.289  1.00  0.00    -0.248 NA
ATOM     54  C   UNL A   1      38.373  31.576  32.092  1.00  0.00     0.031 C 
ATOM     55  C   UNL A   1      39.537  28.402  28.349  1.00  0.00     0.029 A 
ATOM     56  N   UNL A   1      40.918  28.473  30.103  1.00  0.00    -0.354 N 
ATOM     57  C   UNL A   1      40.236  31.233  33.367  1.00  0.00     0.074 A 
ATOM     58  C   UNL A   1      39.031  32.003  33.161  1.00  0.00     0.031 C 
ATOM     59  C   UNL A   1      40.527  27.525  28.116  1.00  0.00     0.029 A 
ATOM     60  C   UNL A   1      41.466  27.558  29.233  1.00  0.00     0.049 A 
ATOM     61  H   UNL A   1      41.329  28.705  30.967  1.00  0.00     0.167 HD
ATOM     62  C   UNL A   1      41.043  31.360  34.447  1.00  0.00     0.037 A 
ATOM     63  C   UNL A   1      42.599  26.834  29.321  1.00  0.00     0.037 A 
ATOM     64  C   UNL A   1      42.211  30.552  34.675  1.00  0.00     0.049 A 
ATOM     65  C   UNL A   1      43.468  26.985  30.541  1.00  0.00     0.074 A 
ATOM     66  C   UNL A   1      43.041  30.538  35.783  1.00  0.00     0.029 A 
ATOM     67  N   UNL A   1      42.715  29.615  33.785  1.00  0.00    -0.354 N 
ATOM     68  N   UNL A   1      43.291  27.751  31.591  1.00  0.00    -0.248 NA
ATOM     69  C   UNL A   1      44.691  26.170  30.592  1.00  0.00     0.031 C 
ATOM     70  C   UNL A   1      44.074  29.627  35.542  1.00  0.00     0.029 A 
ATOM     71  C   UNL A   1      43.858  29.036  34.308  1.00  0.00     0.049 A 
ATOM     72  H   UNL A   1      42.317  29.395  32.912  1.00  0.00     0.167 HD
ATOM     73  C   UNL A   1      44.360  27.485  32.440  1.00  0.00     0.074 A 
ATOM     74  C   UNL A   1      45.172  26.479  31.786  1.00  0.00     0.031 C 
ATOM     75  C   UNL A   1      44.644  28.023  33.651  1.00  0.00     0.037 A 
BRANCH  62  76
ATOM     76  C   UNL A   1      40.690  32.398  35.476  1.00  0.00     0.058 A 
ATOM     77  C   UNL A   1      39.743  32.149  36.481  1.00  0.00     0.135 A 
ATOM     78  C   UNL A   1      41.360  33.632  35.498  1.00  0.00     0.135 A 
ATOM     79  F   UNL A   1      39.059  30.994  36.496  1.00  0.00    -0.206 F 
ATOM     80  C   UNL A   1      39.461  33.092  37.464  1.00  0.00     0.059 A 
ATOM     81  C   UNL A   1      41.115  34.579  36.488  1.00  0.00     0.059 A 
ATOM     82  F   UNL A   1      42.272  33.923  34.557  1.00  0.00    -0.206 F 
ATOM     83  C   UNL A   1      40.157  34.302  37.463  1.00  0.00     0.060 A 
BRANCH  83  84
ATOM     84  S   UNL A   1      39.809  35.496  38.770  1.00  0.00     0.124 S 
ATOM     85  O   UNL A   1      39.473  36.686  37.993  1.00  0.00    -0.237 OA
ATOM     86  O   UNL A   1      38.697  34.868  39.477  1.00  0.00    -0.237 OA
ATOM     87  O   UNL A   1      41.063  35.566  39.513  1.00  0.00    -0.744 OA
ENDBRANCH  83  84
ENDBRANCH  62  76
BRANCH  63  88
ATOM     88  C   UNL A   1      42.976  25.884  28.238  1.00  0.00     0.058 A 
ATOM     89  C   UNL A   1      42.446  24.586  28.205  1.00  0.00     0.135 A 
ATOM     90  C   UNL A   1      43.889  26.243  27.234  1.00  0.00     0.135 A 
ATOM     91  F   UNL A   1      41.573  24.193  29.145  1.00  0.00    -0.206 F 
ATOM     92  C   UNL A   1      42.831  23.664  27.236  1.00  0.00     0.059 A 
ATOM     93  C   UNL A   1      44.268  25.348  26.238  1.00  0.00     0.059 A 
ATOM     94  F   UNL A   1      44.411  27.478  27.207  1.00  0.00    -0.206 F 
ATOM     95  C   UNL A   1      43.747  24.054  26.258  1.00  0.00     0.060 A 
BRANCH  95  96
ATOM     96  S   UNL A   1      44.229  22.856  24.996  1.00  0.00     0.124 S 
ATOM     97  O   UNL A   1      44.950  23.701  24.051  1.00  0.00    -0.237 OA
ATOM     98  O   UNL A   1      45.039  21.914  25.759  1.00  0.00    -0.237 OA
ATOM     99  O   UNL A   1      42.949  22.333  24.527  1.00  0.00    -0.744 OA
ENDBRANCH  95  96
ENDBRANCH  63  88
BRANCH  75 100
ATOM    100  C   UNL A   1      45.857  27.506  34.373  1.00  0.00     0.058 A 
ATOM    101  C   UNL A   1      47.112  28.119  34.241  1.00  0.00     0.135 A 
ATOM    102  C   UNL A   1      45.746  26.416  35.253  1.00  0.00     0.135 A 
ATOM    103  F   UNL A   1      47.272  29.160  33.409  1.00  0.00    -0.206 F 
ATOM    104  C   UNL A   1      48.223  27.654  34.938  1.00  0.00     0.059 A 
ATOM    105  C   UNL A   1      46.837  25.954  35.982  1.00  0.00     0.059 A 
ATOM    106  F   UNL A   1      44.565  25.803  35.424  1.00  0.00    -0.206 F 
ATOM    107  C   UNL A   1      48.074  26.572  35.809  1.00  0.00     0.060 A 
BRANCH 107 108
ATOM    108  S   UNL A   1      49.514  26.002  36.735  1.00  0.00     0.124 S 
ATOM    109  O   UNL A   1      48.927  24.977  37.591  1.00  0.00    -0.237 OA
ATOM    110  O   UNL A   1      50.394  25.518  35.677  1.00  0.00    -0.237 OA
ATOM    111  O   UNL A   1      49.975  27.206  37.422  1.00  0.00    -0.744 OA
ENDBRANCH 107 108
ENDBRANCH  75 100
ENDBRANCH  49  50
ENDBRANCH  41  44
ENDBRANCH  39  40
ENDBRANCH  38  39
ENDBRANCH   1  38
TORSDOF 18
ENDMDL
MODEL 2
REMARK VINA RESULT:     -12.5      2.918      3.621
REMARK SMILES COc1ccc([C@H]2[NH2+][C@@H](C(=O)NCCCNC(=O)c3ccc(-c4c5nc(c(-c6c(F)cc(S(=O)(=O)[O-])cc6F)c6ccc([nH]6)c(-c6c(F)cc(S(=O)(=O)[O-])cc6F)c6nc(c(-c7c(F)cc(S(=O)(=O)[O-])cc7F)c7ccc4[nH]7)C=C6)C=C5)cc3)CC3=c4ccccc4=N[C@H]32)cc1Cn1cc([N+](=O)[O-])cn1
REMARK SMILES IDX 13 1 12 2 10 3 11 4 9 6 7 7 8 8 94 9 86 12 93 13 85 14 87 15
REMARK SMILES IDX 92 16 88 17 91 18 89 19 90 20 6 21 3 22 4 23 96 24 5 25
REMARK SMILES IDX 95 26 2 27 1 28 97 29 98 30 99 31 105 32 100 33 104 34
REMARK SMILES IDX 101 35 102 36 103 37 14 38 15 39 16 40 17 41 18 43 19 44
REMARK SMILES IDX 20 45 84 46 21 47 83 48 22 49 23 50 24 51 77 52 25 53 82 54
REMARK SMILES IDX 76 55 78 56 26 57 81 58 75 59 74 60 27 62 61 63 40 64 60 65
REMARK SMILES IDX 41 66 44 67 59 68 79 69 42 70 43 71 58 73 80 74 45 75 28 76
REMARK SMILES IDX 29 77 38 78 30 79 31 80 37 81 39 82 32 83 33 84 34 85 35 86
REMARK SMILES IDX 36 87 62 88 63 89 72 90 64 91 65 92 71 93 73 94 66 95 67 96
REMARK SMILES IDX 68 97 69 98 70 99 46 100 47 101 56 102 48 103 49 104 55 105
REMARK SMILES IDX 57 106 50 107 51 108 52 109 53 110 54 111
REMARK H PARENT 12 5 8 10 8 11 16 42 78 61 44 72
REMARK Flexibility Score: inf
ROOT
ATOM      1  C   UNL A   1      31.122  27.591  27.114  1.00  0.00     0.118 C 
ENDROOT
BRANCH   1   2
ATOM      2  N   UNL A   1      31.773  26.297  27.139  1.00  0.00    -0.351 N 
ATOM      3  C   UNL A   1      31.225  25.070  26.956  1.00  0.00     0.278 C 
ATOM      4  O   UNL A   1      31.648  24.176  27.697  1.00  0.00    -0.268 OA
ATOM      5  H   UNL A   1      32.742  26.310  27.313  1.00  0.00     0.163 HD
BRANCH   3   6
ATOM      6  C   UNL A   1      30.084  24.807  25.944  1.00  0.00     0.277 C 
ATOM      7  C   UNL A   1      31.182  23.305  24.167  1.00  0.00     0.243 C 
ATOM      8  N   UNL A   1      30.240  23.437  25.334  1.00  0.00    -0.327 N 
ATOM      9  C   UNL A   1      30.876  24.477  23.104  1.00  0.00     0.196 C 
ATOM     10  H   UNL A   1      30.572  22.811  26.068  1.00  0.00     0.347 HD
ATOM     11  H   UNL A   1      29.320  23.212  24.956  1.00  0.00     0.347 HD
ATOM     12  C   UNL A   1      30.872  25.788  23.818  1.00  0.00    -0.024 C 
ATOM     13  N   UNL A   1      31.859  24.684  22.001  1.00  0.00    -0.270 NA
ATOM     14  C   UNL A   1      29.852  25.888  24.879  1.00  0.00     0.109 C 
ATOM     15  C   UNL A   1      31.868  26.575  23.435  1.00  0.00     0.002 A 
ATOM     16  C   UNL A   1      32.418  25.821  22.301  1.00  0.00     0.066 A 
ATOM     17  C   UNL A   1      32.445  27.800  23.872  1.00  0.00     0.010 A 
ATOM     18  C   UNL A   1      33.596  26.420  21.629  1.00  0.00     0.028 A 
ATOM     19  C   UNL A   1      33.569  28.235  23.279  1.00  0.00     0.001 A 
ATOM     20  C   UNL A   1      34.145  27.533  22.147  1.00  0.00     0.002 A 
BRANCH   7  21
ATOM     21  C   UNL A   1      32.657  23.001  24.547  1.00  0.00     0.012 A 
ATOM     22  C   UNL A   1      35.360  22.235  25.084  1.00  0.00     0.123 A 
ATOM     23  C   UNL A   1      34.902  23.528  25.359  1.00  0.00     0.047 A 
ATOM     24  C   UNL A   1      34.456  21.262  24.666  1.00  0.00     0.016 A 
ATOM     25  C   UNL A   1      33.567  23.900  25.103  1.00  0.00     0.014 A 
ATOM     26  C   UNL A   1      33.129  21.686  24.475  1.00  0.00     0.019 A 
BRANCH  22  27
ATOM     27  O   UNL A   1      36.671  21.974  25.373  1.00  0.00    -0.496 OA
ATOM     28  C   UNL A   1      37.544  22.093  24.249  1.00  0.00     0.278 C 
ENDBRANCH  22  27
BRANCH  24  29
ATOM     29  C   UNL A   1      34.846  19.858  24.261  1.00  0.00     0.183 C 
BRANCH  29  30
ATOM     30  N   UNL A   1      33.996  18.748  24.724  1.00  0.00    -0.261 N 
ATOM     31  C   UNL A   1      34.203  17.399  24.613  1.00  0.00     0.194 A 
ATOM     32  N   UNL A   1      33.001  19.028  25.608  1.00  0.00    -0.174 NA
ATOM     33  C   UNL A   1      33.216  16.781  25.345  1.00  0.00     0.307 A 
ATOM     34  C   UNL A   1      32.522  17.831  25.958  1.00  0.00     0.220 A 
BRANCH  33  35
ATOM     35  N   UNL A   1      32.999  15.375  25.472  1.00  0.00     0.066 N 
ATOM     36  O   UNL A   1      33.986  14.644  25.326  1.00  0.00    -0.258 OA
ATOM     37  O   UNL A   1      31.846  14.997  25.714  1.00  0.00    -0.258 OA
ENDBRANCH  33  35
ENDBRANCH  29  30
ENDBRANCH  24  29
ENDBRANCH   7  21
ENDBRANCH   3   6
ENDBRANCH   1   2
BRANCH   1  38
ATOM     38  C   UNL A   1      32.013  28.675  26.537  1.00  0.00     0.042 C 
BRANCH  38  39
ATOM     39  C   UNL A   1      33.236  29.004  27.378  1.00  0.00     0.118 C 
BRANCH  39  40
ATOM     40  N   UNL A   1      33.323  30.408  27.762  1.00  0.00    -0.352 N 
ATOM     41  C   UNL A   1      34.377  31.103  28.312  1.00  0.00     0.251 C 
ATOM     42  H   UNL A   1      32.509  30.938  27.603  1.00  0.00     0.163 HD
ATOM     43  O   UNL A   1      34.214  32.260  28.690  1.00  0.00    -0.269 OA
BRANCH  41  44
ATOM     44  C   UNL A   1      35.683  30.433  28.483  1.00  0.00     0.039 A 
ATOM     45  C   UNL A   1      36.597  30.436  27.426  1.00  0.00     0.014 A 
ATOM     46  C   UNL A   1      36.030  29.857  29.706  1.00  0.00     0.014 A 
ATOM     47  C   UNL A   1      37.892  29.955  27.635  1.00  0.00     0.010 A 
ATOM     48  C   UNL A   1      37.349  29.489  29.945  1.00  0.00     0.010 A 
ATOM     49  C   UNL A   1      38.297  29.532  28.912  1.00  0.00    -0.014 A 
BRANCH  49  50
ATOM     50  C   UNL A   1      39.700  29.133  29.197  1.00  0.00     0.031 A 
ATOM     51  C   UNL A   1      40.657  30.131  29.797  1.00  0.00     0.074 A 
ATOM     52  C   UNL A   1      40.136  27.908  28.836  1.00  0.00     0.049 A 
ATOM     53  N   UNL A   1      41.938  30.009  30.028  1.00  0.00    -0.248 NA
ATOM     54  C   UNL A   1      40.110  31.452  30.151  1.00  0.00     0.031 C 
ATOM     55  C   UNL A   1      39.323  26.872  28.190  1.00  0.00     0.029 A 
ATOM     56  N   UNL A   1      41.374  27.326  28.950  1.00  0.00    -0.354 N 
ATOM     57  C   UNL A   1      42.354  31.238  30.524  1.00  0.00     0.074 A 
ATOM     58  C   UNL A   1      41.201  32.111  30.515  1.00  0.00     0.031 C 
ATOM     59  C   UNL A   1      40.075  25.777  27.995  1.00  0.00     0.029 A 
ATOM     60  C   UNL A   1      41.433  26.042  28.459  1.00  0.00     0.049 A 
ATOM     61  H   UNL A   1      42.149  27.786  29.347  1.00  0.00     0.167 HD
ATOM     62  C   UNL A   1      43.578  31.601  30.971  1.00  0.00     0.037 A 
ATOM     63  C   UNL A   1      42.466  25.179  28.384  1.00  0.00     0.037 A 
ATOM     64  C   UNL A   1      44.707  30.712  31.030  1.00  0.00     0.049 A 
ATOM     65  C   UNL A   1      43.813  25.605  28.904  1.00  0.00     0.074 A 
ATOM     66  C   UNL A   1      45.965  30.955  31.555  1.00  0.00     0.029 A 
ATOM     67  N   UNL A   1      44.718  29.410  30.552  1.00  0.00    -0.354 N 
ATOM     68  N   UNL A   1      44.164  26.746  29.449  1.00  0.00    -0.248 NA
ATOM     69  C   UNL A   1      44.905  24.626  28.804  1.00  0.00     0.031 C 
ATOM     70  C   UNL A   1      46.750  29.818  31.350  1.00  0.00     0.029 A 
ATOM     71  C   UNL A   1      45.968  28.847  30.746  1.00  0.00     0.049 A 
ATOM     72  H   UNL A   1      43.951  28.955  30.137  1.00  0.00     0.167 HD
ATOM     73  C   UNL A   1      45.505  26.608  29.786  1.00  0.00     0.074 A 
ATOM     74  C   UNL A   1      45.900  25.271  29.395  1.00  0.00     0.031 C 
ATOM     75  C   UNL A   1      46.337  27.507  30.367  1.00  0.00     0.037 A 
BRANCH  62  76
ATOM     76  C   UNL A   1      43.767  33.014  31.449  1.00  0.00     0.058 A 
ATOM     77  C   UNL A   1      44.246  34.024  30.599  1.00  0.00     0.135 A 
ATOM     78  C   UNL A   1      43.397  33.377  32.754  1.00  0.00     0.135 A 
ATOM     79  F   UNL A   1      44.631  33.729  29.348  1.00  0.00    -0.206 F 
ATOM     80  C   UNL A   1      44.364  35.341  31.030  1.00  0.00     0.059 A 
ATOM     81  C   UNL A   1      43.482  34.694  33.199  1.00  0.00     0.059 A 
ATOM     82  F   UNL A   1      42.938  32.449  33.609  1.00  0.00    -0.206 F 
ATOM     83  C   UNL A   1      43.974  35.667  32.330  1.00  0.00     0.060 A 
BRANCH  83  84
ATOM     84  S   UNL A   1      44.097  37.388  32.860  1.00  0.00     0.124 S 
ATOM     85  O   UNL A   1      45.468  37.440  33.358  1.00  0.00    -0.237 OA
ATOM     86  O   UNL A   1      43.847  38.114  31.619  1.00  0.00    -0.237 OA
ATOM     87  O   UNL A   1      43.055  37.508  33.875  1.00  0.00    -0.744 OA
ENDBRANCH  83  84
ENDBRANCH  62  76
BRANCH  63  88
ATOM     88  C   UNL A   1      42.273  23.817  27.814  1.00  0.00     0.058 A 
ATOM     89  C   UNL A   1      42.216  22.691  28.649  1.00  0.00     0.135 A 
ATOM     90  C   UNL A   1      42.169  23.610  26.430  1.00  0.00     0.135 A 
ATOM     91  F   UNL A   1      42.315  22.836  29.979  1.00  0.00    -0.206 F 
ATOM     92  C   UNL A   1      42.096  21.404  28.133  1.00  0.00     0.059 A 
ATOM     93  C   UNL A   1      42.020  22.335  25.891  1.00  0.00     0.059 A 
ATOM     94  F   UNL A   1      42.198  24.654  25.588  1.00  0.00    -0.206 F 
ATOM     95  C   UNL A   1      42.003  21.237  26.750  1.00  0.00     0.060 A 
BRANCH  95  96
ATOM     96  S   UNL A   1      41.833  19.564  26.090  1.00  0.00     0.124 S 
ATOM     97  O   UNL A   1      42.287  18.757  27.216  1.00  0.00    -0.237 OA
ATOM     98  O   UNL A   1      40.407  19.497  25.788  1.00  0.00    -0.237 OA
ATOM     99  O   UNL A   1      42.712  19.575  24.924  1.00  0.00    -0.744 OA
ENDBRANCH  95  96
ENDBRANCH  63  88
BRANCH  75 100
ATOM    100  C   UNL A   1      47.743  27.064  30.660  1.00  0.00     0.058 A 
ATOM    101  C   UNL A   1      48.752  27.114  29.686  1.00  0.00     0.135 A 
ATOM    102  C   UNL A   1      48.097  26.636  31.951  1.00  0.00     0.135 A 
ATOM    103  F   UNL A   1      48.465  27.509  28.436  1.00  0.00    -0.206 F 
ATOM    104  C   UNL A   1      50.058  26.732  29.974  1.00  0.00     0.059 A 
ATOM    105  C   UNL A   1      49.403  26.279  32.268  1.00  0.00     0.059 A 
ATOM    106  F   UNL A   1      47.172  26.582  32.921  1.00  0.00    -0.206 F 
ATOM    107  C   UNL A   1      50.374  26.319  31.270  1.00  0.00     0.060 A 
BRANCH 107 108
ATOM    108  S   UNL A   1      52.080  25.862  31.640  1.00  0.00     0.124 S 
ATOM    109  O   UNL A   1      52.763  26.255  30.411  1.00  0.00    -0.237 OA
ATOM    110  O   UNL A   1      52.374  26.674  32.816  1.00  0.00    -0.237 OA
ATOM    111  O   UNL A   1      52.002  24.424  31.882  1.00  0.00    -0.744 OA
ENDBRANCH 107 108
ENDBRANCH  75 100
ENDBRANCH  49  50
ENDBRANCH  41  44
ENDBRANCH  39  40
ENDBRANCH  38  39
ENDBRANCH   1  38
TORSDOF 18
ENDMDL
MODEL 3
REMARK VINA RESULT:     -12.3      4.813      6.268
REMARK SMILES COc1ccc([C@H]2[NH2+][C@@H](C(=O)NCCCNC(=O)c3ccc(-c4c5nc(c(-c6c(F)cc(S(=O)(=O)[O-])cc6F)c6ccc([nH]6)c(-c6c(F)cc(S(=O)(=O)[O-])cc6F)c6nc(c(-c7c(F)cc(S(=O)(=O)[O-])cc7F)c7ccc4[nH]7)C=C6)C=C5)cc3)CC3=c4ccccc4=N[C@H]32)cc1Cn1cc([N+](=O)[O-])cn1
REMARK SMILES IDX 13 1 12 2 10 3 11 4 9 6 7 7 8 8 94 9 86 12 93 13 85 14 87 15
REMARK SMILES IDX 92 16 88 17 91 18 89 19 90 20 6 21 3 22 4 23 96 24 5 25
REMARK SMILES IDX 95 26 2 27 1 28 97 29 98 30 99 31 105 32 100 33 104 34
REMARK SMILES IDX 101 35 102 36 103 37 14 38 15 39 16 40 17 41 18 43 19 44
REMARK SMILES IDX 20 45 84 46 21 47 83 48 22 49 23 50 24 51 77 52 25 53 82 54
REMARK SMILES IDX 76 55 78 56 26 57 81 58 75 59 74 60 27 62 61 63 40 64 60 65
REMARK SMILES IDX 41 66 44 67 59 68 79 69 42 70 43 71 58 73 80 74 45 75 28 76
REMARK SMILES IDX 29 77 38 78 30 79 31 80 37 81 39 82 32 83 33 84 34 85 35 86
REMARK SMILES IDX 36 87 62 88 63 89 72 90 64 91 65 92 71 93 73 94 66 95 67 96
REMARK SMILES IDX 68 97 69 98 70 99 46 100 47 101 56 102 48 103 49 104 55 105
REMARK SMILES IDX 57 106 50 107 51 108 52 109 53 110 54 111
REMARK H PARENT 12 5 8 10 8 11 16 42 78 61 44 72
REMARK Flexibility Score: inf
ROOT
ATOM      1  C   UNL A   1      33.194  30.832  26.910  1.00  0.00     0.118 C 
ENDROOT
BRANCH   1   2
ATOM      2  N   UNL A   1      33.602  29.446  26.795  1.00  0.00    -0.351 N 
ATOM      3  C   UNL A   1      32.886  28.328  27.072  1.00  0.00     0.278 C 
ATOM      4  O   UNL A   1      33.508  27.417  27.630  1.00  0.00    -0.268 OA
ATOM      5  H   UNL A   1      34.521  29.297  26.474  1.00  0.00     0.163 HD
BRANCH   3   6
ATOM      6  C   UNL A   1      31.370  28.213  26.787  1.00  0.00     0.277 C 
ATOM      7  C   UNL A   1      31.088  25.798  25.948  1.00  0.00     0.243 C 
ATOM      8  N   UNL A   1      30.899  26.806  27.050  1.00  0.00    -0.327 N 
ATOM      9  C   UNL A   1      30.567  26.426  24.559  1.00  0.00     0.196 C 
ATOM     10  H   UNL A   1      31.401  26.463  27.869  1.00  0.00     0.347 HD
ATOM     11  H   UNL A   1      29.889  26.885  27.164  1.00  0.00     0.347 HD
ATOM     12  C   UNL A   1      31.203  27.762  24.364  1.00  0.00    -0.024 C 
ATOM     13  N   UNL A   1      30.897  25.695  23.301  1.00  0.00    -0.270 NA
ATOM     14  C   UNL A   1      30.889  28.737  25.426  1.00  0.00     0.109 C 
ATOM     15  C   UNL A   1      32.027  27.782  23.326  1.00  0.00     0.002 A 
ATOM     16  C   UNL A   1      31.766  26.470  22.719  1.00  0.00     0.066 A 
ATOM     17  C   UNL A   1      32.999  28.675  22.792  1.00  0.00     0.010 A 
ATOM     18  C   UNL A   1      32.559  26.140  21.511  1.00  0.00     0.028 A 
ATOM     19  C   UNL A   1      33.750  28.271  21.754  1.00  0.00     0.001 A 
ATOM     20  C   UNL A   1      33.522  26.989  21.112  1.00  0.00     0.002 A 
BRANCH   7  21
ATOM     21  C   UNL A   1      32.451  25.052  25.971  1.00  0.00     0.012 A 
ATOM     22  C   UNL A   1      34.822  23.454  25.997  1.00  0.00     0.123 A 
ATOM     23  C   UNL A   1      34.864  24.811  25.661  1.00  0.00     0.047 A 
ATOM     24  C   UNL A   1      33.631  22.896  26.456  1.00  0.00     0.016 A 
ATOM     25  C   UNL A   1      33.695  25.599  25.658  1.00  0.00     0.014 A 
ATOM     26  C   UNL A   1      32.513  23.748  26.475  1.00  0.00     0.019 A 
BRANCH  22  27
ATOM     27  O   UNL A   1      36.012  22.779  25.974  1.00  0.00    -0.496 OA
ATOM     28  C   UNL A   1      36.993  23.369  25.120  1.00  0.00     0.278 C 
ENDBRANCH  22  27
BRANCH  24  29
ATOM     29  C   UNL A   1      33.446  21.429  26.769  1.00  0.00     0.183 C 
BRANCH  29  30
ATOM     30  N   UNL A   1      33.293  20.500  25.637  1.00  0.00    -0.261 N 
ATOM     31  C   UNL A   1      34.015  19.374  25.341  1.00  0.00     0.194 A 
ATOM     32  N   UNL A   1      32.147  20.562  24.906  1.00  0.00    -0.174 NA
ATOM     33  C   UNL A   1      33.384  18.759  24.285  1.00  0.00     0.307 A 
ATOM     34  C   UNL A   1      32.227  19.517  24.076  1.00  0.00     0.220 A 
BRANCH  33  35
ATOM     35  N   UNL A   1      33.814  17.582  23.601  1.00  0.00     0.066 N 
ATOM     36  O   UNL A   1      34.783  16.982  24.080  1.00  0.00    -0.258 OA
ATOM     37  O   UNL A   1      33.189  17.254  22.584  1.00  0.00    -0.258 OA
ENDBRANCH  33  35
ENDBRANCH  29  30
ENDBRANCH  24  29
ENDBRANCH   7  21
ENDBRANCH   3   6
ENDBRANCH   1   2
BRANCH   1  38
ATOM     38  C   UNL A   1      34.210  31.673  27.659  1.00  0.00     0.042 C 
BRANCH  38  39
ATOM     39  C   UNL A   1      35.275  30.876  28.393  1.00  0.00     0.118 C 
BRANCH  39  40
ATOM     40  N   UNL A   1      35.402  31.225  29.803  1.00  0.00    -0.352 N 
ATOM     41  C   UNL A   1      36.417  30.940  30.689  1.00  0.00     0.251 C 
ATOM     42  H   UNL A   1      34.652  31.741  30.177  1.00  0.00     0.163 HD
ATOM     43  O   UNL A   1      36.280  31.209  31.880  1.00  0.00    -0.269 OA
BRANCH  41  44
ATOM     44  C   UNL A   1      37.643  30.271  30.205  1.00  0.00     0.039 A 
ATOM     45  C   UNL A   1      38.001  30.391  28.860  1.00  0.00     0.014 A 
ATOM     46  C   UNL A   1      38.471  29.580  31.091  1.00  0.00     0.014 A 
ATOM     47  C   UNL A   1      39.239  29.907  28.432  1.00  0.00     0.010 A 
ATOM     48  C   UNL A   1      39.748  29.205  30.690  1.00  0.00     0.010 A 
ATOM     49  C   UNL A   1      40.149  29.363  29.355  1.00  0.00    -0.014 A 
BRANCH  49  50
ATOM     50  C   UNL A   1      41.521  28.954  28.956  1.00  0.00     0.031 A 
ATOM     51  C   UNL A   1      42.626  29.976  28.915  1.00  0.00     0.074 A 
ATOM     52  C   UNL A   1      41.751  27.689  28.546  1.00  0.00     0.049 A 
ATOM     53  N   UNL A   1      43.860  29.841  28.502  1.00  0.00    -0.248 NA
ATOM     54  C   UNL A   1      42.294  31.340  29.364  1.00  0.00     0.031 C 
ATOM     55  C   UNL A   1      40.749  26.620  28.480  1.00  0.00     0.029 A 
ATOM     56  N   UNL A   1      42.899  27.086  28.096  1.00  0.00    -0.354 N 
ATOM     57  C   UNL A   1      44.438  31.100  28.613  1.00  0.00     0.074 A 
ATOM     58  C   UNL A   1      43.409  31.999  29.085  1.00  0.00     0.031 C 
ATOM     59  C   UNL A   1      41.334  25.491  28.048  1.00  0.00     0.029 A 
ATOM     60  C   UNL A   1      42.739  25.761  27.763  1.00  0.00     0.049 A 
ATOM     61  H   UNL A   1      43.760  27.560  28.018  1.00  0.00     0.167 HD
ATOM     62  C   UNL A   1      45.717  31.469  28.369  1.00  0.00     0.037 A 
ATOM     63  C   UNL A   1      43.622  24.866  27.276  1.00  0.00     0.037 A 
ATOM     64  C   UNL A   1      46.750  30.558  27.954  1.00  0.00     0.049 A 
ATOM     65  C   UNL A   1      45.042  25.302  27.030  1.00  0.00     0.074 A 
ATOM     66  C   UNL A   1      48.098  30.815  27.772  1.00  0.00     0.029 A 
ATOM     67  N   UNL A   1      46.554  29.218  27.657  1.00  0.00    -0.354 N 
ATOM     68  N   UNL A   1      45.590  26.479  27.223  1.00  0.00    -0.248 NA
ATOM     69  C   UNL A   1      45.968  24.289  26.503  1.00  0.00     0.031 C 
ATOM     70  C   UNL A   1      48.708  29.642  27.319  1.00  0.00     0.029 A 
ATOM     71  C   UNL A   1      47.751  28.642  27.269  1.00  0.00     0.049 A 
ATOM     72  H   UNL A   1      45.692  28.747  27.714  1.00  0.00     0.167 HD
ATOM     73  C   UNL A   1      46.928  26.337  26.874  1.00  0.00     0.074 A 
ATOM     74  C   UNL A   1      47.110  24.958  26.468  1.00  0.00     0.031 C 
ATOM     75  C   UNL A   1      47.918  27.263  26.887  1.00  0.00     0.037 A 
BRANCH  62  76
ATOM     76  C   UNL A   1      46.084  32.915  28.557  1.00  0.00     0.058 A 
ATOM     77  C   UNL A   1      46.554  33.404  29.786  1.00  0.00     0.135 A 
ATOM     78  C   UNL A   1      46.031  33.808  27.474  1.00  0.00     0.135 A 
ATOM     79  F   UNL A   1      46.607  32.599  30.859  1.00  0.00    -0.206 F 
ATOM     80  C   UNL A   1      46.946  34.730  29.939  1.00  0.00     0.059 A 
ATOM     81  C   UNL A   1      46.444  35.131  27.596  1.00  0.00     0.059 A 
ATOM     82  F   UNL A   1      45.584  33.393  26.278  1.00  0.00    -0.206 F 
ATOM     83  C   UNL A   1      46.893  35.584  28.836  1.00  0.00     0.060 A 
BRANCH  83  84
ATOM     84  S   UNL A   1      47.443  37.290  29.042  1.00  0.00     0.124 S 
ATOM     85  O   UNL A   1      47.406  37.433  30.495  1.00  0.00    -0.237 OA
ATOM     86  O   UNL A   1      48.774  37.263  28.443  1.00  0.00    -0.237 OA
ATOM     87  O   UNL A   1      46.444  38.062  28.310  1.00  0.00    -0.744 OA
ENDBRANCH  83  84
ENDBRANCH  62  76
BRANCH  63  88
ATOM     88  C   UNL A   1      43.206  23.463  27.005  1.00  0.00     0.058 A 
ATOM     89  C   UNL A   1      43.019  22.553  28.056  1.00  0.00     0.135 A 
ATOM     90  C   UNL A   1      43.012  22.996  25.695  1.00  0.00     0.135 A 
ATOM     91  F   UNL A   1      43.196  22.949  29.326  1.00  0.00    -0.206 F 
ATOM     92  C   UNL A   1      42.688  21.222  27.821  1.00  0.00     0.059 A 
ATOM     93  C   UNL A   1      42.653  21.677  25.436  1.00  0.00     0.059 A 
ATOM     94  F   UNL A   1      43.158  23.830  24.654  1.00  0.00    -0.206 F 
ATOM     95  C   UNL A   1      42.511  20.793  26.505  1.00  0.00     0.060 A 
BRANCH  95  96
ATOM     96  S   UNL A   1      42.066  19.067  26.209  1.00  0.00     0.124 S 
ATOM     97  O   UNL A   1      42.333  18.469  27.511  1.00  0.00    -0.237 OA
ATOM     98  O   UNL A   1      40.662  19.173  25.829  1.00  0.00    -0.237 OA
ATOM     99  O   UNL A   1      42.970  18.670  25.133  1.00  0.00    -0.744 OA
ENDBRANCH  95  96
ENDBRANCH  63  88
BRANCH  75 100
ATOM    100  C   UNL A   1      49.297  26.810  26.497  1.00  0.00     0.058 A 
ATOM    101  C   UNL A   1      50.177  26.235  27.427  1.00  0.00     0.135 A 
ATOM    102  C   UNL A   1      49.720  26.901  25.161  1.00  0.00     0.135 A 
ATOM    103  F   UNL A   1      49.823  26.131  28.717  1.00  0.00    -0.206 F 
ATOM    104  C   UNL A   1      51.439  25.789  27.051  1.00  0.00     0.059 A 
ATOM    105  C   UNL A   1      50.967  26.433  24.757  1.00  0.00     0.059 A 
ATOM    106  F   UNL A   1      48.912  27.431  24.230  1.00  0.00    -0.206 F 
ATOM    107  C   UNL A   1      51.824  25.890  25.712  1.00  0.00     0.060 A 
BRANCH 107 108
ATOM    108  S   UNL A   1      53.450  25.273  25.231  1.00  0.00     0.124 S 
ATOM    109  O   UNL A   1      53.532  25.713  23.841  1.00  0.00    -0.237 OA
ATOM    110  O   UNL A   1      54.335  25.960  26.166  1.00  0.00    -0.237 OA
ATOM    111  O   UNL A   1      53.339  23.830  25.427  1.00  0.00    -0.744 OA
ENDBRANCH 107 108
ENDBRANCH  75 100
ENDBRANCH  49  50
ENDBRANCH  41  44
ENDBRANCH  39  40
ENDBRANCH  38  39
ENDBRANCH   1  38
TORSDOF 18
ENDMDL
