MODEL 1
REMARK VINA RESULT:     -13.0      0.000      0.000
REMARK SMILES Cc1cccc2nc([C@@H]3CCCC[C@@H]3C(=O)NCCCNC(=O)c3ccc(-c4c5nc(c(-c6c(F)cc(S(=O)(=O)[O-])cc6F)c6ccc([nH]6)c(-c6c(F)cc(S(=O)(=O)[O-])cc6F)c6nc(c(-c7c(F)cc(S(=O)(=O)[O-])cc7F)c7ccc4[nH]7)C=C6)C=C5)cc3)oc12
REMARK SMILES IDX 20 1 19 2 18 3 17 4 15 5 16 6 14 8 9 9 10 10 11 11 13 12
REMARK SMILES IDX 12 13 8 14 1 15 2 16 3 17 91 18 4 19 6 20 90 21 5 22 7 23
REMARK SMILES IDX 21 24 22 25 23 27 24 28 25 29 89 30 26 31 88 32 27 33 28 34
REMARK SMILES IDX 29 35 82 36 30 37 87 38 81 39 83 40 31 41 86 42 80 43 79 44
REMARK SMILES IDX 32 46 66 47 45 48 65 49 46 50 49 51 64 52 84 53 47 54 48 55
REMARK SMILES IDX 63 57 85 58 50 59 33 60 34 61 43 62 35 63 36 64 42 65 44 66
REMARK SMILES IDX 37 67 38 68 39 69 40 70 41 71 67 72 68 73 77 74 69 75 70 76
REMARK SMILES IDX 76 77 78 78 71 79 72 80 73 81 74 82 75 83 51 84 52 85 61 86
REMARK SMILES IDX 53 87 54 88 60 89 62 90 55 91 56 92 57 93 58 94 59 95
REMARK H PARENT 17 7 21 26 83 45 49 56
REMARK Flexibility Score: inf
ROOT
ATOM      1  C   UNL A   1      39.752  22.013  26.648  1.00  0.00     0.118 C 
ENDROOT
BRANCH   1   2
ATOM      2  C   UNL A   1      38.557  21.877  25.719  1.00  0.00     0.042 C 
BRANCH   2   3
ATOM      3  C   UNL A   1      37.727  23.157  25.612  1.00  0.00     0.117 C 
BRANCH   3   4
ATOM      4  N   UNL A   1      36.555  23.156  26.481  1.00  0.00    -0.356 N 
ATOM      5  C   UNL A   1      35.233  22.918  26.253  1.00  0.00     0.223 C 
ATOM      6  O   UNL A   1      34.469  23.045  27.211  1.00  0.00    -0.275 OA
ATOM      7  H   UNL A   1      36.761  23.368  27.420  1.00  0.00     0.163 HD
BRANCH   5   8
ATOM      8  C   UNL A   1      34.744  22.431  24.890  1.00  0.00     0.091 C 
ATOM      9  C   UNL A   1      33.414  23.070  24.434  1.00  0.00     0.088 C 
ATOM     10  C   UNL A   1      32.192  22.542  25.194  1.00  0.00     0.014 C 
ATOM     11  C   UNL A   1      32.109  21.021  25.129  1.00  0.00     0.001 C 
ATOM     12  C   UNL A   1      34.634  20.890  24.930  1.00  0.00     0.014 C 
ATOM     13  C   UNL A   1      33.383  20.364  25.641  1.00  0.00     0.001 C 
BRANCH   9  14
ATOM     14  C   UNL A   1      33.457  24.564  24.461  1.00  0.00     0.199 A 
ATOM     15  C   UNL A   1      31.429  27.448  27.059  1.00  0.00     0.048 C 
ATOM     16  C   UNL A   1      32.260  27.593  25.825  1.00  0.00    -0.006 A 
ATOM     17  C   UNL A   1      32.462  28.843  25.209  1.00  0.00     0.007 A 
ATOM     18  C   UNL A   1      32.874  26.519  25.174  1.00  0.00     0.157 A 
ATOM     19  C   UNL A   1      33.257  28.990  24.063  1.00  0.00     0.003 A 
ATOM     20  C   UNL A   1      33.664  26.628  24.039  1.00  0.00     0.110 A 
ATOM     21  O   UNL A   1      32.753  25.186  25.465  1.00  0.00    -0.440 OA
ATOM     22  C   UNL A   1      33.891  27.888  23.478  1.00  0.00     0.032 A 
ATOM     23  N   UNL A   1      34.039  25.383  23.610  1.00  0.00    -0.213 NA
ENDBRANCH   9  14
ENDBRANCH   5   8
ENDBRANCH   3   4
ENDBRANCH   2   3
ENDBRANCH   1   2
BRANCH   1  24
ATOM     24  N   UNL A   1      41.032  21.831  25.977  1.00  0.00    -0.352 N 
ATOM     25  C   UNL A   1      41.972  22.793  25.679  1.00  0.00     0.251 C 
ATOM     26  H   UNL A   1      41.251  20.911  25.704  1.00  0.00     0.163 HD
ATOM     27  O   UNL A   1      42.821  22.550  24.816  1.00  0.00    -0.269 OA
BRANCH  25  28
ATOM     28  C   UNL A   1      41.983  24.095  26.385  1.00  0.00     0.039 A 
ATOM     29  C   UNL A   1      42.633  24.223  27.619  1.00  0.00     0.014 A 
ATOM     30  C   UNL A   1      41.263  25.176  25.871  1.00  0.00     0.014 A 
ATOM     31  C   UNL A   1      42.544  25.424  28.322  1.00  0.00     0.010 A 
ATOM     32  C   UNL A   1      41.273  26.397  26.499  1.00  0.00     0.010 A 
ATOM     33  C   UNL A   1      41.840  26.497  27.759  1.00  0.00    -0.014 A 
BRANCH  33  34
ATOM     34  C   UNL A   1      41.698  27.762  28.462  1.00  0.00     0.031 A 
ATOM     35  C   UNL A   1      42.781  28.742  28.199  1.00  0.00     0.074 A 
ATOM     36  C   UNL A   1      40.558  28.100  29.105  1.00  0.00     0.049 A 
ATOM     37  N   UNL A   1      43.679  29.170  29.021  1.00  0.00    -0.248 NA
ATOM     38  C   UNL A   1      42.973  29.201  26.813  1.00  0.00     0.031 C 
ATOM     39  C   UNL A   1      39.285  27.367  29.144  1.00  0.00     0.029 A 
ATOM     40  N   UNL A   1      40.263  29.243  29.778  1.00  0.00    -0.354 N 
ATOM     41  C   UNL A   1      44.417  30.118  28.318  1.00  0.00     0.074 A 
ATOM     42  C   UNL A   1      44.063  29.961  26.929  1.00  0.00     0.031 C 
ATOM     43  C   UNL A   1      38.308  28.179  29.608  1.00  0.00     0.029 A 
ATOM     44  C   UNL A   1      38.911  29.421  30.053  1.00  0.00     0.049 A 
ATOM     45  H   UNL A   1      40.950  29.893  30.051  1.00  0.00     0.167 HD
ATOM     46  C   UNL A   1      45.089  31.116  28.954  1.00  0.00     0.037 A 
ATOM     47  C   UNL A   1      38.335  30.531  30.581  1.00  0.00     0.037 A 
ATOM     48  C   UNL A   1      45.168  30.878  30.371  1.00  0.00     0.049 A 
ATOM     49  C   UNL A   1      39.417  31.284  31.265  1.00  0.00     0.074 A 
ATOM     50  C   UNL A   1      45.766  29.928  31.171  1.00  0.00     0.029 A 
ATOM     51  N   UNL A   1      44.215  31.491  31.147  1.00  0.00    -0.354 N 
ATOM     52  N   UNL A   1      40.070  30.845  32.306  1.00  0.00    -0.248 NA
ATOM     53  C   UNL A   1      40.070  32.357  30.531  1.00  0.00     0.031 C 
ATOM     54  C   UNL A   1      44.859  29.723  32.252  1.00  0.00     0.029 A 
ATOM     55  C   UNL A   1      43.780  30.594  32.089  1.00  0.00     0.049 A 
ATOM     56  H   UNL A   1      43.896  32.417  31.045  1.00  0.00     0.167 HD
ATOM     57  C   UNL A   1      41.376  31.273  32.117  1.00  0.00     0.074 A 
ATOM     58  C   UNL A   1      41.287  32.295  31.077  1.00  0.00     0.031 C 
ATOM     59  C   UNL A   1      42.429  30.565  32.621  1.00  0.00     0.037 A 
BRANCH  46  60
ATOM     60  C   UNL A   1      45.363  32.473  28.356  1.00  0.00     0.058 A 
ATOM     61  C   UNL A   1      46.689  32.893  28.143  1.00  0.00     0.135 A 
ATOM     62  C   UNL A   1      44.374  33.472  28.221  1.00  0.00     0.135 A 
ATOM     63  F   UNL A   1      47.709  32.030  28.280  1.00  0.00    -0.206 F 
ATOM     64  C   UNL A   1      47.012  34.217  27.842  1.00  0.00     0.059 A 
ATOM     65  C   UNL A   1      44.668  34.785  27.869  1.00  0.00     0.059 A 
ATOM     66  F   UNL A   1      43.089  33.240  28.520  1.00  0.00    -0.206 F 
ATOM     67  C   UNL A   1      45.993  35.157  27.710  1.00  0.00     0.060 A 
BRANCH  67  68
ATOM     68  S   UNL A   1      46.414  36.878  27.383  1.00  0.00     0.124 S 
ATOM     69  O   UNL A   1      47.414  37.135  28.413  1.00  0.00    -0.237 OA
ATOM     70  O   UNL A   1      46.909  36.812  26.012  1.00  0.00    -0.237 OA
ATOM     71  O   UNL A   1      45.142  37.573  27.550  1.00  0.00    -0.744 OA
ENDBRANCH  67  68
ENDBRANCH  46  60
BRANCH  47  72
ATOM     72  C   UNL A   1      37.034  31.159  30.222  1.00  0.00     0.058 A 
ATOM     73  C   UNL A   1      36.243  31.785  31.202  1.00  0.00     0.135 A 
ATOM     74  C   UNL A   1      36.696  31.438  28.882  1.00  0.00     0.135 A 
ATOM     75  F   UNL A   1      36.500  31.587  32.504  1.00  0.00    -0.206 F 
ATOM     76  C   UNL A   1      35.226  32.690  30.877  1.00  0.00     0.059 A 
ATOM     77  C   UNL A   1      35.681  32.329  28.533  1.00  0.00     0.059 A 
ATOM     78  F   UNL A   1      37.409  30.924  27.868  1.00  0.00    -0.206 F 
ATOM     79  C   UNL A   1      34.972  32.978  29.537  1.00  0.00     0.060 A 
BRANCH  79  80
ATOM     80  S   UNL A   1      33.801  34.295  29.123  1.00  0.00     0.124 S 
ATOM     81  O   UNL A   1      34.682  35.325  28.582  1.00  0.00    -0.237 OA
ATOM     82  O   UNL A   1      32.927  33.634  28.160  1.00  0.00    -0.237 OA
ATOM     83  O   UNL A   1      33.181  34.616  30.406  1.00  0.00    -0.744 OA
ENDBRANCH  79  80
ENDBRANCH  47  72
BRANCH  59  84
ATOM     84  C   UNL A   1      42.141  29.527  33.681  1.00  0.00     0.058 A 
ATOM     85  C   UNL A   1      41.737  28.204  33.423  1.00  0.00     0.135 A 
ATOM     86  C   UNL A   1      42.428  29.856  35.013  1.00  0.00     0.135 A 
ATOM     87  F   UNL A   1      41.529  27.777  32.170  1.00  0.00    -0.206 F 
ATOM     88  C   UNL A   1      41.596  27.264  34.447  1.00  0.00     0.059 A 
ATOM     89  C   UNL A   1      42.324  28.928  36.046  1.00  0.00     0.059 A 
ATOM     90  F   UNL A   1      42.869  31.087  35.321  1.00  0.00    -0.206 F 
ATOM     91  C   UNL A   1      41.898  27.634  35.758  1.00  0.00     0.060 A 
BRANCH  91  92
ATOM     92  S   UNL A   1      41.791  26.398  37.071  1.00  0.00     0.124 S 
ATOM     93  O   UNL A   1      40.467  26.652  37.629  1.00  0.00    -0.237 OA
ATOM     94  O   UNL A   1      41.941  25.144  36.339  1.00  0.00    -0.237 OA
ATOM     95  O   UNL A   1      42.910  26.734  37.949  1.00  0.00    -0.744 OA
ENDBRANCH  91  92
ENDBRANCH  59  84
ENDBRANCH  33  34
ENDBRANCH  25  28
ENDBRANCH   1  24
TORSDOF 14
ENDMDL
MODEL 2
REMARK VINA RESULT:     -13.0      3.049      9.219
REMARK SMILES Cc1cccc2nc([C@@H]3CCCC[C@@H]3C(=O)NCCCNC(=O)c3ccc(-c4c5nc(c(-c6c(F)cc(S(=O)(=O)[O-])cc6F)c6ccc([nH]6)c(-c6c(F)cc(S(=O)(=O)[O-])cc6F)c6nc(c(-c7c(F)cc(S(=O)(=O)[O-])cc7F)c7ccc4[nH]7)C=C6)C=C5)cc3)oc12
REMARK SMILES IDX 20 1 19 2 18 3 17 4 15 5 16 6 14 8 9 9 10 10 11 11 13 12
REMARK SMILES IDX 12 13 8 14 1 15 2 16 3 17 91 18 4 19 6 20 90 21 5 22 7 23
REMARK SMILES IDX 21 24 22 25 23 27 24 28 25 29 89 30 26 31 88 32 27 33 28 34
REMARK SMILES IDX 29 35 82 36 30 37 87 38 81 39 83 40 31 41 86 42 80 43 79 44
REMARK SMILES IDX 32 46 66 47 45 48 65 49 46 50 49 51 64 52 84 53 47 54 48 55
REMARK SMILES IDX 63 57 85 58 50 59 33 60 34 61 43 62 35 63 36 64 42 65 44 66
REMARK SMILES IDX 37 67 38 68 39 69 40 70 41 71 67 72 68 73 77 74 69 75 70 76
REMARK SMILES IDX 76 77 78 78 71 79 72 80 73 81 74 82 75 83 51 84 52 85 61 86
REMARK SMILES IDX 53 87 54 88 60 89 62 90 55 91 56 92 57 93 58 94 59 95
REMARK H PARENT 17 7 21 26 83 45 49 56
REMARK Flexibility Score: inf
ROOT
ATOM      1  C   UNL A   1      34.029  30.507  27.004  1.00  0.00     0.118 C 
ENDROOT
BRANCH   1   2
ATOM      2  C   UNL A   1      32.753  29.682  26.965  1.00  0.00     0.042 C 
BRANCH   2   3
ATOM      3  C   UNL A   1      32.978  28.207  27.300  1.00  0.00     0.117 C 
BRANCH   3   4
ATOM      4  N   UNL A   1      31.756  27.412  27.243  1.00  0.00    -0.356 N 
ATOM      5  C   UNL A   1      31.313  26.454  26.383  1.00  0.00     0.223 C 
ATOM      6  O   UNL A   1      30.188  25.996  26.586  1.00  0.00    -0.275 OA
ATOM      7  H   UNL A   1      31.125  27.608  27.974  1.00  0.00     0.163 HD
BRANCH   5   8
ATOM      8  C   UNL A   1      32.215  25.914  25.274  1.00  0.00     0.091 C 
ATOM      9  C   UNL A   1      31.508  25.757  23.909  1.00  0.00     0.088 C 
ATOM     10  C   UNL A   1      30.537  24.572  23.859  1.00  0.00     0.014 C 
ATOM     11  C   UNL A   1      31.221  23.271  24.264  1.00  0.00     0.001 C 
ATOM     12  C   UNL A   1      32.820  24.571  25.743  1.00  0.00     0.014 C 
ATOM     13  C   UNL A   1      31.866  23.377  25.639  1.00  0.00     0.001 C 
BRANCH   9  14
ATOM     14  C   UNL A   1      30.841  27.016  23.462  1.00  0.00     0.199 A 
ATOM     15  C   UNL A   1      26.629  28.216  23.535  1.00  0.00     0.048 C 
ATOM     16  C   UNL A   1      27.854  28.825  22.935  1.00  0.00    -0.006 A 
ATOM     17  C   UNL A   1      27.792  29.986  22.137  1.00  0.00     0.007 A 
ATOM     18  C   UNL A   1      29.138  28.294  23.085  1.00  0.00     0.157 A 
ATOM     19  C   UNL A   1      28.940  30.575  21.587  1.00  0.00     0.003 A 
ATOM     20  C   UNL A   1      30.293  28.849  22.554  1.00  0.00     0.110 A 
ATOM     21  O   UNL A   1      29.489  27.117  23.693  1.00  0.00    -0.440 OA
ATOM     22  C   UNL A   1      30.209  30.029  21.810  1.00  0.00     0.032 A 
ATOM     23  N   UNL A   1      31.364  28.037  22.814  1.00  0.00    -0.213 NA
ENDBRANCH   9  14
ENDBRANCH   5   8
ENDBRANCH   3   4
ENDBRANCH   2   3
ENDBRANCH   1   2
BRANCH   1  24
ATOM     24  N   UNL A   1      34.010  31.555  28.016  1.00  0.00    -0.352 N 
ATOM     25  C   UNL A   1      34.872  31.717  29.079  1.00  0.00     0.251 C 
ATOM     26  H   UNL A   1      33.296  32.228  27.931  1.00  0.00     0.163 HD
ATOM     27  O   UNL A   1      34.524  32.427  30.027  1.00  0.00    -0.269 OA
BRANCH  25  28
ATOM     28  C   UNL A   1      36.202  31.065  29.088  1.00  0.00     0.039 A 
ATOM     29  C   UNL A   1      36.304  29.669  29.145  1.00  0.00     0.014 A 
ATOM     30  C   UNL A   1      37.362  31.842  29.138  1.00  0.00     0.014 A 
ATOM     31  C   UNL A   1      37.560  29.076  29.262  1.00  0.00     0.010 A 
ATOM     32  C   UNL A   1      38.605  31.260  29.129  1.00  0.00     0.010 A 
ATOM     33  C   UNL A   1      38.702  29.886  29.276  1.00  0.00    -0.014 A 
BRANCH  33  34
ATOM     34  C   UNL A   1      40.033  29.318  29.419  1.00  0.00     0.031 A 
ATOM     35  C   UNL A   1      40.481  29.137  30.822  1.00  0.00     0.074 A 
ATOM     36  C   UNL A   1      40.700  28.782  28.373  1.00  0.00     0.049 A 
ATOM     37  N   UNL A   1      41.426  29.763  31.440  1.00  0.00    -0.248 NA
ATOM     38  C   UNL A   1      39.692  28.245  31.688  1.00  0.00     0.031 C 
ATOM     39  C   UNL A   1      40.223  28.581  26.998  1.00  0.00     0.029 A 
ATOM     40  N   UNL A   1      41.926  28.195  28.351  1.00  0.00    -0.354 N 
ATOM     41  C   UNL A   1      41.497  29.191  32.707  1.00  0.00     0.074 A 
ATOM     42  C   UNL A   1      40.300  28.405  32.865  1.00  0.00     0.031 C 
ATOM     43  C   UNL A   1      41.052  27.731  26.350  1.00  0.00     0.029 A 
ATOM     44  C   UNL A   1      42.198  27.463  27.199  1.00  0.00     0.049 A 
ATOM     45  H   UNL A   1      42.572  28.282  29.089  1.00  0.00     0.167 HD
ATOM     46  C   UNL A   1      42.642  29.220  33.442  1.00  0.00     0.037 A 
ATOM     47  C   UNL A   1      43.278  26.671  26.984  1.00  0.00     0.037 A 
ATOM     48  C   UNL A   1      43.605  30.131  32.880  1.00  0.00     0.049 A 
ATOM     49  C   UNL A   1      44.325  27.114  27.940  1.00  0.00     0.074 A 
ATOM     50  C   UNL A   1      43.663  31.494  32.686  1.00  0.00     0.029 A 
ATOM     51  N   UNL A   1      44.554  29.582  32.054  1.00  0.00    -0.354 N 
ATOM     52  N   UNL A   1      44.892  28.289  27.912  1.00  0.00    -0.248 NA
ATOM     53  C   UNL A   1      44.445  26.397  29.199  1.00  0.00     0.031 C 
ATOM     54  C   UNL A   1      44.344  31.668  31.445  1.00  0.00     0.029 A 
ATOM     55  C   UNL A   1      44.715  30.408  30.970  1.00  0.00     0.049 A 
ATOM     56  H   UNL A   1      45.038  28.740  32.211  1.00  0.00     0.167 HD
ATOM     57  C   UNL A   1      45.063  28.636  29.245  1.00  0.00     0.074 A 
ATOM     58  C   UNL A   1      44.882  27.387  29.981  1.00  0.00     0.031 C 
ATOM     59  C   UNL A   1      45.059  29.943  29.638  1.00  0.00     0.037 A 
BRANCH  46  60
ATOM     60  C   UNL A   1      43.031  28.172  34.453  1.00  0.00     0.058 A 
ATOM     61  C   UNL A   1      43.227  28.533  35.800  1.00  0.00     0.135 A 
ATOM     62  C   UNL A   1      43.461  26.875  34.097  1.00  0.00     0.135 A 
ATOM     63  F   UNL A   1      42.884  29.756  36.236  1.00  0.00    -0.206 F 
ATOM     64  C   UNL A   1      43.832  27.675  36.720  1.00  0.00     0.059 A 
ATOM     65  C   UNL A   1      44.016  25.985  35.009  1.00  0.00     0.059 A 
ATOM     66  F   UNL A   1      43.451  26.451  32.826  1.00  0.00    -0.206 F 
ATOM     67  C   UNL A   1      44.226  26.403  36.313  1.00  0.00     0.060 A 
BRANCH  67  68
ATOM     68  S   UNL A   1      45.062  25.320  37.485  1.00  0.00     0.124 S 
ATOM     69  O   UNL A   1      44.745  24.003  36.945  1.00  0.00    -0.237 OA
ATOM     70  O   UNL A   1      46.451  25.749  37.355  1.00  0.00    -0.237 OA
ATOM     71  O   UNL A   1      44.429  25.650  38.759  1.00  0.00    -0.744 OA
ENDBRANCH  67  68
ENDBRANCH  46  60
BRANCH  47  72
ATOM     72  C   UNL A   1      43.336  25.351  26.297  1.00  0.00     0.058 A 
ATOM     73  C   UNL A   1      44.259  25.119  25.261  1.00  0.00     0.135 A 
ATOM     74  C   UNL A   1      42.721  24.207  26.847  1.00  0.00     0.135 A 
ATOM     75  F   UNL A   1      44.900  26.148  24.687  1.00  0.00    -0.206 F 
ATOM     76  C   UNL A   1      44.607  23.829  24.844  1.00  0.00     0.059 A 
ATOM     77  C   UNL A   1      43.046  22.912  26.443  1.00  0.00     0.059 A 
ATOM     78  F   UNL A   1      41.855  24.311  27.865  1.00  0.00    -0.206 F 
ATOM     79  C   UNL A   1      44.016  22.729  25.463  1.00  0.00     0.060 A 
BRANCH  79  80
ATOM     80  S   UNL A   1      44.613  21.067  25.069  1.00  0.00     0.124 S 
ATOM     81  O   UNL A   1      43.611  20.225  25.714  1.00  0.00    -0.237 OA
ATOM     82  O   UNL A   1      44.595  21.074  23.610  1.00  0.00    -0.237 OA
ATOM     83  O   UNL A   1      45.941  21.030  25.674  1.00  0.00    -0.744 OA
ENDBRANCH  79  80
ENDBRANCH  47  72
BRANCH  59  84
ATOM     84  C   UNL A   1      45.229  31.002  28.574  1.00  0.00     0.058 A 
ATOM     85  C   UNL A   1      44.174  31.626  27.882  1.00  0.00     0.135 A 
ATOM     86  C   UNL A   1      46.519  31.505  28.353  1.00  0.00     0.135 A 
ATOM     87  F   UNL A   1      42.901  31.272  28.100  1.00  0.00    -0.206 F 
ATOM     88  C   UNL A   1      44.398  32.678  26.990  1.00  0.00     0.059 A 
ATOM     89  C   UNL A   1      46.763  32.572  27.492  1.00  0.00     0.059 A 
ATOM     90  F   UNL A   1      47.564  30.990  29.022  1.00  0.00    -0.206 F 
ATOM     91  C   UNL A   1      45.698  33.149  26.806  1.00  0.00     0.060 A 
BRANCH  91  92
ATOM     92  S   UNL A   1      45.979  34.560  25.713  1.00  0.00     0.124 S 
ATOM     93  O   UNL A   1      45.569  35.685  26.547  1.00  0.00    -0.237 OA
ATOM     94  O   UNL A   1      47.409  34.466  25.434  1.00  0.00    -0.237 OA
ATOM     95  O   UNL A   1      45.112  34.285  24.569  1.00  0.00    -0.744 OA
ENDBRANCH  91  92
ENDBRANCH  59  84
ENDBRANCH  33  34
ENDBRANCH  25  28
ENDBRANCH   1  24
TORSDOF 14
ENDMDL
MODEL 3
REMARK VINA RESULT:     -13.0      1.312      3.205
REMARK SMILES Cc1cccc2nc([C@@H]3CCCC[C@@H]3C(=O)NCCCNC(=O)c3ccc(-c4c5nc(c(-c6c(F)cc(S(=O)(=O)[O-])cc6F)c6ccc([nH]6)c(-c6c(F)cc(S(=O)(=O)[O-])cc6F)c6nc(c(-c7c(F)cc(S(=O)(=O)[O-])cc7F)c7ccc4[nH]7)C=C6)C=C5)cc3)oc12
REMARK SMILES IDX 20 1 19 2 18 3 17 4 15 5 16 6 14 8 9 9 10 10 11 11 13 12
REMARK SMILES IDX 12 13 8 14 1 15 2 16 3 17 91 18 4 19 6 20 90 21 5 22 7 23
REMARK SMILES IDX 21 24 22 25 23 27 24 28 25 29 89 30 26 31 88 32 27 33 28 34
REMARK SMILES IDX 29 35 82 36 30 37 87 38 81 39 83 40 31 41 86 42 80 43 79 44
REMARK SMILES IDX 32 46 66 47 45 48 65 49 46 50 49 51 64 52 84 53 47 54 48 55
REMARK SMILES IDX 63 57 85 58 50 59 33 60 34 61 43 62 35 63 36 64 42 65 44 66
REMARK SMILES IDX 37 67 38 68 39 69 40 70 41 71 67 72 68 73 77 74 69 75 70 76
REMARK SMILES IDX 76 77 78 78 71 79 72 80 73 81 74 82 75 83 51 84 52 85 61 86
REMARK SMILES IDX 53 87 54 88 60 89 62 90 55 91 56 92 57 93 58 94 59 95
REMARK H PARENT 17 7 21 26 83 45 49 56
REMARK Flexibility Score: inf
ROOT
ATOM      1  C   UNL A   1      39.754  21.779  26.544  1.00  0.00     0.118 C 
ENDROOT
BRANCH   1   2
ATOM      2  C   UNL A   1      38.693  22.514  25.741  1.00  0.00     0.042 C 
BRANCH   2   3
ATOM      3  C   UNL A   1      37.745  21.576  24.992  1.00  0.00     0.117 C 
BRANCH   3   4
ATOM      4  N   UNL A   1      36.987  22.245  23.941  1.00  0.00    -0.356 N 
ATOM      5  C   UNL A   1      35.781  22.877  23.928  1.00  0.00     0.223 C 
ATOM      6  O   UNL A   1      35.386  23.307  22.843  1.00  0.00    -0.275 OA
ATOM      7  H   UNL A   1      37.438  22.238  23.066  1.00  0.00     0.163 HD
BRANCH   5   8
ATOM      8  C   UNL A   1      35.003  23.116  25.221  1.00  0.00     0.091 C 
ATOM      9  C   UNL A   1      33.525  22.668  25.158  1.00  0.00     0.088 C 
ATOM     10  C   UNL A   1      32.643  23.596  24.316  1.00  0.00     0.014 C 
ATOM     11  C   UNL A   1      32.748  25.044  24.785  1.00  0.00     0.001 C 
ATOM     12  C   UNL A   1      35.114  24.612  25.592  1.00  0.00     0.014 C 
ATOM     13  C   UNL A   1      34.190  25.533  24.788  1.00  0.00     0.001 C 
BRANCH   9  14
ATOM     14  C   UNL A   1      33.376  21.247  24.723  1.00  0.00     0.199 A 
ATOM     15  C   UNL A   1      36.106  17.839  25.057  1.00  0.00     0.048 C 
ATOM     16  C   UNL A   1      34.803  18.038  24.354  1.00  0.00    -0.006 A 
ATOM     17  C   UNL A   1      34.243  17.041  23.530  1.00  0.00     0.007 A 
ATOM     18  C   UNL A   1      34.053  19.215  24.430  1.00  0.00     0.157 A 
ATOM     19  C   UNL A   1      33.011  17.213  22.884  1.00  0.00     0.003 A 
ATOM     20  C   UNL A   1      32.833  19.419  23.803  1.00  0.00     0.110 A 
ATOM     21  O   UNL A   1      34.400  20.389  25.045  1.00  0.00    -0.440 OA
ATOM     22  C   UNL A   1      32.275  18.394  23.033  1.00  0.00     0.032 A 
ATOM     23  N   UNL A   1      32.409  20.704  24.011  1.00  0.00    -0.213 NA
ENDBRANCH   9  14
ENDBRANCH   5   8
ENDBRANCH   3   4
ENDBRANCH   2   3
ENDBRANCH   1   2
BRANCH   1  24
ATOM     24  N   UNL A   1      41.074  21.817  25.931  1.00  0.00    -0.352 N 
ATOM     25  C   UNL A   1      41.861  22.922  25.691  1.00  0.00     0.251 C 
ATOM     26  H   UNL A   1      41.449  20.950  25.655  1.00  0.00     0.163 HD
ATOM     27  O   UNL A   1      42.776  22.837  24.866  1.00  0.00    -0.269 OA
BRANCH  25  28
ATOM     28  C   UNL A   1      41.633  24.194  26.417  1.00  0.00     0.039 A 
ATOM     29  C   UNL A   1      41.023  25.276  25.770  1.00  0.00     0.014 A 
ATOM     30  C   UNL A   1      42.112  24.352  27.719  1.00  0.00     0.014 A 
ATOM     31  C   UNL A   1      40.912  26.498  26.431  1.00  0.00     0.010 A 
ATOM     32  C   UNL A   1      41.896  25.514  28.417  1.00  0.00     0.010 A 
ATOM     33  C   UNL A   1      41.374  26.610  27.748  1.00  0.00    -0.014 A 
BRANCH  33  34
ATOM     34  C   UNL A   1      41.304  27.869  28.473  1.00  0.00     0.031 A 
ATOM     35  C   UNL A   1      42.397  28.823  28.164  1.00  0.00     0.074 A 
ATOM     36  C   UNL A   1      40.210  28.228  29.180  1.00  0.00     0.049 A 
ATOM     37  N   UNL A   1      43.350  29.216  28.941  1.00  0.00    -0.248 NA
ATOM     38  C   UNL A   1      42.527  29.296  26.776  1.00  0.00     0.031 C 
ATOM     39  C   UNL A   1      38.921  27.528  29.278  1.00  0.00     0.029 A 
ATOM     40  N   UNL A   1      39.982  29.369  29.882  1.00  0.00    -0.354 N 
ATOM     41  C   UNL A   1      44.074  30.154  28.211  1.00  0.00     0.074 A 
ATOM     42  C   UNL A   1      43.643  30.025  26.842  1.00  0.00     0.031 C 
ATOM     43  C   UNL A   1      37.993  28.359  29.804  1.00  0.00     0.029 A 
ATOM     44  C   UNL A   1      38.651  29.579  30.231  1.00  0.00     0.049 A 
ATOM     45  H   UNL A   1      40.700  29.997  30.125  1.00  0.00     0.167 HD
ATOM     46  C   UNL A   1      44.806  31.126  28.822  1.00  0.00     0.037 A 
ATOM     47  C   UNL A   1      38.135  30.696  30.803  1.00  0.00     0.037 A 
ATOM     48  C   UNL A   1      44.954  30.866  30.231  1.00  0.00     0.049 A 
ATOM     49  C   UNL A   1      39.272  31.411  31.437  1.00  0.00     0.074 A 
ATOM     50  C   UNL A   1      45.568  29.890  30.985  1.00  0.00     0.029 A 
ATOM     51  N   UNL A   1      44.060  31.493  31.064  1.00  0.00    -0.354 N 
ATOM     52  N   UNL A   1      39.968  30.941  32.436  1.00  0.00    -0.248 NA
ATOM     53  C   UNL A   1      39.913  32.476  30.682  1.00  0.00     0.031 C 
ATOM     54  C   UNL A   1      44.715  29.694  32.111  1.00  0.00     0.029 A 
ATOM     55  C   UNL A   1      43.652  30.596  32.017  1.00  0.00     0.049 A 
ATOM     56  H   UNL A   1      43.762  32.429  30.990  1.00  0.00     0.167 HD
ATOM     57  C   UNL A   1      41.273  31.337  32.182  1.00  0.00     0.074 A 
ATOM     58  C   UNL A   1      41.156  32.375  31.161  1.00  0.00     0.031 C 
ATOM     59  C   UNL A   1      42.332  30.595  32.621  1.00  0.00     0.037 A 
BRANCH  46  60
ATOM     60  C   UNL A   1      45.084  32.483  28.228  1.00  0.00     0.058 A 
ATOM     61  C   UNL A   1      46.400  32.841  27.878  1.00  0.00     0.135 A 
ATOM     62  C   UNL A   1      44.140  33.534  28.224  1.00  0.00     0.135 A 
ATOM     63  F   UNL A   1      47.381  31.924  27.882  1.00  0.00    -0.206 F 
ATOM     64  C   UNL A   1      46.757  34.155  27.571  1.00  0.00     0.059 A 
ATOM     65  C   UNL A   1      44.463  34.838  27.869  1.00  0.00     0.059 A 
ATOM     66  F   UNL A   1      42.885  33.358  28.658  1.00  0.00    -0.206 F 
ATOM     67  C   UNL A   1      45.780  35.148  27.573  1.00  0.00     0.060 A 
BRANCH  67  68
ATOM     68  S   UNL A   1      46.254  36.853  27.239  1.00  0.00     0.124 S 
ATOM     69  O   UNL A   1      47.085  37.160  28.397  1.00  0.00    -0.237 OA
ATOM     70  O   UNL A   1      46.954  36.728  25.964  1.00  0.00    -0.237 OA
ATOM     71  O   UNL A   1      44.974  37.552  27.177  1.00  0.00    -0.744 OA
ENDBRANCH  67  68
ENDBRANCH  46  60
BRANCH  47  72
ATOM     72  C   UNL A   1      36.834  31.364  30.521  1.00  0.00     0.058 A 
ATOM     73  C   UNL A   1      36.090  31.955  31.559  1.00  0.00     0.135 A 
ATOM     74  C   UNL A   1      36.454  31.713  29.210  1.00  0.00     0.135 A 
ATOM     75  F   UNL A   1      36.389  31.688  32.839  1.00  0.00    -0.206 F 
ATOM     76  C   UNL A   1      35.079  32.891  31.315  1.00  0.00     0.059 A 
ATOM     77  C   UNL A   1      35.445  32.638  28.940  1.00  0.00     0.059 A 
ATOM     78  F   UNL A   1      37.121  31.237  28.147  1.00  0.00    -0.206 F 
ATOM     79  C   UNL A   1      34.783  33.249  30.000  1.00  0.00     0.060 A 
BRANCH  79  80
ATOM     80  S   UNL A   1      33.624  34.604  29.692  1.00  0.00     0.124 S 
ATOM     81  O   UNL A   1      32.656  33.977  28.798  1.00  0.00    -0.237 OA
ATOM     82  O   UNL A   1      33.145  34.908  31.036  1.00  0.00    -0.237 OA
ATOM     83  O   UNL A   1      34.460  35.635  29.082  1.00  0.00    -0.744 OA
ENDBRANCH  79  80
ENDBRANCH  47  72
BRANCH  59  84
ATOM     84  C   UNL A   1      42.072  29.551  33.681  1.00  0.00     0.058 A 
ATOM     85  C   UNL A   1      41.687  28.222  33.426  1.00  0.00     0.135 A 
ATOM     86  C   UNL A   1      42.369  29.882  35.011  1.00  0.00     0.135 A 
ATOM     87  F   UNL A   1      41.472  27.793  32.175  1.00  0.00    -0.206 F 
ATOM     88  C   UNL A   1      41.572  27.277  34.450  1.00  0.00     0.059 A 
ATOM     89  C   UNL A   1      42.292  28.951  36.044  1.00  0.00     0.059 A 
ATOM     90  F   UNL A   1      42.794  31.119  35.315  1.00  0.00    -0.206 F 
ATOM     91  C   UNL A   1      41.883  27.651  35.757  1.00  0.00     0.060 A 
BRANCH  91  92
ATOM     92  S   UNL A   1      41.812  26.411  37.070  1.00  0.00     0.124 S 
ATOM     93  O   UNL A   1      42.937  26.792  37.918  1.00  0.00    -0.237 OA
ATOM     94  O   UNL A   1      40.486  26.629  37.640  1.00  0.00    -0.237 OA
ATOM     95  O   UNL A   1      41.971  25.146  36.355  1.00  0.00    -0.744 OA
ENDBRANCH  91  92
ENDBRANCH  59  84
ENDBRANCH  33  34
ENDBRANCH  25  28
ENDBRANCH   1  24
TORSDOF 14
ENDMDL
