MODEL 1
REMARK VINA RESULT:     -12.1      0.000      0.000
REMARK SMILES O=C(CCC1CC[NH+]([C@H]2CCO[C@]3(CCSC3)C2)CC1)NCCCNC(=O)c1ccc(-c2c3nc(c(-c4c(F)cc(S(=O)(=O)[O-])cc4F)c4ccc([nH]4)c(-c4c(F)cc(S(=O)(=O)[O-])cc4F)c4nc(c(-c5c(F)cc(S(=O)(=O)[O-])cc5F)c5ccc2[nH]5)C=C4)C=C3)cc1
REMARK SMILES IDX 23 1 22 2 21 3 1 4 2 5 3 7 4 8 5 9 6 10 20 11 7 12 19 13
REMARK SMILES IDX 8 14 9 16 10 17 18 18 11 19 13 20 12 21 14 22 17 23 15 24
REMARK SMILES IDX 16 25 24 26 25 27 26 28 27 30 28 31 29 32 93 33 30 34 92 35
REMARK SMILES IDX 31 36 32 37 33 38 86 39 34 40 91 41 85 42 87 43 35 44 90 45
REMARK SMILES IDX 84 46 83 47 36 49 70 50 49 51 69 52 50 53 53 54 68 55 88 56
REMARK SMILES IDX 51 57 52 58 67 60 89 61 54 62 37 63 38 64 47 65 39 66 40 67
REMARK SMILES IDX 46 68 48 69 41 70 42 71 43 72 44 73 45 74 71 75 72 76 81 77
REMARK SMILES IDX 73 78 74 79 80 80 82 81 75 82 76 83 77 84 78 85 79 86 55 87
REMARK SMILES IDX 56 88 65 89 57 90 58 91 64 92 66 93 59 94 60 95 61 96 62 97
REMARK SMILES IDX 63 98
REMARK H PARENT 21 6 8 15 25 29 87 48 53 59
REMARK Flexibility Score: inf
ROOT
ATOM      1  C   UNL A   1      42.086  21.565  26.847  1.00  0.00     0.042 C 
ENDROOT
BRANCH   1   2
ATOM      2  C   UNL A   1      40.731  20.980  27.257  1.00  0.00     0.117 C 
BRANCH   2   3
ATOM      3  N   UNL A   1      39.789  20.887  26.155  1.00  0.00    -0.356 N 
ATOM      4  O   UNL A   1      38.832  22.924  26.497  1.00  0.00    -0.275 OA
ATOM      5  C   UNL A   1      38.860  21.858  25.884  1.00  0.00     0.220 C 
ATOM      6  H   UNL A   1      39.819  20.089  25.578  1.00  0.00     0.163 HD
BRANCH   5   7
ATOM      7  C   UNL A   1      37.760  21.538  24.874  1.00  0.00     0.100 C 
BRANCH   7   8
ATOM      8  C   UNL A   1      36.520  20.734  25.269  1.00  0.00     0.014 C 
BRANCH   8   9
ATOM      9  C   UNL A   1      35.237  21.485  25.701  1.00  0.00     0.000 C 
ATOM     10  C   UNL A   1      33.968  20.686  25.319  1.00  0.00     0.065 C 
ATOM     11  C   UNL A   1      35.159  22.969  25.306  1.00  0.00     0.065 C 
ATOM     12  C   UNL A   1      33.215  21.192  24.081  1.00  0.00     0.262 C 
ATOM     13  C   UNL A   1      34.451  23.233  23.994  1.00  0.00     0.262 C 
ATOM     14  N   UNL A   1      33.118  22.646  23.959  1.00  0.00    -0.332 N 
ATOM     15  H   UNL A   1      32.751  22.863  23.033  1.00  0.00     0.348 HD
BRANCH  14  16
ATOM     16  C   UNL A   1      32.024  23.310  24.709  1.00  0.00     0.189 C 
ATOM     17  C   UNL A   1      31.436  22.570  25.925  1.00  0.00     0.093 C 
ATOM     18  C   UNL A   1      32.363  24.768  25.104  1.00  0.00     0.101 C 
ATOM     19  C   UNL A   1      30.347  23.378  26.611  1.00  0.00     0.167 C 
ATOM     20  C   UNL A   1      31.210  25.484  25.841  1.00  0.00     0.084 C 
ATOM     21  O   UNL A   1      30.810  24.673  26.960  1.00  0.00    -0.374 OA
ATOM     22  C   UNL A   1      29.991  25.817  24.959  1.00  0.00     0.047 C 
ATOM     23  C   UNL A   1      31.672  26.829  26.422  1.00  0.00     0.105 C 
ATOM     24  C   UNL A   1      30.165  27.160  24.262  1.00  0.00     0.072 C 
ATOM     25  S   UNL A   1      31.523  28.023  25.078  1.00  0.00    -0.159 SA
ENDBRANCH  14  16
ENDBRANCH   8   9
ENDBRANCH   7   8
ENDBRANCH   5   7
ENDBRANCH   2   3
ENDBRANCH   1   2
BRANCH   1  26
ATOM     26  C   UNL A   1      42.300  23.052  27.137  1.00  0.00     0.118 C 
BRANCH  26  27
ATOM     27  N   UNL A   1      41.893  23.936  26.054  1.00  0.00    -0.352 N 
ATOM     28  C   UNL A   1      41.429  25.228  26.069  1.00  0.00     0.251 C 
ATOM     29  H   UNL A   1      41.964  23.539  25.156  1.00  0.00     0.163 HD
ATOM     30  O   UNL A   1      41.042  25.731  25.012  1.00  0.00    -0.269 OA
BRANCH  28  31
ATOM     31  C   UNL A   1      41.345  26.012  27.323  1.00  0.00     0.039 A 
ATOM     32  C   UNL A   1      42.392  26.889  27.628  1.00  0.00     0.014 A 
ATOM     33  C   UNL A   1      40.277  25.876  28.213  1.00  0.00     0.014 A 
ATOM     34  C   UNL A   1      42.325  27.693  28.770  1.00  0.00     0.010 A 
ATOM     35  C   UNL A   1      40.183  26.720  29.324  1.00  0.00     0.010 A 
ATOM     36  C   UNL A   1      41.194  27.655  29.604  1.00  0.00    -0.014 A 
BRANCH  36  37
ATOM     37  C   UNL A   1      41.030  28.628  30.720  1.00  0.00     0.031 A 
ATOM     38  C   UNL A   1      41.860  28.526  31.970  1.00  0.00     0.074 A 
ATOM     39  C   UNL A   1      40.072  29.576  30.631  1.00  0.00     0.049 A 
ATOM     40  N   UNL A   1      41.793  29.239  33.066  1.00  0.00    -0.248 NA
ATOM     41  C   UNL A   1      42.891  27.478  31.999  1.00  0.00     0.031 C 
ATOM     42  C   UNL A   1      39.177  29.767  29.487  1.00  0.00     0.029 A 
ATOM     43  N   UNL A   1      39.680  30.547  31.521  1.00  0.00    -0.354 N 
ATOM     44  C   UNL A   1      42.763  28.723  33.919  1.00  0.00     0.074 A 
ATOM     45  C   UNL A   1      43.377  27.610  33.226  1.00  0.00     0.031 C 
ATOM     46  C   UNL A   1      38.352  30.795  29.739  1.00  0.00     0.029 A 
ATOM     47  C   UNL A   1      38.622  31.308  31.078  1.00  0.00     0.049 A 
ATOM     48  H   UNL A   1      40.115  30.686  32.393  1.00  0.00     0.167 HD
ATOM     49  C   UNL A   1      43.117  29.148  35.157  1.00  0.00     0.037 A 
ATOM     50  C   UNL A   1      37.929  32.292  31.685  1.00  0.00     0.037 A 
ATOM     51  C   UNL A   1      42.505  30.259  35.842  1.00  0.00     0.049 A 
ATOM     52  C   UNL A   1      38.314  32.716  33.077  1.00  0.00     0.074 A 
ATOM     53  C   UNL A   1      42.833  30.794  37.077  1.00  0.00     0.029 A 
ATOM     54  N   UNL A   1      41.433  30.999  35.363  1.00  0.00    -0.354 N 
ATOM     55  N   UNL A   1      39.276  32.258  33.841  1.00  0.00    -0.248 NA
ATOM     56  C   UNL A   1      37.519  33.789  33.689  1.00  0.00     0.031 C 
ATOM     57  C   UNL A   1      41.925  31.816  37.370  1.00  0.00     0.029 A 
ATOM     58  C   UNL A   1      41.067  31.962  36.292  1.00  0.00     0.049 A 
ATOM     59  H   UNL A   1      40.997  30.862  34.492  1.00  0.00     0.167 HD
ATOM     60  C   UNL A   1      39.216  33.002  35.014  1.00  0.00     0.074 A 
ATOM     61  C   UNL A   1      38.136  33.953  34.852  1.00  0.00     0.031 C 
ATOM     62  C   UNL A   1      39.988  32.906  36.126  1.00  0.00     0.037 A 
BRANCH  49  63
ATOM     63  C   UNL A   1      44.218  28.402  35.866  1.00  0.00     0.058 A 
ATOM     64  C   UNL A   1      43.947  27.326  36.725  1.00  0.00     0.135 A 
ATOM     65  C   UNL A   1      45.565  28.733  35.642  1.00  0.00     0.135 A 
ATOM     66  F   UNL A   1      42.678  26.969  36.983  1.00  0.00    -0.206 F 
ATOM     67  C   UNL A   1      44.967  26.624  37.360  1.00  0.00     0.059 A 
ATOM     68  C   UNL A   1      46.604  28.026  36.244  1.00  0.00     0.059 A 
ATOM     69  F   UNL A   1      45.885  29.750  34.826  1.00  0.00    -0.206 F 
ATOM     70  C   UNL A   1      46.294  26.981  37.113  1.00  0.00     0.060 A 
BRANCH  70  71
ATOM     71  S   UNL A   1      47.604  26.054  37.939  1.00  0.00     0.124 S 
ATOM     72  O   UNL A   1      47.148  24.679  37.757  1.00  0.00    -0.237 OA
ATOM     73  O   UNL A   1      48.785  26.434  37.174  1.00  0.00    -0.237 OA
ATOM     74  O   UNL A   1      47.561  26.552  39.311  1.00  0.00    -0.744 OA
ENDBRANCH  70  71
ENDBRANCH  49  63
BRANCH  50  75
ATOM     75  C   UNL A   1      36.792  32.945  30.979  1.00  0.00     0.058 A 
ATOM     76  C   UNL A   1      35.464  32.666  31.335  1.00  0.00     0.135 A 
ATOM     77  C   UNL A   1      37.010  33.862  29.938  1.00  0.00     0.135 A 
ATOM     78  F   UNL A   1      35.204  31.788  32.316  1.00  0.00    -0.206 F 
ATOM     79  C   UNL A   1      34.393  33.261  30.678  1.00  0.00     0.059 A 
ATOM     80  C   UNL A   1      35.955  34.493  29.286  1.00  0.00     0.059 A 
ATOM     81  F   UNL A   1      38.261  34.174  29.566  1.00  0.00    -0.206 F 
ATOM     82  C   UNL A   1      34.649  34.177  29.656  1.00  0.00     0.060 A 
BRANCH  82  83
ATOM     83  S   UNL A   1      33.250  34.979  28.842  1.00  0.00     0.124 S 
ATOM     84  O   UNL A   1      33.896  36.119  28.202  1.00  0.00    -0.237 OA
ATOM     85  O   UNL A   1      32.774  33.929  27.947  1.00  0.00    -0.237 OA
ATOM     86  O   UNL A   1      32.355  35.299  29.950  1.00  0.00    -0.744 OA
ENDBRANCH  82  83
ENDBRANCH  50  75
BRANCH  62  87
ATOM     87  C   UNL A   1      39.710  33.868  37.251  1.00  0.00     0.058 A 
ATOM     88  C   UNL A   1      38.930  33.504  38.360  1.00  0.00     0.135 A 
ATOM     89  C   UNL A   1      40.272  35.156  37.242  1.00  0.00     0.135 A 
ATOM     90  F   UNL A   1      38.362  32.289  38.417  1.00  0.00    -0.206 F 
ATOM     91  C   UNL A   1      38.698  34.388  39.410  1.00  0.00     0.059 A 
ATOM     92  C   UNL A   1      40.078  36.046  38.295  1.00  0.00     0.059 A 
ATOM     93  F   UNL A   1      41.032  35.556  36.211  1.00  0.00    -0.206 F 
ATOM     94  C   UNL A   1      39.280  35.657  39.369  1.00  0.00     0.060 A 
BRANCH  94  95
ATOM     95  S   UNL A   1      38.999  36.780  40.755  1.00  0.00     0.124 S 
ATOM     96  O   UNL A   1      40.355  36.966  41.263  1.00  0.00    -0.237 OA
ATOM     97  O   UNL A   1      38.403  37.941  40.100  1.00  0.00    -0.237 OA
ATOM     98  O   UNL A   1      38.100  36.030  41.626  1.00  0.00    -0.744 OA
ENDBRANCH  94  95
ENDBRANCH  62  87
ENDBRANCH  36  37
ENDBRANCH  28  31
ENDBRANCH  26  27
ENDBRANCH   1  26
TORSDOF 16
ENDMDL
MODEL 2
REMARK VINA RESULT:     -11.8      0.662      8.249
REMARK SMILES O=C(CCC1CC[NH+]([C@H]2CCO[C@]3(CCSC3)C2)CC1)NCCCNC(=O)c1ccc(-c2c3nc(c(-c4c(F)cc(S(=O)(=O)[O-])cc4F)c4ccc([nH]4)c(-c4c(F)cc(S(=O)(=O)[O-])cc4F)c4nc(c(-c5c(F)cc(S(=O)(=O)[O-])cc5F)c5ccc2[nH]5)C=C4)C=C3)cc1
REMARK SMILES IDX 23 1 22 2 21 3 1 4 2 5 3 7 4 8 5 9 6 10 20 11 7 12 19 13
REMARK SMILES IDX 8 14 9 16 10 17 18 18 11 19 13 20 12 21 14 22 17 23 15 24
REMARK SMILES IDX 16 25 24 26 25 27 26 28 27 30 28 31 29 32 93 33 30 34 92 35
REMARK SMILES IDX 31 36 32 37 33 38 86 39 34 40 91 41 85 42 87 43 35 44 90 45
REMARK SMILES IDX 84 46 83 47 36 49 70 50 49 51 69 52 50 53 53 54 68 55 88 56
REMARK SMILES IDX 51 57 52 58 67 60 89 61 54 62 37 63 38 64 47 65 39 66 40 67
REMARK SMILES IDX 46 68 48 69 41 70 42 71 43 72 44 73 45 74 71 75 72 76 81 77
REMARK SMILES IDX 73 78 74 79 80 80 82 81 75 82 76 83 77 84 78 85 79 86 55 87
REMARK SMILES IDX 56 88 65 89 57 90 58 91 64 92 66 93 59 94 60 95 61 96 62 97
REMARK SMILES IDX 63 98
REMARK H PARENT 21 6 8 15 25 29 87 48 53 59
REMARK Flexibility Score: inf
ROOT
ATOM      1  C   UNL A   1      42.077  21.688  26.734  1.00  0.00     0.042 C 
ENDROOT
BRANCH   1   2
ATOM      2  C   UNL A   1      40.734  21.106  27.185  1.00  0.00     0.117 C 
BRANCH   2   3
ATOM      3  N   UNL A   1      39.751  21.037  26.118  1.00  0.00    -0.356 N 
ATOM      4  O   UNL A   1      38.868  23.104  26.485  1.00  0.00    -0.275 OA
ATOM      5  C   UNL A   1      38.842  22.036  25.876  1.00  0.00     0.220 C 
ATOM      6  H   UNL A   1      39.735  20.237  25.544  1.00  0.00     0.163 HD
BRANCH   5   7
ATOM      7  C   UNL A   1      37.697  21.745  24.907  1.00  0.00     0.100 C 
BRANCH   7   8
ATOM      8  C   UNL A   1      36.426  21.025  25.362  1.00  0.00     0.014 C 
BRANCH   8   9
ATOM      9  C   UNL A   1      35.132  21.843  25.588  1.00  0.00     0.000 C 
ATOM     10  C   UNL A   1      34.313  21.962  24.281  1.00  0.00     0.065 C 
ATOM     11  C   UNL A   1      35.302  23.185  26.321  1.00  0.00     0.065 C 
ATOM     12  C   UNL A   1      34.412  23.313  23.559  1.00  0.00     0.262 C 
ATOM     13  C   UNL A   1      35.480  24.380  25.409  1.00  0.00     0.262 C 
ATOM     14  N   UNL A   1      34.409  24.489  24.428  1.00  0.00    -0.332 N 
ATOM     15  H   UNL A   1      34.643  25.303  23.860  1.00  0.00     0.348 HD
BRANCH  14  16
ATOM     16  C   UNL A   1      33.085  24.994  24.867  1.00  0.00     0.189 C 
ATOM     17  C   UNL A   1      32.101  23.983  25.486  1.00  0.00     0.093 C 
ATOM     18  C   UNL A   1      33.188  26.241  25.777  1.00  0.00     0.101 C 
ATOM     19  C   UNL A   1      30.802  24.643  25.914  1.00  0.00     0.167 C 
ATOM     20  C   UNL A   1      31.813  26.804  26.198  1.00  0.00     0.084 C 
ATOM     21  O   UNL A   1      31.043  25.739  26.783  1.00  0.00    -0.374 OA
ATOM     22  C   UNL A   1      31.018  27.478  25.063  1.00  0.00     0.047 C 
ATOM     23  C   UNL A   1      31.961  27.880  27.285  1.00  0.00     0.105 C 
ATOM     24  C   UNL A   1      31.396  28.946  24.921  1.00  0.00     0.072 C 
ATOM     25  S   UNL A   1      32.298  29.421  26.409  1.00  0.00    -0.159 SA
ENDBRANCH  14  16
ENDBRANCH   8   9
ENDBRANCH   7   8
ENDBRANCH   5   7
ENDBRANCH   2   3
ENDBRANCH   1   2
BRANCH   1  26
ATOM     26  C   UNL A   1      42.347  23.146  27.114  1.00  0.00     0.118 C 
BRANCH  26  27
ATOM     27  N   UNL A   1      42.034  24.104  26.063  1.00  0.00    -0.352 N 
ATOM     28  C   UNL A   1      41.605  25.407  26.128  1.00  0.00     0.251 C 
ATOM     29  H   UNL A   1      42.149  23.758  25.149  1.00  0.00     0.163 HD
ATOM     30  O   UNL A   1      41.300  25.983  25.082  1.00  0.00    -0.269 OA
BRANCH  28  31
ATOM     31  C   UNL A   1      41.465  26.118  27.420  1.00  0.00     0.039 A 
ATOM     32  C   UNL A   1      42.433  27.067  27.763  1.00  0.00     0.014 A 
ATOM     33  C   UNL A   1      40.420  25.845  28.307  1.00  0.00     0.014 A 
ATOM     34  C   UNL A   1      42.307  27.805  28.945  1.00  0.00     0.010 A 
ATOM     35  C   UNL A   1      40.263  26.623  29.459  1.00  0.00     0.010 A 
ATOM     36  C   UNL A   1      41.191  27.627  29.780  1.00  0.00    -0.014 A 
BRANCH  36  37
ATOM     37  C   UNL A   1      40.952  28.526  30.944  1.00  0.00     0.031 A 
ATOM     38  C   UNL A   1      39.898  29.598  30.896  1.00  0.00     0.074 A 
ATOM     39  C   UNL A   1      41.743  28.418  32.033  1.00  0.00     0.049 A 
ATOM     40  N   UNL A   1      39.611  30.515  31.786  1.00  0.00    -0.248 NA
ATOM     41  C   UNL A   1      39.066  29.657  29.685  1.00  0.00     0.031 C 
ATOM     42  C   UNL A   1      42.823  27.442  32.198  1.00  0.00     0.029 A 
ATOM     43  N   UNL A   1      41.774  29.142  33.201  1.00  0.00    -0.354 N 
ATOM     44  C   UNL A   1      38.574  31.266  31.243  1.00  0.00     0.074 A 
ATOM     45  C   UNL A   1      38.310  30.720  29.927  1.00  0.00     0.031 C 
ATOM     46  C   UNL A   1      43.400  27.619  33.397  1.00  0.00     0.029 A 
ATOM     47  C   UNL A   1      42.768  28.751  34.069  1.00  0.00     0.049 A 
ATOM     48  H   UNL A   1      41.143  29.871  33.398  1.00  0.00     0.167 HD
ATOM     49  C   UNL A   1      37.897  32.303  31.795  1.00  0.00     0.037 A 
ATOM     50  C   UNL A   1      43.147  29.254  35.260  1.00  0.00     0.037 A 
ATOM     51  C   UNL A   1      38.162  32.841  33.106  1.00  0.00     0.049 A 
ATOM     52  C   UNL A   1      42.408  30.433  35.832  1.00  0.00     0.074 A 
ATOM     53  C   UNL A   1      37.493  33.856  33.770  1.00  0.00     0.029 A 
ATOM     54  N   UNL A   1      39.180  32.421  33.950  1.00  0.00    -0.354 N 
ATOM     55  N   UNL A   1      41.388  31.088  35.330  1.00  0.00    -0.248 NA
ATOM     56  C   UNL A   1      42.870  30.943  37.130  1.00  0.00     0.031 C 
ATOM     57  C   UNL A   1      38.142  34.090  34.986  1.00  0.00     0.029 A 
ATOM     58  C   UNL A   1      39.179  33.180  35.112  1.00  0.00     0.049 A 
ATOM     59  H   UNL A   1      39.811  31.692  33.754  1.00  0.00     0.167 HD
ATOM     60  C   UNL A   1      41.073  32.071  36.262  1.00  0.00     0.074 A 
ATOM     61  C   UNL A   1      41.997  31.913  37.366  1.00  0.00     0.031 C 
ATOM     62  C   UNL A   1      40.103  33.020  36.208  1.00  0.00     0.037 A 
BRANCH  49  63
ATOM     63  C   UNL A   1      36.802  32.939  30.979  1.00  0.00     0.058 A 
ATOM     64  C   UNL A   1      37.079  33.892  29.986  1.00  0.00     0.135 A 
ATOM     65  C   UNL A   1      35.462  32.552  31.155  1.00  0.00     0.135 A 
ATOM     66  F   UNL A   1      38.339  34.307  29.779  1.00  0.00    -0.206 F 
ATOM     67  C   UNL A   1      36.067  34.460  29.218  1.00  0.00     0.059 A 
ATOM     68  C   UNL A   1      34.437  33.086  30.377  1.00  0.00     0.059 A 
ATOM     69  F   UNL A   1      35.139  31.640  32.085  1.00  0.00    -0.206 F 
ATOM     70  C   UNL A   1      34.748  34.051  29.421  1.00  0.00     0.060 A 
BRANCH  70  71
ATOM     71  S   UNL A   1      33.450  34.794  28.410  1.00  0.00     0.124 S 
ATOM     72  O   UNL A   1      32.626  35.444  29.425  1.00  0.00    -0.237 OA
ATOM     73  O   UNL A   1      34.206  35.689  27.542  1.00  0.00    -0.237 OA
ATOM     74  O   UNL A   1      32.837  33.649  27.745  1.00  0.00    -0.744 OA
ENDBRANCH  70  71
ENDBRANCH  49  63
BRANCH  50  75
ATOM     75  C   UNL A   1      44.292  28.646  35.993  1.00  0.00     0.058 A 
ATOM     76  C   UNL A   1      44.091  27.600  36.905  1.00  0.00     0.135 A 
ATOM     77  C   UNL A   1      45.608  29.095  35.794  1.00  0.00     0.135 A 
ATOM     78  F   UNL A   1      42.851  27.143  37.139  1.00  0.00    -0.206 F 
ATOM     79  C   UNL A   1      45.149  27.029  37.605  1.00  0.00     0.059 A 
ATOM     80  C   UNL A   1      46.685  28.519  36.459  1.00  0.00     0.059 A 
ATOM     81  F   UNL A   1      45.857  30.085  34.923  1.00  0.00    -0.206 F 
ATOM     82  C   UNL A   1      46.444  27.494  37.372  1.00  0.00     0.060 A 
BRANCH  82  83
ATOM     83  S   UNL A   1      47.815  26.712  38.250  1.00  0.00     0.124 S 
ATOM     84  O   UNL A   1      48.957  27.465  37.744  1.00  0.00    -0.237 OA
ATOM     85  O   UNL A   1      47.461  26.952  39.645  1.00  0.00    -0.237 OA
ATOM     86  O   UNL A   1      47.737  25.319  37.822  1.00  0.00    -0.744 OA
ENDBRANCH  82  83
ENDBRANCH  50  75
BRANCH  62  87
ATOM     87  C   UNL A   1      39.975  33.951  37.384  1.00  0.00     0.058 A 
ATOM     88  C   UNL A   1      40.690  35.156  37.455  1.00  0.00     0.135 A 
ATOM     89  C   UNL A   1      39.086  33.656  38.432  1.00  0.00     0.135 A 
ATOM     90  F   UNL A   1      41.559  35.485  36.487  1.00  0.00    -0.206 F 
ATOM     91  C   UNL A   1      40.547  36.026  38.533  1.00  0.00     0.059 A 
ATOM     92  C   UNL A   1      38.904  34.525  39.505  1.00  0.00     0.059 A 
ATOM     93  F   UNL A   1      38.370  32.520  38.414  1.00  0.00    -0.206 F 
ATOM     94  C   UNL A   1      39.649  35.702  39.551  1.00  0.00     0.060 A 
BRANCH  94  95
ATOM     95  S   UNL A   1      39.447  36.857  40.925  1.00  0.00     0.124 S 
ATOM     96  O   UNL A   1      38.801  36.015  41.926  1.00  0.00    -0.237 OA
ATOM     97  O   UNL A   1      40.825  37.242  41.214  1.00  0.00    -0.237 OA
ATOM     98  O   UNL A   1      38.613  37.915  40.361  1.00  0.00    -0.744 OA
ENDBRANCH  94  95
ENDBRANCH  62  87
ENDBRANCH  36  37
ENDBRANCH  28  31
ENDBRANCH  26  27
ENDBRANCH   1  26
TORSDOF 16
ENDMDL
MODEL 3
REMARK VINA RESULT:     -11.8      1.056      1.735
REMARK SMILES O=C(CCC1CC[NH+]([C@H]2CCO[C@]3(CCSC3)C2)CC1)NCCCNC(=O)c1ccc(-c2c3nc(c(-c4c(F)cc(S(=O)(=O)[O-])cc4F)c4ccc([nH]4)c(-c4c(F)cc(S(=O)(=O)[O-])cc4F)c4nc(c(-c5c(F)cc(S(=O)(=O)[O-])cc5F)c5ccc2[nH]5)C=C4)C=C3)cc1
REMARK SMILES IDX 23 1 22 2 21 3 1 4 2 5 3 7 4 8 5 9 6 10 20 11 7 12 19 13
REMARK SMILES IDX 8 14 9 16 10 17 18 18 11 19 13 20 12 21 14 22 17 23 15 24
REMARK SMILES IDX 16 25 24 26 25 27 26 28 27 30 28 31 29 32 93 33 30 34 92 35
REMARK SMILES IDX 31 36 32 37 33 38 86 39 34 40 91 41 85 42 87 43 35 44 90 45
REMARK SMILES IDX 84 46 83 47 36 49 70 50 49 51 69 52 50 53 53 54 68 55 88 56
REMARK SMILES IDX 51 57 52 58 67 60 89 61 54 62 37 63 38 64 47 65 39 66 40 67
REMARK SMILES IDX 46 68 48 69 41 70 42 71 43 72 44 73 45 74 71 75 72 76 81 77
REMARK SMILES IDX 73 78 74 79 80 80 82 81 75 82 76 83 77 84 78 85 79 86 55 87
REMARK SMILES IDX 56 88 65 89 57 90 58 91 64 92 66 93 59 94 60 95 61 96 62 97
REMARK SMILES IDX 63 98
REMARK H PARENT 21 6 8 15 25 29 87 48 53 59
REMARK Flexibility Score: inf
ROOT
ATOM      1  C   UNL A   1      39.830  21.964  26.735  1.00  0.00     0.042 C 
ENDROOT
BRANCH   1   2
ATOM      2  C   UNL A   1      38.533  22.566  26.186  1.00  0.00     0.117 C 
BRANCH   2   3
ATOM      3  N   UNL A   1      37.449  21.603  26.090  1.00  0.00    -0.356 N 
ATOM      4  O   UNL A   1      37.091  21.882  23.858  1.00  0.00    -0.275 OA
ATOM      5  C   UNL A   1      36.764  21.366  24.925  1.00  0.00     0.220 C 
ATOM      6  H   UNL A   1      37.195  21.099  26.897  1.00  0.00     0.163 HD
BRANCH   5   7
ATOM      7  C   UNL A   1      35.485  20.533  25.002  1.00  0.00     0.100 C 
BRANCH   7   8
ATOM      8  C   UNL A   1      34.140  21.164  25.365  1.00  0.00     0.014 C 
BRANCH   8   9
ATOM      9  C   UNL A   1      33.864  22.636  24.975  1.00  0.00     0.000 C 
ATOM     10  C   UNL A   1      33.648  23.515  26.230  1.00  0.00     0.065 C 
ATOM     11  C   UNL A   1      32.796  22.857  23.890  1.00  0.00     0.065 C 
ATOM     12  C   UNL A   1      32.190  23.876  26.542  1.00  0.00     0.262 C 
ATOM     13  C   UNL A   1      31.401  23.105  24.425  1.00  0.00     0.262 C 
ATOM     14  N   UNL A   1      31.364  24.203  25.381  1.00  0.00    -0.332 N 
ATOM     15  H   UNL A   1      30.394  24.262  25.688  1.00  0.00     0.348 HD
BRANCH  14  16
ATOM     16  C   UNL A   1      31.441  25.596  24.874  1.00  0.00     0.189 C 
ATOM     17  C   UNL A   1      30.317  26.083  23.941  1.00  0.00     0.093 C 
ATOM     18  C   UNL A   1      31.666  26.634  26.000  1.00  0.00     0.101 C 
ATOM     19  C   UNL A   1      30.510  27.532  23.526  1.00  0.00     0.167 C 
ATOM     20  C   UNL A   1      31.798  28.081  25.478  1.00  0.00     0.084 C 
ATOM     21  O   UNL A   1      30.655  28.377  24.657  1.00  0.00    -0.374 OA
ATOM     22  C   UNL A   1      33.100  28.371  24.706  1.00  0.00     0.047 C 
ATOM     23  C   UNL A   1      31.776  29.094  26.634  1.00  0.00     0.105 C 
ATOM     24  C   UNL A   1      34.222  28.780  25.651  1.00  0.00     0.072 C 
ATOM     25  S   UNL A   1      33.472  29.183  27.241  1.00  0.00    -0.159 SA
ENDBRANCH  14  16
ENDBRANCH   8   9
ENDBRANCH   7   8
ENDBRANCH   5   7
ENDBRANCH   2   3
ENDBRANCH   1   2
BRANCH   1  26
ATOM     26  C   UNL A   1      40.934  22.957  27.107  1.00  0.00     0.118 C 
BRANCH  26  27
ATOM     27  N   UNL A   1      41.274  23.896  26.048  1.00  0.00    -0.352 N 
ATOM     28  C   UNL A   1      41.413  25.262  26.062  1.00  0.00     0.251 C 
ATOM     29  H   UNL A   1      41.433  23.479  25.170  1.00  0.00     0.163 HD
ATOM     30  O   UNL A   1      41.604  25.849  24.995  1.00  0.00    -0.269 OA
BRANCH  28  31
ATOM     31  C   UNL A   1      41.301  26.044  27.315  1.00  0.00     0.039 A 
ATOM     32  C   UNL A   1      42.409  26.788  27.734  1.00  0.00     0.014 A 
ATOM     33  C   UNL A   1      40.143  26.031  28.096  1.00  0.00     0.014 A 
ATOM     34  C   UNL A   1      42.326  27.589  28.878  1.00  0.00     0.010 A 
ATOM     35  C   UNL A   1      40.041  26.875  29.207  1.00  0.00     0.010 A 
ATOM     36  C   UNL A   1      41.123  27.681  29.598  1.00  0.00    -0.014 A 
BRANCH  36  37
ATOM     37  C   UNL A   1      40.967  28.662  30.709  1.00  0.00     0.031 A 
ATOM     38  C   UNL A   1      41.788  28.553  31.965  1.00  0.00     0.074 A 
ATOM     39  C   UNL A   1      40.025  29.624  30.610  1.00  0.00     0.049 A 
ATOM     40  N   UNL A   1      41.726  29.271  33.057  1.00  0.00    -0.248 NA
ATOM     41  C   UNL A   1      42.803  27.489  32.004  1.00  0.00     0.031 C 
ATOM     42  C   UNL A   1      39.140  29.824  29.460  1.00  0.00     0.029 A 
ATOM     43  N   UNL A   1      39.642  30.605  31.493  1.00  0.00    -0.354 N 
ATOM     44  C   UNL A   1      42.682  28.744  33.919  1.00  0.00     0.074 A 
ATOM     45  C   UNL A   1      43.284  27.618  33.234  1.00  0.00     0.031 C 
ATOM     46  C   UNL A   1      38.329  30.865  29.702  1.00  0.00     0.029 A 
ATOM     47  C   UNL A   1      38.599  31.380  31.041  1.00  0.00     0.049 A 
ATOM     48  H   UNL A   1      40.074  30.740  32.367  1.00  0.00     0.167 HD
ATOM     49  C   UNL A   1      43.035  29.168  35.157  1.00  0.00     0.037 A 
ATOM     50  C   UNL A   1      37.917  32.377  31.639  1.00  0.00     0.037 A 
ATOM     51  C   UNL A   1      42.436  30.292  35.833  1.00  0.00     0.049 A 
ATOM     52  C   UNL A   1      38.300  32.801  33.032  1.00  0.00     0.074 A 
ATOM     53  C   UNL A   1      42.764  30.826  37.068  1.00  0.00     0.029 A 
ATOM     54  N   UNL A   1      41.379  31.046  35.345  1.00  0.00    -0.354 N 
ATOM     55  N   UNL A   1      39.250  32.331  33.804  1.00  0.00    -0.248 NA
ATOM     56  C   UNL A   1      37.518  33.889  33.635  1.00  0.00     0.031 C 
ATOM     57  C   UNL A   1      41.870  31.864  37.351  1.00  0.00     0.029 A 
ATOM     58  C   UNL A   1      41.021  32.018  36.268  1.00  0.00     0.049 A 
ATOM     59  H   UNL A   1      40.946  30.911  34.472  1.00  0.00     0.167 HD
ATOM     60  C   UNL A   1      39.195  33.081  34.974  1.00  0.00     0.074 A 
ATOM     61  C   UNL A   1      38.131  34.048  34.800  1.00  0.00     0.031 C 
ATOM     62  C   UNL A   1      39.958  32.978  36.091  1.00  0.00     0.037 A 
BRANCH  49  63
ATOM     63  C   UNL A   1      44.120  28.408  35.875  1.00  0.00     0.058 A 
ATOM     64  C   UNL A   1      43.829  27.325  36.719  1.00  0.00     0.135 A 
ATOM     65  C   UNL A   1      45.473  28.734  35.676  1.00  0.00     0.135 A 
ATOM     66  F   UNL A   1      42.554  26.973  36.954  1.00  0.00    -0.206 F 
ATOM     67  C   UNL A   1      44.835  26.611  37.363  1.00  0.00     0.059 A 
ATOM     68  C   UNL A   1      46.498  28.014  36.287  1.00  0.00     0.059 A 
ATOM     69  F   UNL A   1      45.812  29.756  34.876  1.00  0.00    -0.206 F 
ATOM     70  C   UNL A   1      46.167  26.963  37.141  1.00  0.00     0.060 A 
BRANCH  70  71
ATOM     71  S   UNL A   1      47.458  26.020  37.978  1.00  0.00     0.124 S 
ATOM     72  O   UNL A   1      48.530  27.008  38.069  1.00  0.00    -0.237 OA
ATOM     73  O   UNL A   1      46.817  25.666  39.240  1.00  0.00    -0.237 OA
ATOM     74  O   UNL A   1      47.710  24.905  37.071  1.00  0.00    -0.744 OA
ENDBRANCH  70  71
ENDBRANCH  49  63
BRANCH  50  75
ATOM     75  C   UNL A   1      36.795  33.044  30.923  1.00  0.00     0.058 A 
ATOM     76  C   UNL A   1      35.461  32.802  31.286  1.00  0.00     0.135 A 
ATOM     77  C   UNL A   1      37.032  33.939  29.867  1.00  0.00     0.135 A 
ATOM     78  F   UNL A   1      35.182  31.947  32.281  1.00  0.00    -0.206 F 
ATOM     79  C   UNL A   1      34.403  33.410  30.620  1.00  0.00     0.059 A 
ATOM     80  C   UNL A   1      35.991  34.583  29.206  1.00  0.00     0.059 A 
ATOM     81  F   UNL A   1      38.290  34.216  29.489  1.00  0.00    -0.206 F 
ATOM     82  C   UNL A   1      34.679  34.303  29.582  1.00  0.00     0.060 A 
BRANCH  82  83
ATOM     83  S   UNL A   1      33.298  35.124  28.757  1.00  0.00     0.124 S 
ATOM     84  O   UNL A   1      33.984  36.166  28.003  1.00  0.00    -0.237 OA
ATOM     85  O   UNL A   1      32.724  34.038  27.968  1.00  0.00    -0.237 OA
ATOM     86  O   UNL A   1      32.470  35.587  29.867  1.00  0.00    -0.744 OA
ENDBRANCH  82  83
ENDBRANCH  50  75
BRANCH  62  87
ATOM     87  C   UNL A   1      39.688  33.948  37.210  1.00  0.00     0.058 A 
ATOM     88  C   UNL A   1      38.909  33.596  38.323  1.00  0.00     0.135 A 
ATOM     89  C   UNL A   1      40.257  35.233  37.192  1.00  0.00     0.135 A 
ATOM     90  F   UNL A   1      38.334  32.385  38.389  1.00  0.00    -0.206 F 
ATOM     91  C   UNL A   1      38.684  34.489  39.367  1.00  0.00     0.059 A 
ATOM     92  C   UNL A   1      40.071  36.132  38.239  1.00  0.00     0.059 A 
ATOM     93  F   UNL A   1      41.017  35.623  36.156  1.00  0.00    -0.206 F 
ATOM     94  C   UNL A   1      39.272  35.753  39.317  1.00  0.00     0.060 A 
BRANCH  94  95
ATOM     95  S   UNL A   1      39.002  36.888  40.696  1.00  0.00     0.124 S 
ATOM     96  O   UNL A   1      38.298  37.985  40.041  1.00  0.00    -0.237 OA
ATOM     97  O   UNL A   1      38.203  36.080  41.613  1.00  0.00    -0.237 OA
ATOM     98  O   UNL A   1      40.353  37.194  41.156  1.00  0.00    -0.744 OA
ENDBRANCH  94  95
ENDBRANCH  62  87
ENDBRANCH  36  37
ENDBRANCH  28  31
ENDBRANCH  26  27
ENDBRANCH   1  26
TORSDOF 16
ENDMDL
