MODEL 1
REMARK VINA RESULT:     -10.6      0.000      0.000
REMARK SMILES O=C(COc1ccccc1-c1ccccc1)NCCCNC(=O)c1ccc(-c2c3nc(c(-c4c(F)cc(S(=O)(=O)[O-])cc4F)c4ccc([nH]4)c(-c4c(F)cc(S(=O)(=O)[O-])cc4F)c4nc(c(-c5c(F)cc(S(=O)(=O)[O-])cc5F)c5ccc2[nH]5)C=C4)C=C3)cc1
REMARK SMILES IDX 19 1 18 2 17 3 1 4 2 5 3 7 4 8 5 9 6 10 10 11 7 12 9 13 8 14
REMARK SMILES IDX 11 15 12 16 16 17 13 18 15 19 14 20 20 21 21 22 22 23 23 25
REMARK SMILES IDX 24 26 25 27 89 28 26 29 88 30 27 31 28 32 29 33 82 34 30 35
REMARK SMILES IDX 87 36 81 37 83 38 31 39 86 40 80 41 79 42 32 44 66 45 45 46
REMARK SMILES IDX 65 47 46 48 49 49 64 50 84 51 47 52 48 53 63 55 85 56 50 57
REMARK SMILES IDX 33 58 34 59 43 60 35 61 36 62 42 63 44 64 37 65 38 66 39 67
REMARK SMILES IDX 40 68 41 69 67 70 68 71 77 72 69 73 70 74 76 75 78 76 71 77
REMARK SMILES IDX 72 78 73 79 74 80 75 81 51 82 52 83 61 84 53 85 54 86 60 87
REMARK SMILES IDX 62 88 55 89 56 90 57 91 58 92 59 93
REMARK H PARENT 17 6 21 24 83 43 49 54
REMARK Flexibility Score: inf
ROOT
ATOM      1  C   UNL A   1      33.110  33.768  28.035  1.00  0.00     0.042 C 
ENDROOT
BRANCH   1   2
ATOM      2  C   UNL A   1      33.709  35.106  28.401  1.00  0.00     0.117 C 
BRANCH   2   3
ATOM      3  N   UNL A   1      34.141  35.279  29.765  1.00  0.00    -0.353 N 
ATOM      4  O   UNL A   1      32.397  36.600  30.481  1.00  0.00    -0.271 OA
ATOM      5  C   UNL A   1      33.286  35.792  30.726  1.00  0.00     0.257 C 
ATOM      6  H   UNL A   1      35.058  35.027  30.017  1.00  0.00     0.163 HD
BRANCH   5   7
ATOM      7  C   UNL A   1      33.539  35.236  32.128  1.00  0.00     0.329 C 
BRANCH   7   8
ATOM      8  O   UNL A   1      34.444  34.138  32.111  1.00  0.00    -0.483 OA
BRANCH   8   9
ATOM      9  C   UNL A   1      35.494  34.048  32.984  1.00  0.00     0.127 A 
ATOM     10  C   UNL A   1      35.029  34.081  34.312  1.00  0.00     0.047 A 
ATOM     11  C   UNL A   1      36.884  34.012  32.742  1.00  0.00     0.024 A 
ATOM     12  C   UNL A   1      35.903  34.073  35.398  1.00  0.00     0.004 A 
ATOM     13  C   UNL A   1      37.748  34.016  33.863  1.00  0.00     0.012 A 
ATOM     14  C   UNL A   1      37.269  34.046  35.173  1.00  0.00     0.001 A 
BRANCH  11  15
ATOM     15  C   UNL A   1      37.546  34.037  31.429  1.00  0.00    -0.015 A 
ATOM     16  C   UNL A   1      38.755  34.722  31.234  1.00  0.00     0.009 A 
ATOM     17  C   UNL A   1      36.938  33.459  30.313  1.00  0.00     0.009 A 
ATOM     18  C   UNL A   1      39.378  34.741  29.983  1.00  0.00     0.001 A 
ATOM     19  C   UNL A   1      37.576  33.441  29.068  1.00  0.00     0.001 A 
ATOM     20  C   UNL A   1      38.804  34.070  28.907  1.00  0.00     0.000 A 
ENDBRANCH  11  15
ENDBRANCH   8   9
ENDBRANCH   7   8
ENDBRANCH   5   7
ENDBRANCH   2   3
ENDBRANCH   1   2
BRANCH   1  21
ATOM     21  C   UNL A   1      34.066  32.614  28.246  1.00  0.00     0.118 C 
BRANCH  21  22
ATOM     22  N   UNL A   1      33.751  31.430  27.440  1.00  0.00    -0.352 N 
ATOM     23  C   UNL A   1      34.469  30.268  27.271  1.00  0.00     0.251 C 
ATOM     24  H   UNL A   1      32.900  31.472  26.947  1.00  0.00     0.163 HD
ATOM     25  O   UNL A   1      34.101  29.418  26.474  1.00  0.00    -0.269 OA
BRANCH  23  26
ATOM     26  C   UNL A   1      35.707  30.089  28.050  1.00  0.00     0.039 A 
ATOM     27  C   UNL A   1      35.635  29.641  29.370  1.00  0.00     0.014 A 
ATOM     28  C   UNL A   1      36.938  30.272  27.423  1.00  0.00     0.014 A 
ATOM     29  C   UNL A   1      36.811  29.289  30.033  1.00  0.00     0.010 A 
ATOM     30  C   UNL A   1      38.082  29.790  28.028  1.00  0.00     0.010 A 
ATOM     31  C   UNL A   1      38.036  29.317  29.349  1.00  0.00    -0.014 A 
BRANCH  31  32
ATOM     32  C   UNL A   1      39.318  28.935  29.984  1.00  0.00     0.031 A 
ATOM     33  C   UNL A   1      39.791  29.734  31.169  1.00  0.00     0.074 A 
ATOM     34  C   UNL A   1      40.094  27.982  29.432  1.00  0.00     0.049 A 
ATOM     35  N   UNL A   1      40.965  29.756  31.738  1.00  0.00    -0.248 NA
ATOM     36  C   UNL A   1      38.830  30.694  31.743  1.00  0.00     0.031 C 
ATOM     37  C   UNL A   1      39.761  27.191  28.244  1.00  0.00     0.029 A 
ATOM     38  N   UNL A   1      41.337  27.531  29.790  1.00  0.00    -0.354 N 
ATOM     39  C   UNL A   1      40.899  30.771  32.687  1.00  0.00     0.074 A 
ATOM     40  C   UNL A   1      39.597  31.382  32.571  1.00  0.00     0.031 C 
ATOM     41  C   UNL A   1      40.764  26.333  27.990  1.00  0.00     0.029 A 
ATOM     42  C   UNL A   1      41.826  26.544  28.969  1.00  0.00     0.049 A 
ATOM     43  H   UNL A   1      41.834  27.882  30.564  1.00  0.00     0.167 HD
ATOM     44  C   UNL A   1      41.832  31.134  33.597  1.00  0.00     0.037 A 
ATOM     45  C   UNL A   1      43.002  25.890  29.005  1.00  0.00     0.037 A 
ATOM     46  C   UNL A   1      43.083  30.448  33.756  1.00  0.00     0.049 A 
ATOM     47  C   UNL A   1      43.987  26.245  30.087  1.00  0.00     0.074 A 
ATOM     48  C   UNL A   1      44.073  30.663  34.696  1.00  0.00     0.029 A 
ATOM     49  N   UNL A   1      43.499  29.384  32.965  1.00  0.00    -0.354 N 
ATOM     50  N   UNL A   1      43.899  27.182  31.004  1.00  0.00    -0.248 NA
ATOM     51  C   UNL A   1      45.224  25.456  30.149  1.00  0.00     0.031 C 
ATOM     52  C   UNL A   1      45.096  29.737  34.465  1.00  0.00     0.029 A 
ATOM     53  C   UNL A   1      44.727  28.925  33.402  1.00  0.00     0.049 A 
ATOM     54  H   UNL A   1      42.994  29.013  32.207  1.00  0.00     0.167 HD
ATOM     55  C   UNL A   1      45.053  27.073  31.770  1.00  0.00     0.074 A 
ATOM     56  C   UNL A   1      45.820  25.977  31.213  1.00  0.00     0.031 C 
ATOM     57  C   UNL A   1      45.446  27.810  32.839  1.00  0.00     0.037 A 
BRANCH  44  58
ATOM     58  C   UNL A   1      41.511  32.297  34.495  1.00  0.00     0.058 A 
ATOM     59  C   UNL A   1      41.060  32.111  35.812  1.00  0.00     0.135 A 
ATOM     60  C   UNL A   1      41.648  33.616  34.032  1.00  0.00     0.135 A 
ATOM     61  F   UNL A   1      40.891  30.871  36.301  1.00  0.00    -0.206 F 
ATOM     62  C   UNL A   1      40.714  33.185  36.624  1.00  0.00     0.059 A 
ATOM     63  C   UNL A   1      41.338  34.708  34.839  1.00  0.00     0.059 A 
ATOM     64  F   UNL A   1      42.071  33.855  32.782  1.00  0.00    -0.206 F 
ATOM     65  C   UNL A   1      40.853  34.482  36.127  1.00  0.00     0.060 A 
BRANCH  65  66
ATOM     66  S   UNL A   1      40.396  35.866  37.190  1.00  0.00     0.124 S 
ATOM     67  O   UNL A   1      39.862  36.816  36.218  1.00  0.00    -0.237 OA
ATOM     68  O   UNL A   1      39.416  35.264  38.088  1.00  0.00    -0.237 OA
ATOM     69  O   UNL A   1      41.660  36.247  37.813  1.00  0.00    -0.744 OA
ENDBRANCH  65  66
ENDBRANCH  44  58
BRANCH  45  70
ATOM     70  C   UNL A   1      43.288  24.808  28.026  1.00  0.00     0.058 A 
ATOM     71  C   UNL A   1      43.927  25.094  26.811  1.00  0.00     0.135 A 
ATOM     72  C   UNL A   1      42.959  23.469  28.289  1.00  0.00     0.135 A 
ATOM     73  F   UNL A   1      44.261  26.359  26.512  1.00  0.00    -0.206 F 
ATOM     74  C   UNL A   1      44.212  24.098  25.882  1.00  0.00     0.059 A 
ATOM     75  C   UNL A   1      43.254  22.451  27.386  1.00  0.00     0.059 A 
ATOM     76  F   UNL A   1      42.366  23.138  29.447  1.00  0.00    -0.206 F 
ATOM     77  C   UNL A   1      43.873  22.779  26.179  1.00  0.00     0.060 A 
BRANCH  77  78
ATOM     78  S   UNL A   1      44.292  21.488  24.987  1.00  0.00     0.124 S 
ATOM     79  O   UNL A   1      43.239  20.508  25.233  1.00  0.00    -0.237 OA
ATOM     80  O   UNL A   1      44.213  22.203  23.717  1.00  0.00    -0.237 OA
ATOM     81  O   UNL A   1      45.637  21.085  25.387  1.00  0.00    -0.744 OA
ENDBRANCH  77  78
ENDBRANCH  45  70
BRANCH  57  82
ATOM     82  C   UNL A   1      46.731  27.423  33.507  1.00  0.00     0.058 A 
ATOM     83  C   UNL A   1      47.951  28.014  33.152  1.00  0.00     0.135 A 
ATOM     84  C   UNL A   1      46.723  26.509  34.573  1.00  0.00     0.135 A 
ATOM     85  F   UNL A   1      48.008  28.889  32.135  1.00  0.00    -0.206 F 
ATOM     86  C   UNL A   1      49.126  27.703  33.825  1.00  0.00     0.059 A 
ATOM     87  C   UNL A   1      47.881  26.202  35.276  1.00  0.00     0.059 A 
ATOM     88  F   UNL A   1      45.574  25.927  34.956  1.00  0.00    -0.206 F 
ATOM     89  C   UNL A   1      49.080  26.799  34.889  1.00  0.00     0.060 A 
BRANCH  89  90
ATOM     90  S   UNL A   1      50.602  26.447  35.793  1.00  0.00     0.124 S 
ATOM     91  O   UNL A   1      50.125  26.428  37.172  1.00  0.00    -0.237 OA
ATOM     92  O   UNL A   1      51.003  25.156  35.243  1.00  0.00    -0.237 OA
ATOM     93  O   UNL A   1      51.471  27.566  35.442  1.00  0.00    -0.744 OA
ENDBRANCH  89  90
ENDBRANCH  57  82
ENDBRANCH  31  32
ENDBRANCH  23  26
ENDBRANCH  21  22
ENDBRANCH   1  21
TORSDOF 16
ENDMDL
MODEL 2
REMARK VINA RESULT:     -10.6      4.024     11.989
REMARK SMILES O=C(COc1ccccc1-c1ccccc1)NCCCNC(=O)c1ccc(-c2c3nc(c(-c4c(F)cc(S(=O)(=O)[O-])cc4F)c4ccc([nH]4)c(-c4c(F)cc(S(=O)(=O)[O-])cc4F)c4nc(c(-c5c(F)cc(S(=O)(=O)[O-])cc5F)c5ccc2[nH]5)C=C4)C=C3)cc1
REMARK SMILES IDX 19 1 18 2 17 3 1 4 2 5 3 7 4 8 5 9 6 10 10 11 7 12 9 13 8 14
REMARK SMILES IDX 11 15 12 16 16 17 13 18 15 19 14 20 20 21 21 22 22 23 23 25
REMARK SMILES IDX 24 26 25 27 89 28 26 29 88 30 27 31 28 32 29 33 82 34 30 35
REMARK SMILES IDX 87 36 81 37 83 38 31 39 86 40 80 41 79 42 32 44 66 45 45 46
REMARK SMILES IDX 65 47 46 48 49 49 64 50 84 51 47 52 48 53 63 55 85 56 50 57
REMARK SMILES IDX 33 58 34 59 43 60 35 61 36 62 42 63 44 64 37 65 38 66 39 67
REMARK SMILES IDX 40 68 41 69 67 70 68 71 77 72 69 73 70 74 76 75 78 76 71 77
REMARK SMILES IDX 72 78 73 79 74 80 75 81 51 82 52 83 61 84 53 85 54 86 60 87
REMARK SMILES IDX 62 88 55 89 56 90 57 91 58 92 59 93
REMARK H PARENT 17 6 21 24 83 43 49 54
REMARK Flexibility Score: inf
ROOT
ATOM      1  C   UNL A   1      40.747  20.236  26.847  1.00  0.00     0.042 C 
ENDROOT
BRANCH   1   2
ATOM      2  C   UNL A   1      41.817  19.345  26.259  1.00  0.00     0.117 C 
BRANCH   2   3
ATOM      3  N   UNL A   1      43.155  19.877  26.206  1.00  0.00    -0.353 N 
ATOM      4  O   UNL A   1      44.099  18.218  24.919  1.00  0.00    -0.271 OA
ATOM      5  C   UNL A   1      44.086  19.380  25.310  1.00  0.00     0.257 C 
ATOM      6  H   UNL A   1      43.411  20.604  26.818  1.00  0.00     0.163 HD
BRANCH   5   7
ATOM      7  C   UNL A   1      45.090  20.430  24.828  1.00  0.00     0.329 C 
BRANCH   7   8
ATOM      8  O   UNL A   1      44.569  21.750  24.928  1.00  0.00    -0.483 OA
BRANCH   8   9
ATOM      9  C   UNL A   1      45.365  22.824  25.221  1.00  0.00     0.127 A 
ATOM     10  C   UNL A   1      46.262  23.070  24.164  1.00  0.00     0.047 A 
ATOM     11  C   UNL A   1      45.451  23.608  26.391  1.00  0.00     0.024 A 
ATOM     12  C   UNL A   1      47.230  24.069  24.237  1.00  0.00     0.004 A 
ATOM     13  C   UNL A   1      46.451  24.608  26.443  1.00  0.00     0.012 A 
ATOM     14  C   UNL A   1      47.329  24.839  25.384  1.00  0.00     0.001 A 
BRANCH  11  15
ATOM     15  C   UNL A   1      44.644  23.452  27.611  1.00  0.00    -0.015 A 
ATOM     16  C   UNL A   1      43.266  23.192  27.547  1.00  0.00     0.009 A 
ATOM     17  C   UNL A   1      45.210  23.655  28.872  1.00  0.00     0.009 A 
ATOM     18  C   UNL A   1      42.507  23.044  28.711  1.00  0.00     0.001 A 
ATOM     19  C   UNL A   1      44.463  23.469  30.039  1.00  0.00     0.001 A 
ATOM     20  C   UNL A   1      43.114  23.149  29.958  1.00  0.00     0.000 A 
ENDBRANCH  11  15
ENDBRANCH   8   9
ENDBRANCH   7   8
ENDBRANCH   5   7
ENDBRANCH   2   3
ENDBRANCH   1   2
BRANCH   1  21
ATOM     21  C   UNL A   1      40.503  21.486  26.030  1.00  0.00     0.118 C 
BRANCH  21  22
ATOM     22  N   UNL A   1      39.087  21.854  25.919  1.00  0.00    -0.352 N 
ATOM     23  C   UNL A   1      38.458  23.032  26.253  1.00  0.00     0.251 C 
ATOM     24  H   UNL A   1      38.500  21.154  25.552  1.00  0.00     0.163 HD
ATOM     25  O   UNL A   1      37.242  23.129  26.188  1.00  0.00    -0.269 OA
BRANCH  23  26
ATOM     26  C   UNL A   1      39.283  24.159  26.721  1.00  0.00     0.039 A 
ATOM     27  C   UNL A   1      39.992  24.927  25.796  1.00  0.00     0.014 A 
ATOM     28  C   UNL A   1      39.261  24.505  28.070  1.00  0.00     0.014 A 
ATOM     29  C   UNL A   1      40.610  26.104  26.222  1.00  0.00     0.010 A 
ATOM     30  C   UNL A   1      39.749  25.737  28.459  1.00  0.00     0.010 A 
ATOM     31  C   UNL A   1      40.451  26.539  27.546  1.00  0.00    -0.014 A 
BRANCH  31  32
ATOM     32  C   UNL A   1      41.059  27.788  28.058  1.00  0.00     0.031 A 
ATOM     33  C   UNL A   1      42.561  27.894  28.073  1.00  0.00     0.074 A 
ATOM     34  C   UNL A   1      40.288  28.743  28.612  1.00  0.00     0.049 A 
ATOM     35  N   UNL A   1      43.324  28.761  28.682  1.00  0.00    -0.248 NA
ATOM     36  C   UNL A   1      43.304  26.833  27.368  1.00  0.00     0.031 C 
ATOM     37  C   UNL A   1      38.826  28.711  28.710  1.00  0.00     0.029 A 
ATOM     38  N   UNL A   1      40.633  29.923  29.218  1.00  0.00    -0.354 N 
ATOM     39  C   UNL A   1      44.626  28.313  28.484  1.00  0.00     0.074 A 
ATOM     40  C   UNL A   1      44.545  27.066  27.760  1.00  0.00     0.031 C 
ATOM     41  C   UNL A   1      38.400  29.834  29.312  1.00  0.00     0.029 A 
ATOM     42  C   UNL A   1      39.558  30.642  29.682  1.00  0.00     0.049 A 
ATOM     43  H   UNL A   1      41.564  30.227  29.312  1.00  0.00     0.167 HD
ATOM     44  C   UNL A   1      45.785  28.909  28.844  1.00  0.00     0.037 A 
ATOM     45  C   UNL A   1      39.519  31.818  30.336  1.00  0.00     0.037 A 
ATOM     46  C   UNL A   1      45.842  30.195  29.479  1.00  0.00     0.049 A 
ATOM     47  C   UNL A   1      40.820  32.511  30.643  1.00  0.00     0.074 A 
ATOM     48  C   UNL A   1      46.954  30.944  29.816  1.00  0.00     0.029 A 
ATOM     49  N   UNL A   1      44.727  30.939  29.844  1.00  0.00    -0.354 N 
ATOM     50  N   UNL A   1      42.046  32.096  30.418  1.00  0.00    -0.248 NA
ATOM     51  C   UNL A   1      40.739  33.831  31.281  1.00  0.00     0.031 C 
ATOM     52  C   UNL A   1      46.511  32.137  30.398  1.00  0.00     0.029 A 
ATOM     53  C   UNL A   1      45.124  32.144  30.393  1.00  0.00     0.049 A 
ATOM     54  H   UNL A   1      43.793  30.651  29.728  1.00  0.00     0.167 HD
ATOM     55  C   UNL A   1      42.880  33.116  30.858  1.00  0.00     0.074 A 
ATOM     56  C   UNL A   1      42.018  34.170  31.358  1.00  0.00     0.031 C 
ATOM     57  C   UNL A   1      44.234  33.181  30.852  1.00  0.00     0.037 A 
BRANCH  44  58
ATOM     58  C   UNL A   1      47.066  28.186  28.530  1.00  0.00     0.058 A 
ATOM     59  C   UNL A   1      47.790  28.442  27.354  1.00  0.00     0.135 A 
ATOM     60  C   UNL A   1      47.575  27.218  29.411  1.00  0.00     0.135 A 
ATOM     61  F   UNL A   1      47.340  29.343  26.465  1.00  0.00    -0.206 F 
ATOM     62  C   UNL A   1      48.946  27.736  27.040  1.00  0.00     0.059 A 
ATOM     63  C   UNL A   1      48.748  26.522  29.132  1.00  0.00     0.059 A 
ATOM     64  F   UNL A   1      46.924  26.929  30.548  1.00  0.00    -0.206 F 
ATOM     65  C   UNL A   1      49.415  26.774  27.935  1.00  0.00     0.060 A 
BRANCH  65  66
ATOM     66  S   UNL A   1      50.914  25.862  27.511  1.00  0.00     0.124 S 
ATOM     67  O   UNL A   1      51.814  26.266  28.588  1.00  0.00    -0.237 OA
ATOM     68  O   UNL A   1      50.462  24.476  27.552  1.00  0.00    -0.237 OA
ATOM     69  O   UNL A   1      51.255  26.367  26.185  1.00  0.00    -0.744 OA
ENDBRANCH  65  66
ENDBRANCH  44  58
BRANCH  45  70
ATOM     70  C   UNL A   1      38.213  32.433  30.695  1.00  0.00     0.058 A 
ATOM     71  C   UNL A   1      37.658  32.239  31.968  1.00  0.00     0.135 A 
ATOM     72  C   UNL A   1      37.508  33.245  29.793  1.00  0.00     0.135 A 
ATOM     73  F   UNL A   1      38.293  31.470  32.866  1.00  0.00    -0.206 F 
ATOM     74  C   UNL A   1      36.442  32.810  32.331  1.00  0.00     0.059 A 
ATOM     75  C   UNL A   1      36.301  33.846  30.140  1.00  0.00     0.059 A 
ATOM     76  F   UNL A   1      38.007  33.480  28.570  1.00  0.00    -0.206 F 
ATOM     77  C   UNL A   1      35.771  33.614  31.409  1.00  0.00     0.060 A 
BRANCH  77  78
ATOM     78  S   UNL A   1      34.217  34.388  31.907  1.00  0.00     0.124 S 
ATOM     79  O   UNL A   1      33.660  33.380  32.802  1.00  0.00    -0.237 OA
ATOM     80  O   UNL A   1      34.675  35.620  32.541  1.00  0.00    -0.237 OA
ATOM     81  O   UNL A   1      33.511  34.570  30.641  1.00  0.00    -0.744 OA
ENDBRANCH  77  78
ENDBRANCH  45  70
BRANCH  57  82
ATOM     82  C   UNL A   1      44.866  34.447  31.347  1.00  0.00     0.058 A 
ATOM     83  C   UNL A   1      45.095  35.536  30.495  1.00  0.00     0.135 A 
ATOM     84  C   UNL A   1      45.167  34.597  32.710  1.00  0.00     0.135 A 
ATOM     85  F   UNL A   1      44.826  35.437  29.184  1.00  0.00    -0.206 F 
ATOM     86  C   UNL A   1      45.613  36.732  30.978  1.00  0.00     0.059 A 
ATOM     87  C   UNL A   1      45.664  35.791  33.218  1.00  0.00     0.059 A 
ATOM     88  F   UNL A   1      44.953  33.583  33.565  1.00  0.00    -0.206 F 
ATOM     89  C   UNL A   1      45.891  36.851  32.341  1.00  0.00     0.060 A 
BRANCH  89  90
ATOM     90  S   UNL A   1      46.510  38.427  32.965  1.00  0.00     0.124 S 
ATOM     91  O   UNL A   1      46.616  38.155  34.395  1.00  0.00    -0.237 OA
ATOM     92  O   UNL A   1      47.776  38.572  32.252  1.00  0.00    -0.237 OA
ATOM     93  O   UNL A   1      45.470  39.376  32.580  1.00  0.00    -0.744 OA
ENDBRANCH  89  90
ENDBRANCH  57  82
ENDBRANCH  31  32
ENDBRANCH  23  26
ENDBRANCH  21  22
ENDBRANCH   1  21
TORSDOF 16
ENDMDL
MODEL 3
REMARK VINA RESULT:     -10.5      2.774      3.387
REMARK SMILES O=C(COc1ccccc1-c1ccccc1)NCCCNC(=O)c1ccc(-c2c3nc(c(-c4c(F)cc(S(=O)(=O)[O-])cc4F)c4ccc([nH]4)c(-c4c(F)cc(S(=O)(=O)[O-])cc4F)c4nc(c(-c5c(F)cc(S(=O)(=O)[O-])cc5F)c5ccc2[nH]5)C=C4)C=C3)cc1
REMARK SMILES IDX 19 1 18 2 17 3 1 4 2 5 3 7 4 8 5 9 6 10 10 11 7 12 9 13 8 14
REMARK SMILES IDX 11 15 12 16 16 17 13 18 15 19 14 20 20 21 21 22 22 23 23 25
REMARK SMILES IDX 24 26 25 27 89 28 26 29 88 30 27 31 28 32 29 33 82 34 30 35
REMARK SMILES IDX 87 36 81 37 83 38 31 39 86 40 80 41 79 42 32 44 66 45 45 46
REMARK SMILES IDX 65 47 46 48 49 49 64 50 84 51 47 52 48 53 63 55 85 56 50 57
REMARK SMILES IDX 33 58 34 59 43 60 35 61 36 62 42 63 44 64 37 65 38 66 39 67
REMARK SMILES IDX 40 68 41 69 67 70 68 71 77 72 69 73 70 74 76 75 78 76 71 77
REMARK SMILES IDX 72 78 73 79 74 80 75 81 51 82 52 83 61 84 53 85 54 86 60 87
REMARK SMILES IDX 62 88 55 89 56 90 57 91 58 92 59 93
REMARK H PARENT 17 6 21 24 83 43 49 54
REMARK Flexibility Score: inf
ROOT
ATOM      1  C   UNL A   1      33.676  33.775  28.389  1.00  0.00     0.042 C 
ENDROOT
BRANCH   1   2
ATOM      2  C   UNL A   1      34.180  35.031  29.061  1.00  0.00     0.117 C 
BRANCH   2   3
ATOM      3  N   UNL A   1      34.738  34.887  30.381  1.00  0.00    -0.353 N 
ATOM      4  O   UNL A   1      33.042  35.914  31.551  1.00  0.00    -0.271 OA
ATOM      5  C   UNL A   1      33.970  35.113  31.510  1.00  0.00     0.257 C 
ATOM      6  H   UNL A   1      35.682  34.624  30.482  1.00  0.00     0.163 HD
BRANCH   5   7
ATOM      7  C   UNL A   1      34.370  34.246  32.705  1.00  0.00     0.329 C 
BRANCH   7   8
ATOM      8  O   UNL A   1      35.464  34.803  33.426  1.00  0.00    -0.483 OA
BRANCH   8   9
ATOM      9  C   UNL A   1      36.513  34.039  33.859  1.00  0.00     0.127 A 
ATOM     10  C   UNL A   1      36.417  33.818  35.246  1.00  0.00     0.047 A 
ATOM     11  C   UNL A   1      37.638  33.549  33.161  1.00  0.00     0.024 A 
ATOM     12  C   UNL A   1      37.398  33.123  35.951  1.00  0.00     0.004 A 
ATOM     13  C   UNL A   1      38.625  32.858  33.904  1.00  0.00     0.012 A 
ATOM     14  C   UNL A   1      38.510  32.646  35.278  1.00  0.00     0.001 A 
BRANCH  11  15
ATOM     15  C   UNL A   1      37.934  33.740  31.733  1.00  0.00    -0.015 A 
ATOM     16  C   UNL A   1      37.353  32.921  30.751  1.00  0.00     0.009 A 
ATOM     17  C   UNL A   1      38.879  34.681  31.320  1.00  0.00     0.009 A 
ATOM     18  C   UNL A   1      37.640  33.110  29.396  1.00  0.00     0.001 A 
ATOM     19  C   UNL A   1      39.139  34.900  29.963  1.00  0.00     0.001 A 
ATOM     20  C   UNL A   1      38.507  34.123  29.000  1.00  0.00     0.000 A 
ENDBRANCH  11  15
ENDBRANCH   8   9
ENDBRANCH   7   8
ENDBRANCH   5   7
ENDBRANCH   2   3
ENDBRANCH   1   2
BRANCH   1  21
ATOM     21  C   UNL A   1      34.470  32.543  28.764  1.00  0.00     0.118 C 
BRANCH  21  22
ATOM     22  N   UNL A   1      33.891  31.290  28.268  1.00  0.00    -0.352 N 
ATOM     23  C   UNL A   1      34.495  30.076  28.033  1.00  0.00     0.251 C 
ATOM     24  H   UNL A   1      32.926  31.323  28.074  1.00  0.00     0.163 HD
ATOM     25  O   UNL A   1      33.873  29.159  27.518  1.00  0.00    -0.269 OA
BRANCH  23  26
ATOM     26  C   UNL A   1      35.917  29.920  28.388  1.00  0.00     0.039 A 
ATOM     27  C   UNL A   1      36.267  29.492  29.669  1.00  0.00     0.014 A 
ATOM     28  C   UNL A   1      36.888  30.105  27.405  1.00  0.00     0.014 A 
ATOM     29  C   UNL A   1      37.596  29.162  29.935  1.00  0.00     0.010 A 
ATOM     30  C   UNL A   1      38.170  29.643  27.628  1.00  0.00     0.010 A 
ATOM     31  C   UNL A   1      38.545  29.190  28.902  1.00  0.00    -0.014 A 
BRANCH  31  32
ATOM     32  C   UNL A   1      39.967  28.829  29.109  1.00  0.00     0.031 A 
ATOM     33  C   UNL A   1      40.902  29.890  29.626  1.00  0.00     0.074 A 
ATOM     34  C   UNL A   1      40.427  27.624  28.721  1.00  0.00     0.049 A 
ATOM     35  N   UNL A   1      42.206  29.899  29.661  1.00  0.00    -0.248 NA
ATOM     36  C   UNL A   1      40.282  31.142  30.099  1.00  0.00     0.031 C 
ATOM     37  C   UNL A   1      39.619  26.546  28.145  1.00  0.00     0.029 A 
ATOM     38  N   UNL A   1      41.698  27.112  28.735  1.00  0.00    -0.354 N 
ATOM     39  C   UNL A   1      42.558  31.172  30.097  1.00  0.00     0.074 A 
ATOM     40  C   UNL A   1      41.336  31.926  30.248  1.00  0.00     0.031 C 
ATOM     41  C   UNL A   1      40.410  25.490  27.888  1.00  0.00     0.029 A 
ATOM     42  C   UNL A   1      41.785  25.833  28.239  1.00  0.00     0.049 A 
ATOM     43  H   UNL A   1      42.476  27.614  29.068  1.00  0.00     0.167 HD
ATOM     44  C   UNL A   1      43.790  31.655  30.379  1.00  0.00     0.037 A 
ATOM     45  C   UNL A   1      42.858  25.035  28.083  1.00  0.00     0.037 A 
ATOM     46  C   UNL A   1      44.980  30.856  30.312  1.00  0.00     0.049 A 
ATOM     47  C   UNL A   1      44.207  25.561  28.494  1.00  0.00     0.074 A 
ATOM     48  C   UNL A   1      46.274  31.202  30.655  1.00  0.00     0.029 A 
ATOM     49  N   UNL A   1      45.012  29.530  29.899  1.00  0.00    -0.354 N 
ATOM     50  N   UNL A   1      44.524  26.755  28.941  1.00  0.00    -0.248 NA
ATOM     51  C   UNL A   1      45.343  24.636  28.391  1.00  0.00     0.031 C 
ATOM     52  C   UNL A   1      47.091  30.088  30.436  1.00  0.00     0.029 A 
ATOM     53  C   UNL A   1      46.301  29.040  29.988  1.00  0.00     0.049 A 
ATOM     54  H   UNL A   1      44.232  29.016  29.589  1.00  0.00     0.167 HD
ATOM     55  C   UNL A   1      45.888  26.714  29.201  1.00  0.00     0.074 A 
ATOM     56  C   UNL A   1      46.335  25.376  28.867  1.00  0.00     0.031 C 
ATOM     57  C   UNL A   1      46.701  27.691  29.674  1.00  0.00     0.037 A 
BRANCH  44  58
ATOM     58  C   UNL A   1      43.891  33.092  30.810  1.00  0.00     0.058 A 
ATOM     59  C   UNL A   1      43.727  33.475  32.151  1.00  0.00     0.135 A 
ATOM     60  C   UNL A   1      44.147  34.103  29.869  1.00  0.00     0.135 A 
ATOM     61  F   UNL A   1      43.460  32.553  33.090  1.00  0.00    -0.206 F 
ATOM     62  C   UNL A   1      43.769  34.809  32.540  1.00  0.00     0.059 A 
ATOM     63  C   UNL A   1      44.226  35.443  30.241  1.00  0.00     0.059 A 
ATOM     64  F   UNL A   1      44.309  33.797  28.573  1.00  0.00    -0.206 F 
ATOM     65  C   UNL A   1      44.015  35.788  31.576  1.00  0.00     0.060 A 
BRANCH  65  66
ATOM     66  S   UNL A   1      44.063  37.516  32.094  1.00  0.00     0.124 S 
ATOM     67  O   UNL A   1      43.555  38.191  30.904  1.00  0.00    -0.237 OA
ATOM     68  O   UNL A   1      43.175  37.521  33.252  1.00  0.00    -0.237 OA
ATOM     69  O   UNL A   1      45.474  37.742  32.391  1.00  0.00    -0.744 OA
ENDBRANCH  65  66
ENDBRANCH  44  58
BRANCH  45  70
ATOM     70  C   UNL A   1      42.693  23.651  27.567  1.00  0.00     0.058 A 
ATOM     71  C   UNL A   1      42.590  22.566  28.450  1.00  0.00     0.135 A 
ATOM     72  C   UNL A   1      42.606  23.382  26.192  1.00  0.00     0.135 A 
ATOM     73  F   UNL A   1      42.668  22.771  29.774  1.00  0.00    -0.206 F 
ATOM     74  C   UNL A   1      42.427  21.262  27.993  1.00  0.00     0.059 A 
ATOM     75  C   UNL A   1      42.420  22.089  25.710  1.00  0.00     0.059 A 
ATOM     76  F   UNL A   1      42.677  24.386  25.305  1.00  0.00    -0.206 F 
ATOM     77  C   UNL A   1      42.342  21.034  26.619  1.00  0.00     0.060 A 
BRANCH  77  78
ATOM     78  S   UNL A   1      42.083  19.343  26.038  1.00  0.00     0.124 S 
ATOM     79  O   UNL A   1      42.442  18.568  27.220  1.00  0.00    -0.237 OA
ATOM     80  O   UNL A   1      40.667  19.350  25.687  1.00  0.00    -0.237 OA
ATOM     81  O   UNL A   1      43.000  19.232  24.907  1.00  0.00    -0.744 OA
ENDBRANCH  77  78
ENDBRANCH  45  70
BRANCH  57  82
ATOM     82  C   UNL A   1      48.138  27.337  29.909  1.00  0.00     0.058 A 
ATOM     83  C   UNL A   1      49.101  27.459  28.897  1.00  0.00     0.135 A 
ATOM     84  C   UNL A   1      48.568  26.951  31.189  1.00  0.00     0.135 A 
ATOM     85  F   UNL A   1      48.736  27.820  27.657  1.00  0.00    -0.206 F 
ATOM     86  C   UNL A   1      50.443  27.198  29.144  1.00  0.00     0.059 A 
ATOM     87  C   UNL A   1      49.908  26.709  31.464  1.00  0.00     0.059 A 
ATOM     88  F   UNL A   1      47.683  26.833  32.192  1.00  0.00    -0.206 F 
ATOM     89  C   UNL A   1      50.838  26.827  30.431  1.00  0.00     0.060 A 
BRANCH  89  90
ATOM     90  S   UNL A   1      52.592  26.548  30.753  1.00  0.00     0.124 S 
ATOM     91  O   UNL A   1      52.550  25.337  31.567  1.00  0.00    -0.237 OA
ATOM     92  O   UNL A   1      53.136  26.389  29.408  1.00  0.00    -0.237 OA
ATOM     93  O   UNL A   1      53.006  27.761  31.450  1.00  0.00    -0.744 OA
ENDBRANCH  89  90
ENDBRANCH  57  82
ENDBRANCH  31  32
ENDBRANCH  23  26
ENDBRANCH  21  22
ENDBRANCH   1  21
TORSDOF 16
ENDMDL
