MODEL 1
REMARK VINA RESULT:     -13.2      0.000      0.000
REMARK SMILES COc1ccc(-c2cc(C[C@H]3CCCC3=O)ccc2[C@@H](C)C(=O)NCCCNC(=O)c2ccc(-c3c4nc(c(-c5c(F)cc(S(=O)(=O)[O-])cc5F)c5ccc([nH]5)c(-c5c(F)cc(S(=O)(=O)[O-])cc5F)c5nc(c(-c6c(F)cc(S(=O)(=O)[O-])cc6F)c6ccc3[nH]6)C=C5)C=C4)cc2)cc1
REMARK SMILES IDX 26 1 25 2 24 3 22 4 23 5 20 7 21 8 19 9 7 10 8 11 9 12 18 13
REMARK SMILES IDX 17 14 6 15 3 16 4 17 98 18 5 19 97 20 2 21 1 22 10 23 11 24
REMARK SMILES IDX 12 25 15 26 13 27 14 28 16 29 27 30 28 31 29 32 30 34 31 35
REMARK SMILES IDX 32 36 96 37 33 38 95 39 34 40 35 41 36 42 89 43 37 44 94 45
REMARK SMILES IDX 88 46 90 47 38 48 93 49 87 50 86 51 39 53 73 54 52 55 72 56
REMARK SMILES IDX 53 57 56 58 71 59 91 60 54 61 55 62 70 64 92 65 57 66 40 67
REMARK SMILES IDX 41 68 50 69 42 70 43 71 49 72 51 73 44 74 45 75 46 76 47 77
REMARK SMILES IDX 48 78 74 79 75 80 84 81 76 82 77 83 83 84 85 85 78 86 79 87
REMARK SMILES IDX 80 88 81 89 82 90 58 91 59 92 68 93 60 94 61 95 67 96 69 97
REMARK SMILES IDX 62 98 63 99 64 100 65 101 66 102
REMARK H PARENT 24 6 28 33 90 52 56 63
REMARK Flexibility Score: inf
ROOT
ATOM      1  C   UNL A   1      39.659  21.859  26.567  1.00  0.00     0.042 C 
ENDROOT
BRANCH   1   2
ATOM      2  C   UNL A   1      38.440  21.833  25.647  1.00  0.00     0.117 C 
BRANCH   2   3
ATOM      3  N   UNL A   1      37.245  22.332  26.299  1.00  0.00    -0.356 N 
ATOM      4  C   UNL A   1      36.016  22.677  25.830  1.00  0.00     0.227 C 
ATOM      5  O   UNL A   1      35.230  23.129  26.673  1.00  0.00    -0.274 OA
ATOM      6  H   UNL A   1      37.342  22.443  27.273  1.00  0.00     0.163 HD
BRANCH   4   7
ATOM      7  C   UNL A   1      35.573  22.540  24.362  1.00  0.00     0.106 C 
ATOM      8  C   UNL A   1      36.684  22.708  23.325  1.00  0.00     0.023 C 
BRANCH   7   9
ATOM      9  C   UNL A   1      34.276  23.287  24.055  1.00  0.00    -0.028 A 
ATOM     10  C   UNL A   1      33.010  22.652  24.104  1.00  0.00    -0.014 A 
ATOM     11  C   UNL A   1      31.845  23.423  23.901  1.00  0.00     0.012 A 
ATOM     12  C   UNL A   1      31.909  24.785  23.587  1.00  0.00    -0.047 A 
ATOM     13  C   UNL A   1      34.316  24.649  23.714  1.00  0.00     0.005 A 
ATOM     14  C   UNL A   1      33.159  25.395  23.513  1.00  0.00     0.004 A 
BRANCH  10  15
ATOM     15  C   UNL A   1      32.861  21.189  24.164  1.00  0.00    -0.018 A 
ATOM     16  C   UNL A   1      32.504  18.403  24.418  1.00  0.00     0.118 A 
ATOM     17  C   UNL A   1      32.875  19.165  25.522  1.00  0.00     0.047 A 
ATOM     18  C   UNL A   1      32.302  19.031  23.186  1.00  0.00     0.047 A 
ATOM     19  C   UNL A   1      33.059  20.541  25.395  1.00  0.00     0.012 A 
ATOM     20  C   UNL A   1      32.488  20.416  23.059  1.00  0.00     0.012 A 
BRANCH  16  21
ATOM     21  O   UNL A   1      32.324  17.072  24.672  1.00  0.00    -0.497 OA
ATOM     22  C   UNL A   1      33.140  16.533  25.704  1.00  0.00     0.278 C 
ENDBRANCH  16  21
ENDBRANCH  10  15
BRANCH  12  23
ATOM     23  C   UNL A   1      30.675  25.555  23.186  1.00  0.00     0.047 C 
BRANCH  23  24
ATOM     24  C   UNL A   1      30.085  26.440  24.295  1.00  0.00     0.060 C 
ATOM     25  C   UNL A   1      30.157  25.901  25.733  1.00  0.00     0.012 C 
ATOM     26  C   UNL A   1      30.829  27.751  24.421  1.00  0.00     0.136 C 
ATOM     27  C   UNL A   1      31.402  26.523  26.359  1.00  0.00     0.009 C 
ATOM     28  C   UNL A   1      31.482  27.922  25.768  1.00  0.00     0.076 C 
ATOM     29  O   UNL A   1      30.885  28.598  23.537  1.00  0.00    -0.299 OA
ENDBRANCH  23  24
ENDBRANCH  12  23
ENDBRANCH   7   9
ENDBRANCH   4   7
ENDBRANCH   2   3
ENDBRANCH   1   2
BRANCH   1  30
ATOM     30  C   UNL A   1      40.041  23.248  27.057  1.00  0.00     0.118 C 
BRANCH  30  31
ATOM     31  N   UNL A   1      40.951  23.918  26.140  1.00  0.00    -0.352 N 
ATOM     32  C   UNL A   1      41.389  25.217  26.097  1.00  0.00     0.251 C 
ATOM     33  H   UNL A   1      41.315  23.340  25.430  1.00  0.00     0.163 HD
ATOM     34  O   UNL A   1      41.958  25.612  25.082  1.00  0.00    -0.269 OA
BRANCH  32  35
ATOM     35  C   UNL A   1      41.186  26.146  27.236  1.00  0.00     0.039 A 
ATOM     36  C   UNL A   1      42.036  27.251  27.356  1.00  0.00     0.014 A 
ATOM     37  C   UNL A   1      40.231  25.902  28.226  1.00  0.00     0.014 A 
ATOM     38  C   UNL A   1      41.899  28.127  28.438  1.00  0.00     0.010 A 
ATOM     39  C   UNL A   1      40.039  26.821  29.258  1.00  0.00     0.010 A 
ATOM     40  C   UNL A   1      40.883  27.932  29.386  1.00  0.00    -0.014 A 
BRANCH  40  41
ATOM     41  C   UNL A   1      40.710  28.865  30.531  1.00  0.00     0.031 A 
ATOM     42  C   UNL A   1      41.573  28.728  31.759  1.00  0.00     0.074 A 
ATOM     43  C   UNL A   1      39.745  29.804  30.485  1.00  0.00     0.049 A 
ATOM     44  N   UNL A   1      41.537  29.410  32.874  1.00  0.00    -0.248 NA
ATOM     45  C   UNL A   1      42.591  27.665  31.741  1.00  0.00     0.031 C 
ATOM     46  C   UNL A   1      38.811  30.005  29.374  1.00  0.00     0.029 A 
ATOM     47  N   UNL A   1      39.382  30.761  31.398  1.00  0.00    -0.354 N 
ATOM     48  C   UNL A   1      42.511  28.851  33.694  1.00  0.00     0.074 A 
ATOM     49  C   UNL A   1      43.086  27.739  32.968  1.00  0.00     0.031 C 
ATOM     50  C   UNL A   1      38.001  31.036  29.660  1.00  0.00     0.029 A 
ATOM     51  C   UNL A   1      38.331  31.548  30.987  1.00  0.00     0.049 A 
ATOM     52  H   UNL A   1      39.831  30.875  32.267  1.00  0.00     0.167 HD
ATOM     53  C   UNL A   1      42.908  29.241  34.929  1.00  0.00     0.037 A 
ATOM     54  C   UNL A   1      37.704  32.565  31.608  1.00  0.00     0.037 A 
ATOM     55  C   UNL A   1      42.356  30.369  35.634  1.00  0.00     0.049 A 
ATOM     56  C   UNL A   1      38.174  32.993  32.971  1.00  0.00     0.074 A 
ATOM     57  C   UNL A   1      42.733  30.887  36.861  1.00  0.00     0.029 A 
ATOM     58  N   UNL A   1      41.309  31.155  35.173  1.00  0.00    -0.354 N 
ATOM     59  N   UNL A   1      39.140  32.491  33.704  1.00  0.00    -0.248 NA
ATOM     60  C   UNL A   1      37.477  34.130  33.588  1.00  0.00     0.031 C 
ATOM     61  C   UNL A   1      41.890  31.964  37.158  1.00  0.00     0.029 A 
ATOM     62  C   UNL A   1      41.016  32.143  36.098  1.00  0.00     0.049 A 
ATOM     63  H   UNL A   1      40.844  31.029  34.315  1.00  0.00     0.167 HD
ATOM     64  C   UNL A   1      39.177  33.262  34.860  1.00  0.00     0.074 A 
ATOM     65  C   UNL A   1      38.151  34.274  34.721  1.00  0.00     0.031 C 
ATOM     66  C   UNL A   1      39.988  33.143  35.942  1.00  0.00     0.037 A 
BRANCH  53  67
ATOM     67  C   UNL A   1      44.000  28.446  35.594  1.00  0.00     0.058 A 
ATOM     68  C   UNL A   1      43.710  27.385  36.468  1.00  0.00     0.135 A 
ATOM     69  C   UNL A   1      45.351  28.731  35.338  1.00  0.00     0.135 A 
ATOM     70  F   UNL A   1      42.436  27.079  36.760  1.00  0.00    -0.206 F 
ATOM     71  C   UNL A   1      44.719  26.656  37.088  1.00  0.00     0.059 A 
ATOM     72  C   UNL A   1      46.377  27.997  35.927  1.00  0.00     0.059 A 
ATOM     73  F   UNL A   1      45.686  29.733  34.512  1.00  0.00    -0.206 F 
ATOM     74  C   UNL A   1      46.050  26.971  36.813  1.00  0.00     0.060 A 
BRANCH  74  75
ATOM     75  S   UNL A   1      47.349  26.017  37.629  1.00  0.00     0.124 S 
ATOM     76  O   UNL A   1      48.333  25.893  36.559  1.00  0.00    -0.237 OA
ATOM     77  O   UNL A   1      47.725  26.887  38.738  1.00  0.00    -0.237 OA
ATOM     78  O   UNL A   1      46.673  24.780  38.008  1.00  0.00    -0.744 OA
ENDBRANCH  74  75
ENDBRANCH  53  67
BRANCH  54  79
ATOM     79  C   UNL A   1      36.582  33.267  30.932  1.00  0.00     0.058 A 
ATOM     80  C   UNL A   1      35.260  33.104  31.372  1.00  0.00     0.135 A 
ATOM     81  C   UNL A   1      36.809  34.131  29.849  1.00  0.00     0.135 A 
ATOM     82  F   UNL A   1      34.992  32.284  32.400  1.00  0.00    -0.206 F 
ATOM     83  C   UNL A   1      34.200  33.762  30.757  1.00  0.00     0.059 A 
ATOM     84  C   UNL A   1      35.768  34.819  29.233  1.00  0.00     0.059 A 
ATOM     85  F   UNL A   1      38.057  34.336  29.403  1.00  0.00    -0.206 F 
ATOM     86  C   UNL A   1      34.465  34.620  29.688  1.00  0.00     0.060 A 
BRANCH  86  87
ATOM     87  S   UNL A   1      33.091  35.519  28.936  1.00  0.00     0.124 S 
ATOM     88  O   UNL A   1      32.346  35.953  30.110  1.00  0.00    -0.237 OA
ATOM     89  O   UNL A   1      33.782  36.569  28.192  1.00  0.00    -0.237 OA
ATOM     90  O   UNL A   1      32.441  34.505  28.111  1.00  0.00    -0.744 OA
ENDBRANCH  86  87
ENDBRANCH  54  79
BRANCH  66  91
ATOM     91  C   UNL A   1      39.808  34.143  37.048  1.00  0.00     0.058 A 
ATOM     92  C   UNL A   1      40.406  35.412  36.997  1.00  0.00     0.135 A 
ATOM     93  C   UNL A   1      38.996  33.843  38.154  1.00  0.00     0.135 A 
ATOM     94  F   UNL A   1      41.196  35.745  35.964  1.00  0.00    -0.206 F 
ATOM     95  C   UNL A   1      40.229  36.339  38.018  1.00  0.00     0.059 A 
ATOM     96  C   UNL A   1      38.784  34.765  39.174  1.00  0.00     0.059 A 
ATOM     97  F   UNL A   1      38.393  32.647  38.246  1.00  0.00    -0.206 F 
ATOM     98  C   UNL A   1      39.417  36.006  39.104  1.00  0.00     0.060 A 
BRANCH  98  99
ATOM     99  S   UNL A   1      39.175  37.225  40.413  1.00  0.00     0.124 S 
ATOM    100  O   UNL A   1      38.615  36.402  41.480  1.00  0.00    -0.237 OA
ATOM    101  O   UNL A   1      40.531  37.718  40.637  1.00  0.00    -0.237 OA
ATOM    102  O   UNL A   1      38.257  38.188  39.814  1.00  0.00    -0.744 OA
ENDBRANCH  98  99
ENDBRANCH  66  91
ENDBRANCH  40  41
ENDBRANCH  32  35
ENDBRANCH  30  31
ENDBRANCH   1  30
TORSDOF 18
ENDMDL
MODEL 2
REMARK VINA RESULT:     -13.1      6.405     11.747
REMARK SMILES COc1ccc(-c2cc(C[C@H]3CCCC3=O)ccc2[C@@H](C)C(=O)NCCCNC(=O)c2ccc(-c3c4nc(c(-c5c(F)cc(S(=O)(=O)[O-])cc5F)c5ccc([nH]5)c(-c5c(F)cc(S(=O)(=O)[O-])cc5F)c5nc(c(-c6c(F)cc(S(=O)(=O)[O-])cc6F)c6ccc3[nH]6)C=C5)C=C4)cc2)cc1
REMARK SMILES IDX 26 1 25 2 24 3 22 4 23 5 20 7 21 8 19 9 7 10 8 11 9 12 18 13
REMARK SMILES IDX 17 14 6 15 3 16 4 17 98 18 5 19 97 20 2 21 1 22 10 23 11 24
REMARK SMILES IDX 12 25 15 26 13 27 14 28 16 29 27 30 28 31 29 32 30 34 31 35
REMARK SMILES IDX 32 36 96 37 33 38 95 39 34 40 35 41 36 42 89 43 37 44 94 45
REMARK SMILES IDX 88 46 90 47 38 48 93 49 87 50 86 51 39 53 73 54 52 55 72 56
REMARK SMILES IDX 53 57 56 58 71 59 91 60 54 61 55 62 70 64 92 65 57 66 40 67
REMARK SMILES IDX 41 68 50 69 42 70 43 71 49 72 51 73 44 74 45 75 46 76 47 77
REMARK SMILES IDX 48 78 74 79 75 80 84 81 76 82 77 83 83 84 85 85 78 86 79 87
REMARK SMILES IDX 80 88 81 89 82 90 58 91 59 92 68 93 60 94 61 95 67 96 69 97
REMARK SMILES IDX 62 98 63 99 64 100 65 101 66 102
REMARK H PARENT 24 6 28 33 90 52 56 63
REMARK Flexibility Score: inf
ROOT
ATOM      1  C   UNL A   1      35.125  30.325  27.559  1.00  0.00     0.042 C 
ENDROOT
BRANCH   1   2
ATOM      2  C   UNL A   1      33.677  30.446  27.085  1.00  0.00     0.117 C 
BRANCH   2   3
ATOM      3  N   UNL A   1      32.795  29.517  27.763  1.00  0.00    -0.356 N 
ATOM      4  C   UNL A   1      32.224  28.343  27.380  1.00  0.00     0.227 C 
ATOM      5  O   UNL A   1      31.462  27.825  28.208  1.00  0.00    -0.274 OA
ATOM      6  H   UNL A   1      32.563  29.788  28.681  1.00  0.00     0.163 HD
BRANCH   4   7
ATOM      7  C   UNL A   1      32.470  27.655  26.026  1.00  0.00     0.106 C 
ATOM      8  C   UNL A   1      33.917  27.679  25.534  1.00  0.00     0.023 C 
BRANCH   7   9
ATOM      9  C   UNL A   1      31.418  28.008  24.975  1.00  0.00    -0.028 A 
ATOM     10  C   UNL A   1      30.423  27.085  24.564  1.00  0.00    -0.014 A 
ATOM     11  C   UNL A   1      29.425  27.506  23.659  1.00  0.00     0.012 A 
ATOM     12  C   UNL A   1      29.429  28.792  23.105  1.00  0.00    -0.047 A 
ATOM     13  C   UNL A   1      31.415  29.283  24.386  1.00  0.00     0.005 A 
ATOM     14  C   UNL A   1      30.426  29.682  23.492  1.00  0.00     0.004 A 
BRANCH  10  15
ATOM     15  C   UNL A   1      30.494  25.650  24.887  1.00  0.00    -0.018 A 
ATOM     16  C   UNL A   1      30.766  22.896  25.426  1.00  0.00     0.118 A 
ATOM     17  C   UNL A   1      31.069  23.395  24.163  1.00  0.00     0.047 A 
ATOM     18  C   UNL A   1      30.334  23.771  26.426  1.00  0.00     0.047 A 
ATOM     19  C   UNL A   1      30.928  24.756  23.894  1.00  0.00     0.012 A 
ATOM     20  C   UNL A   1      30.191  25.140  26.154  1.00  0.00     0.012 A 
BRANCH  16  21
ATOM     21  O   UNL A   1      30.972  21.553  25.578  1.00  0.00    -0.497 OA
ATOM     22  C   UNL A   1      32.172  21.052  25.002  1.00  0.00     0.278 C 
ENDBRANCH  16  21
ENDBRANCH  10  15
BRANCH  12  23
ATOM     23  C   UNL A   1      28.476  29.169  21.998  1.00  0.00     0.047 C 
BRANCH  23  24
ATOM     24  C   UNL A   1      27.573  30.372  22.316  1.00  0.00     0.060 C 
ATOM     25  C   UNL A   1      27.735  31.023  23.698  1.00  0.00     0.012 C 
ATOM     26  C   UNL A   1      27.850  31.539  21.394  1.00  0.00     0.136 C 
ATOM     27  C   UNL A   1      28.679  32.206  23.506  1.00  0.00     0.009 C 
ATOM     28  C   UNL A   1      28.339  32.759  22.130  1.00  0.00     0.076 C 
ATOM     29  O   UNL A   1      27.680  31.513  20.181  1.00  0.00    -0.299 OA
ENDBRANCH  23  24
ENDBRANCH  12  23
ENDBRANCH   7   9
ENDBRANCH   4   7
ENDBRANCH   2   3
ENDBRANCH   1   2
BRANCH   1  30
ATOM     30  C   UNL A   1      35.616  31.513  28.372  1.00  0.00     0.118 C 
BRANCH  30  31
ATOM     31  N   UNL A   1      35.569  31.250  29.804  1.00  0.00    -0.352 N 
ATOM     32  C   UNL A   1      36.417  30.541  30.615  1.00  0.00     0.251 C 
ATOM     33  H   UNL A   1      34.798  31.650  30.267  1.00  0.00     0.163 HD
ATOM     34  O   UNL A   1      36.037  30.245  31.746  1.00  0.00    -0.269 OA
BRANCH  32  35
ATOM     35  C   UNL A   1      37.766  30.124  30.158  1.00  0.00     0.039 A 
ATOM     36  C   UNL A   1      38.699  29.715  31.117  1.00  0.00     0.014 A 
ATOM     37  C   UNL A   1      38.148  30.206  28.817  1.00  0.00     0.014 A 
ATOM     38  C   UNL A   1      39.992  29.352  30.727  1.00  0.00     0.010 A 
ATOM     39  C   UNL A   1      39.410  29.762  28.419  1.00  0.00     0.010 A 
ATOM     40  C   UNL A   1      40.352  29.350  29.370  1.00  0.00    -0.014 A 
BRANCH  40  41
ATOM     41  C   UNL A   1      41.715  28.946  28.936  1.00  0.00     0.031 A 
ATOM     42  C   UNL A   1      42.832  29.957  28.905  1.00  0.00     0.074 A 
ATOM     43  C   UNL A   1      41.936  27.682  28.524  1.00  0.00     0.049 A 
ATOM     44  N   UNL A   1      44.070  29.809  28.510  1.00  0.00    -0.248 NA
ATOM     45  C   UNL A   1      42.507  31.322  29.351  1.00  0.00     0.031 C 
ATOM     46  C   UNL A   1      40.926  26.624  28.460  1.00  0.00     0.029 A 
ATOM     47  N   UNL A   1      43.081  27.074  28.075  1.00  0.00    -0.354 N 
ATOM     48  C   UNL A   1      44.664  31.059  28.642  1.00  0.00     0.074 A 
ATOM     49  C   UNL A   1      43.637  31.967  29.105  1.00  0.00     0.031 C 
ATOM     50  C   UNL A   1      41.499  25.493  28.021  1.00  0.00     0.029 A 
ATOM     51  C   UNL A   1      42.908  25.751  27.741  1.00  0.00     0.049 A 
ATOM     52  H   UNL A   1      43.944  27.540  27.998  1.00  0.00     0.167 HD
ATOM     53  C   UNL A   1      45.953  31.414  28.421  1.00  0.00     0.037 A 
ATOM     54  C   UNL A   1      43.786  24.848  27.262  1.00  0.00     0.037 A 
ATOM     55  C   UNL A   1      46.979  30.499  27.993  1.00  0.00     0.049 A 
ATOM     56  C   UNL A   1      45.215  25.260  27.043  1.00  0.00     0.074 A 
ATOM     57  C   UNL A   1      48.328  30.744  27.804  1.00  0.00     0.029 A 
ATOM     58  N   UNL A   1      46.769  29.161  27.689  1.00  0.00    -0.354 N 
ATOM     59  N   UNL A   1      45.773  26.432  27.233  1.00  0.00    -0.248 NA
ATOM     60  C   UNL A   1      46.137  24.227  26.551  1.00  0.00     0.031 C 
ATOM     61  C   UNL A   1      48.927  29.564  27.350  1.00  0.00     0.029 A 
ATOM     62  C   UNL A   1      47.960  28.573  27.296  1.00  0.00     0.049 A 
ATOM     63  H   UNL A   1      45.902  28.700  27.743  1.00  0.00     0.167 HD
ATOM     64  C   UNL A   1      47.113  26.273  26.902  1.00  0.00     0.074 A 
ATOM     65  C   UNL A   1      47.287  24.887  26.517  1.00  0.00     0.031 C 
ATOM     66  C   UNL A   1      48.112  27.191  26.915  1.00  0.00     0.037 A 
BRANCH  53  67
ATOM     67  C   UNL A   1      46.328  32.854  28.649  1.00  0.00     0.058 A 
ATOM     68  C   UNL A   1      46.263  33.804  27.615  1.00  0.00     0.135 A 
ATOM     69  C   UNL A   1      46.733  33.297  29.918  1.00  0.00     0.135 A 
ATOM     70  F   UNL A   1      45.896  33.433  26.379  1.00  0.00    -0.206 F 
ATOM     71  C   UNL A   1      46.616  35.133  27.825  1.00  0.00     0.059 A 
ATOM     72  C   UNL A   1      47.065  34.628  30.157  1.00  0.00     0.059 A 
ATOM     73  F   UNL A   1      46.812  32.434  30.942  1.00  0.00    -0.206 F 
ATOM     74  C   UNL A   1      47.019  35.535  29.099  1.00  0.00     0.060 A 
BRANCH  74  75
ATOM     75  S   UNL A   1      47.478  37.263  29.353  1.00  0.00     0.124 S 
ATOM     76  O   UNL A   1      46.186  37.864  29.666  1.00  0.00    -0.237 OA
ATOM     77  O   UNL A   1      48.421  37.176  30.463  1.00  0.00    -0.237 OA
ATOM     78  O   UNL A   1      48.058  37.652  28.071  1.00  0.00    -0.744 OA
ENDBRANCH  74  75
ENDBRANCH  53  67
BRANCH  54  79
ATOM     79  C   UNL A   1      43.340  23.457  26.985  1.00  0.00     0.058 A 
ATOM     80  C   UNL A   1      43.191  22.996  25.669  1.00  0.00     0.135 A 
ATOM     81  C   UNL A   1      43.078  22.554  28.028  1.00  0.00     0.135 A 
ATOM     82  F   UNL A   1      43.425  23.823  24.638  1.00  0.00    -0.206 F 
ATOM     83  C   UNL A   1      42.787  21.694  25.393  1.00  0.00     0.059 A 
ATOM     84  C   UNL A   1      42.695  21.240  27.777  1.00  0.00     0.059 A 
ATOM     85  F   UNL A   1      43.225  22.941  29.304  1.00  0.00    -0.206 F 
ATOM     86  C   UNL A   1      42.543  20.822  26.456  1.00  0.00     0.060 A 
BRANCH  86  87
ATOM     87  S   UNL A   1      42.078  19.116  26.090  1.00  0.00     0.124 S 
ATOM     88  O   UNL A   1      42.437  18.441  27.331  1.00  0.00    -0.237 OA
ATOM     89  O   UNL A   1      40.648  19.238  25.819  1.00  0.00    -0.237 OA
ATOM     90  O   UNL A   1      42.900  18.788  24.929  1.00  0.00    -0.744 OA
ENDBRANCH  86  87
ENDBRANCH  54  79
BRANCH  66  91
ATOM     91  C   UNL A   1      49.483  26.719  26.519  1.00  0.00     0.058 A 
ATOM     92  C   UNL A   1      50.334  26.080  27.434  1.00  0.00     0.135 A 
ATOM     93  C   UNL A   1      49.935  26.874  25.198  1.00  0.00     0.135 A 
ATOM     94  F   UNL A   1      49.951  25.912  28.709  1.00  0.00    -0.206 F 
ATOM     95  C   UNL A   1      51.597  25.635  27.060  1.00  0.00     0.059 A 
ATOM     96  C   UNL A   1      51.184  26.414  24.797  1.00  0.00     0.059 A 
ATOM     97  F   UNL A   1      49.155  27.470  24.282  1.00  0.00    -0.206 F 
ATOM     98  C   UNL A   1      52.015  25.808  25.739  1.00  0.00     0.060 A 
BRANCH  98  99
ATOM     99  S   UNL A   1      53.648  25.207  25.260  1.00  0.00     0.124 S 
ATOM    100  O   UNL A   1      54.501  25.856  26.250  1.00  0.00    -0.237 OA
ATOM    101  O   UNL A   1      53.504  23.761  25.397  1.00  0.00    -0.237 OA
ATOM    102  O   UNL A   1      53.797  25.687  23.889  1.00  0.00    -0.744 OA
ENDBRANCH  98  99
ENDBRANCH  66  91
ENDBRANCH  40  41
ENDBRANCH  32  35
ENDBRANCH  30  31
ENDBRANCH   1  30
TORSDOF 18
ENDMDL
MODEL 3
REMARK VINA RESULT:     -13.0      6.289     12.129
REMARK SMILES COc1ccc(-c2cc(C[C@H]3CCCC3=O)ccc2[C@@H](C)C(=O)NCCCNC(=O)c2ccc(-c3c4nc(c(-c5c(F)cc(S(=O)(=O)[O-])cc5F)c5ccc([nH]5)c(-c5c(F)cc(S(=O)(=O)[O-])cc5F)c5nc(c(-c6c(F)cc(S(=O)(=O)[O-])cc6F)c6ccc3[nH]6)C=C5)C=C4)cc2)cc1
REMARK SMILES IDX 26 1 25 2 24 3 22 4 23 5 20 7 21 8 19 9 7 10 8 11 9 12 18 13
REMARK SMILES IDX 17 14 6 15 3 16 4 17 98 18 5 19 97 20 2 21 1 22 10 23 11 24
REMARK SMILES IDX 12 25 15 26 13 27 14 28 16 29 27 30 28 31 29 32 30 34 31 35
REMARK SMILES IDX 32 36 96 37 33 38 95 39 34 40 35 41 36 42 89 43 37 44 94 45
REMARK SMILES IDX 88 46 90 47 38 48 93 49 87 50 86 51 39 53 73 54 52 55 72 56
REMARK SMILES IDX 53 57 56 58 71 59 91 60 54 61 55 62 70 64 92 65 57 66 40 67
REMARK SMILES IDX 41 68 50 69 42 70 43 71 49 72 51 73 44 74 45 75 46 76 47 77
REMARK SMILES IDX 48 78 74 79 75 80 84 81 76 82 77 83 83 84 85 85 78 86 79 87
REMARK SMILES IDX 80 88 81 89 82 90 58 91 59 92 68 93 60 94 61 95 67 96 69 97
REMARK SMILES IDX 62 98 63 99 64 100 65 101 66 102
REMARK H PARENT 24 6 28 33 90 52 56 63
REMARK Flexibility Score: inf
ROOT
ATOM      1  C   UNL A   1      34.151  32.010  27.851  1.00  0.00     0.042 C 
ENDROOT
BRANCH   1   2
ATOM      2  C   UNL A   1      33.118  31.057  27.253  1.00  0.00     0.117 C 
BRANCH   2   3
ATOM      3  N   UNL A   1      33.706  30.133  26.302  1.00  0.00    -0.356 N 
ATOM      4  C   UNL A   1      33.295  28.933  25.811  1.00  0.00     0.227 C 
ATOM      5  O   UNL A   1      34.086  28.374  25.038  1.00  0.00    -0.274 OA
ATOM      6  H   UNL A   1      34.572  30.432  25.942  1.00  0.00     0.163 HD
BRANCH   4   7
ATOM      7  C   UNL A   1      31.952  28.264  26.153  1.00  0.00     0.106 C 
ATOM      8  C   UNL A   1      31.515  28.385  27.613  1.00  0.00     0.023 C 
BRANCH   7   9
ATOM      9  C   UNL A   1      31.802  26.872  25.541  1.00  0.00    -0.028 A 
ATOM     10  C   UNL A   1      31.208  26.667  24.270  1.00  0.00    -0.014 A 
ATOM     11  C   UNL A   1      31.186  25.366  23.722  1.00  0.00     0.012 A 
ATOM     12  C   UNL A   1      31.677  24.262  24.429  1.00  0.00    -0.047 A 
ATOM     13  C   UNL A   1      32.265  25.745  26.240  1.00  0.00     0.005 A 
ATOM     14  C   UNL A   1      32.233  24.468  25.688  1.00  0.00     0.004 A 
BRANCH  10  15
ATOM     15  C   UNL A   1      30.439  27.715  23.579  1.00  0.00    -0.018 A 
ATOM     16  C   UNL A   1      29.059  29.702  22.131  1.00  0.00     0.118 A 
ATOM     17  C   UNL A   1      30.448  29.638  22.082  1.00  0.00     0.047 A 
ATOM     18  C   UNL A   1      28.354  28.770  22.896  1.00  0.00     0.047 A 
ATOM     19  C   UNL A   1      31.131  28.660  22.804  1.00  0.00     0.012 A 
ATOM     20  C   UNL A   1      29.041  27.786  23.623  1.00  0.00     0.012 A 
BRANCH  16  21
ATOM     21  O   UNL A   1      28.501  30.683  21.359  1.00  0.00    -0.497 OA
ATOM     22  C   UNL A   1      28.270  31.921  22.020  1.00  0.00     0.278 C 
ENDBRANCH  16  21
ENDBRANCH  10  15
BRANCH  12  23
ATOM     23  C   UNL A   1      31.476  22.856  23.919  1.00  0.00     0.047 C 
BRANCH  23  24
ATOM     24  C   UNL A   1      32.676  22.277  23.151  1.00  0.00     0.060 C 
ATOM     25  C   UNL A   1      33.671  23.282  22.549  1.00  0.00     0.012 C 
ATOM     26  C   UNL A   1      33.575  21.458  24.051  1.00  0.00     0.136 C 
ATOM     27  C   UNL A   1      34.807  23.416  23.559  1.00  0.00     0.009 C 
ATOM     28  C   UNL A   1      34.966  22.026  24.156  1.00  0.00     0.076 C 
ATOM     29  O   UNL A   1      33.225  20.432  24.621  1.00  0.00    -0.299 OA
ENDBRANCH  23  24
ENDBRANCH  12  23
ENDBRANCH   7   9
ENDBRANCH   4   7
ENDBRANCH   2   3
ENDBRANCH   1   2
BRANCH   1  30
ATOM     30  C   UNL A   1      35.417  31.327  28.346  1.00  0.00     0.118 C 
BRANCH  30  31
ATOM     31  N   UNL A   1      35.424  31.175  29.794  1.00  0.00    -0.352 N 
ATOM     32  C   UNL A   1      36.320  30.555  30.628  1.00  0.00     0.251 C 
ATOM     33  H   UNL A   1      34.657  31.588  30.252  1.00  0.00     0.163 HD
ATOM     34  O   UNL A   1      35.985  30.338  31.790  1.00  0.00    -0.269 OA
BRANCH  32  35
ATOM     35  C   UNL A   1      37.665  30.141  30.158  1.00  0.00     0.039 A 
ATOM     36  C   UNL A   1      38.626  29.789  31.112  1.00  0.00     0.014 A 
ATOM     37  C   UNL A   1      38.016  30.172  28.807  1.00  0.00     0.014 A 
ATOM     38  C   UNL A   1      39.917  29.431  30.709  1.00  0.00     0.010 A 
ATOM     39  C   UNL A   1      39.276  29.733  28.399  1.00  0.00     0.010 A 
ATOM     40  C   UNL A   1      40.246  29.377  29.345  1.00  0.00    -0.014 A 
BRANCH  40  41
ATOM     41  C   UNL A   1      41.606  28.978  28.898  1.00  0.00     0.031 A 
ATOM     42  C   UNL A   1      42.712  29.998  28.829  1.00  0.00     0.074 A 
ATOM     43  C   UNL A   1      41.833  27.708  28.507  1.00  0.00     0.049 A 
ATOM     44  N   UNL A   1      43.945  29.854  28.417  1.00  0.00    -0.248 NA
ATOM     45  C   UNL A   1      42.381  31.369  29.253  1.00  0.00     0.031 C 
ATOM     46  C   UNL A   1      40.832  26.639  28.479  1.00  0.00     0.029 A 
ATOM     47  N   UNL A   1      42.976  27.102  28.052  1.00  0.00    -0.354 N 
ATOM     48  C   UNL A   1      44.529  31.112  28.515  1.00  0.00     0.074 A 
ATOM     49  C   UNL A   1      43.501  32.019  28.976  1.00  0.00     0.031 C 
ATOM     50  C   UNL A   1      41.410  25.505  28.054  1.00  0.00     0.029 A 
ATOM     51  C   UNL A   1      42.812  25.771  27.746  1.00  0.00     0.049 A 
ATOM     52  H   UNL A   1      43.834  27.575  27.952  1.00  0.00     0.167 HD
ATOM     53  C   UNL A   1      45.811  31.475  28.267  1.00  0.00     0.037 A 
ATOM     54  C   UNL A   1      43.690  24.867  27.271  1.00  0.00     0.037 A 
ATOM     55  C   UNL A   1      46.839  30.562  27.841  1.00  0.00     0.049 A 
ATOM     56  C   UNL A   1      45.112  25.288  27.021  1.00  0.00     0.074 A 
ATOM     57  C   UNL A   1      48.183  30.816  27.625  1.00  0.00     0.029 A 
ATOM     58  N   UNL A   1      46.638  29.216  27.566  1.00  0.00    -0.354 N 
ATOM     59  N   UNL A   1      45.661  26.469  27.180  1.00  0.00    -0.248 NA
ATOM     60  C   UNL A   1      46.036  24.254  26.535  1.00  0.00     0.031 C 
ATOM     61  C   UNL A   1      48.786  29.633  27.185  1.00  0.00     0.029 A 
ATOM     62  C   UNL A   1      47.828  28.632  27.166  1.00  0.00     0.049 A 
ATOM     63  H   UNL A   1      45.776  28.748  27.643  1.00  0.00     0.167 HD
ATOM     64  C   UNL A   1      46.998  26.316  26.831  1.00  0.00     0.074 A 
ATOM     65  C   UNL A   1      47.179  24.925  26.470  1.00  0.00     0.031 C 
ATOM     66  C   UNL A   1      47.988  27.244  26.810  1.00  0.00     0.037 A 
BRANCH  53  67
ATOM     67  C   UNL A   1      46.175  32.923  28.460  1.00  0.00     0.058 A 
ATOM     68  C   UNL A   1      46.083  33.852  27.410  1.00  0.00     0.135 A 
ATOM     69  C   UNL A   1      46.597  33.394  29.714  1.00  0.00     0.135 A 
ATOM     70  F   UNL A   1      45.698  33.453  26.187  1.00  0.00    -0.206 F 
ATOM     71  C   UNL A   1      46.427  35.188  27.588  1.00  0.00     0.059 A 
ATOM     72  C   UNL A   1      46.921  34.733  29.921  1.00  0.00     0.059 A 
ATOM     73  F   UNL A   1      46.703  32.552  30.752  1.00  0.00    -0.206 F 
ATOM     74  C   UNL A   1      46.847  35.619  28.847  1.00  0.00     0.060 A 
BRANCH  74  75
ATOM     75  S   UNL A   1      47.293  37.356  29.060  1.00  0.00     0.124 S 
ATOM     76  O   UNL A   1      46.932  37.909  27.759  1.00  0.00    -0.237 OA
ATOM     77  O   UNL A   1      46.447  37.761  30.177  1.00  0.00    -0.237 OA
ATOM     78  O   UNL A   1      48.723  37.306  29.345  1.00  0.00    -0.744 OA
ENDBRANCH  74  75
ENDBRANCH  53  67
BRANCH  54  79
ATOM     79  C   UNL A   1      43.254  23.467  27.029  1.00  0.00     0.058 A 
ATOM     80  C   UNL A   1      43.057  22.988  25.725  1.00  0.00     0.135 A 
ATOM     81  C   UNL A   1      43.049  22.573  28.092  1.00  0.00     0.135 A 
ATOM     82  F   UNL A   1      43.236  23.807  24.677  1.00  0.00    -0.206 F 
ATOM     83  C   UNL A   1      42.661  21.677  25.481  1.00  0.00     0.059 A 
ATOM     84  C   UNL A   1      42.675  21.251  27.872  1.00  0.00     0.059 A 
ATOM     85  F   UNL A   1      43.244  22.976  29.356  1.00  0.00    -0.206 F 
ATOM     86  C   UNL A   1      42.474  20.815  26.563  1.00  0.00     0.060 A 
BRANCH  86  87
ATOM     87  S   UNL A   1      42.020  19.098  26.235  1.00  0.00     0.124 S 
ATOM     88  O   UNL A   1      40.614  19.230  25.874  1.00  0.00    -0.237 OA
ATOM     89  O   UNL A   1      42.929  18.741  25.149  1.00  0.00    -0.237 OA
ATOM     90  O   UNL A   1      42.287  18.433  27.507  1.00  0.00    -0.744 OA
ENDBRANCH  86  87
ENDBRANCH  54  79
BRANCH  66  91
ATOM     91  C   UNL A   1      49.356  26.778  26.401  1.00  0.00     0.058 A 
ATOM     92  C   UNL A   1      50.245  26.204  27.325  1.00  0.00     0.135 A 
ATOM     93  C   UNL A   1      49.770  26.870  25.062  1.00  0.00     0.135 A 
ATOM     94  F   UNL A   1      49.900  26.099  28.617  1.00  0.00    -0.206 F 
ATOM     95  C   UNL A   1      51.506  25.764  26.940  1.00  0.00     0.059 A 
ATOM     96  C   UNL A   1      51.017  26.412  24.651  1.00  0.00     0.059 A 
ATOM     97  F   UNL A   1      48.953  27.400  24.137  1.00  0.00    -0.206 F 
ATOM     98  C   UNL A   1      51.885  25.873  25.601  1.00  0.00     0.060 A 
BRANCH  98  99
ATOM     99  S   UNL A   1      53.516  25.279  25.109  1.00  0.00     0.124 S 
ATOM    100  O   UNL A   1      53.563  25.677  23.705  1.00  0.00    -0.237 OA
ATOM    101  O   UNL A   1      54.403  26.013  26.006  1.00  0.00    -0.237 OA
ATOM    102  O   UNL A   1      53.441  23.842  25.352  1.00  0.00    -0.744 OA
ENDBRANCH  98  99
ENDBRANCH  66  91
ENDBRANCH  40  41
ENDBRANCH  32  35
ENDBRANCH  30  31
ENDBRANCH   1  30
TORSDOF 18
ENDMDL
