MODEL 1
REMARK VINA RESULT:     -12.1      0.000      0.000
REMARK SMILES O=C(C[C@H]1CCCCO1)N[C@@H](C(=O)NCCCNC(=O)c1ccc(-c2c3nc(c(-c4c(F)cc(S(=O)(=O)[O-])cc4F)c4ccc([nH]4)c(-c4c(F)cc(S(=O)(=O)[O-])cc4F)c4nc(c(-c5c(F)cc(S(=O)(=O)[O-])cc5F)c5ccc2[nH]5)C=C4)C=C3)cc1)C1CCCCC1
REMARK SMILES IDX 16 1 15 2 14 3 12 4 13 5 11 7 10 8 1 9 2 10 3 12 4 13 5 14
REMARK SMILES IDX 9 15 6 16 8 17 7 18 87 19 88 20 92 21 89 22 91 23 90 24
REMARK SMILES IDX 17 25 18 26 19 27 20 29 21 30 22 31 86 32 23 33 85 34 24 35
REMARK SMILES IDX 25 36 26 37 79 38 27 39 84 40 78 41 80 42 28 43 83 44 77 45
REMARK SMILES IDX 76 46 29 48 63 49 42 50 62 51 43 52 46 53 61 54 81 55 44 56
REMARK SMILES IDX 45 57 60 59 82 60 47 61 30 62 31 63 40 64 32 65 33 66 39 67
REMARK SMILES IDX 41 68 34 69 35 70 36 71 37 72 38 73 64 74 65 75 74 76 66 77
REMARK SMILES IDX 67 78 73 79 75 80 68 81 69 82 70 83 71 84 72 85 48 86 49 87
REMARK SMILES IDX 58 88 50 89 51 90 57 91 59 92 52 93 53 94 54 95 55 96 56 97
REMARK H PARENT 14 6 10 11 18 28 80 47 46 58
REMARK Flexibility Score: inf
ROOT
ATOM      1  C   UNL A   1      37.584  23.667  25.631  1.00  0.00     0.042 C 
ENDROOT
BRANCH   1   2
ATOM      2  C   UNL A   1      37.123  22.211  25.547  1.00  0.00     0.117 C 
BRANCH   2   3
ATOM      3  N   UNL A   1      35.992  21.983  26.430  1.00  0.00    -0.354 N 
ATOM      4  C   UNL A   1      34.703  21.680  26.086  1.00  0.00     0.242 C 
ATOM      5  O   UNL A   1      33.812  21.999  26.874  1.00  0.00    -0.273 OA
ATOM      6  H   UNL A   1      36.174  22.056  27.395  1.00  0.00     0.163 HD
BRANCH   4   7
ATOM      7  C   UNL A   1      34.419  21.070  24.697  1.00  0.00     0.174 C 
BRANCH   7   8
ATOM      8  N   UNL A   1      33.379  21.921  24.104  1.00  0.00    -0.344 N 
ATOM      9  O   UNL A   1      34.812  23.173  22.839  1.00  0.00    -0.275 OA
ATOM     10  C   UNL A   1      33.676  22.957  23.251  1.00  0.00     0.223 C 
ATOM     11  H   UNL A   1      32.437  21.743  24.326  1.00  0.00     0.164 HD
BRANCH  10  12
ATOM     12  C   UNL A   1      32.510  23.861  22.917  1.00  0.00     0.132 C 
BRANCH  12  13
ATOM     13  C   UNL A   1      32.067  24.698  24.118  1.00  0.00     0.127 C 
ATOM     14  C   UNL A   1      31.119  25.828  23.693  1.00  0.00     0.033 C 
ATOM     15  O   UNL A   1      31.387  23.824  25.029  1.00  0.00    -0.378 OA
ATOM     16  C   UNL A   1      30.587  26.576  24.911  1.00  0.00     0.005 C 
ATOM     17  C   UNL A   1      30.975  24.480  26.226  1.00  0.00     0.160 C 
ATOM     18  C   UNL A   1      29.990  25.600  25.916  1.00  0.00     0.029 C 
ENDBRANCH  12  13
ENDBRANCH  10  12
ENDBRANCH   7   8
BRANCH   7  19
ATOM     19  C   UNL A   1      33.960  19.587  24.744  1.00  0.00     0.021 C 
ATOM     20  C   UNL A   1      32.880  19.335  23.668  1.00  0.00     0.006 C 
ATOM     21  C   UNL A   1      35.117  18.586  24.537  1.00  0.00     0.006 C 
ATOM     22  C   UNL A   1      32.408  17.883  23.631  1.00  0.00     0.000 C 
ATOM     23  C   UNL A   1      34.625  17.139  24.544  1.00  0.00     0.000 C 
ATOM     24  C   UNL A   1      33.568  16.909  23.476  1.00  0.00     0.000 C 
ENDBRANCH   7  19
ENDBRANCH   4   7
ENDBRANCH   2   3
ENDBRANCH   1   2
BRANCH   1  25
ATOM     25  C   UNL A   1      38.581  23.932  26.757  1.00  0.00     0.118 C 
BRANCH  25  26
ATOM     26  N   UNL A   1      39.958  23.941  26.286  1.00  0.00    -0.352 N 
ATOM     27  C   UNL A   1      40.963  24.840  26.536  1.00  0.00     0.251 C 
ATOM     28  H   UNL A   1      40.206  23.189  25.701  1.00  0.00     0.163 HD
ATOM     29  O   UNL A   1      42.005  24.775  25.883  1.00  0.00    -0.269 OA
BRANCH  27  30
ATOM     30  C   UNL A   1      40.798  25.886  27.567  1.00  0.00     0.039 A 
ATOM     31  C   UNL A   1      39.808  25.722  28.538  1.00  0.00     0.014 A 
ATOM     32  C   UNL A   1      41.594  27.035  27.563  1.00  0.00     0.014 A 
ATOM     33  C   UNL A   1      39.653  26.684  29.538  1.00  0.00     0.010 A 
ATOM     34  C   UNL A   1      41.486  27.956  28.602  1.00  0.00     0.010 A 
ATOM     35  C   UNL A   1      40.512  27.794  29.598  1.00  0.00    -0.014 A 
BRANCH  35  36
ATOM     36  C   UNL A   1      40.407  28.789  30.697  1.00  0.00     0.031 A 
ATOM     37  C   UNL A   1      41.273  28.662  31.920  1.00  0.00     0.074 A 
ATOM     38  C   UNL A   1      39.490  29.774  30.615  1.00  0.00     0.049 A 
ATOM     39  N   UNL A   1      41.279  29.390  33.007  1.00  0.00    -0.248 NA
ATOM     40  C   UNL A   1      42.245  27.556  31.937  1.00  0.00     0.031 C 
ATOM     41  C   UNL A   1      38.563  29.976  29.500  1.00  0.00     0.029 A 
ATOM     42  N   UNL A   1      39.178  30.784  31.491  1.00  0.00    -0.354 N 
ATOM     43  C   UNL A   1      42.241  28.827  33.838  1.00  0.00     0.074 A 
ATOM     44  C   UNL A   1      42.760  27.664  33.153  1.00  0.00     0.031 C 
ATOM     45  C   UNL A   1      37.803  31.054  29.748  1.00  0.00     0.029 A 
ATOM     46  C   UNL A   1      38.155  31.595  31.056  1.00  0.00     0.049 A 
ATOM     47  H   UNL A   1      39.642  30.916  32.349  1.00  0.00     0.167 HD
ATOM     48  C   UNL A   1      42.667  29.253  35.051  1.00  0.00     0.037 A 
ATOM     49  C   UNL A   1      37.560  32.648  31.650  1.00  0.00     0.037 A 
ATOM     50  C   UNL A   1      42.159  30.425  35.717  1.00  0.00     0.049 A 
ATOM     51  C   UNL A   1      38.044  33.095  33.004  1.00  0.00     0.074 A 
ATOM     52  C   UNL A   1      42.563  30.971  36.923  1.00  0.00     0.029 A 
ATOM     53  N   UNL A   1      41.135  31.229  35.240  1.00  0.00    -0.354 N 
ATOM     54  N   UNL A   1      38.999  32.588  33.747  1.00  0.00    -0.248 NA
ATOM     55  C   UNL A   1      37.378  34.263  33.596  1.00  0.00     0.031 C 
ATOM     56  C   UNL A   1      41.750  32.075  37.199  1.00  0.00     0.029 A 
ATOM     57  C   UNL A   1      40.877  32.253  36.136  1.00  0.00     0.049 A 
ATOM     58  H   UNL A   1      40.660  31.093  34.387  1.00  0.00     0.167 HD
ATOM     59  C   UNL A   1      39.066  33.390  34.881  1.00  0.00     0.074 A 
ATOM     60  C   UNL A   1      38.064  34.425  34.718  1.00  0.00     0.031 C 
ATOM     61  C   UNL A   1      39.883  33.282  35.958  1.00  0.00     0.037 A 
BRANCH  48  62
ATOM     62  C   UNL A   1      43.739  28.450  35.740  1.00  0.00     0.058 A 
ATOM     63  C   UNL A   1      45.102  28.761  35.594  1.00  0.00     0.135 A 
ATOM     64  C   UNL A   1      43.400  27.387  36.592  1.00  0.00     0.135 A 
ATOM     65  F   UNL A   1      45.485  29.757  34.782  1.00  0.00    -0.206 F 
ATOM     66  C   UNL A   1      46.089  28.027  36.243  1.00  0.00     0.059 A 
ATOM     67  C   UNL A   1      44.369  26.659  37.276  1.00  0.00     0.059 A 
ATOM     68  F   UNL A   1      42.113  27.046  36.768  1.00  0.00    -0.206 F 
ATOM     69  C   UNL A   1      45.713  26.978  37.084  1.00  0.00     0.060 A 
BRANCH  69  70
ATOM     70  S   UNL A   1      47.007  26.043  37.927  1.00  0.00     0.124 S 
ATOM     71  O   UNL A   1      47.949  27.102  38.277  1.00  0.00    -0.237 OA
ATOM     72  O   UNL A   1      46.281  25.446  39.045  1.00  0.00    -0.237 OA
ATOM     73  O   UNL A   1      47.467  25.105  36.909  1.00  0.00    -0.744 OA
ENDBRANCH  69  70
ENDBRANCH  48  62
BRANCH  49  74
ATOM     74  C   UNL A   1      36.451  33.363  30.961  1.00  0.00     0.058 A 
ATOM     75  C   UNL A   1      35.134  33.282  31.435  1.00  0.00     0.135 A 
ATOM     76  C   UNL A   1      36.687  34.144  29.819  1.00  0.00     0.135 A 
ATOM     77  F   UNL A   1      34.856  32.543  32.520  1.00  0.00    -0.206 F 
ATOM     78  C   UNL A   1      34.086  33.930  30.791  1.00  0.00     0.059 A 
ATOM     79  C   UNL A   1      35.660  34.826  29.174  1.00  0.00     0.059 A 
ATOM     80  F   UNL A   1      37.933  34.269  29.333  1.00  0.00    -0.206 F 
ATOM     81  C   UNL A   1      34.359  34.702  29.661  1.00  0.00     0.060 A 
BRANCH  81  82
ATOM     82  S   UNL A   1      32.997  35.569  28.854  1.00  0.00     0.124 S 
ATOM     83  O   UNL A   1      33.706  36.598  28.103  1.00  0.00    -0.237 OA
ATOM     84  O   UNL A   1      32.385  34.507  28.061  1.00  0.00    -0.237 OA
ATOM     85  O   UNL A   1      32.192  36.047  29.974  1.00  0.00    -0.744 OA
ENDBRANCH  81  82
ENDBRANCH  49  74
BRANCH  61  86
ATOM     86  C   UNL A   1      39.760  34.329  37.031  1.00  0.00     0.058 A 
ATOM     87  C   UNL A   1      38.983  34.124  38.182  1.00  0.00     0.135 A 
ATOM     88  C   UNL A   1      40.474  35.535  36.930  1.00  0.00     0.135 A 
ATOM     89  F   UNL A   1      38.276  32.992  38.326  1.00  0.00    -0.206 F 
ATOM     90  C   UNL A   1      38.898  35.086  39.183  1.00  0.00     0.059 A 
ATOM     91  C   UNL A   1      40.429  36.498  37.932  1.00  0.00     0.059 A 
ATOM     92  F   UNL A   1      41.241  35.779  35.854  1.00  0.00    -0.206 F 
ATOM     93  C   UNL A   1      39.628  36.270  39.050  1.00  0.00     0.060 A 
BRANCH  93  94
ATOM     94  S   UNL A   1      39.538  37.493  40.374  1.00  0.00     0.124 S 
ATOM     95  O   UNL A   1      38.774  38.560  39.737  1.00  0.00    -0.237 OA
ATOM     96  O   UNL A   1      38.847  36.761  41.430  1.00  0.00    -0.237 OA
ATOM     97  O   UNL A   1      40.939  37.802  40.648  1.00  0.00    -0.744 OA
ENDBRANCH  93  94
ENDBRANCH  61  86
ENDBRANCH  35  36
ENDBRANCH  27  30
ENDBRANCH  25  26
ENDBRANCH   1  25
TORSDOF 17
ENDMDL
MODEL 2
REMARK VINA RESULT:     -12.0      0.463      1.741
REMARK SMILES O=C(C[C@H]1CCCCO1)N[C@@H](C(=O)NCCCNC(=O)c1ccc(-c2c3nc(c(-c4c(F)cc(S(=O)(=O)[O-])cc4F)c4ccc([nH]4)c(-c4c(F)cc(S(=O)(=O)[O-])cc4F)c4nc(c(-c5c(F)cc(S(=O)(=O)[O-])cc5F)c5ccc2[nH]5)C=C4)C=C3)cc1)C1CCCCC1
REMARK SMILES IDX 16 1 15 2 14 3 12 4 13 5 11 7 10 8 1 9 2 10 3 12 4 13 5 14
REMARK SMILES IDX 9 15 6 16 8 17 7 18 87 19 88 20 92 21 89 22 91 23 90 24
REMARK SMILES IDX 17 25 18 26 19 27 20 29 21 30 22 31 86 32 23 33 85 34 24 35
REMARK SMILES IDX 25 36 26 37 79 38 27 39 84 40 78 41 80 42 28 43 83 44 77 45
REMARK SMILES IDX 76 46 29 48 63 49 42 50 62 51 43 52 46 53 61 54 81 55 44 56
REMARK SMILES IDX 45 57 60 59 82 60 47 61 30 62 31 63 40 64 32 65 33 66 39 67
REMARK SMILES IDX 41 68 34 69 35 70 36 71 37 72 38 73 64 74 65 75 74 76 66 77
REMARK SMILES IDX 67 78 73 79 75 80 68 81 69 82 70 83 71 84 72 85 48 86 49 87
REMARK SMILES IDX 58 88 50 89 51 90 57 91 59 92 52 93 53 94 54 95 55 96 56 97
REMARK H PARENT 14 6 10 11 18 28 80 47 46 58
REMARK Flexibility Score: inf
ROOT
ATOM      1  C   UNL A   1      37.717  23.741  25.904  1.00  0.00     0.042 C 
ENDROOT
BRANCH   1   2
ATOM      2  C   UNL A   1      37.112  22.375  25.574  1.00  0.00     0.117 C 
BRANCH   2   3
ATOM      3  N   UNL A   1      35.991  22.089  26.453  1.00  0.00    -0.354 N 
ATOM      4  C   UNL A   1      34.722  21.716  26.104  1.00  0.00     0.242 C 
ATOM      5  O   UNL A   1      33.812  21.989  26.887  1.00  0.00    -0.273 OA
ATOM      6  H   UNL A   1      36.165  22.173  27.418  1.00  0.00     0.163 HD
BRANCH   4   7
ATOM      7  C   UNL A   1      34.477  21.089  24.715  1.00  0.00     0.174 C 
BRANCH   7   8
ATOM      8  N   UNL A   1      33.482  21.955  24.068  1.00  0.00    -0.344 N 
ATOM      9  O   UNL A   1      34.988  23.121  22.806  1.00  0.00    -0.275 OA
ATOM     10  C   UNL A   1      33.835  22.954  23.193  1.00  0.00     0.223 C 
ATOM     11  H   UNL A   1      32.528  21.814  24.269  1.00  0.00     0.164 HD
BRANCH  10  12
ATOM     12  C   UNL A   1      32.709  23.884  22.799  1.00  0.00     0.132 C 
BRANCH  12  13
ATOM     13  C   UNL A   1      32.553  25.047  23.780  1.00  0.00     0.127 C 
ATOM     14  C   UNL A   1      31.078  25.289  24.131  1.00  0.00     0.033 C 
ATOM     15  O   UNL A   1      33.278  24.712  24.971  1.00  0.00    -0.378 OA
ATOM     16  C   UNL A   1      30.946  26.366  25.202  1.00  0.00     0.005 C 
ATOM     17  C   UNL A   1      33.257  25.752  25.946  1.00  0.00     0.160 C 
ATOM     18  C   UNL A   1      31.833  26.041  26.398  1.00  0.00     0.029 C 
ENDBRANCH  12  13
ENDBRANCH  10  12
ENDBRANCH   7   8
BRANCH   7  19
ATOM     19  C   UNL A   1      33.980  19.618  24.768  1.00  0.00     0.021 C 
ATOM     20  C   UNL A   1      32.845  19.408  23.741  1.00  0.00     0.006 C 
ATOM     21  C   UNL A   1      35.099  18.590  24.497  1.00  0.00     0.006 C 
ATOM     22  C   UNL A   1      32.333  17.969  23.711  1.00  0.00     0.000 C 
ATOM     23  C   UNL A   1      34.569  17.157  24.513  1.00  0.00     0.000 C 
ATOM     24  C   UNL A   1      33.457  16.966  23.492  1.00  0.00     0.000 C 
ENDBRANCH   7  19
ENDBRANCH   4   7
ENDBRANCH   2   3
ENDBRANCH   1   2
BRANCH   1  25
ATOM     25  C   UNL A   1      38.888  23.676  26.881  1.00  0.00     0.118 C 
BRANCH  25  26
ATOM     26  N   UNL A   1      40.171  23.870  26.223  1.00  0.00    -0.352 N 
ATOM     27  C   UNL A   1      41.065  24.902  26.335  1.00  0.00     0.251 C 
ATOM     28  H   UNL A   1      40.437  23.151  25.604  1.00  0.00     0.163 HD
ATOM     29  O   UNL A   1      42.005  24.975  25.541  1.00  0.00    -0.269 OA
BRANCH  27  30
ATOM     30  C   UNL A   1      40.902  25.928  27.385  1.00  0.00     0.039 A 
ATOM     31  C   UNL A   1      39.923  25.739  28.364  1.00  0.00     0.014 A 
ATOM     32  C   UNL A   1      41.687  27.085  27.393  1.00  0.00     0.014 A 
ATOM     33  C   UNL A   1      39.770  26.682  29.382  1.00  0.00     0.010 A 
ATOM     34  C   UNL A   1      41.582  27.987  28.449  1.00  0.00     0.010 A 
ATOM     35  C   UNL A   1      40.620  27.799  29.452  1.00  0.00    -0.014 A 
BRANCH  35  36
ATOM     36  C   UNL A   1      40.518  28.774  30.569  1.00  0.00     0.031 A 
ATOM     37  C   UNL A   1      41.402  28.636  31.779  1.00  0.00     0.074 A 
ATOM     38  C   UNL A   1      39.588  29.749  30.516  1.00  0.00     0.049 A 
ATOM     39  N   UNL A   1      41.413  29.346  32.878  1.00  0.00    -0.248 NA
ATOM     40  C   UNL A   1      42.386  27.542  31.764  1.00  0.00     0.031 C 
ATOM     41  C   UNL A   1      38.645  29.959  29.416  1.00  0.00     0.029 A 
ATOM     42  N   UNL A   1      39.276  30.740  31.413  1.00  0.00    -0.354 N 
ATOM     43  C   UNL A   1      42.392  28.780  33.687  1.00  0.00     0.074 A 
ATOM     44  C   UNL A   1      42.915  27.635  32.975  1.00  0.00     0.031 C 
ATOM     45  C   UNL A   1      37.875  31.023  29.693  1.00  0.00     0.029 A 
ATOM     46  C   UNL A   1      38.238  31.546  31.005  1.00  0.00     0.049 A 
ATOM     47  H   UNL A   1      39.749  30.863  32.267  1.00  0.00     0.167 HD
ATOM     48  C   UNL A   1      42.829  29.191  34.901  1.00  0.00     0.037 A 
ATOM     49  C   UNL A   1      37.639  32.582  31.625  1.00  0.00     0.037 A 
ATOM     50  C   UNL A   1      42.316  30.345  35.594  1.00  0.00     0.049 A 
ATOM     51  C   UNL A   1      38.135  33.012  32.980  1.00  0.00     0.074 A 
ATOM     52  C   UNL A   1      42.729  30.875  36.804  1.00  0.00     0.029 A 
ATOM     53  N   UNL A   1      41.276  31.145  35.143  1.00  0.00    -0.354 N 
ATOM     54  N   UNL A   1      39.105  32.503  33.702  1.00  0.00    -0.248 NA
ATOM     55  C   UNL A   1      37.462  34.161  33.601  1.00  0.00     0.031 C 
ATOM     56  C   UNL A   1      41.907  31.965  37.108  1.00  0.00     0.029 A 
ATOM     57  C   UNL A   1      41.018  32.150  36.061  1.00  0.00     0.049 A 
ATOM     58  H   UNL A   1      40.792  31.017  34.295  1.00  0.00     0.167 HD
ATOM     59  C   UNL A   1      39.177  33.287  34.848  1.00  0.00     0.074 A 
ATOM     60  C   UNL A   1      38.162  34.312  34.716  1.00  0.00     0.031 C 
ATOM     61  C   UNL A   1      40.009  33.170  35.913  1.00  0.00     0.037 A 
BRANCH  48  62
ATOM     62  C   UNL A   1      43.919  28.389  35.562  1.00  0.00     0.058 A 
ATOM     63  C   UNL A   1      43.628  27.341  36.451  1.00  0.00     0.135 A 
ATOM     64  C   UNL A   1      45.269  28.641  35.270  1.00  0.00     0.135 A 
ATOM     65  F   UNL A   1      42.356  27.065  36.778  1.00  0.00    -0.206 F 
ATOM     66  C   UNL A   1      44.636  26.591  37.048  1.00  0.00     0.059 A 
ATOM     67  C   UNL A   1      46.293  27.883  35.833  1.00  0.00     0.059 A 
ATOM     68  F   UNL A   1      45.606  29.631  34.428  1.00  0.00    -0.206 F 
ATOM     69  C   UNL A   1      45.967  26.869  36.731  1.00  0.00     0.060 A 
BRANCH  69  70
ATOM     70  S   UNL A   1      47.262  25.880  37.508  1.00  0.00     0.124 S 
ATOM     71  O   UNL A   1      46.579  25.394  38.703  1.00  0.00    -0.237 OA
ATOM     72  O   UNL A   1      47.542  24.876  36.486  1.00  0.00    -0.237 OA
ATOM     73  O   UNL A   1      48.331  26.845  37.746  1.00  0.00    -0.744 OA
ENDBRANCH  69  70
ENDBRANCH  48  62
BRANCH  49  74
ATOM     74  C   UNL A   1      36.513  33.295  30.963  1.00  0.00     0.058 A 
ATOM     75  C   UNL A   1      36.737  34.145  29.871  1.00  0.00     0.135 A 
ATOM     76  C   UNL A   1      35.190  33.136  31.405  1.00  0.00     0.135 A 
ATOM     77  F   UNL A   1      37.984  34.335  29.414  1.00  0.00    -0.206 F 
ATOM     78  C   UNL A   1      35.696  34.830  29.253  1.00  0.00     0.059 A 
ATOM     79  C   UNL A   1      34.128  33.788  30.785  1.00  0.00     0.059 A 
ATOM     80  F   UNL A   1      34.917  32.320  32.436  1.00  0.00    -0.206 F 
ATOM     81  C   UNL A   1      34.394  34.644  29.717  1.00  0.00     0.060 A 
BRANCH  81  82
ATOM     82  S   UNL A   1      33.045  35.510  28.885  1.00  0.00     0.124 S 
ATOM     83  O   UNL A   1      32.431  34.431  28.120  1.00  0.00    -0.237 OA
ATOM     84  O   UNL A   1      32.268  36.018  30.011  1.00  0.00    -0.237 OA
ATOM     85  O   UNL A   1      33.735  36.528  28.099  1.00  0.00    -0.744 OA
ENDBRANCH  81  82
ENDBRANCH  49  74
BRANCH  61  86
ATOM     86  C   UNL A   1      39.888  34.197  37.005  1.00  0.00     0.058 A 
ATOM     87  C   UNL A   1      40.409  35.493  36.865  1.00  0.00     0.135 A 
ATOM     88  C   UNL A   1      39.193  33.895  38.188  1.00  0.00     0.135 A 
ATOM     89  F   UNL A   1      41.087  35.833  35.758  1.00  0.00    -0.206 F 
ATOM     90  C   UNL A   1      40.267  36.446  37.868  1.00  0.00     0.059 A 
ATOM     91  C   UNL A   1      39.012  34.841  39.192  1.00  0.00     0.059 A 
ATOM     92  F   UNL A   1      38.666  32.674  38.370  1.00  0.00    -0.206 F 
ATOM     93  C   UNL A   1      39.563  36.111  39.028  1.00  0.00     0.060 A 
BRANCH  93  94
ATOM     94  S   UNL A   1      39.355  37.369  40.305  1.00  0.00     0.124 S 
ATOM     95  O   UNL A   1      38.547  36.657  41.290  1.00  0.00    -0.237 OA
ATOM     96  O   UNL A   1      40.732  37.649  40.696  1.00  0.00    -0.237 OA
ATOM     97  O   UNL A   1      38.675  38.455  39.605  1.00  0.00    -0.744 OA
ENDBRANCH  93  94
ENDBRANCH  61  86
ENDBRANCH  35  36
ENDBRANCH  27  30
ENDBRANCH  25  26
ENDBRANCH   1  25
TORSDOF 17
ENDMDL
MODEL 3
REMARK VINA RESULT:     -11.9      4.819     10.326
REMARK SMILES O=C(C[C@H]1CCCCO1)N[C@@H](C(=O)NCCCNC(=O)c1ccc(-c2c3nc(c(-c4c(F)cc(S(=O)(=O)[O-])cc4F)c4ccc([nH]4)c(-c4c(F)cc(S(=O)(=O)[O-])cc4F)c4nc(c(-c5c(F)cc(S(=O)(=O)[O-])cc5F)c5ccc2[nH]5)C=C4)C=C3)cc1)C1CCCCC1
REMARK SMILES IDX 16 1 15 2 14 3 12 4 13 5 11 7 10 8 1 9 2 10 3 12 4 13 5 14
REMARK SMILES IDX 9 15 6 16 8 17 7 18 87 19 88 20 92 21 89 22 91 23 90 24
REMARK SMILES IDX 17 25 18 26 19 27 20 29 21 30 22 31 86 32 23 33 85 34 24 35
REMARK SMILES IDX 25 36 26 37 79 38 27 39 84 40 78 41 80 42 28 43 83 44 77 45
REMARK SMILES IDX 76 46 29 48 63 49 42 50 62 51 43 52 46 53 61 54 81 55 44 56
REMARK SMILES IDX 45 57 60 59 82 60 47 61 30 62 31 63 40 64 32 65 33 66 39 67
REMARK SMILES IDX 41 68 34 69 35 70 36 71 37 72 38 73 64 74 65 75 74 76 66 77
REMARK SMILES IDX 67 78 73 79 75 80 68 81 69 82 70 83 71 84 72 85 48 86 49 87
REMARK SMILES IDX 58 88 50 89 51 90 57 91 59 92 52 93 53 94 54 95 55 96 56 97
REMARK H PARENT 14 6 10 11 18 28 80 47 46 58
REMARK Flexibility Score: inf
ROOT
ATOM      1  C   UNL A   1      33.725  28.040  25.242  1.00  0.00     0.042 C 
ENDROOT
BRANCH   1   2
ATOM      2  C   UNL A   1      33.670  26.585  24.776  1.00  0.00     0.117 C 
BRANCH   2   3
ATOM      3  N   UNL A   1      33.886  25.683  25.896  1.00  0.00    -0.354 N 
ATOM      4  C   UNL A   1      34.115  24.335  25.859  1.00  0.00     0.242 C 
ATOM      5  O   UNL A   1      33.791  23.674  26.846  1.00  0.00    -0.273 OA
ATOM      6  H   UNL A   1      33.864  26.092  26.790  1.00  0.00     0.163 HD
BRANCH   4   7
ATOM      7  C   UNL A   1      34.650  23.698  24.558  1.00  0.00     0.174 C 
BRANCH   7   8
ATOM      8  N   UNL A   1      33.805  22.519  24.328  1.00  0.00    -0.344 N 
ATOM      9  O   UNL A   1      33.259  23.053  22.175  1.00  0.00    -0.275 OA
ATOM     10  C   UNL A   1      33.124  22.321  23.151  1.00  0.00     0.223 C 
ATOM     11  H   UNL A   1      33.725  21.846  25.042  1.00  0.00     0.164 HD
BRANCH  10  12
ATOM     12  C   UNL A   1      32.134  21.177  23.171  1.00  0.00     0.132 C 
BRANCH  12  13
ATOM     13  C   UNL A   1      32.764  19.880  23.680  1.00  0.00     0.127 C 
ATOM     14  C   UNL A   1      32.323  19.569  25.117  1.00  0.00     0.033 C 
ATOM     15  O   UNL A   1      32.339  18.821  22.811  1.00  0.00    -0.378 OA
ATOM     16  C   UNL A   1      32.856  18.214  25.567  1.00  0.00     0.005 C 
ATOM     17  C   UNL A   1      32.912  17.560  23.150  1.00  0.00     0.160 C 
ATOM     18  C   UNL A   1      32.497  17.136  24.552  1.00  0.00     0.029 C 
ENDBRANCH  12  13
ENDBRANCH  10  12
ENDBRANCH   7   8
BRANCH   7  19
ATOM     19  C   UNL A   1      36.150  23.301  24.623  1.00  0.00     0.021 C 
ATOM     20  C   UNL A   1      36.842  24.045  25.788  1.00  0.00     0.006 C 
ATOM     21  C   UNL A   1      36.369  21.783  24.797  1.00  0.00     0.006 C 
ATOM     22  C   UNL A   1      38.316  23.672  25.936  1.00  0.00     0.000 C 
ATOM     23  C   UNL A   1      37.852  21.431  24.902  1.00  0.00     0.000 C 
ATOM     24  C   UNL A   1      38.515  22.167  26.056  1.00  0.00     0.000 C 
ENDBRANCH   7  19
ENDBRANCH   4   7
ENDBRANCH   2   3
ENDBRANCH   1   2
BRANCH   1  25
ATOM     25  C   UNL A   1      33.774  28.199  26.760  1.00  0.00     0.118 C 
BRANCH  25  26
ATOM     26  N   UNL A   1      33.601  29.582  27.178  1.00  0.00    -0.352 N 
ATOM     27  C   UNL A   1      34.440  30.388  27.903  1.00  0.00     0.251 C 
ATOM     28  H   UNL A   1      32.756  30.001  26.899  1.00  0.00     0.163 HD
ATOM     29  O   UNL A   1      34.024  31.469  28.322  1.00  0.00    -0.269 OA
BRANCH  27  30
ATOM     30  C   UNL A   1      35.826  29.965  28.193  1.00  0.00     0.039 A 
ATOM     31  C   UNL A   1      36.794  30.102  27.195  1.00  0.00     0.014 A 
ATOM     32  C   UNL A   1      36.167  29.410  29.430  1.00  0.00     0.014 A 
ATOM     33  C   UNL A   1      38.115  29.734  27.457  1.00  0.00     0.010 A 
ATOM     34  C   UNL A   1      37.498  29.113  29.713  1.00  0.00     0.010 A 
ATOM     35  C   UNL A   1      38.486  29.266  28.728  1.00  0.00    -0.014 A 
BRANCH  35  36
ATOM     36  C   UNL A   1      39.900  28.939  29.046  1.00  0.00     0.031 A 
ATOM     37  C   UNL A   1      40.797  29.974  29.670  1.00  0.00     0.074 A 
ATOM     38  C   UNL A   1      40.391  27.727  28.718  1.00  0.00     0.049 A 
ATOM     39  N   UNL A   1      42.071  29.898  29.956  1.00  0.00    -0.248 NA
ATOM     40  C   UNL A   1      40.189  31.276  29.991  1.00  0.00     0.031 C 
ATOM     41  C   UNL A   1      39.632  26.655  28.071  1.00  0.00     0.029 A 
ATOM     42  N   UNL A   1      41.647  27.195  28.874  1.00  0.00    -0.354 N 
ATOM     43  C   UNL A   1      42.419  31.138  30.479  1.00  0.00     0.074 A 
ATOM     44  C   UNL A   1      41.235  31.966  30.419  1.00  0.00     0.031 C 
ATOM     45  C   UNL A   1      40.430  25.588  27.904  1.00  0.00     0.029 A 
ATOM     46  C   UNL A   1      41.767  25.912  28.392  1.00  0.00     0.049 A 
ATOM     47  H   UNL A   1      42.391  27.685  29.291  1.00  0.00     0.167 HD
ATOM     48  C   UNL A   1      43.610  31.542  30.983  1.00  0.00     0.037 A 
ATOM     49  C   UNL A   1      42.836  25.093  28.338  1.00  0.00     0.037 A 
ATOM     50  C   UNL A   1      44.778  30.703  31.057  1.00  0.00     0.049 A 
ATOM     51  C   UNL A   1      44.151  25.569  28.894  1.00  0.00     0.074 A 
ATOM     52  C   UNL A   1      46.017  31.001  31.598  1.00  0.00     0.029 A 
ATOM     53  N   UNL A   1      44.857  29.405  30.573  1.00  0.00    -0.354 N 
ATOM     54  N   UNL A   1      44.445  26.725  29.441  1.00  0.00    -0.248 NA
ATOM     55  C   UNL A   1      45.279  24.629  28.832  1.00  0.00     0.031 C 
ATOM     56  C   UNL A   1      46.859  29.902  31.397  1.00  0.00     0.029 A 
ATOM     57  C   UNL A   1      46.129  28.897  30.782  1.00  0.00     0.049 A 
ATOM     58  H   UNL A   1      44.117  28.916  30.144  1.00  0.00     0.167 HD
ATOM     59  C   UNL A   1      45.782  26.639  29.815  1.00  0.00     0.074 A 
ATOM     60  C   UNL A   1      46.235  25.314  29.442  1.00  0.00     0.031 C 
ATOM     61  C   UNL A   1      46.564  27.572  30.413  1.00  0.00     0.037 A 
BRANCH  48  62
ATOM     62  C   UNL A   1      43.712  32.953  31.496  1.00  0.00     0.058 A 
ATOM     63  C   UNL A   1      43.952  34.036  30.633  1.00  0.00     0.135 A 
ATOM     64  C   UNL A   1      43.524  33.235  32.859  1.00  0.00     0.135 A 
ATOM     65  F   UNL A   1      44.155  33.826  29.324  1.00  0.00    -0.206 F 
ATOM     66  C   UNL A   1      44.031  35.342  31.107  1.00  0.00     0.059 A 
ATOM     67  C   UNL A   1      43.567  34.537  33.350  1.00  0.00     0.059 A 
ATOM     68  F   UNL A   1      43.291  32.239  33.728  1.00  0.00    -0.206 F 
ATOM     69  C   UNL A   1      43.835  35.582  32.468  1.00  0.00     0.060 A 
BRANCH  69  70
ATOM     70  S   UNL A   1      43.931  37.283  33.065  1.00  0.00     0.124 S 
ATOM     71  O   UNL A   1      42.745  37.361  33.913  1.00  0.00    -0.237 OA
ATOM     72  O   UNL A   1      45.212  37.296  33.764  1.00  0.00    -0.237 OA
ATOM     73  O   UNL A   1      43.879  38.077  31.841  1.00  0.00    -0.744 OA
ENDBRANCH  69  70
ENDBRANCH  48  62
BRANCH  49  74
ATOM     74  C   UNL A   1      42.702  23.733  27.750  1.00  0.00     0.058 A 
ATOM     75  C   UNL A   1      42.494  22.610  28.564  1.00  0.00     0.135 A 
ATOM     76  C   UNL A   1      42.775  23.528  26.363  1.00  0.00     0.135 A 
ATOM     77  F   UNL A   1      42.423  22.752  29.896  1.00  0.00    -0.206 F 
ATOM     78  C   UNL A   1      42.384  21.331  28.029  1.00  0.00     0.059 A 
ATOM     79  C   UNL A   1      42.639  22.263  25.802  1.00  0.00     0.059 A 
ATOM     80  F   UNL A   1      42.956  24.572  25.537  1.00  0.00    -0.206 F 
ATOM     81  C   UNL A   1      42.457  21.167  26.645  1.00  0.00     0.060 A 
BRANCH  81  82
ATOM     82  S   UNL A   1      42.277  19.507  25.958  1.00  0.00     0.124 S 
ATOM     83  O   UNL A   1      40.849  19.461  25.670  1.00  0.00    -0.237 OA
ATOM     84  O   UNL A   1      43.163  19.559  24.799  1.00  0.00    -0.237 OA
ATOM     85  O   UNL A   1      42.729  18.644  27.045  1.00  0.00    -0.744 OA
ENDBRANCH  81  82
ENDBRANCH  49  74
BRANCH  61  86
ATOM     86  C   UNL A   1      47.980  27.185  30.741  1.00  0.00     0.058 A 
ATOM     87  C   UNL A   1      48.308  26.506  31.924  1.00  0.00     0.135 A 
ATOM     88  C   UNL A   1      49.016  27.451  29.830  1.00  0.00     0.135 A 
ATOM     89  F   UNL A   1      47.358  26.232  32.832  1.00  0.00    -0.206 F 
ATOM     90  C   UNL A   1      49.616  26.125  32.206  1.00  0.00     0.059 A 
ATOM     91  C   UNL A   1      50.327  27.053  30.076  1.00  0.00     0.059 A 
ATOM     92  F   UNL A   1      48.756  28.089  28.677  1.00  0.00    -0.206 F 
ATOM     93  C   UNL A   1      50.619  26.401  31.273  1.00  0.00     0.060 A 
BRANCH  93  94
ATOM     94  S   UNL A   1      52.305  25.869  31.635  1.00  0.00     0.124 S 
ATOM     95  O   UNL A   1      52.092  24.494  32.072  1.00  0.00    -0.237 OA
ATOM     96  O   UNL A   1      52.967  26.030  30.344  1.00  0.00    -0.237 OA
ATOM     97  O   UNL A   1      52.739  26.797  32.675  1.00  0.00    -0.744 OA
ENDBRANCH  93  94
ENDBRANCH  61  86
ENDBRANCH  35  36
ENDBRANCH  27  30
ENDBRANCH  25  26
ENDBRANCH   1  25
TORSDOF 17
ENDMDL
