MODEL 1
REMARK VINA RESULT:     -10.9      0.000      0.000
REMARK SMILES C[C@H](C(=O)NCCCNC(=O)c1ccc(-c2c3nc(c(-c4c(F)cc(S(=O)(=O)[O-])cc4F)c4ccc([nH]4)c(-c4c(F)cc(S(=O)(=O)[O-])cc4F)c4nc(c(-c5c(F)cc(S(=O)(=O)[O-])cc5F)c5ccc2[nH]5)C=C4)C=C3)cc1)n1c(=O)ssc1=O
REMARK SMILES IDX 8 1 7 2 6 3 5 4 3 5 4 6 2 8 1 9 78 10 79 11 83 12 80 13
REMARK SMILES IDX 81 14 82 15 84 16 9 17 10 18 11 20 12 21 13 22 77 23 14 24
REMARK SMILES IDX 76 25 15 26 16 27 17 28 70 29 18 30 75 31 69 32 71 33 19 34
REMARK SMILES IDX 74 35 68 36 67 37 20 39 54 40 33 41 53 42 34 43 37 44 52 45
REMARK SMILES IDX 72 46 35 47 36 48 51 50 73 51 38 52 21 53 22 54 31 55 23 56
REMARK SMILES IDX 24 57 30 58 32 59 25 60 26 61 27 62 28 63 29 64 55 65 56 66
REMARK SMILES IDX 65 67 57 68 58 69 64 70 66 71 59 72 60 73 61 74 62 75 63 76
REMARK SMILES IDX 39 77 40 78 49 79 41 80 42 81 48 82 50 83 43 84 44 85 45 86
REMARK SMILES IDX 46 87 47 88
REMARK H PARENT 5 7 9 19 71 38 37 49
REMARK Flexibility Score: inf
ROOT
ATOM      1  C   UNL A   1      37.079  33.170  30.845  1.00  0.00     0.118 C 
ENDROOT
BRANCH   1   2
ATOM      2  C   UNL A   1      37.330  34.045  32.066  1.00  0.00     0.042 C 
BRANCH   2   3
ATOM      3  C   UNL A   1      36.257  34.026  33.144  1.00  0.00     0.117 C 
BRANCH   3   4
ATOM      4  N   UNL A   1      35.637  35.315  33.384  1.00  0.00    -0.354 N 
ATOM      5  C   UNL A   1      34.395  35.801  33.112  1.00  0.00     0.243 C 
ATOM      6  O   UNL A   1      34.136  36.917  33.581  1.00  0.00    -0.273 OA
ATOM      7  H   UNL A   1      36.229  35.965  33.829  1.00  0.00     0.163 HD
BRANCH   5   8
ATOM      8  C   UNL A   1      33.428  35.177  32.074  1.00  0.00     0.181 C 
ATOM      9  C   UNL A   1      32.035  35.668  32.510  1.00  0.00     0.042 C 
BRANCH   8  10
ATOM     10  N   UNL A   1      33.746  35.400  30.657  1.00  0.00    -0.244 N 
ATOM     11  C   UNL A   1      33.360  36.552  30.009  1.00  0.00     0.321 A 
ATOM     12  C   UNL A   1      33.948  34.283  29.865  1.00  0.00     0.321 A 
ATOM     13  O   UNL A   1      32.596  37.412  30.427  1.00  0.00    -0.256 OA
ATOM     14  S   UNL A   1      34.021  36.666  28.389  1.00  0.00    -0.014 S 
ATOM     15  S   UNL A   1      34.285  34.668  28.185  1.00  0.00    -0.014 S 
ATOM     16  O   UNL A   1      33.888  33.125  30.240  1.00  0.00    -0.256 OA
ENDBRANCH   8  10
ENDBRANCH   5   8
ENDBRANCH   3   4
ENDBRANCH   2   3
ENDBRANCH   1   2
BRANCH   1  17
ATOM     17  N   UNL A   1      36.365  31.937  31.134  1.00  0.00    -0.352 N 
ATOM     18  C   UNL A   1      36.730  30.623  30.943  1.00  0.00     0.251 C 
ATOM     19  H   UNL A   1      35.473  32.062  31.533  1.00  0.00     0.163 HD
ATOM     20  O   UNL A   1      35.909  29.741  31.188  1.00  0.00    -0.269 OA
BRANCH  18  21
ATOM     21  C   UNL A   1      38.069  30.254  30.416  1.00  0.00     0.039 A 
ATOM     22  C   UNL A   1      39.075  29.911  31.326  1.00  0.00     0.014 A 
ATOM     23  C   UNL A   1      38.362  30.270  29.051  1.00  0.00     0.014 A 
ATOM     24  C   UNL A   1      40.340  29.527  30.867  1.00  0.00     0.010 A 
ATOM     25  C   UNL A   1      39.588  29.793  28.590  1.00  0.00     0.010 A 
ATOM     26  C   UNL A   1      40.600  29.431  29.491  1.00  0.00    -0.014 A 
BRANCH  26  27
ATOM     27  C   UNL A   1      41.930  29.004  28.977  1.00  0.00     0.031 A 
ATOM     28  C   UNL A   1      43.054  30.003  28.866  1.00  0.00     0.074 A 
ATOM     29  C   UNL A   1      42.118  27.737  28.553  1.00  0.00     0.049 A 
ATOM     30  N   UNL A   1      44.255  29.848  28.370  1.00  0.00    -0.248 NA
ATOM     31  C   UNL A   1      42.778  31.367  29.344  1.00  0.00     0.031 C 
ATOM     32  C   UNL A   1      41.100  26.686  28.544  1.00  0.00     0.029 A 
ATOM     33  N   UNL A   1      43.233  27.123  28.037  1.00  0.00    -0.354 N 
ATOM     34  C   UNL A   1      44.864  31.095  28.452  1.00  0.00     0.074 A 
ATOM     35  C   UNL A   1      43.880  32.009  28.989  1.00  0.00     0.031 C 
ATOM     36  C   UNL A   1      41.641  25.552  28.067  1.00  0.00     0.029 A 
ATOM     37  C   UNL A   1      43.035  25.801  27.713  1.00  0.00     0.049 A 
ATOM     38  H   UNL A   1      44.092  27.585  27.911  1.00  0.00     0.167 HD
ATOM     39  C   UNL A   1      46.135  31.447  28.138  1.00  0.00     0.037 A 
ATOM     40  C   UNL A   1      43.881  24.891  27.192  1.00  0.00     0.037 A 
ATOM     41  C   UNL A   1      47.128  30.530  27.645  1.00  0.00     0.049 A 
ATOM     42  C   UNL A   1      45.306  25.283  26.915  1.00  0.00     0.074 A 
ATOM     43  C   UNL A   1      48.455  30.777  27.336  1.00  0.00     0.029 A 
ATOM     44  N   UNL A   1      46.907  29.182  27.404  1.00  0.00    -0.354 N 
ATOM     45  N   UNL A   1      45.876  26.459  27.037  1.00  0.00    -0.248 NA
ATOM     46  C   UNL A   1      46.209  24.222  26.446  1.00  0.00     0.031 C 
ATOM     47  C   UNL A   1      49.032  29.581  26.892  1.00  0.00     0.029 A 
ATOM     48  C   UNL A   1      48.074  28.582  26.958  1.00  0.00     0.049 A 
ATOM     49  H   UNL A   1      46.047  28.719  27.532  1.00  0.00     0.167 HD
ATOM     50  C   UNL A   1      47.209  26.273  26.689  1.00  0.00     0.074 A 
ATOM     51  C   UNL A   1      47.363  24.870  26.360  1.00  0.00     0.031 C 
ATOM     52  C   UNL A   1      48.215  27.182  26.648  1.00  0.00     0.037 A 
BRANCH  39  53
ATOM     53  C   UNL A   1      46.518  32.887  28.341  1.00  0.00     0.058 A 
ATOM     54  C   UNL A   1      47.026  33.346  29.569  1.00  0.00     0.135 A 
ATOM     55  C   UNL A   1      46.371  33.823  27.304  1.00  0.00     0.135 A 
ATOM     56  F   UNL A   1      47.172  32.497  30.598  1.00  0.00    -0.206 F 
ATOM     57  C   UNL A   1      47.329  34.687  29.776  1.00  0.00     0.059 A 
ATOM     58  C   UNL A   1      46.696  35.165  27.481  1.00  0.00     0.059 A 
ATOM     59  F   UNL A   1      45.895  33.440  26.109  1.00  0.00    -0.206 F 
ATOM     60  C   UNL A   1      47.152  35.592  28.728  1.00  0.00     0.060 A 
BRANCH  60  61
ATOM     61  S   UNL A   1      47.522  37.334  29.019  1.00  0.00     0.124 S 
ATOM     62  O   UNL A   1      47.009  37.515  30.374  1.00  0.00    -0.237 OA
ATOM     63  O   UNL A   1      48.973  37.377  28.880  1.00  0.00    -0.237 OA
ATOM     64  O   UNL A   1      46.775  38.018  27.968  1.00  0.00    -0.744 OA
ENDBRANCH  60  61
ENDBRANCH  39  53
BRANCH  40  65
ATOM     65  C   UNL A   1      43.408  23.503  26.945  1.00  0.00     0.058 A 
ATOM     66  C   UNL A   1      43.166  23.046  25.641  1.00  0.00     0.135 A 
ATOM     67  C   UNL A   1      43.221  22.598  28.000  1.00  0.00     0.135 A 
ATOM     68  F   UNL A   1      43.327  23.877  24.599  1.00  0.00    -0.206 F 
ATOM     69  C   UNL A   1      42.745  21.745  25.390  1.00  0.00     0.059 A 
ATOM     70  C   UNL A   1      42.820  21.285  27.774  1.00  0.00     0.059 A 
ATOM     71  F   UNL A   1      43.458  22.983  29.264  1.00  0.00    -0.206 F 
ATOM     72  C   UNL A   1      42.577  20.870  26.465  1.00  0.00     0.060 A 
BRANCH  72  73
ATOM     73  S   UNL A   1      42.097  19.162  26.127  1.00  0.00     0.124 S 
ATOM     74  O   UNL A   1      42.350  18.525  27.413  1.00  0.00    -0.237 OA
ATOM     75  O   UNL A   1      40.694  19.305  25.750  1.00  0.00    -0.237 OA
ATOM     76  O   UNL A   1      42.991  18.772  25.040  1.00  0.00    -0.744 OA
ENDBRANCH  72  73
ENDBRANCH  40  65
BRANCH  52  77
ATOM     77  C   UNL A   1      49.581  26.681  26.277  1.00  0.00     0.058 A 
ATOM     78  C   UNL A   1      50.409  26.033  27.206  1.00  0.00     0.135 A 
ATOM     79  C   UNL A   1      50.052  26.820  24.962  1.00  0.00     0.135 A 
ATOM     80  F   UNL A   1      50.006  25.878  28.477  1.00  0.00    -0.206 F 
ATOM     81  C   UNL A   1      51.670  25.565  26.852  1.00  0.00     0.059 A 
ATOM     82  C   UNL A   1      51.301  26.339  24.580  1.00  0.00     0.059 A 
ATOM     83  F   UNL A   1      49.294  27.421  24.031  1.00  0.00    -0.206 F 
ATOM     84  C   UNL A   1      52.109  25.726  25.537  1.00  0.00     0.060 A 
BRANCH  84  85
ATOM     85  S   UNL A   1      53.741  25.102  25.081  1.00  0.00     0.124 S 
ATOM     86  O   UNL A   1      53.919  25.690  23.757  1.00  0.00    -0.237 OA
ATOM     87  O   UNL A   1      54.592  25.646  26.135  1.00  0.00    -0.237 OA
ATOM     88  O   UNL A   1      53.569  23.652  25.109  1.00  0.00    -0.744 OA
ENDBRANCH  84  85
ENDBRANCH  52  77
ENDBRANCH  26  27
ENDBRANCH  18  21
ENDBRANCH   1  17
TORSDOF 14
ENDMDL
MODEL 2
REMARK VINA RESULT:     -10.9      3.033      3.940
REMARK SMILES C[C@H](C(=O)NCCCNC(=O)c1ccc(-c2c3nc(c(-c4c(F)cc(S(=O)(=O)[O-])cc4F)c4ccc([nH]4)c(-c4c(F)cc(S(=O)(=O)[O-])cc4F)c4nc(c(-c5c(F)cc(S(=O)(=O)[O-])cc5F)c5ccc2[nH]5)C=C4)C=C3)cc1)n1c(=O)ssc1=O
REMARK SMILES IDX 8 1 7 2 6 3 5 4 3 5 4 6 2 8 1 9 78 10 79 11 83 12 80 13
REMARK SMILES IDX 81 14 82 15 84 16 9 17 10 18 11 20 12 21 13 22 77 23 14 24
REMARK SMILES IDX 76 25 15 26 16 27 17 28 70 29 18 30 75 31 69 32 71 33 19 34
REMARK SMILES IDX 74 35 68 36 67 37 20 39 54 40 33 41 53 42 34 43 37 44 52 45
REMARK SMILES IDX 72 46 35 47 36 48 51 50 73 51 38 52 21 53 22 54 31 55 23 56
REMARK SMILES IDX 24 57 30 58 32 59 25 60 26 61 27 62 28 63 29 64 55 65 56 66
REMARK SMILES IDX 65 67 57 68 58 69 64 70 66 71 59 72 60 73 61 74 62 75 63 76
REMARK SMILES IDX 39 77 40 78 49 79 41 80 42 81 48 82 50 83 43 84 44 85 45 86
REMARK SMILES IDX 46 87 47 88
REMARK H PARENT 5 7 9 19 71 38 37 49
REMARK Flexibility Score: inf
ROOT
ATOM      1  C   UNL A   1      34.586  32.560  28.644  1.00  0.00     0.118 C 
ENDROOT
BRANCH   1   2
ATOM      2  C   UNL A   1      33.857  33.805  28.157  1.00  0.00     0.042 C 
BRANCH   2   3
ATOM      3  C   UNL A   1      33.995  35.051  29.021  1.00  0.00     0.117 C 
BRANCH   3   4
ATOM      4  N   UNL A   1      33.053  35.114  30.121  1.00  0.00    -0.354 N 
ATOM      5  C   UNL A   1      33.198  35.439  31.435  1.00  0.00     0.243 C 
ATOM      6  O   UNL A   1      32.149  35.532  32.087  1.00  0.00    -0.273 OA
ATOM      7  H   UNL A   1      32.131  34.877  29.870  1.00  0.00     0.163 HD
BRANCH   5   8
ATOM      8  C   UNL A   1      34.554  35.438  32.184  1.00  0.00     0.181 C 
ATOM      9  C   UNL A   1      34.222  36.023  33.570  1.00  0.00     0.042 C 
BRANCH   8  10
ATOM     10  N   UNL A   1      35.294  34.169  32.211  1.00  0.00    -0.244 N 
ATOM     11  C   UNL A   1      34.664  32.978  32.490  1.00  0.00     0.321 A 
ATOM     12  C   UNL A   1      36.652  34.229  32.475  1.00  0.00     0.321 A 
ATOM     13  O   UNL A   1      33.524  32.829  32.909  1.00  0.00    -0.256 OA
ATOM     14  S   UNL A   1      35.716  31.593  32.272  1.00  0.00    -0.014 S 
ATOM     15  S   UNL A   1      37.425  32.652  32.518  1.00  0.00    -0.014 S 
ATOM     16  O   UNL A   1      37.292  35.243  32.688  1.00  0.00    -0.256 OA
ENDBRANCH   8  10
ENDBRANCH   5   8
ENDBRANCH   3   4
ENDBRANCH   2   3
ENDBRANCH   1   2
BRANCH   1  17
ATOM     17  N   UNL A   1      33.974  31.310  28.224  1.00  0.00    -0.352 N 
ATOM     18  C   UNL A   1      34.528  30.069  28.004  1.00  0.00     0.251 C 
ATOM     19  H   UNL A   1      33.002  31.358  28.074  1.00  0.00     0.163 HD
ATOM     20  O   UNL A   1      33.812  29.173  27.562  1.00  0.00    -0.269 OA
BRANCH  18  21
ATOM     21  C   UNL A   1      35.969  29.803  28.250  1.00  0.00     0.039 A 
ATOM     22  C   UNL A   1      36.355  29.317  29.505  1.00  0.00     0.014 A 
ATOM     23  C   UNL A   1      36.948  30.052  27.286  1.00  0.00     0.014 A 
ATOM     24  C   UNL A   1      37.698  29.025  29.766  1.00  0.00     0.010 A 
ATOM     25  C   UNL A   1      38.269  29.668  27.511  1.00  0.00     0.010 A 
ATOM     26  C   UNL A   1      38.666  29.165  28.759  1.00  0.00    -0.014 A 
BRANCH  26  27
ATOM     27  C   UNL A   1      40.098  28.839  29.003  1.00  0.00     0.031 A 
ATOM     28  C   UNL A   1      41.021  29.881  29.583  1.00  0.00     0.074 A 
ATOM     29  C   UNL A   1      40.588  27.633  28.653  1.00  0.00     0.049 A 
ATOM     30  N   UNL A   1      42.312  29.820  29.793  1.00  0.00    -0.248 NA
ATOM     31  C   UNL A   1      40.420  31.176  29.938  1.00  0.00     0.031 C 
ATOM     32  C   UNL A   1      39.821  26.555  28.026  1.00  0.00     0.029 A 
ATOM     33  N   UNL A   1      41.855  27.114  28.768  1.00  0.00    -0.354 N 
ATOM     34  C   UNL A   1      42.677  31.070  30.279  1.00  0.00     0.074 A 
ATOM     35  C   UNL A   1      41.484  31.888  30.273  1.00  0.00     0.031 C 
ATOM     36  C   UNL A   1      40.627  25.498  27.829  1.00  0.00     0.029 A 
ATOM     37  C   UNL A   1      41.971  25.829  28.292  1.00  0.00     0.049 A 
ATOM     38  H   UNL A   1      42.608  27.615  29.154  1.00  0.00     0.167 HD
ATOM     39  C   UNL A   1      43.887  31.495  30.718  1.00  0.00     0.037 A 
ATOM     40  C   UNL A   1      43.039  25.008  28.237  1.00  0.00     0.037 A 
ATOM     41  C   UNL A   1      45.065  30.670  30.765  1.00  0.00     0.049 A 
ATOM     42  C   UNL A   1      44.356  25.475  28.792  1.00  0.00     0.074 A 
ATOM     43  C   UNL A   1      46.328  30.993  31.229  1.00  0.00     0.029 A 
ATOM     44  N   UNL A   1      45.119  29.349  30.345  1.00  0.00    -0.354 N 
ATOM     45  N   UNL A   1      44.673  26.649  29.286  1.00  0.00    -0.248 NA
ATOM     46  C   UNL A   1      45.457  24.500  28.801  1.00  0.00     0.031 C 
ATOM     47  C   UNL A   1      47.152  29.871  31.076  1.00  0.00     0.029 A 
ATOM     48  C   UNL A   1      46.392  28.840  30.547  1.00  0.00     0.049 A 
ATOM     49  H   UNL A   1      44.365  28.847  29.960  1.00  0.00     0.167 HD
ATOM     50  C   UNL A   1      45.999  26.545  29.689  1.00  0.00     0.074 A 
ATOM     51  C   UNL A   1      46.422  25.192  29.391  1.00  0.00     0.031 C 
ATOM     52  C   UNL A   1      46.794  27.486  30.258  1.00  0.00     0.037 A 
BRANCH  39  53
ATOM     53  C   UNL A   1      43.982  32.918  31.199  1.00  0.00     0.058 A 
ATOM     54  C   UNL A   1      43.850  33.242  32.560  1.00  0.00     0.135 A 
ATOM     55  C   UNL A   1      44.199  33.970  30.294  1.00  0.00     0.135 A 
ATOM     56  F   UNL A   1      43.625  32.277  33.466  1.00  0.00    -0.206 F 
ATOM     57  C   UNL A   1      43.881  34.561  33.000  1.00  0.00     0.059 A 
ATOM     58  C   UNL A   1      44.263  35.295  30.717  1.00  0.00     0.059 A 
ATOM     59  F   UNL A   1      44.336  33.717  28.983  1.00  0.00    -0.206 F 
ATOM     60  C   UNL A   1      44.080  35.582  32.069  1.00  0.00     0.060 A 
BRANCH  60  61
ATOM     61  S   UNL A   1      44.090  37.291  32.650  1.00  0.00     0.124 S 
ATOM     62  O   UNL A   1      42.950  37.293  33.562  1.00  0.00    -0.237 OA
ATOM     63  O   UNL A   1      45.402  37.404  33.277  1.00  0.00    -0.237 OA
ATOM     64  O   UNL A   1      43.916  38.065  31.425  1.00  0.00    -0.744 OA
ENDBRANCH  60  61
ENDBRANCH  39  53
BRANCH  40  65
ATOM     65  C   UNL A   1      42.887  23.640  27.675  1.00  0.00     0.058 A 
ATOM     66  C   UNL A   1      42.538  22.559  28.498  1.00  0.00     0.135 A 
ATOM     67  C   UNL A   1      43.055  23.393  26.305  1.00  0.00     0.135 A 
ATOM     68  F   UNL A   1      42.371  22.746  29.816  1.00  0.00    -0.206 F 
ATOM     69  C   UNL A   1      42.371  21.277  27.985  1.00  0.00     0.059 A 
ATOM     70  C   UNL A   1      42.873  22.123  25.765  1.00  0.00     0.059 A 
ATOM     71  F   UNL A   1      43.371  24.399  25.475  1.00  0.00    -0.206 F 
ATOM     72  C   UNL A   1      42.538  21.069  26.615  1.00  0.00     0.060 A 
BRANCH  72  73
ATOM     73  S   UNL A   1      42.251  19.417  25.945  1.00  0.00     0.124 S 
ATOM     74  O   UNL A   1      43.092  19.432  24.754  1.00  0.00    -0.237 OA
ATOM     75  O   UNL A   1      42.704  18.559  27.036  1.00  0.00    -0.237 OA
ATOM     76  O   UNL A   1      40.811  19.399  25.704  1.00  0.00    -0.744 OA
ENDBRANCH  72  73
ENDBRANCH  40  65
BRANCH  52  77
ATOM     77  C   UNL A   1      48.187  27.073  30.637  1.00  0.00     0.058 A 
ATOM     78  C   UNL A   1      48.479  26.517  31.892  1.00  0.00     0.135 A 
ATOM     79  C   UNL A   1      49.238  27.203  29.716  1.00  0.00     0.135 A 
ATOM     80  F   UNL A   1      47.509  26.376  32.809  1.00  0.00    -0.206 F 
ATOM     81  C   UNL A   1      49.770  26.131  32.232  1.00  0.00     0.059 A 
ATOM     82  C   UNL A   1      50.534  26.801  30.026  1.00  0.00     0.059 A 
ATOM     83  F   UNL A   1      49.010  27.717  28.496  1.00  0.00    -0.206 F 
ATOM     84  C   UNL A   1      50.793  26.280  31.294  1.00  0.00     0.060 A 
BRANCH  84  85
ATOM     85  S   UNL A   1      52.464  25.761  31.736  1.00  0.00     0.124 S 
ATOM     86  O   UNL A   1      52.786  26.696  32.809  1.00  0.00    -0.237 OA
ATOM     87  O   UNL A   1      52.266  24.373  32.145  1.00  0.00    -0.237 OA
ATOM     88  O   UNL A   1      53.214  25.941  30.497  1.00  0.00    -0.744 OA
ENDBRANCH  84  85
ENDBRANCH  52  77
ENDBRANCH  26  27
ENDBRANCH  18  21
ENDBRANCH   1  17
TORSDOF 14
ENDMDL
MODEL 3
REMARK VINA RESULT:     -10.9      5.781     14.479
REMARK SMILES C[C@H](C(=O)NCCCNC(=O)c1ccc(-c2c3nc(c(-c4c(F)cc(S(=O)(=O)[O-])cc4F)c4ccc([nH]4)c(-c4c(F)cc(S(=O)(=O)[O-])cc4F)c4nc(c(-c5c(F)cc(S(=O)(=O)[O-])cc5F)c5ccc2[nH]5)C=C4)C=C3)cc1)n1c(=O)ssc1=O
REMARK SMILES IDX 8 1 7 2 6 3 5 4 3 5 4 6 2 8 1 9 78 10 79 11 83 12 80 13
REMARK SMILES IDX 81 14 82 15 84 16 9 17 10 18 11 20 12 21 13 22 77 23 14 24
REMARK SMILES IDX 76 25 15 26 16 27 17 28 70 29 18 30 75 31 69 32 71 33 19 34
REMARK SMILES IDX 74 35 68 36 67 37 20 39 54 40 33 41 53 42 34 43 37 44 52 45
REMARK SMILES IDX 72 46 35 47 36 48 51 50 73 51 38 52 21 53 22 54 31 55 23 56
REMARK SMILES IDX 24 57 30 58 32 59 25 60 26 61 27 62 28 63 29 64 55 65 56 66
REMARK SMILES IDX 65 67 57 68 58 69 64 70 66 71 59 72 60 73 61 74 62 75 63 76
REMARK SMILES IDX 39 77 40 78 49 79 41 80 42 81 48 82 50 83 43 84 44 85 45 86
REMARK SMILES IDX 46 87 47 88
REMARK H PARENT 5 7 9 19 71 38 37 49
REMARK Flexibility Score: inf
ROOT
ATOM      1  C   UNL A   1      41.383  23.127  27.708  1.00  0.00     0.118 C 
ENDROOT
BRANCH   1   2
ATOM      2  C   UNL A   1      42.762  22.829  28.282  1.00  0.00     0.042 C 
BRANCH   2   3
ATOM      3  C   UNL A   1      43.715  24.009  28.400  1.00  0.00     0.117 C 
BRANCH   3   4
ATOM      4  N   UNL A   1      45.057  23.735  27.923  1.00  0.00    -0.354 N 
ATOM      5  C   UNL A   1      45.536  23.335  26.713  1.00  0.00     0.243 C 
ATOM      6  O   UNL A   1      46.769  23.328  26.597  1.00  0.00    -0.273 OA
ATOM      7  H   UNL A   1      45.755  23.863  28.605  1.00  0.00     0.163 HD
BRANCH   5   8
ATOM      8  C   UNL A   1      44.671  22.666  25.616  1.00  0.00     0.181 C 
ATOM      9  C   UNL A   1      45.119  23.351  24.311  1.00  0.00     0.042 C 
BRANCH   8  10
ATOM     10  N   UNL A   1      44.673  21.198  25.575  1.00  0.00    -0.244 N 
ATOM     11  C   UNL A   1      45.778  20.495  25.151  1.00  0.00     0.321 A 
ATOM     12  C   UNL A   1      43.450  20.562  25.452  1.00  0.00     0.321 A 
ATOM     13  O   UNL A   1      46.778  20.949  24.612  1.00  0.00    -0.256 OA
ATOM     14  S   UNL A   1      45.601  18.765  25.376  1.00  0.00    -0.014 S 
ATOM     15  S   UNL A   1      43.576  18.811  25.377  1.00  0.00    -0.014 S 
ATOM     16  O   UNL A   1      42.366  21.112  25.376  1.00  0.00    -0.256 OA
ENDBRANCH   8  10
ENDBRANCH   5   8
ENDBRANCH   3   4
ENDBRANCH   2   3
ENDBRANCH   1   2
BRANCH   1  17
ATOM     17  N   UNL A   1      41.407  23.859  26.453  1.00  0.00    -0.352 N 
ATOM     18  C   UNL A   1      41.226  25.199  26.191  1.00  0.00     0.251 C 
ATOM     19  H   UNL A   1      41.582  23.306  25.657  1.00  0.00     0.163 HD
ATOM     20  O   UNL A   1      41.204  25.575  25.021  1.00  0.00    -0.269 OA
BRANCH  18  21
ATOM     21  C   UNL A   1      41.021  26.186  27.283  1.00  0.00     0.039 A 
ATOM     22  C   UNL A   1      39.973  25.975  28.188  1.00  0.00     0.014 A 
ATOM     23  C   UNL A   1      41.814  27.327  27.414  1.00  0.00     0.014 A 
ATOM     24  C   UNL A   1      39.767  26.864  29.248  1.00  0.00     0.010 A 
ATOM     25  C   UNL A   1      41.672  28.158  28.525  1.00  0.00     0.010 A 
ATOM     26  C   UNL A   1      40.637  27.948  29.447  1.00  0.00    -0.014 A 
BRANCH  26  27
ATOM     27  C   UNL A   1      40.453  28.897  30.581  1.00  0.00     0.031 A 
ATOM     28  C   UNL A   1      41.289  28.753  31.828  1.00  0.00     0.074 A 
ATOM     29  C   UNL A   1      39.501  29.849  30.520  1.00  0.00     0.049 A 
ATOM     30  N   UNL A   1      41.225  29.424  32.950  1.00  0.00    -0.248 NA
ATOM     31  C   UNL A   1      42.306  27.690  31.826  1.00  0.00     0.031 C 
ATOM     32  C   UNL A   1      38.581  30.059  29.402  1.00  0.00     0.029 A 
ATOM     33  N   UNL A   1      39.143  30.815  31.429  1.00  0.00    -0.354 N 
ATOM     34  C   UNL A   1      42.171  28.849  33.791  1.00  0.00     0.074 A 
ATOM     35  C   UNL A   1      42.751  27.736  33.072  1.00  0.00     0.031 C 
ATOM     36  C   UNL A   1      37.778  31.100  29.680  1.00  0.00     0.029 A 
ATOM     37  C   UNL A   1      38.108  31.616  31.006  1.00  0.00     0.049 A 
ATOM     38  H   UNL A   1      39.585  30.924  32.301  1.00  0.00     0.167 HD
ATOM     39  C   UNL A   1      42.547  29.226  35.037  1.00  0.00     0.037 A 
ATOM     40  C   UNL A   1      37.495  32.650  31.615  1.00  0.00     0.037 A 
ATOM     41  C   UNL A   1      42.001  30.359  35.737  1.00  0.00     0.049 A 
ATOM     42  C   UNL A   1      37.972  33.096  32.969  1.00  0.00     0.074 A 
ATOM     43  C   UNL A   1      42.342  30.849  36.986  1.00  0.00     0.029 A 
ATOM     44  N   UNL A   1      41.008  31.190  35.240  1.00  0.00    -0.354 N 
ATOM     45  N   UNL A   1      38.898  32.564  33.732  1.00  0.00    -0.248 NA
ATOM     46  C   UNL A   1      37.337  34.294  33.537  1.00  0.00     0.031 C 
ATOM     47  C   UNL A   1      41.543  31.968  37.251  1.00  0.00     0.029 A 
ATOM     48  C   UNL A   1      40.729  32.194  36.152  1.00  0.00     0.049 A 
ATOM     49  H   UNL A   1      40.566  31.082  34.366  1.00  0.00     0.167 HD
ATOM     50  C   UNL A   1      38.975  33.378  34.857  1.00  0.00     0.074 A 
ATOM     51  C   UNL A   1      38.010  34.442  34.670  1.00  0.00     0.031 C 
ATOM     52  C   UNL A   1      39.775  33.255  35.946  1.00  0.00     0.037 A 
BRANCH  39  53
ATOM     53  C   UNL A   1      43.615  28.407  35.709  1.00  0.00     0.058 A 
ATOM     54  C   UNL A   1      44.980  28.675  35.508  1.00  0.00     0.135 A 
ATOM     55  C   UNL A   1      43.276  27.340  36.557  1.00  0.00     0.135 A 
ATOM     56  F   UNL A   1      45.359  29.674  34.695  1.00  0.00    -0.206 F 
ATOM     57  C   UNL A   1      45.969  27.885  36.084  1.00  0.00     0.059 A 
ATOM     58  C   UNL A   1      44.251  26.555  37.167  1.00  0.00     0.059 A 
ATOM     59  F   UNL A   1      41.988  27.041  36.788  1.00  0.00    -0.206 F 
ATOM     60  C   UNL A   1      45.595  26.821  36.905  1.00  0.00     0.060 A 
BRANCH  60  61
ATOM     61  S   UNL A   1      46.888  25.787  37.623  1.00  0.00     0.124 S 
ATOM     62  O   UNL A   1      47.727  25.524  36.458  1.00  0.00    -0.237 OA
ATOM     63  O   UNL A   1      47.467  26.663  38.636  1.00  0.00    -0.237 OA
ATOM     64  O   UNL A   1      46.153  24.637  38.140  1.00  0.00    -0.744 OA
ENDBRANCH  60  61
ENDBRANCH  39  53
BRANCH  40  65
ATOM     65  C   UNL A   1      36.391  33.364  30.920  1.00  0.00     0.058 A 
ATOM     66  C   UNL A   1      35.067  33.250  31.367  1.00  0.00     0.135 A 
ATOM     67  C   UNL A   1      36.641  34.197  29.819  1.00  0.00     0.135 A 
ATOM     68  F   UNL A   1      34.778  32.462  32.414  1.00  0.00    -0.206 F 
ATOM     69  C   UNL A   1      34.025  33.928  30.742  1.00  0.00     0.059 A 
ATOM     70  C   UNL A   1      35.620  34.901  29.190  1.00  0.00     0.059 A 
ATOM     71  F   UNL A   1      37.895  34.352  29.366  1.00  0.00    -0.206 F 
ATOM     72  C   UNL A   1      34.313  34.755  29.655  1.00  0.00     0.060 A 
BRANCH  72  73
ATOM     73  S   UNL A   1      32.966  35.686  28.892  1.00  0.00     0.124 S 
ATOM     74  O   UNL A   1      32.387  34.688  28.001  1.00  0.00    -0.237 OA
ATOM     75  O   UNL A   1      32.156  36.059  30.048  1.00  0.00    -0.237 OA
ATOM     76  O   UNL A   1      33.655  36.795  28.238  1.00  0.00    -0.744 OA
ENDBRANCH  72  73
ENDBRANCH  40  65
BRANCH  52  77
ATOM     77  C   UNL A   1      39.674  34.321  36.998  1.00  0.00     0.058 A 
ATOM     78  C   UNL A   1      38.911  34.142  38.163  1.00  0.00     0.135 A 
ATOM     79  C   UNL A   1      40.381  35.526  36.855  1.00  0.00     0.135 A 
ATOM     80  F   UNL A   1      38.214  33.009  38.345  1.00  0.00    -0.206 F 
ATOM     81  C   UNL A   1      38.829  35.132  39.136  1.00  0.00     0.059 A 
ATOM     82  C   UNL A   1      40.331  36.521  37.827  1.00  0.00     0.059 A 
ATOM     83  F   UNL A   1      41.135  35.742  35.765  1.00  0.00    -0.206 F 
ATOM     84  C   UNL A   1      39.540  36.320  38.958  1.00  0.00     0.060 A 
BRANCH  84  85
ATOM     85  S   UNL A   1      39.440  37.594  40.233  1.00  0.00     0.124 S 
ATOM     86  O   UNL A   1      40.836  38.007  40.342  1.00  0.00    -0.237 OA
ATOM     87  O   UNL A   1      38.536  38.570  39.633  1.00  0.00    -0.237 OA
ATOM     88  O   UNL A   1      38.903  36.877  41.386  1.00  0.00    -0.744 OA
ENDBRANCH  84  85
ENDBRANCH  52  77
ENDBRANCH  26  27
ENDBRANCH  18  21
ENDBRANCH   1  17
TORSDOF 14
ENDMDL
