MODEL 1
REMARK VINA RESULT:     -10.8      0.000      0.000
REMARK SMILES CC[C@@H](NC(=O)c1ccc(CNC(=O)[C@H]2CCCO2)cc1)C(=O)NCCCNC(=O)c1ccc(-c2c3nc(c(-c4c(F)cc(S(=O)(=O)[O-])cc4F)c4ccc([nH]4)c(-c4c(F)cc(S(=O)(=O)[O-])cc4F)c4nc(c(-c5c(F)cc(S(=O)(=O)[O-])cc5F)c5ccc2[nH]5)C=C4)C=C3)cc1
REMARK SMILES IDX 25 1 24 2 22 3 23 4 3 6 2 7 1 8 4 9 5 10 6 12 7 13 8 14
REMARK SMILES IDX 21 15 9 16 20 17 10 18 11 19 12 20 13 21 14 23 15 24 16 25
REMARK SMILES IDX 19 26 17 27 18 28 26 29 27 30 28 31 29 32 30 34 31 35 32 36
REMARK SMILES IDX 96 37 33 38 95 39 34 40 35 41 36 42 89 43 37 44 94 45 88 46
REMARK SMILES IDX 90 47 38 48 93 49 87 50 86 51 39 53 73 54 52 55 72 56 53 57
REMARK SMILES IDX 56 58 71 59 91 60 54 61 55 62 70 64 92 65 57 66 40 67 41 68
REMARK SMILES IDX 50 69 42 70 43 71 49 72 51 73 44 74 45 75 46 76 47 77 48 78
REMARK SMILES IDX 74 79 75 80 84 81 76 82 77 83 83 84 85 85 78 86 79 87 80 88
REMARK SMILES IDX 81 89 82 90 58 91 59 92 68 93 60 94 61 95 67 96 69 97 62 98
REMARK SMILES IDX 63 99 64 100 65 101 66 102
REMARK H PARENT 24 5 4 11 12 22 28 33 90 52 56 63
REMARK Flexibility Score: inf
ROOT
ATOM      1  C   UNL A   1      44.351  38.189  27.264  1.00  0.00     0.117 C 
ENDROOT
BRANCH   1   2
ATOM      2  N   UNL A   1      43.074  38.578  26.693  1.00  0.00    -0.354 N 
ATOM      3  C   UNL A   1      42.586  39.821  26.430  1.00  0.00     0.242 C 
ATOM      4  O   UNL A   1      41.413  39.917  26.057  1.00  0.00    -0.273 OA
ATOM      5  H   UNL A   1      42.472  37.833  26.462  1.00  0.00     0.163 HD
BRANCH   3   6
ATOM      6  C   UNL A   1      43.423  41.078  26.725  1.00  0.00     0.171 C 
BRANCH   6   7
ATOM      7  C   UNL A   1      43.468  41.179  28.270  1.00  0.00     0.032 C 
ATOM      8  C   UNL A   1      44.790  41.625  28.866  1.00  0.00     0.006 C 
ENDBRANCH   6   7
BRANCH   6   9
ATOM      9  N   UNL A   1      44.763  41.120  26.109  1.00  0.00    -0.340 N 
ATOM     10  C   UNL A   1      45.255  41.895  25.081  1.00  0.00     0.251 C 
ATOM     11  H   UNL A   1      45.412  40.489  26.495  1.00  0.00     0.164 HD
ATOM     12  O   UNL A   1      46.469  42.006  24.937  1.00  0.00    -0.269 OA
BRANCH  10  13
ATOM     13  C   UNL A   1      44.355  42.433  24.035  1.00  0.00     0.039 A 
ATOM     14  C   UNL A   1      44.931  42.750  22.798  1.00  0.00     0.014 A 
ATOM     15  C   UNL A   1      42.976  42.540  24.204  1.00  0.00     0.014 A 
ATOM     16  C   UNL A   1      44.120  43.031  21.696  1.00  0.00     0.006 A 
ATOM     17  C   UNL A   1      42.164  42.826  23.096  1.00  0.00     0.006 A 
ATOM     18  C   UNL A   1      42.721  43.044  21.824  1.00  0.00    -0.029 A 
BRANCH  18  19
ATOM     19  C   UNL A   1      41.821  43.196  20.611  1.00  0.00     0.151 C 
BRANCH  19  20
ATOM     20  N   UNL A   1      42.533  42.925  19.384  1.00  0.00    -0.350 N 
ATOM     21  C   UNL A   1      42.968  43.730  18.381  1.00  0.00     0.249 C 
ATOM     22  H   UNL A   1      42.742  41.973  19.248  1.00  0.00     0.163 HD
ATOM     23  O   UNL A   1      43.521  43.160  17.433  1.00  0.00    -0.272 OA
BRANCH  21  24
ATOM     24  C   UNL A   1      42.850  45.267  18.395  1.00  0.00     0.207 C 
ATOM     25  C   UNL A   1      43.876  46.094  17.626  1.00  0.00     0.044 C 
ATOM     26  O   UNL A   1      41.555  45.714  17.964  1.00  0.00    -0.368 OA
ATOM     27  C   UNL A   1      43.037  47.012  16.753  1.00  0.00     0.032 C 
ATOM     28  C   UNL A   1      41.723  47.055  17.493  1.00  0.00     0.161 C 
ENDBRANCH  21  24
ENDBRANCH  19  20
ENDBRANCH  18  19
ENDBRANCH  10  13
ENDBRANCH   6   9
ENDBRANCH   3   6
ENDBRANCH   1   2
BRANCH   1  29
ATOM     29  C   UNL A   1      44.180  37.105  28.311  1.00  0.00     0.042 C 
BRANCH  29  30
ATOM     30  C   UNL A   1      45.062  37.310  29.530  1.00  0.00     0.118 C 
BRANCH  30  31
ATOM     31  N   UNL A   1      46.417  37.731  29.190  1.00  0.00    -0.352 N 
ATOM     32  C   UNL A   1      47.486  36.950  28.817  1.00  0.00     0.251 C 
ATOM     33  H   UNL A   1      46.588  38.698  29.235  1.00  0.00     0.163 HD
ATOM     34  O   UNL A   1      48.601  37.445  28.691  1.00  0.00    -0.269 OA
BRANCH  32  35
ATOM     35  C   UNL A   1      47.264  35.510  28.589  1.00  0.00     0.039 A 
ATOM     36  C   UNL A   1      47.306  34.631  29.671  1.00  0.00     0.014 A 
ATOM     37  C   UNL A   1      46.939  35.052  27.310  1.00  0.00     0.014 A 
ATOM     38  C   UNL A   1      46.945  33.296  29.481  1.00  0.00     0.010 A 
ATOM     39  C   UNL A   1      46.491  33.749  27.142  1.00  0.00     0.010 A 
ATOM     40  C   UNL A   1      46.495  32.856  28.224  1.00  0.00    -0.014 A 
BRANCH  40  41
ATOM     41  C   UNL A   1      46.030  31.463  28.007  1.00  0.00     0.031 A 
ATOM     42  C   UNL A   1      44.618  31.086  28.362  1.00  0.00     0.074 A 
ATOM     43  C   UNL A   1      46.898  30.527  27.575  1.00  0.00     0.049 A 
ATOM     44  N   UNL A   1      44.048  29.910  28.343  1.00  0.00    -0.248 NA
ATOM     45  C   UNL A   1      43.742  32.169  28.841  1.00  0.00     0.031 C 
ATOM     46  C   UNL A   1      48.310  30.758  27.259  1.00  0.00     0.029 A 
ATOM     47  N   UNL A   1      46.723  29.186  27.339  1.00  0.00    -0.354 N 
ATOM     48  C   UNL A   1      42.761  30.106  28.828  1.00  0.00     0.074 A 
ATOM     49  C   UNL A   1      42.651  31.503  29.186  1.00  0.00     0.031 C 
ATOM     50  C   UNL A   1      48.864  29.606  26.847  1.00  0.00     0.029 A 
ATOM     51  C   UNL A   1      47.861  28.548  26.904  1.00  0.00     0.049 A 
ATOM     52  H   UNL A   1      45.863  28.725  27.469  1.00  0.00     0.167 HD
ATOM     53  C   UNL A   1      41.752  29.210  28.937  1.00  0.00     0.037 A 
ATOM     54  C   UNL A   1      48.070  27.255  26.590  1.00  0.00     0.037 A 
ATOM     55  C   UNL A   1      41.857  27.833  28.534  1.00  0.00     0.049 A 
ATOM     56  C   UNL A   1      46.926  26.283  26.687  1.00  0.00     0.074 A 
ATOM     57  C   UNL A   1      40.872  26.861  28.530  1.00  0.00     0.029 A 
ATOM     58  N   UNL A   1      43.013  27.234  28.057  1.00  0.00    -0.354 N 
ATOM     59  N   UNL A   1      45.694  26.500  27.084  1.00  0.00    -0.248 NA
ATOM     60  C   UNL A   1      47.194  24.896  26.288  1.00  0.00     0.031 C 
ATOM     61  C   UNL A   1      41.442  25.664  28.086  1.00  0.00     0.029 A 
ATOM     62  C   UNL A   1      42.771  25.901  27.771  1.00  0.00     0.049 A 
ATOM     63  H   UNL A   1      43.878  27.688  27.939  1.00  0.00     0.167 HD
ATOM     64  C   UNL A   1      45.034  25.284  26.959  1.00  0.00     0.074 A 
ATOM     65  C   UNL A   1      46.001  24.338  26.440  1.00  0.00     0.031 C 
ATOM     66  C   UNL A   1      43.745  24.976  27.248  1.00  0.00     0.037 A 
BRANCH  53  67
ATOM     67  C   UNL A   1      40.447  29.695  29.506  1.00  0.00     0.058 A 
ATOM     68  C   UNL A   1      40.286  29.936  30.879  1.00  0.00     0.135 A 
ATOM     69  C   UNL A   1      39.353  29.948  28.663  1.00  0.00     0.135 A 
ATOM     70  F   UNL A   1      41.294  29.693  31.732  1.00  0.00    -0.206 F 
ATOM     71  C   UNL A   1      39.077  30.380  31.402  1.00  0.00     0.059 A 
ATOM     72  C   UNL A   1      38.143  30.420  29.162  1.00  0.00     0.059 A 
ATOM     73  F   UNL A   1      39.451  29.731  27.342  1.00  0.00    -0.206 F 
ATOM     74  C   UNL A   1      38.010  30.619  30.535  1.00  0.00     0.060 A 
BRANCH  74  75
ATOM     75  S   UNL A   1      36.448  31.200  31.229  1.00  0.00     0.124 S 
ATOM     76  O   UNL A   1      35.639  31.361  30.025  1.00  0.00    -0.237 OA
ATOM     77  O   UNL A   1      36.067  30.097  32.106  1.00  0.00    -0.237 OA
ATOM     78  O   UNL A   1      36.818  32.438  31.908  1.00  0.00    -0.744 OA
ENDBRANCH  74  75
ENDBRANCH  53  67
BRANCH  54  79
ATOM     79  C   UNL A   1      49.411  26.814  26.121  1.00  0.00     0.058 A 
ATOM     80  C   UNL A   1      49.742  26.843  24.759  1.00  0.00     0.135 A 
ATOM     81  C   UNL A   1      50.394  26.381  27.024  1.00  0.00     0.135 A 
ATOM     82  F   UNL A   1      48.833  27.245  23.856  1.00  0.00    -0.206 F 
ATOM     83  C   UNL A   1      50.996  26.448  24.303  1.00  0.00     0.059 A 
ATOM     84  C   UNL A   1      51.664  26.002  26.595  1.00  0.00     0.059 A 
ATOM     85  F   UNL A   1      50.134  26.352  28.340  1.00  0.00    -0.206 F 
ATOM     86  C   UNL A   1      51.952  26.033  25.232  1.00  0.00     0.060 A 
BRANCH  86  87
ATOM     87  S   UNL A   1      53.597  25.579  24.637  1.00  0.00     0.124 S 
ATOM     88  O   UNL A   1      53.537  24.124  24.688  1.00  0.00    -0.237 OA
ATOM     89  O   UNL A   1      53.615  26.174  23.304  1.00  0.00    -0.237 OA
ATOM     90  O   UNL A   1      54.488  26.210  25.606  1.00  0.00    -0.744 OA
ENDBRANCH  86  87
ENDBRANCH  54  79
BRANCH  66  91
ATOM     91  C   UNL A   1      43.293  23.570  26.980  1.00  0.00     0.058 A 
ATOM     92  C   UNL A   1      43.035  23.115  25.678  1.00  0.00     0.135 A 
ATOM     93  C   UNL A   1      43.175  22.649  28.033  1.00  0.00     0.135 A 
ATOM     94  F   UNL A   1      43.128  23.958  24.637  1.00  0.00    -0.206 F 
ATOM     95  C   UNL A   1      42.654  21.800  25.430  1.00  0.00     0.059 A 
ATOM     96  C   UNL A   1      42.820  21.323  27.807  1.00  0.00     0.059 A 
ATOM     97  F   UNL A   1      43.422  23.032  29.297  1.00  0.00    -0.206 F 
ATOM     98  C   UNL A   1      42.551  20.911  26.503  1.00  0.00     0.060 A 
BRANCH  98  99
ATOM     99  S   UNL A   1      42.092  19.198  26.166  1.00  0.00     0.124 S 
ATOM    100  O   UNL A   1      42.458  18.544  27.418  1.00  0.00    -0.237 OA
ATOM    101  O   UNL A   1      40.660  19.305  25.901  1.00  0.00    -0.237 OA
ATOM    102  O   UNL A   1      42.913  18.848  25.011  1.00  0.00    -0.744 OA
ENDBRANCH  98  99
ENDBRANCH  66  91
ENDBRANCH  40  41
ENDBRANCH  32  35
ENDBRANCH  30  31
ENDBRANCH  29  30
ENDBRANCH   1  29
TORSDOF 19
ENDMDL
MODEL 2
REMARK VINA RESULT:     -10.7      0.680      1.766
REMARK SMILES CC[C@@H](NC(=O)c1ccc(CNC(=O)[C@H]2CCCO2)cc1)C(=O)NCCCNC(=O)c1ccc(-c2c3nc(c(-c4c(F)cc(S(=O)(=O)[O-])cc4F)c4ccc([nH]4)c(-c4c(F)cc(S(=O)(=O)[O-])cc4F)c4nc(c(-c5c(F)cc(S(=O)(=O)[O-])cc5F)c5ccc2[nH]5)C=C4)C=C3)cc1
REMARK SMILES IDX 25 1 24 2 22 3 23 4 3 6 2 7 1 8 4 9 5 10 6 12 7 13 8 14
REMARK SMILES IDX 21 15 9 16 20 17 10 18 11 19 12 20 13 21 14 23 15 24 16 25
REMARK SMILES IDX 19 26 17 27 18 28 26 29 27 30 28 31 29 32 30 34 31 35 32 36
REMARK SMILES IDX 96 37 33 38 95 39 34 40 35 41 36 42 89 43 37 44 94 45 88 46
REMARK SMILES IDX 90 47 38 48 93 49 87 50 86 51 39 53 73 54 52 55 72 56 53 57
REMARK SMILES IDX 56 58 71 59 91 60 54 61 55 62 70 64 92 65 57 66 40 67 41 68
REMARK SMILES IDX 50 69 42 70 43 71 49 72 51 73 44 74 45 75 46 76 47 77 48 78
REMARK SMILES IDX 74 79 75 80 84 81 76 82 77 83 83 84 85 85 78 86 79 87 80 88
REMARK SMILES IDX 81 89 82 90 58 91 59 92 68 93 60 94 61 95 67 96 69 97 62 98
REMARK SMILES IDX 63 99 64 100 65 101 66 102
REMARK H PARENT 24 5 4 11 12 22 28 33 90 52 56 63
REMARK Flexibility Score: inf
ROOT
ATOM      1  C   UNL A   1      44.071  38.107  27.269  1.00  0.00     0.117 C 
ENDROOT
BRANCH   1   2
ATOM      2  N   UNL A   1      42.795  38.282  26.598  1.00  0.00    -0.354 N 
ATOM      3  C   UNL A   1      41.962  39.358  26.589  1.00  0.00     0.242 C 
ATOM      4  O   UNL A   1      40.859  39.235  26.048  1.00  0.00    -0.273 OA
ATOM      5  H   UNL A   1      42.486  37.508  26.072  1.00  0.00     0.163 HD
BRANCH   3   6
ATOM      6  C   UNL A   1      42.323  40.644  27.355  1.00  0.00     0.171 C 
BRANCH   6   7
ATOM      7  C   UNL A   1      41.964  40.348  28.832  1.00  0.00     0.032 C 
ATOM      8  C   UNL A   1      40.704  41.015  29.353  1.00  0.00     0.006 C 
ENDBRANCH   6   7
BRANCH   6   9
ATOM      9  N   UNL A   1      43.706  41.127  27.187  1.00  0.00    -0.340 N 
ATOM     10  C   UNL A   1      44.216  42.137  26.399  1.00  0.00     0.251 C 
ATOM     11  H   UNL A   1      44.376  40.648  27.726  1.00  0.00     0.164 HD
ATOM     12  O   UNL A   1      45.331  42.588  26.644  1.00  0.00    -0.269 OA
BRANCH  10  13
ATOM     13  C   UNL A   1      43.532  42.548  25.152  1.00  0.00     0.039 A 
ATOM     14  C   UNL A   1      44.046  43.665  24.481  1.00  0.00     0.014 A 
ATOM     15  C   UNL A   1      42.484  41.824  24.588  1.00  0.00     0.014 A 
ATOM     16  C   UNL A   1      43.613  43.969  23.188  1.00  0.00     0.006 A 
ATOM     17  C   UNL A   1      42.050  42.133  23.291  1.00  0.00     0.006 A 
ATOM     18  C   UNL A   1      42.628  43.187  22.562  1.00  0.00    -0.029 A 
BRANCH  18  19
ATOM     19  C   UNL A   1      42.255  43.406  21.108  1.00  0.00     0.151 C 
BRANCH  19  20
ATOM     20  N   UNL A   1      43.405  43.294  20.241  1.00  0.00    -0.350 N 
ATOM     21  C   UNL A   1      43.876  44.078  19.239  1.00  0.00     0.249 C 
ATOM     22  H   UNL A   1      43.953  42.493  20.409  1.00  0.00     0.163 HD
ATOM     23  O   UNL A   1      44.887  43.664  18.659  1.00  0.00    -0.272 OA
BRANCH  21  24
ATOM     24  C   UNL A   1      43.257  45.432  18.839  1.00  0.00     0.207 C 
ATOM     25  C   UNL A   1      43.961  46.285  17.788  1.00  0.00     0.044 C 
ATOM     26  O   UNL A   1      41.891  45.298  18.412  1.00  0.00    -0.368 OA
ATOM     27  C   UNL A   1      42.877  46.595  16.770  1.00  0.00     0.032 C 
ATOM     28  C   UNL A   1      41.613  46.426  17.578  1.00  0.00     0.161 C 
ENDBRANCH  21  24
ENDBRANCH  19  20
ENDBRANCH  18  19
ENDBRANCH  10  13
ENDBRANCH   6   9
ENDBRANCH   3   6
ENDBRANCH   1   2
BRANCH   1  29
ATOM     29  C   UNL A   1      43.996  37.017  28.320  1.00  0.00     0.042 C 
BRANCH  29  30
ATOM     30  C   UNL A   1      44.901  37.276  29.513  1.00  0.00     0.118 C 
BRANCH  30  31
ATOM     31  N   UNL A   1      46.232  37.737  29.129  1.00  0.00    -0.352 N 
ATOM     32  C   UNL A   1      47.312  36.988  28.725  1.00  0.00     0.251 C 
ATOM     33  H   UNL A   1      46.374  38.709  29.165  1.00  0.00     0.163 HD
ATOM     34  O   UNL A   1      48.406  37.517  28.563  1.00  0.00    -0.269 OA
BRANCH  32  35
ATOM     35  C   UNL A   1      47.129  35.541  28.509  1.00  0.00     0.039 A 
ATOM     36  C   UNL A   1      47.192  34.672  29.599  1.00  0.00     0.014 A 
ATOM     37  C   UNL A   1      46.816  35.063  27.234  1.00  0.00     0.014 A 
ATOM     38  C   UNL A   1      46.866  33.327  29.420  1.00  0.00     0.010 A 
ATOM     39  C   UNL A   1      46.403  33.747  27.078  1.00  0.00     0.010 A 
ATOM     40  C   UNL A   1      46.430  32.865  28.167  1.00  0.00    -0.014 A 
BRANCH  40  41
ATOM     41  C   UNL A   1      46.002  31.458  27.961  1.00  0.00     0.031 A 
ATOM     42  C   UNL A   1      44.589  31.055  28.286  1.00  0.00     0.074 A 
ATOM     43  C   UNL A   1      46.901  30.535  27.569  1.00  0.00     0.049 A 
ATOM     44  N   UNL A   1      44.046  29.866  28.271  1.00  0.00    -0.248 NA
ATOM     45  C   UNL A   1      43.677  32.126  28.723  1.00  0.00     0.031 C 
ATOM     46  C   UNL A   1      48.316  30.792  27.286  1.00  0.00     0.029 A 
ATOM     47  N   UNL A   1      46.762  29.187  27.351  1.00  0.00    -0.354 N 
ATOM     48  C   UNL A   1      42.742  30.041  28.718  1.00  0.00     0.074 A 
ATOM     49  C   UNL A   1      42.592  31.441  29.050  1.00  0.00     0.031 C 
ATOM     50  C   UNL A   1      48.906  29.646  26.908  1.00  0.00     0.029 A 
ATOM     51  C   UNL A   1      47.925  28.567  26.957  1.00  0.00     0.049 A 
ATOM     52  H   UNL A   1      45.909  28.708  27.466  1.00  0.00     0.167 HD
ATOM     53  C   UNL A   1      41.751  29.125  28.817  1.00  0.00     0.037 A 
ATOM     54  C   UNL A   1      48.171  27.274  26.671  1.00  0.00     0.037 A 
ATOM     55  C   UNL A   1      41.896  27.744  28.439  1.00  0.00     0.049 A 
ATOM     56  C   UNL A   1      47.047  26.279  26.754  1.00  0.00     0.074 A 
ATOM     57  C   UNL A   1      40.933  26.750  28.426  1.00  0.00     0.029 A 
ATOM     58  N   UNL A   1      43.078  27.164  28.004  1.00  0.00    -0.354 N 
ATOM     59  N   UNL A   1      45.800  26.475  27.115  1.00  0.00    -0.248 NA
ATOM     60  C   UNL A   1      47.356  24.892  26.386  1.00  0.00     0.031 C 
ATOM     61  C   UNL A   1      41.542  25.559  28.018  1.00  0.00     0.029 A 
ATOM     62  C   UNL A   1      42.873  25.821  27.734  1.00  0.00     0.049 A 
ATOM     63  H   UNL A   1      43.935  27.635  27.901  1.00  0.00     0.167 HD
ATOM     64  C   UNL A   1      45.170  25.241  26.993  1.00  0.00     0.074 A 
ATOM     65  C   UNL A   1      46.172  24.309  26.516  1.00  0.00     0.031 C 
ATOM     66  C   UNL A   1      43.882  24.910  27.253  1.00  0.00     0.037 A 
BRANCH  53  67
ATOM     67  C   UNL A   1      40.421  29.590  29.342  1.00  0.00     0.058 A 
ATOM     68  C   UNL A   1      39.324  29.797  28.490  1.00  0.00     0.135 A 
ATOM     69  C   UNL A   1      40.233  29.805  30.716  1.00  0.00     0.135 A 
ATOM     70  F   UNL A   1      39.454  29.624  27.165  1.00  0.00    -0.206 F 
ATOM     71  C   UNL A   1      38.097  30.231  28.978  1.00  0.00     0.059 A 
ATOM     72  C   UNL A   1      39.005  30.212  31.229  1.00  0.00     0.059 A 
ATOM     73  F   UNL A   1      41.249  29.626  31.575  1.00  0.00    -0.206 F 
ATOM     74  C   UNL A   1      37.947  30.437  30.350  1.00  0.00     0.060 A 
BRANCH  74  75
ATOM     75  S   UNL A   1      36.346  30.997  30.969  1.00  0.00     0.124 S 
ATOM     76  O   UNL A   1      36.707  32.262  31.602  1.00  0.00    -0.237 OA
ATOM     77  O   UNL A   1      35.558  31.102  29.744  1.00  0.00    -0.237 OA
ATOM     78  O   UNL A   1      35.943  29.930  31.881  1.00  0.00    -0.744 OA
ENDBRANCH  74  75
ENDBRANCH  53  67
BRANCH  54  79
ATOM     79  C   UNL A   1      49.533  26.856  26.245  1.00  0.00     0.058 A 
ATOM     80  C   UNL A   1      50.460  26.367  27.177  1.00  0.00     0.135 A 
ATOM     81  C   UNL A   1      49.927  26.913  24.900  1.00  0.00     0.135 A 
ATOM     82  F   UNL A   1      50.131  26.298  28.477  1.00  0.00    -0.206 F 
ATOM     83  C   UNL A   1      51.734  25.959  26.795  1.00  0.00     0.059 A 
ATOM     84  C   UNL A   1      51.188  26.489  24.489  1.00  0.00     0.059 A 
ATOM     85  F   UNL A   1      49.071  27.356  23.966  1.00  0.00    -0.206 F 
ATOM     86  C   UNL A   1      52.087  26.020  25.445  1.00  0.00     0.060 A 
BRANCH  86  87
ATOM     87  S   UNL A   1      53.721  25.431  24.950  1.00  0.00     0.124 S 
ATOM     88  O   UNL A   1      53.545  23.985  25.015  1.00  0.00    -0.237 OA
ATOM     89  O   UNL A   1      53.860  26.000  23.613  1.00  0.00    -0.237 OA
ATOM     90  O   UNL A   1      54.604  26.007  25.961  1.00  0.00    -0.744 OA
ENDBRANCH  86  87
ENDBRANCH  54  79
BRANCH  66  91
ATOM     91  C   UNL A   1      43.468  23.489  26.997  1.00  0.00     0.058 A 
ATOM     92  C   UNL A   1      43.233  22.590  28.048  1.00  0.00     0.135 A 
ATOM     93  C   UNL A   1      43.246  23.040  25.685  1.00  0.00     0.135 A 
ATOM     94  F   UNL A   1      43.437  22.969  29.320  1.00  0.00    -0.206 F 
ATOM     95  C   UNL A   1      42.813  21.286  27.807  1.00  0.00     0.059 A 
ATOM     96  C   UNL A   1      42.800  21.749  25.422  1.00  0.00     0.059 A 
ATOM     97  F   UNL A   1      43.445  23.865  24.645  1.00  0.00    -0.206 F 
ATOM     98  C   UNL A   1      42.597  20.876  26.490  1.00  0.00     0.060 A 
BRANCH  98  99
ATOM     99  S   UNL A   1      42.015  19.193  26.191  1.00  0.00     0.124 S 
ATOM    100  O   UNL A   1      42.789  18.820  25.012  1.00  0.00    -0.237 OA
ATOM    101  O   UNL A   1      42.380  18.512  27.430  1.00  0.00    -0.237 OA
ATOM    102  O   UNL A   1      40.582  19.363  25.974  1.00  0.00    -0.744 OA
ENDBRANCH  98  99
ENDBRANCH  66  91
ENDBRANCH  40  41
ENDBRANCH  32  35
ENDBRANCH  30  31
ENDBRANCH  29  30
ENDBRANCH   1  29
TORSDOF 19
ENDMDL
MODEL 3
REMARK VINA RESULT:     -10.7      5.723     10.500
REMARK SMILES CC[C@@H](NC(=O)c1ccc(CNC(=O)[C@H]2CCCO2)cc1)C(=O)NCCCNC(=O)c1ccc(-c2c3nc(c(-c4c(F)cc(S(=O)(=O)[O-])cc4F)c4ccc([nH]4)c(-c4c(F)cc(S(=O)(=O)[O-])cc4F)c4nc(c(-c5c(F)cc(S(=O)(=O)[O-])cc5F)c5ccc2[nH]5)C=C4)C=C3)cc1
REMARK SMILES IDX 25 1 24 2 22 3 23 4 3 6 2 7 1 8 4 9 5 10 6 12 7 13 8 14
REMARK SMILES IDX 21 15 9 16 20 17 10 18 11 19 12 20 13 21 14 23 15 24 16 25
REMARK SMILES IDX 19 26 17 27 18 28 26 29 27 30 28 31 29 32 30 34 31 35 32 36
REMARK SMILES IDX 96 37 33 38 95 39 34 40 35 41 36 42 89 43 37 44 94 45 88 46
REMARK SMILES IDX 90 47 38 48 93 49 87 50 86 51 39 53 73 54 52 55 72 56 53 57
REMARK SMILES IDX 56 58 71 59 91 60 54 61 55 62 70 64 92 65 57 66 40 67 41 68
REMARK SMILES IDX 50 69 42 70 43 71 49 72 51 73 44 74 45 75 46 76 47 77 48 78
REMARK SMILES IDX 74 79 75 80 84 81 76 82 77 83 83 84 85 85 78 86 79 87 80 88
REMARK SMILES IDX 81 89 82 90 58 91 59 92 68 93 60 94 61 95 67 96 69 97 62 98
REMARK SMILES IDX 63 99 64 100 65 101 66 102
REMARK H PARENT 24 5 4 11 12 22 28 33 90 52 56 63
REMARK Flexibility Score: inf
ROOT
ATOM      1  C   UNL A   1      38.819  32.887  34.867  1.00  0.00     0.117 C 
ENDROOT
BRANCH   1   2
ATOM      2  N   UNL A   1      40.009  32.497  35.603  1.00  0.00    -0.354 N 
ATOM      3  C   UNL A   1      41.290  32.938  35.473  1.00  0.00     0.242 C 
ATOM      4  O   UNL A   1      42.169  32.368  36.126  1.00  0.00    -0.273 OA
ATOM      5  H   UNL A   1      39.868  31.813  36.297  1.00  0.00     0.163 HD
BRANCH   3   6
ATOM      6  C   UNL A   1      41.654  34.018  34.437  1.00  0.00     0.171 C 
BRANCH   6   7
ATOM      7  C   UNL A   1      41.943  35.292  35.268  1.00  0.00     0.032 C 
ATOM      8  C   UNL A   1      41.974  36.596  34.492  1.00  0.00     0.006 C 
ENDBRANCH   6   7
BRANCH   6   9
ATOM      9  N   UNL A   1      42.749  33.677  33.510  1.00  0.00    -0.340 N 
ATOM     10  C   UNL A   1      42.844  33.816  32.142  1.00  0.00     0.251 C 
ATOM     11  H   UNL A   1      43.543  33.284  33.940  1.00  0.00     0.164 HD
ATOM     12  O   UNL A   1      43.949  33.775  31.607  1.00  0.00    -0.269 OA
BRANCH  10  13
ATOM     13  C   UNL A   1      41.633  33.816  31.291  1.00  0.00     0.039 A 
ATOM     14  C   UNL A   1      40.632  32.887  31.604  1.00  0.00     0.014 A 
ATOM     15  C   UNL A   1      41.419  34.747  30.278  1.00  0.00     0.014 A 
ATOM     16  C   UNL A   1      39.373  32.983  31.009  1.00  0.00     0.006 A 
ATOM     17  C   UNL A   1      40.153  34.840  29.679  1.00  0.00     0.006 A 
ATOM     18  C   UNL A   1      39.106  33.982  30.057  1.00  0.00    -0.029 A 
BRANCH  18  19
ATOM     19  C   UNL A   1      37.707  34.198  29.513  1.00  0.00     0.151 C 
BRANCH  19  20
ATOM     20  N   UNL A   1      37.281  33.093  28.686  1.00  0.00    -0.350 N 
ATOM     21  C   UNL A   1      36.059  32.563  28.425  1.00  0.00     0.249 C 
ATOM     22  H   UNL A   1      38.019  32.635  28.223  1.00  0.00     0.163 HD
ATOM     23  O   UNL A   1      36.048  31.570  27.686  1.00  0.00    -0.272 OA
BRANCH  21  24
ATOM     24  C   UNL A   1      34.734  33.148  28.950  1.00  0.00     0.207 C 
ATOM     25  C   UNL A   1      34.546  33.322  30.454  1.00  0.00     0.044 C 
ATOM     26  O   UNL A   1      34.427  34.416  28.347  1.00  0.00    -0.368 OA
ATOM     27  C   UNL A   1      34.120  34.772  30.612  1.00  0.00     0.032 C 
ATOM     28  C   UNL A   1      33.550  35.095  29.252  1.00  0.00     0.161 C 
ENDBRANCH  21  24
ENDBRANCH  19  20
ENDBRANCH  18  19
ENDBRANCH  10  13
ENDBRANCH   6   9
ENDBRANCH   3   6
ENDBRANCH   1   2
BRANCH   1  29
ATOM     29  C   UNL A   1      37.840  31.735  34.751  1.00  0.00     0.042 C 
BRANCH  29  30
ATOM     30  C   UNL A   1      38.086  30.864  33.530  1.00  0.00     0.118 C 
BRANCH  30  31
ATOM     31  N   UNL A   1      36.875  30.608  32.758  1.00  0.00    -0.352 N 
ATOM     32  C   UNL A   1      36.762  30.063  31.501  1.00  0.00     0.251 C 
ATOM     33  H   UNL A   1      36.030  30.859  33.194  1.00  0.00     0.163 HD
ATOM     34  O   UNL A   1      35.675  30.035  30.933  1.00  0.00    -0.269 OA
BRANCH  32  35
ATOM     35  C   UNL A   1      37.973  29.531  30.849  1.00  0.00     0.039 A 
ATOM     36  C   UNL A   1      38.195  29.795  29.497  1.00  0.00     0.014 A 
ATOM     37  C   UNL A   1      38.921  28.839  31.606  1.00  0.00     0.014 A 
ATOM     38  C   UNL A   1      39.411  29.426  28.920  1.00  0.00     0.010 A 
ATOM     39  C   UNL A   1      40.164  28.557  31.055  1.00  0.00     0.010 A 
ATOM     40  C   UNL A   1      40.419  28.842  29.706  1.00  0.00    -0.014 A 
BRANCH  40  41
ATOM     41  C   UNL A   1      41.751  28.508  29.142  1.00  0.00     0.031 A 
ATOM     42  C   UNL A   1      42.790  29.587  28.998  1.00  0.00     0.074 A 
ATOM     43  C   UNL A   1      41.993  27.264  28.683  1.00  0.00     0.049 A 
ATOM     44  N   UNL A   1      43.971  29.526  28.442  1.00  0.00    -0.248 NA
ATOM     45  C   UNL A   1      42.437  30.921  29.512  1.00  0.00     0.031 C 
ATOM     46  C   UNL A   1      41.041  26.150  28.709  1.00  0.00     0.029 A 
ATOM     47  N   UNL A   1      43.110  26.730  28.093  1.00  0.00    -0.354 N 
ATOM     48  C   UNL A   1      44.490  30.813  28.517  1.00  0.00     0.074 A 
ATOM     49  C   UNL A   1      43.473  31.646  29.120  1.00  0.00     0.031 C 
ATOM     50  C   UNL A   1      41.625  25.060  28.183  1.00  0.00     0.029 A 
ATOM     51  C   UNL A   1      42.975  25.405  27.750  1.00  0.00     0.049 A 
ATOM     52  H   UNL A   1      43.932  27.247  27.930  1.00  0.00     0.167 HD
ATOM     53  C   UNL A   1      45.714  31.255  28.143  1.00  0.00     0.037 A 
ATOM     54  C   UNL A   1      43.841  24.565  27.150  1.00  0.00     0.037 A 
ATOM     55  C   UNL A   1      46.736  30.409  27.587  1.00  0.00     0.049 A 
ATOM     56  C   UNL A   1      45.208  25.069  26.774  1.00  0.00     0.074 A 
ATOM     57  C   UNL A   1      48.036  30.741  27.247  1.00  0.00     0.029 A 
ATOM     58  N   UNL A   1      46.576  29.063  27.295  1.00  0.00    -0.354 N 
ATOM     59  N   UNL A   1      45.707  26.275  26.914  1.00  0.00    -0.248 NA
ATOM     60  C   UNL A   1      46.131  24.103  26.168  1.00  0.00     0.031 C 
ATOM     61  C   UNL A   1      48.650  29.604  26.714  1.00  0.00     0.029 A 
ATOM     62  C   UNL A   1      47.748  28.553  26.763  1.00  0.00     0.049 A 
ATOM     63  H   UNL A   1      45.752  28.546  27.443  1.00  0.00     0.167 HD
ATOM     64  C   UNL A   1      47.010  26.205  26.436  1.00  0.00     0.074 A 
ATOM     65  C   UNL A   1      47.225  24.836  26.013  1.00  0.00     0.031 C 
ATOM     66  C   UNL A   1      47.945  27.184  26.354  1.00  0.00     0.037 A 
BRANCH  53  67
ATOM     67  C   UNL A   1      46.016  32.716  28.335  1.00  0.00     0.058 A 
ATOM     68  C   UNL A   1      46.635  33.194  29.501  1.00  0.00     0.135 A 
ATOM     69  C   UNL A   1      45.707  33.646  27.329  1.00  0.00     0.135 A 
ATOM     70  F   UNL A   1      46.934  32.351  30.502  1.00  0.00    -0.206 F 
ATOM     71  C   UNL A   1      46.908  34.545  29.677  1.00  0.00     0.059 A 
ATOM     72  C   UNL A   1      45.998  34.999  27.472  1.00  0.00     0.059 A 
ATOM     73  F   UNL A   1      45.110  33.244  26.195  1.00  0.00    -0.206 F 
ATOM     74  C   UNL A   1      46.586  35.441  28.656  1.00  0.00     0.060 A 
BRANCH  74  75
ATOM     75  S   UNL A   1      46.952  37.192  28.898  1.00  0.00     0.124 S 
ATOM     76  O   UNL A   1      47.062  37.267  30.352  1.00  0.00    -0.237 OA
ATOM     77  O   UNL A   1      48.199  37.355  28.158  1.00  0.00    -0.237 OA
ATOM     78  O   UNL A   1      45.791  37.864  28.321  1.00  0.00    -0.744 OA
ENDBRANCH  74  75
ENDBRANCH  53  67
BRANCH  54  79
ATOM     79  C   UNL A   1      43.451  23.152  26.902  1.00  0.00     0.058 A 
ATOM     80  C   UNL A   1      43.246  22.680  25.597  1.00  0.00     0.135 A 
ATOM     81  C   UNL A   1      43.302  22.240  27.957  1.00  0.00     0.135 A 
ATOM     82  F   UNL A   1      43.373  23.517  24.555  1.00  0.00    -0.206 F 
ATOM     83  C   UNL A   1      42.895  21.358  25.345  1.00  0.00     0.059 A 
ATOM     84  C   UNL A   1      42.973  20.906  27.730  1.00  0.00     0.059 A 
ATOM     85  F   UNL A   1      43.505  22.636  29.224  1.00  0.00    -0.206 F 
ATOM     86  C   UNL A   1      42.765  20.477  26.420  1.00  0.00     0.060 A 
BRANCH  86  87
ATOM     87  S   UNL A   1      42.368  18.748  26.079  1.00  0.00     0.124 S 
ATOM     88  O   UNL A   1      43.311  18.434  25.014  1.00  0.00    -0.237 OA
ATOM     89  O   UNL A   1      42.624  18.114  27.369  1.00  0.00    -0.237 OA
ATOM     90  O   UNL A   1      40.963  18.799  25.686  1.00  0.00    -0.744 OA
ENDBRANCH  86  87
ENDBRANCH  54  79
BRANCH  66  91
ATOM     91  C   UNL A   1      49.295  26.808  25.817  1.00  0.00     0.058 A 
ATOM     92  C   UNL A   1      49.656  27.065  24.486  1.00  0.00     0.135 A 
ATOM     93  C   UNL A   1      50.261  26.237  26.662  1.00  0.00     0.135 A 
ATOM     94  F   UNL A   1      48.766  27.603  23.637  1.00  0.00    -0.206 F 
ATOM     95  C   UNL A   1      50.922  26.750  24.003  1.00  0.00     0.059 A 
ATOM     96  C   UNL A   1      51.541  25.937  26.208  1.00  0.00     0.059 A 
ATOM     97  F   UNL A   1      49.969  25.982  27.947  1.00  0.00    -0.206 F 
ATOM     98  C   UNL A   1      51.859  26.188  24.874  1.00  0.00     0.060 A 
BRANCH  98  99
ATOM     99  S   UNL A   1      53.510  25.817  24.246  1.00  0.00     0.124 S 
ATOM    100  O   UNL A   1      53.313  25.949  22.806  1.00  0.00    -0.237 OA
ATOM    101  O   UNL A   1      54.323  26.855  24.873  1.00  0.00    -0.237 OA
ATOM    102  O   UNL A   1      53.758  24.460  24.725  1.00  0.00    -0.744 OA
ENDBRANCH  98  99
ENDBRANCH  66  91
ENDBRANCH  40  41
ENDBRANCH  32  35
ENDBRANCH  30  31
ENDBRANCH  29  30
ENDBRANCH   1  29
TORSDOF 19
ENDMDL
