MODEL 1
REMARK VINA RESULT:     -13.8      0.000      0.000
REMARK SMILES Cc1nccn1C1(C(=O)NCCCNC(=O)c2ccc(-c3c4nc(c(-c5c(F)cc(S(=O)(=O)[O-])cc5F)c5ccc([nH]5)c(-c5c(F)cc(S(=O)(=O)[O-])cc5F)c5nc(c(-c6c(F)cc(S(=O)(=O)[O-])cc6F)c6ccc3[nH]6)C=C5)C=C4)cc2)CCN(c2nccc3occc23)CC1
REMARK SMILES IDX 13 1 12 2 11 3 10 4 8 5 9 6 7 8 83 9 96 10 84 11 95 12 85 13
REMARK SMILES IDX 6 14 1 15 2 16 3 17 4 18 5 19 86 20 87 21 94 22 88 23 90 24
REMARK SMILES IDX 93 25 89 26 91 27 92 28 14 29 15 30 16 32 17 33 18 34 82 35
REMARK SMILES IDX 19 36 81 37 20 38 21 39 22 40 75 41 23 42 80 43 74 44 76 45
REMARK SMILES IDX 24 46 79 47 73 48 72 49 25 51 59 52 38 53 58 54 39 55 42 56
REMARK SMILES IDX 57 57 77 58 40 59 41 60 56 62 78 63 43 64 26 65 27 66 36 67
REMARK SMILES IDX 28 68 29 69 35 70 37 71 30 72 31 73 32 74 33 75 34 76 60 77
REMARK SMILES IDX 61 78 70 79 62 80 63 81 69 82 71 83 64 84 65 85 66 86 67 87
REMARK SMILES IDX 68 88 44 89 45 90 54 91 46 92 47 93 53 94 55 95 48 96 49 97
REMARK SMILES IDX 50 98 51 99 52 100
REMARK H PARENT 10 7 14 31 76 50 42 61
REMARK Flexibility Score: inf
ROOT
ATOM      1  C   UNL A   1      34.062  29.612  26.824  1.00  0.00     0.118 C 
ENDROOT
BRANCH   1   2
ATOM      2  C   UNL A   1      33.080  28.691  27.533  1.00  0.00     0.042 C 
BRANCH   2   3
ATOM      3  C   UNL A   1      31.762  28.507  26.773  1.00  0.00     0.117 C 
BRANCH   3   4
ATOM      4  N   UNL A   1      31.220  27.168  26.950  1.00  0.00    -0.354 N 
ATOM      5  C   UNL A   1      30.853  26.214  26.049  1.00  0.00     0.246 C 
ATOM      6  O   UNL A   1      29.912  25.516  26.444  1.00  0.00    -0.272 OA
ATOM      7  H   UNL A   1      31.098  26.903  27.890  1.00  0.00     0.163 HD
BRANCH   5   8
ATOM      8  C   UNL A   1      31.492  26.055  24.605  1.00  0.00     0.127 C 
ATOM      9  C   UNL A   1      33.025  26.203  24.853  1.00  0.00     0.060 C 
ATOM     10  C   UNL A   1      31.056  24.714  23.980  1.00  0.00     0.060 C 
ATOM     11  C   UNL A   1      34.014  25.185  24.239  1.00  0.00     0.121 C 
ATOM     12  C   UNL A   1      32.083  24.115  23.039  1.00  0.00     0.121 C 
ATOM     13  N   UNL A   1      33.383  24.010  23.668  1.00  0.00    -0.356 N 
BRANCH   8  14
ATOM     14  N   UNL A   1      30.930  27.130  23.705  1.00  0.00    -0.320 N 
ATOM     15  C   UNL A   1      28.372  26.768  23.797  1.00  0.00     0.087 C 
ATOM     16  C   UNL A   1      29.618  27.426  23.347  1.00  0.00     0.106 A 
ATOM     17  N   UNL A   1      29.566  28.477  22.549  1.00  0.00    -0.242 NA
ATOM     18  C   UNL A   1      30.835  28.943  22.438  1.00  0.00     0.131 A 
ATOM     19  C   UNL A   1      31.676  28.193  23.212  1.00  0.00     0.108 A 
ENDBRANCH   8  14
BRANCH  13  20
ATOM     20  C   UNL A   1      34.007  22.771  23.566  1.00  0.00     0.139 A 
ATOM     21  N   UNL A   1      33.173  21.719  23.331  1.00  0.00    -0.238 NA
ATOM     22  C   UNL A   1      35.241  22.359  24.118  1.00  0.00     0.063 A 
ATOM     23  C   UNL A   1      33.141  20.747  24.260  1.00  0.00     0.117 A 
ATOM     24  C   UNL A   1      35.149  21.335  25.053  1.00  0.00     0.139 A 
ATOM     25  C   UNL A   1      36.617  22.383  23.743  1.00  0.00     0.054 A 
ATOM     26  C   UNL A   1      33.949  20.738  25.381  1.00  0.00     0.068 A 
ATOM     27  O   UNL A   1      36.385  20.927  25.451  1.00  0.00    -0.464 OA
ATOM     28  C   UNL A   1      37.263  21.477  24.564  1.00  0.00     0.196 A 
ENDBRANCH  13  20
ENDBRANCH   5   8
ENDBRANCH   3   4
ENDBRANCH   2   3
ENDBRANCH   1   2
BRANCH   1  29
ATOM     29  N   UNL A   1      33.938  31.005  27.230  1.00  0.00    -0.352 N 
ATOM     30  C   UNL A   1      34.672  31.687  28.189  1.00  0.00     0.251 C 
ATOM     31  H   UNL A   1      33.246  31.529  26.765  1.00  0.00     0.163 HD
ATOM     32  O   UNL A   1      34.264  32.737  28.633  1.00  0.00    -0.269 OA
BRANCH  30  33
ATOM     33  C   UNL A   1      35.948  31.102  28.666  1.00  0.00     0.039 A 
ATOM     34  C   UNL A   1      36.042  29.730  28.916  1.00  0.00     0.014 A 
ATOM     35  C   UNL A   1      37.053  31.929  28.864  1.00  0.00     0.014 A 
ATOM     36  C   UNL A   1      37.273  29.193  29.290  1.00  0.00     0.010 A 
ATOM     37  C   UNL A   1      38.293  31.385  29.110  1.00  0.00     0.010 A 
ATOM     38  C   UNL A   1      38.404  30.023  29.363  1.00  0.00    -0.014 A 
BRANCH  38  39
ATOM     39  C   UNL A   1      39.734  29.440  29.534  1.00  0.00     0.031 A 
ATOM     40  C   UNL A   1      40.100  29.224  30.960  1.00  0.00     0.074 A 
ATOM     41  C   UNL A   1      40.476  28.930  28.526  1.00  0.00     0.049 A 
ATOM     42  N   UNL A   1      40.958  29.886  31.662  1.00  0.00    -0.248 NA
ATOM     43  C   UNL A   1      39.281  28.293  31.757  1.00  0.00     0.031 C 
ATOM     44  C   UNL A   1      40.085  28.789  27.117  1.00  0.00     0.029 A 
ATOM     45  N   UNL A   1      41.699  28.326  28.556  1.00  0.00    -0.354 N 
ATOM     46  C   UNL A   1      40.987  29.257  32.904  1.00  0.00     0.074 A 
ATOM     47  C   UNL A   1      39.787  28.471  32.979  1.00  0.00     0.031 C 
ATOM     48  C   UNL A   1      40.933  27.944  26.492  1.00  0.00     0.029 A 
ATOM     49  C   UNL A   1      42.022  27.624  27.395  1.00  0.00     0.049 A 
ATOM     50  H   UNL A   1      42.303  28.382  29.331  1.00  0.00     0.167 HD
ATOM     51  C   UNL A   1      42.149  29.185  33.613  1.00  0.00     0.037 A 
ATOM     52  C   UNL A   1      43.103  26.830  27.187  1.00  0.00     0.037 A 
ATOM     53  C   UNL A   1      43.129  30.090  33.062  1.00  0.00     0.049 A 
ATOM     54  C   UNL A   1      44.139  27.252  28.159  1.00  0.00     0.074 A 
ATOM     55  C   UNL A   1      43.275  31.455  32.947  1.00  0.00     0.029 A 
ATOM     56  N   UNL A   1      43.972  29.512  32.147  1.00  0.00    -0.354 N 
ATOM     57  N   UNL A   1      44.719  28.421  28.133  1.00  0.00    -0.248 NA
ATOM     58  C   UNL A   1      44.295  26.508  29.402  1.00  0.00     0.031 C 
ATOM     59  C   UNL A   1      44.027  31.667  31.753  1.00  0.00     0.029 A 
ATOM     60  C   UNL A   1      44.365  30.427  31.209  1.00  0.00     0.049 A 
ATOM     61  H   UNL A   1      44.256  28.570  32.164  1.00  0.00     0.167 HD
ATOM     62  C   UNL A   1      44.912  28.738  29.464  1.00  0.00     0.074 A 
ATOM     63  C   UNL A   1      44.808  27.469  30.174  1.00  0.00     0.031 C 
ATOM     64  C   UNL A   1      44.816  30.031  29.889  1.00  0.00     0.037 A 
BRANCH  51  65
ATOM     65  C   UNL A   1      42.587  27.990  34.448  1.00  0.00     0.058 A 
ATOM     66  C   UNL A   1      42.786  28.165  35.836  1.00  0.00     0.135 A 
ATOM     67  C   UNL A   1      43.111  26.790  33.915  1.00  0.00     0.135 A 
ATOM     68  F   UNL A   1      42.337  29.269  36.456  1.00  0.00    -0.206 F 
ATOM     69  C   UNL A   1      43.513  27.262  36.614  1.00  0.00     0.059 A 
ATOM     70  C   UNL A   1      43.794  25.852  34.683  1.00  0.00     0.059 A 
ATOM     71  F   UNL A   1      43.075  26.502  32.611  1.00  0.00    -0.206 F 
ATOM     72  C   UNL A   1      44.026  26.113  36.022  1.00  0.00     0.060 A 
BRANCH  72  73
ATOM     73  S   UNL A   1      45.029  24.979  36.996  1.00  0.00     0.124 S 
ATOM     74  O   UNL A   1      44.386  25.070  38.302  1.00  0.00    -0.237 OA
ATOM     75  O   UNL A   1      44.847  23.723  36.277  1.00  0.00    -0.237 OA
ATOM     76  O   UNL A   1      46.367  25.555  36.907  1.00  0.00    -0.744 OA
ENDBRANCH  72  73
ENDBRANCH  51  65
BRANCH  52  77
ATOM     77  C   UNL A   1      43.235  25.594  26.371  1.00  0.00     0.058 A 
ATOM     78  C   UNL A   1      44.225  25.481  25.377  1.00  0.00     0.135 A 
ATOM     79  C   UNL A   1      42.601  24.394  26.751  1.00  0.00     0.135 A 
ATOM     80  F   UNL A   1      44.884  26.570  24.953  1.00  0.00    -0.206 F 
ATOM     81  C   UNL A   1      44.620  24.247  24.851  1.00  0.00     0.059 A 
ATOM     82  C   UNL A   1      42.971  23.153  26.234  1.00  0.00     0.059 A 
ATOM     83  F   UNL A   1      41.666  24.383  27.713  1.00  0.00    -0.206 F 
ATOM     84  C   UNL A   1      44.006  23.083  25.308  1.00  0.00     0.060 A 
BRANCH  84  85
ATOM     85  S   UNL A   1      44.657  21.474  24.795  1.00  0.00     0.124 S 
ATOM     86  O   UNL A   1      44.649  21.595  23.340  1.00  0.00    -0.237 OA
ATOM     87  O   UNL A   1      45.975  21.459  25.424  1.00  0.00    -0.237 OA
ATOM     88  O   UNL A   1      43.695  20.526  25.349  1.00  0.00    -0.744 OA
ENDBRANCH  84  85
ENDBRANCH  52  77
BRANCH  64  89
ATOM     89  C   UNL A   1      45.051  31.117  28.875  1.00  0.00     0.058 A 
ATOM     90  C   UNL A   1      46.307  31.540  28.410  1.00  0.00     0.135 A 
ATOM     91  C   UNL A   1      43.918  31.702  28.288  1.00  0.00     0.135 A 
ATOM     92  F   UNL A   1      47.438  30.972  28.851  1.00  0.00    -0.206 F 
ATOM     93  C   UNL A   1      46.430  32.536  27.437  1.00  0.00     0.059 A 
ATOM     94  C   UNL A   1      44.016  32.669  27.294  1.00  0.00     0.059 A 
ATOM     95  F   UNL A   1      42.689  31.305  28.655  1.00  0.00    -0.206 F 
ATOM     96  C   UNL A   1      45.277  33.095  26.885  1.00  0.00     0.060 A 
BRANCH  96  97
ATOM     97  S   UNL A   1      45.430  34.341  25.589  1.00  0.00     0.124 S 
ATOM     98  O   UNL A   1      44.819  35.510  26.213  1.00  0.00    -0.237 OA
ATOM     99  O   UNL A   1      46.874  34.413  25.386  1.00  0.00    -0.237 OA
ATOM    100  O   UNL A   1      44.682  33.768  24.473  1.00  0.00    -0.744 OA
ENDBRANCH  96  97
ENDBRANCH  64  89
ENDBRANCH  38  39
ENDBRANCH  30  33
ENDBRANCH   1  29
TORSDOF 15
ENDMDL
MODEL 2
REMARK VINA RESULT:     -13.8      2.764      9.412
REMARK SMILES Cc1nccn1C1(C(=O)NCCCNC(=O)c2ccc(-c3c4nc(c(-c5c(F)cc(S(=O)(=O)[O-])cc5F)c5ccc([nH]5)c(-c5c(F)cc(S(=O)(=O)[O-])cc5F)c5nc(c(-c6c(F)cc(S(=O)(=O)[O-])cc6F)c6ccc3[nH]6)C=C5)C=C4)cc2)CCN(c2nccc3occc23)CC1
REMARK SMILES IDX 13 1 12 2 11 3 10 4 8 5 9 6 7 8 83 9 96 10 84 11 95 12 85 13
REMARK SMILES IDX 6 14 1 15 2 16 3 17 4 18 5 19 86 20 87 21 94 22 88 23 90 24
REMARK SMILES IDX 93 25 89 26 91 27 92 28 14 29 15 30 16 32 17 33 18 34 82 35
REMARK SMILES IDX 19 36 81 37 20 38 21 39 22 40 75 41 23 42 80 43 74 44 76 45
REMARK SMILES IDX 24 46 79 47 73 48 72 49 25 51 59 52 38 53 58 54 39 55 42 56
REMARK SMILES IDX 57 57 77 58 40 59 41 60 56 62 78 63 43 64 26 65 27 66 36 67
REMARK SMILES IDX 28 68 29 69 35 70 37 71 30 72 31 73 32 74 33 75 34 76 60 77
REMARK SMILES IDX 61 78 70 79 62 80 63 81 69 82 71 83 64 84 65 85 66 86 67 87
REMARK SMILES IDX 68 88 44 89 45 90 54 91 46 92 47 93 53 94 55 95 48 96 49 97
REMARK SMILES IDX 50 98 51 99 52 100
REMARK H PARENT 10 7 14 31 76 50 42 61
REMARK Flexibility Score: inf
ROOT
ATOM      1  C   UNL A   1      37.699  23.033  26.163  1.00  0.00     0.118 C 
ENDROOT
BRANCH   1   2
ATOM      2  C   UNL A   1      37.420  23.405  24.714  1.00  0.00     0.042 C 
BRANCH   2   3
ATOM      3  C   UNL A   1      36.470  22.432  24.009  1.00  0.00     0.117 C 
BRANCH   3   4
ATOM      4  N   UNL A   1      35.607  23.117  23.059  1.00  0.00    -0.354 N 
ATOM      5  C   UNL A   1      34.250  23.216  22.976  1.00  0.00     0.246 C 
ATOM      6  O   UNL A   1      33.843  23.297  21.811  1.00  0.00    -0.272 OA
ATOM      7  H   UNL A   1      36.090  23.595  22.347  1.00  0.00     0.163 HD
BRANCH   5   8
ATOM      8  C   UNL A   1      33.272  23.149  24.224  1.00  0.00     0.127 C 
ATOM      9  C   UNL A   1      33.955  24.061  25.289  1.00  0.00     0.060 C 
ATOM     10  C   UNL A   1      31.851  23.580  23.805  1.00  0.00     0.060 C 
ATOM     11  C   UNL A   1      33.128  25.127  26.045  1.00  0.00     0.121 C 
ATOM     12  C   UNL A   1      31.063  24.248  24.915  1.00  0.00     0.121 C 
ATOM     13  N   UNL A   1      31.800  25.347  25.504  1.00  0.00    -0.356 N 
BRANCH   8  14
ATOM     14  N   UNL A   1      33.150  21.709  24.668  1.00  0.00    -0.320 N 
ATOM     15  C   UNL A   1      33.972  21.724  27.119  1.00  0.00     0.087 C 
ATOM     16  C   UNL A   1      33.459  21.099  25.880  1.00  0.00     0.106 A 
ATOM     17  N   UNL A   1      33.171  19.811  25.853  1.00  0.00    -0.242 NA
ATOM     18  C   UNL A   1      32.588  19.568  24.653  1.00  0.00     0.131 A 
ATOM     19  C   UNL A   1      32.477  20.733  23.946  1.00  0.00     0.108 A 
ENDBRANCH   8  14
BRANCH  13  20
ATOM     20  C   UNL A   1      31.108  26.547  25.621  1.00  0.00     0.139 A 
ATOM     21  N   UNL A   1      30.049  26.691  24.776  1.00  0.00    -0.238 NA
ATOM     22  C   UNL A   1      31.575  27.790  26.104  1.00  0.00     0.063 A 
ATOM     23  C   UNL A   1      30.098  27.713  23.904  1.00  0.00     0.117 A 
ATOM     24  C   UNL A   1      31.582  28.815  25.165  1.00  0.00     0.139 A 
ATOM     25  C   UNL A   1      31.685  28.453  27.362  1.00  0.00     0.054 A 
ATOM     26  C   UNL A   1      31.122  28.641  23.875  1.00  0.00     0.068 A 
ATOM     27  O   UNL A   1      31.941  29.997  25.738  1.00  0.00    -0.464 OA
ATOM     28  C   UNL A   1      31.880  29.793  27.085  1.00  0.00     0.196 A 
ENDBRANCH  13  20
ENDBRANCH   5   8
ENDBRANCH   3   4
ENDBRANCH   2   3
ENDBRANCH   1   2
BRANCH   1  29
ATOM     29  N   UNL A   1      38.837  22.136  26.317  1.00  0.00    -0.352 N 
ATOM     30  C   UNL A   1      40.160  22.466  26.566  1.00  0.00     0.251 C 
ATOM     31  H   UNL A   1      38.641  21.175  26.233  1.00  0.00     0.163 HD
ATOM     32  O   UNL A   1      41.037  21.654  26.367  1.00  0.00    -0.269 OA
BRANCH  30  33
ATOM     33  C   UNL A   1      40.481  23.825  27.064  1.00  0.00     0.039 A 
ATOM     34  C   UNL A   1      39.825  24.939  26.533  1.00  0.00     0.014 A 
ATOM     35  C   UNL A   1      41.439  23.984  28.064  1.00  0.00     0.014 A 
ATOM     36  C   UNL A   1      40.087  26.199  27.071  1.00  0.00     0.010 A 
ATOM     37  C   UNL A   1      41.605  25.205  28.679  1.00  0.00     0.010 A 
ATOM     38  C   UNL A   1      40.963  26.323  28.162  1.00  0.00    -0.014 A 
BRANCH  38  39
ATOM     39  C   UNL A   1      41.075  27.596  28.874  1.00  0.00     0.031 A 
ATOM     40  C   UNL A   1      42.168  28.463  28.355  1.00  0.00     0.074 A 
ATOM     41  C   UNL A   1      40.158  28.058  29.753  1.00  0.00     0.049 A 
ATOM     42  N   UNL A   1      43.294  28.735  28.924  1.00  0.00    -0.248 NA
ATOM     43  C   UNL A   1      42.085  28.929  26.959  1.00  0.00     0.031 C 
ATOM     44  C   UNL A   1      38.872  27.442  30.104  1.00  0.00     0.029 A 
ATOM     45  N   UNL A   1      40.122  29.234  30.445  1.00  0.00    -0.354 N 
ATOM     46  C   UNL A   1      43.931  29.638  28.076  1.00  0.00     0.074 A 
ATOM     47  C   UNL A   1      43.271  29.522  26.805  1.00  0.00     0.031 C 
ATOM     48  C   UNL A   1      38.094  28.343  30.741  1.00  0.00     0.029 A 
ATOM     49  C   UNL A   1      38.879  29.535  31.001  1.00  0.00     0.049 A 
ATOM     50  H   UNL A   1      40.906  29.820  30.543  1.00  0.00     0.167 HD
ATOM     51  C   UNL A   1      44.719  30.625  28.587  1.00  0.00     0.037 A 
ATOM     52  C   UNL A   1      38.514  30.682  31.629  1.00  0.00     0.037 A 
ATOM     53  C   UNL A   1      45.017  30.360  29.974  1.00  0.00     0.049 A 
ATOM     54  C   UNL A   1      39.760  31.326  32.105  1.00  0.00     0.074 A 
ATOM     55  C   UNL A   1      45.732  29.415  30.678  1.00  0.00     0.029 A 
ATOM     56  N   UNL A   1      44.160  30.964  30.858  1.00  0.00    -0.354 N 
ATOM     57  N   UNL A   1      40.533  30.813  33.023  1.00  0.00    -0.248 NA
ATOM     58  C   UNL A   1      40.361  32.389  31.310  1.00  0.00     0.031 C 
ATOM     59  C   UNL A   1      45.078  29.295  31.942  1.00  0.00     0.029 A 
ATOM     60  C   UNL A   1      44.024  30.208  31.990  1.00  0.00     0.049 A 
ATOM     61  H   UNL A   1      43.706  31.823  30.699  1.00  0.00     0.167 HD
ATOM     62  C   UNL A   1      41.812  31.157  32.627  1.00  0.00     0.074 A 
ATOM     63  C   UNL A   1      41.634  32.262  31.694  1.00  0.00     0.031 C 
ATOM     64  C   UNL A   1      42.857  30.307  32.846  1.00  0.00     0.037 A 
BRANCH  51  65
ATOM     65  C   UNL A   1      44.805  32.043  28.038  1.00  0.00     0.058 A 
ATOM     66  C   UNL A   1      46.041  32.500  27.526  1.00  0.00     0.135 A 
ATOM     67  C   UNL A   1      43.844  33.052  28.270  1.00  0.00     0.135 A 
ATOM     68  F   UNL A   1      47.036  31.635  27.270  1.00  0.00    -0.206 F 
ATOM     69  C   UNL A   1      46.325  33.854  27.338  1.00  0.00     0.059 A 
ATOM     70  C   UNL A   1      44.088  34.402  28.041  1.00  0.00     0.059 A 
ATOM     71  F   UNL A   1      42.652  32.802  28.821  1.00  0.00    -0.206 F 
ATOM     72  C   UNL A   1      45.343  34.800  27.612  1.00  0.00     0.060 A 
BRANCH  72  73
ATOM     73  S   UNL A   1      45.720  36.552  27.444  1.00  0.00     0.124 S 
ATOM     74  O   UNL A   1      46.583  36.553  26.269  1.00  0.00    -0.237 OA
ATOM     75  O   UNL A   1      44.392  37.130  27.265  1.00  0.00    -0.237 OA
ATOM     76  O   UNL A   1      46.371  36.876  28.710  1.00  0.00    -0.744 OA
ENDBRANCH  72  73
ENDBRANCH  51  65
BRANCH  52  77
ATOM     77  C   UNL A   1      37.199  31.375  31.657  1.00  0.00     0.058 A 
ATOM     78  C   UNL A   1      36.586  31.723  32.876  1.00  0.00     0.135 A 
ATOM     79  C   UNL A   1      36.667  31.982  30.502  1.00  0.00     0.135 A 
ATOM     80  F   UNL A   1      37.027  31.196  34.028  1.00  0.00    -0.206 F 
ATOM     81  C   UNL A   1      35.563  32.673  32.954  1.00  0.00     0.059 A 
ATOM     82  C   UNL A   1      35.640  32.926  30.554  1.00  0.00     0.059 A 
ATOM     83  F   UNL A   1      37.197  31.747  29.292  1.00  0.00    -0.206 F 
ATOM     84  C   UNL A   1      35.116  33.292  31.788  1.00  0.00     0.060 A 
BRANCH  84  85
ATOM     85  S   UNL A   1      33.951  34.672  31.906  1.00  0.00     0.124 S 
ATOM     86  O   UNL A   1      34.813  35.759  32.357  1.00  0.00    -0.237 OA
ATOM     87  O   UNL A   1      33.457  34.778  30.536  1.00  0.00    -0.237 OA
ATOM     88  O   UNL A   1      32.970  34.205  32.883  1.00  0.00    -0.744 OA
ENDBRANCH  84  85
ENDBRANCH  52  77
BRANCH  64  89
ATOM     89  C   UNL A   1      42.720  29.307  33.961  1.00  0.00     0.058 A 
ATOM     90  C   UNL A   1      42.904  29.580  35.327  1.00  0.00     0.135 A 
ATOM     91  C   UNL A   1      42.300  28.014  33.615  1.00  0.00     0.135 A 
ATOM     92  F   UNL A   1      43.218  30.811  35.753  1.00  0.00    -0.206 F 
ATOM     93  C   UNL A   1      42.721  28.594  36.300  1.00  0.00     0.059 A 
ATOM     94  C   UNL A   1      42.078  27.027  34.569  1.00  0.00     0.059 A 
ATOM     95  F   UNL A   1      42.060  27.706  32.329  1.00  0.00    -0.206 F 
ATOM     96  C   UNL A   1      42.308  27.320  35.911  1.00  0.00     0.060 A 
BRANCH  96  97
ATOM     97  S   UNL A   1      42.018  26.059  37.169  1.00  0.00     0.124 S 
ATOM     98  O   UNL A   1      42.300  24.827  36.440  1.00  0.00    -0.237 OA
ATOM     99  O   UNL A   1      42.982  26.417  38.205  1.00  0.00    -0.237 OA
ATOM    100  O   UNL A   1      40.619  26.259  37.538  1.00  0.00    -0.744 OA
ENDBRANCH  96  97
ENDBRANCH  64  89
ENDBRANCH  38  39
ENDBRANCH  30  33
ENDBRANCH   1  29
TORSDOF 15
ENDMDL
MODEL 3
REMARK VINA RESULT:     -12.9      1.239      3.761
REMARK SMILES Cc1nccn1C1(C(=O)NCCCNC(=O)c2ccc(-c3c4nc(c(-c5c(F)cc(S(=O)(=O)[O-])cc5F)c5ccc([nH]5)c(-c5c(F)cc(S(=O)(=O)[O-])cc5F)c5nc(c(-c6c(F)cc(S(=O)(=O)[O-])cc6F)c6ccc3[nH]6)C=C5)C=C4)cc2)CCN(c2nccc3occc23)CC1
REMARK SMILES IDX 13 1 12 2 11 3 10 4 8 5 9 6 7 8 83 9 96 10 84 11 95 12 85 13
REMARK SMILES IDX 6 14 1 15 2 16 3 17 4 18 5 19 86 20 87 21 94 22 88 23 90 24
REMARK SMILES IDX 93 25 89 26 91 27 92 28 14 29 15 30 16 32 17 33 18 34 82 35
REMARK SMILES IDX 19 36 81 37 20 38 21 39 22 40 75 41 23 42 80 43 74 44 76 45
REMARK SMILES IDX 24 46 79 47 73 48 72 49 25 51 59 52 38 53 58 54 39 55 42 56
REMARK SMILES IDX 57 57 77 58 40 59 41 60 56 62 78 63 43 64 26 65 27 66 36 67
REMARK SMILES IDX 28 68 29 69 35 70 37 71 30 72 31 73 32 74 33 75 34 76 60 77
REMARK SMILES IDX 61 78 70 79 62 80 63 81 69 82 71 83 64 84 65 85 66 86 67 87
REMARK SMILES IDX 68 88 44 89 45 90 54 91 46 92 47 93 53 94 55 95 48 96 49 97
REMARK SMILES IDX 50 98 51 99 52 100
REMARK H PARENT 10 7 14 31 76 50 42 61
REMARK Flexibility Score: inf
ROOT
ATOM      1  C   UNL A   1      33.868  29.245  27.563  1.00  0.00     0.118 C 
ENDROOT
BRANCH   1   2
ATOM      2  C   UNL A   1      34.270  28.748  26.182  1.00  0.00     0.042 C 
BRANCH   2   3
ATOM      3  C   UNL A   1      33.377  27.618  25.659  1.00  0.00     0.117 C 
BRANCH   3   4
ATOM      4  N   UNL A   1      34.007  26.317  25.816  1.00  0.00    -0.354 N 
ATOM      5  C   UNL A   1      33.497  25.053  25.784  1.00  0.00     0.246 C 
ATOM      6  O   UNL A   1      34.099  24.272  26.530  1.00  0.00    -0.272 OA
ATOM      7  H   UNL A   1      34.979  26.355  25.972  1.00  0.00     0.163 HD
BRANCH   5   8
ATOM      8  C   UNL A   1      32.213  24.629  24.953  1.00  0.00     0.127 C 
ATOM      9  C   UNL A   1      31.032  25.307  25.713  1.00  0.00     0.060 C 
ATOM     10  C   UNL A   1      32.375  25.053  23.479  1.00  0.00     0.060 C 
ATOM     11  C   UNL A   1      29.963  26.108  24.932  1.00  0.00     0.121 C 
ATOM     12  C   UNL A   1      31.065  25.387  22.792  1.00  0.00     0.121 C 
ATOM     13  N   UNL A   1      30.303  26.362  23.545  1.00  0.00    -0.356 N 
BRANCH   8  14
ATOM     14  N   UNL A   1      32.121  23.121  24.939  1.00  0.00    -0.320 N 
ATOM     15  C   UNL A   1      30.263  22.578  26.653  1.00  0.00     0.087 C 
ATOM     16  C   UNL A   1      31.314  22.250  25.665  1.00  0.00     0.106 A 
ATOM     17  N   UNL A   1      31.538  20.995  25.322  1.00  0.00    -0.242 NA
ATOM     18  C   UNL A   1      32.434  21.023  24.305  1.00  0.00     0.131 A 
ATOM     19  C   UNL A   1      32.736  22.318  23.987  1.00  0.00     0.108 A 
ENDBRANCH   8  14
BRANCH  13  20
ATOM     20  C   UNL A   1      29.832  27.452  22.822  1.00  0.00     0.139 A 
ATOM     21  N   UNL A   1      30.709  27.972  21.918  1.00  0.00    -0.238 NA
ATOM     22  C   UNL A   1      28.826  28.379  23.180  1.00  0.00     0.063 A 
ATOM     23  C   UNL A   1      31.083  29.251  22.097  1.00  0.00     0.117 A 
ATOM     24  C   UNL A   1      29.266  29.689  23.327  1.00  0.00     0.139 A 
ATOM     25  C   UNL A   1      27.408  28.485  23.064  1.00  0.00     0.054 A 
ATOM     26  C   UNL A   1      30.575  30.061  23.095  1.00  0.00     0.068 A 
ATOM     27  O   UNL A   1      28.221  30.528  23.565  1.00  0.00    -0.464 OA
ATOM     28  C   UNL A   1      27.095  29.813  23.280  1.00  0.00     0.196 A 
ENDBRANCH  13  20
ENDBRANCH   5   8
ENDBRANCH   3   4
ENDBRANCH   2   3
ENDBRANCH   1   2
BRANCH   1  29
ATOM     29  N   UNL A   1      33.828  30.698  27.661  1.00  0.00    -0.352 N 
ATOM     30  C   UNL A   1      34.685  31.534  28.360  1.00  0.00     0.251 C 
ATOM     31  H   UNL A   1      33.100  31.142  27.168  1.00  0.00     0.163 HD
ATOM     32  O   UNL A   1      34.359  32.675  28.602  1.00  0.00    -0.269 OA
BRANCH  30  33
ATOM     33  C   UNL A   1      35.993  31.004  28.815  1.00  0.00     0.039 A 
ATOM     34  C   UNL A   1      36.105  29.673  29.227  1.00  0.00     0.014 A 
ATOM     35  C   UNL A   1      37.108  31.840  28.828  1.00  0.00     0.014 A 
ATOM     36  C   UNL A   1      37.361  29.177  29.577  1.00  0.00     0.010 A 
ATOM     37  C   UNL A   1      38.363  31.321  29.051  1.00  0.00     0.010 A 
ATOM     38  C   UNL A   1      38.493  30.001  29.464  1.00  0.00    -0.014 A 
BRANCH  38  39
ATOM     39  C   UNL A   1      39.833  29.433  29.612  1.00  0.00     0.031 A 
ATOM     40  C   UNL A   1      40.247  29.272  31.033  1.00  0.00     0.074 A 
ATOM     41  C   UNL A   1      40.546  28.893  28.599  1.00  0.00     0.049 A 
ATOM     42  N   UNL A   1      41.123  29.964  31.681  1.00  0.00    -0.248 NA
ATOM     43  C   UNL A   1      39.462  28.364  31.889  1.00  0.00     0.031 C 
ATOM     44  C   UNL A   1      40.110  28.698  27.210  1.00  0.00     0.029 A 
ATOM     45  N   UNL A   1      41.774  28.298  28.610  1.00  0.00    -0.354 N 
ATOM     46  C   UNL A   1      41.198  29.381  32.944  1.00  0.00     0.074 A 
ATOM     47  C   UNL A   1      40.007  28.590  33.086  1.00  0.00     0.031 C 
ATOM     48  C   UNL A   1      40.943  27.836  26.588  1.00  0.00     0.029 A 
ATOM     49  C   UNL A   1      42.064  27.556  27.465  1.00  0.00     0.049 A 
ATOM     50  H   UNL A   1      42.402  28.386  29.362  1.00  0.00     0.167 HD
ATOM     51  C   UNL A   1      42.383  29.343  33.616  1.00  0.00     0.037 A 
ATOM     52  C   UNL A   1      43.144  26.763  27.250  1.00  0.00     0.037 A 
ATOM     53  C   UNL A   1      43.337  30.233  33.000  1.00  0.00     0.049 A 
ATOM     54  C   UNL A   1      44.208  27.227  28.171  1.00  0.00     0.074 A 
ATOM     55  C   UNL A   1      43.468  31.595  32.832  1.00  0.00     0.029 A 
ATOM     56  N   UNL A   1      44.154  29.628  32.079  1.00  0.00    -0.354 N 
ATOM     57  N   UNL A   1      44.777  28.397  28.084  1.00  0.00    -0.248 NA
ATOM     58  C   UNL A   1      44.410  26.530  29.434  1.00  0.00     0.031 C 
ATOM     59  C   UNL A   1      44.179  31.768  31.606  1.00  0.00     0.029 A 
ATOM     60  C   UNL A   1      44.509  30.512  31.096  1.00  0.00     0.049 A 
ATOM     61  H   UNL A   1      44.446  28.689  32.120  1.00  0.00     0.167 HD
ATOM     62  C   UNL A   1      45.011  28.764  29.396  1.00  0.00     0.074 A 
ATOM     63  C   UNL A   1      44.941  27.521  30.154  1.00  0.00     0.031 C 
ATOM     64  C   UNL A   1      44.919  30.071  29.777  1.00  0.00     0.037 A 
BRANCH  51  65
ATOM     65  C   UNL A   1      42.857  28.181  34.478  1.00  0.00     0.058 A 
ATOM     66  C   UNL A   1      43.164  28.422  35.836  1.00  0.00     0.135 A 
ATOM     67  C   UNL A   1      43.314  26.943  33.972  1.00  0.00     0.135 A 
ATOM     68  F   UNL A   1      42.787  29.568  36.429  1.00  0.00    -0.206 F 
ATOM     69  C   UNL A   1      43.930  27.543  36.604  1.00  0.00     0.059 A 
ATOM     70  C   UNL A   1      44.034  26.029  34.735  1.00  0.00     0.059 A 
ATOM     71  F   UNL A   1      43.174  26.589  32.691  1.00  0.00    -0.206 F 
ATOM     72  C   UNL A   1      44.372  26.352  36.038  1.00  0.00     0.060 A 
BRANCH  72  73
ATOM     73  S   UNL A   1      45.421  25.245  36.994  1.00  0.00     0.124 S 
ATOM     74  O   UNL A   1      44.903  25.443  38.342  1.00  0.00    -0.237 OA
ATOM     75  O   UNL A   1      45.134  23.953  36.379  1.00  0.00    -0.237 OA
ATOM     76  O   UNL A   1      46.764  25.762  36.749  1.00  0.00    -0.744 OA
ENDBRANCH  72  73
ENDBRANCH  51  65
BRANCH  52  77
ATOM     77  C   UNL A   1      43.258  25.500  26.475  1.00  0.00     0.058 A 
ATOM     78  C   UNL A   1      44.181  25.375  25.419  1.00  0.00     0.135 A 
ATOM     79  C   UNL A   1      42.690  24.298  26.944  1.00  0.00     0.135 A 
ATOM     80  F   UNL A   1      44.775  26.464  24.909  1.00  0.00    -0.206 F 
ATOM     81  C   UNL A   1      44.578  24.132  24.915  1.00  0.00     0.059 A 
ATOM     82  C   UNL A   1      43.063  23.048  26.451  1.00  0.00     0.059 A 
ATOM     83  F   UNL A   1      41.823  24.299  27.968  1.00  0.00    -0.206 F 
ATOM     84  C   UNL A   1      44.033  22.970  25.458  1.00  0.00     0.060 A 
BRANCH  84  85
ATOM     85  S   UNL A   1      44.699  21.362  24.963  1.00  0.00     0.124 S 
ATOM     86  O   UNL A   1      44.611  21.433  23.508  1.00  0.00    -0.237 OA
ATOM     87  O   UNL A   1      46.047  21.400  25.521  1.00  0.00    -0.237 OA
ATOM     88  O   UNL A   1      43.793  20.410  25.599  1.00  0.00    -0.744 OA
ENDBRANCH  84  85
ENDBRANCH  52  77
BRANCH  64  89
ATOM     89  C   UNL A   1      45.112  31.121  28.717  1.00  0.00     0.058 A 
ATOM     90  C   UNL A   1      44.100  31.644  27.895  1.00  0.00     0.135 A 
ATOM     91  C   UNL A   1      46.394  31.679  28.592  1.00  0.00     0.135 A 
ATOM     92  F   UNL A   1      42.830  31.233  28.011  1.00  0.00    -0.206 F 
ATOM     93  C   UNL A   1      44.364  32.647  26.958  1.00  0.00     0.059 A 
ATOM     94  C   UNL A   1      46.672  32.700  27.691  1.00  0.00     0.059 A 
ATOM     95  F   UNL A   1      47.392  31.255  29.385  1.00  0.00    -0.206 F 
ATOM     96  C   UNL A   1      45.655  33.168  26.863  1.00  0.00     0.060 A 
BRANCH  96  97
ATOM     97  S   UNL A   1      45.989  34.500  25.692  1.00  0.00     0.124 S 
ATOM     98  O   UNL A   1      47.415  34.332  25.435  1.00  0.00    -0.237 OA
ATOM     99  O   UNL A   1      45.102  34.175  24.579  1.00  0.00    -0.237 OA
ATOM    100  O   UNL A   1      45.626  35.706  26.433  1.00  0.00    -0.744 OA
ENDBRANCH  96  97
ENDBRANCH  64  89
ENDBRANCH  38  39
ENDBRANCH  30  33
ENDBRANCH   1  29
TORSDOF 15
ENDMDL
