MODEL 1
REMARK VINA RESULT:     -12.7      0.000      0.000
REMARK SMILES O=C(NCCCNC(=O)c1cccc(Br)c1O[C@@H]1CCOC2(CCC2)C1)c1ccc(-c2c3nc(c(-c4c(F)cc(S(=O)(=O)[O-])cc4F)c4ccc([nH]4)c(-c4c(F)cc(S(=O)(=O)[O-])cc4F)c4nc(c(-c5c(F)cc(S(=O)(=O)[O-])cc5F)c5ccc2[nH]5)C=C4)C=C3)cc1
REMARK SMILES IDX 4 1 3 2 1 3 2 4 27 6 28 7 92 8 29 9 91 10 30 11 31 12 32 13
REMARK SMILES IDX 85 14 33 15 90 16 84 17 86 18 34 19 89 20 83 21 82 22 35 24
REMARK SMILES IDX 69 25 48 26 68 27 49 28 52 29 67 30 87 31 50 32 51 33 66 35
REMARK SMILES IDX 88 36 53 37 36 38 37 39 46 40 38 41 39 42 45 43 47 44 40 45
REMARK SMILES IDX 41 46 42 47 43 48 44 49 70 50 71 51 80 52 72 53 73 54 79 55
REMARK SMILES IDX 81 56 74 57 75 58 76 59 77 60 78 61 54 62 55 63 64 64 56 65
REMARK SMILES IDX 57 66 63 67 65 68 58 69 59 70 60 71 61 72 62 73 5 74 6 75
REMARK SMILES IDX 7 76 8 77 9 79 10 80 11 81 16 82 12 83 14 84 13 85 15 86
REMARK SMILES IDX 17 87 18 88 19 89 26 90 20 91 22 92 21 93 23 94 25 95 24 96
REMARK H PARENT 3 5 86 23 52 34 7 78
REMARK Flexibility Score: inf
ROOT
ATOM      1  C   UNL A   1      35.748  31.244  28.198  1.00  0.00     0.118 C 
ENDROOT
BRANCH   1   2
ATOM      2  N   UNL A   1      35.580  30.857  29.591  1.00  0.00    -0.352 N 
ATOM      3  O   UNL A   1      36.066  29.826  31.531  1.00  0.00    -0.269 OA
ATOM      4  C   UNL A   1      36.452  30.202  30.428  1.00  0.00     0.251 C 
ATOM      5  H   UNL A   1      34.715  31.099  29.994  1.00  0.00     0.163 HD
BRANCH   4   6
ATOM      6  C   UNL A   1      37.841  29.936  29.992  1.00  0.00     0.039 A 
ATOM      7  C   UNL A   1      38.871  29.801  30.927  1.00  0.00     0.014 A 
ATOM      8  C   UNL A   1      38.111  29.789  28.627  1.00  0.00     0.014 A 
ATOM      9  C   UNL A   1      40.183  29.653  30.497  1.00  0.00     0.010 A 
ATOM     10  C   UNL A   1      39.419  29.545  28.200  1.00  0.00     0.010 A 
ATOM     11  C   UNL A   1      40.467  29.490  29.132  1.00  0.00    -0.014 A 
BRANCH  11  12
ATOM     12  C   UNL A   1      41.844  29.126  28.723  1.00  0.00     0.031 A 
ATOM     13  C   UNL A   1      42.937  30.151  28.653  1.00  0.00     0.074 A 
ATOM     14  C   UNL A   1      42.087  27.839  28.406  1.00  0.00     0.049 A 
ATOM     15  N   UNL A   1      44.184  29.993  28.289  1.00  0.00    -0.248 NA
ATOM     16  C   UNL A   1      42.596  31.532  29.030  1.00  0.00     0.031 C 
ATOM     17  C   UNL A   1      41.083  26.767  28.414  1.00  0.00     0.029 A 
ATOM     18  N   UNL A   1      43.239  27.206  28.019  1.00  0.00    -0.354 N 
ATOM     19  C   UNL A   1      44.770  31.250  28.367  1.00  0.00     0.074 A 
ATOM     20  C   UNL A   1      43.740  32.168  28.808  1.00  0.00     0.031 C 
ATOM     21  C   UNL A   1      41.668  25.611  28.070  1.00  0.00     0.029 A 
ATOM     22  C   UNL A   1      43.067  25.867  27.756  1.00  0.00     0.049 A 
ATOM     23  H   UNL A   1      44.106  27.666  27.936  1.00  0.00     0.167 HD
ATOM     24  C   UNL A   1      46.050  31.597  28.095  1.00  0.00     0.037 A 
ATOM     25  C   UNL A   1      43.928  24.952  27.277  1.00  0.00     0.037 A 
ATOM     26  C   UNL A   1      47.070  30.662  27.690  1.00  0.00     0.049 A 
ATOM     27  C   UNL A   1      45.334  25.374  26.967  1.00  0.00     0.074 A 
ATOM     28  C   UNL A   1      48.419  30.899  27.489  1.00  0.00     0.029 A 
ATOM     29  N   UNL A   1      46.853  29.321  27.412  1.00  0.00    -0.354 N 
ATOM     30  N   UNL A   1      45.888  26.552  27.121  1.00  0.00    -0.248 NA
ATOM     31  C   UNL A   1      46.226  24.351  26.409  1.00  0.00     0.031 C 
ATOM     32  C   UNL A   1      49.008  29.712  27.040  1.00  0.00     0.029 A 
ATOM     33  C   UNL A   1      48.034  28.728  26.998  1.00  0.00     0.049 A 
ATOM     34  H   UNL A   1      45.988  28.859  27.495  1.00  0.00     0.167 HD
ATOM     35  C   UNL A   1      47.195  26.415  26.672  1.00  0.00     0.074 A 
ATOM     36  C   UNL A   1      47.357  25.032  26.271  1.00  0.00     0.031 C 
ATOM     37  C   UNL A   1      48.169  27.353  26.590  1.00  0.00     0.037 A 
BRANCH  24  38
ATOM     38  C   UNL A   1      46.441  33.043  28.209  1.00  0.00     0.058 A 
ATOM     39  C   UNL A   1      47.012  33.563  29.380  1.00  0.00     0.135 A 
ATOM     40  C   UNL A   1      46.345  33.890  27.093  1.00  0.00     0.135 A 
ATOM     41  F   UNL A   1      47.115  32.800  30.479  1.00  0.00    -0.206 F 
ATOM     42  C   UNL A   1      47.477  34.873  29.440  1.00  0.00     0.059 A 
ATOM     43  C   UNL A   1      46.820  35.198  27.125  1.00  0.00     0.059 A 
ATOM     44  F   UNL A   1      45.804  33.441  25.949  1.00  0.00    -0.206 F 
ATOM     45  C   UNL A   1      47.382  35.681  28.305  1.00  0.00     0.060 A 
BRANCH  45  46
ATOM     46  S   UNL A   1      48.038  37.363  28.384  1.00  0.00     0.124 S 
ATOM     47  O   UNL A   1      47.235  38.036  27.369  1.00  0.00    -0.237 OA
ATOM     48  O   UNL A   1      47.760  37.742  29.765  1.00  0.00    -0.237 OA
ATOM     49  O   UNL A   1      49.450  37.194  28.056  1.00  0.00    -0.744 OA
ENDBRANCH  45  46
ENDBRANCH  24  38
BRANCH  25  50
ATOM     50  C   UNL A   1      43.462  23.568  27.007  1.00  0.00     0.058 A 
ATOM     51  C   UNL A   1      43.296  22.641  28.046  1.00  0.00     0.135 A 
ATOM     52  C   UNL A   1      43.163  23.151  25.700  1.00  0.00     0.135 A 
ATOM     53  F   UNL A   1      43.572  22.994  29.310  1.00  0.00    -0.206 F 
ATOM     54  C   UNL A   1      42.868  21.341  27.796  1.00  0.00     0.059 A 
ATOM     55  C   UNL A   1      42.709  21.866  25.429  1.00  0.00     0.059 A 
ATOM     56  F   UNL A   1      43.286  24.010  24.675  1.00  0.00    -0.206 F 
ATOM     57  C   UNL A   1      42.579  20.963  26.483  1.00  0.00     0.060 A 
BRANCH  57  58
ATOM     58  S   UNL A   1      41.997  19.284  26.165  1.00  0.00     0.124 S 
ATOM     59  O   UNL A   1      42.787  18.919  24.995  1.00  0.00    -0.237 OA
ATOM     60  O   UNL A   1      42.339  18.596  27.408  1.00  0.00    -0.237 OA
ATOM     61  O   UNL A   1      40.568  19.466  25.933  1.00  0.00    -0.744 OA
ENDBRANCH  57  58
ENDBRANCH  25  50
BRANCH  37  62
ATOM     62  C   UNL A   1      49.492  26.912  26.036  1.00  0.00     0.058 A 
ATOM     63  C   UNL A   1      49.798  27.076  24.677  1.00  0.00     0.135 A 
ATOM     64  C   UNL A   1      50.476  26.366  26.874  1.00  0.00     0.135 A 
ATOM     65  F   UNL A   1      48.883  27.582  23.834  1.00  0.00    -0.206 F 
ATOM     66  C   UNL A   1      51.034  26.702  24.163  1.00  0.00     0.059 A 
ATOM     67  C   UNL A   1      51.727  26.006  26.387  1.00  0.00     0.059 A 
ATOM     68  F   UNL A   1      50.230  26.195  28.183  1.00  0.00    -0.206 F 
ATOM     69  C   UNL A   1      51.994  26.170  25.027  1.00  0.00     0.060 A 
BRANCH  69  70
ATOM     70  S   UNL A   1      53.611  25.729  24.358  1.00  0.00     0.124 S 
ATOM     71  O   UNL A   1      53.731  24.336  24.775  1.00  0.00    -0.237 OA
ATOM     72  O   UNL A   1      53.429  25.949  22.926  1.00  0.00    -0.237 OA
ATOM     73  O   UNL A   1      54.517  26.663  25.019  1.00  0.00    -0.744 OA
ENDBRANCH  69  70
ENDBRANCH  37  62
ENDBRANCH  11  12
ENDBRANCH   4   6
ENDBRANCH   1   2
BRANCH   1  74
ATOM     74  C   UNL A   1      34.596  30.801  27.317  1.00  0.00     0.042 C 
BRANCH  74  75
ATOM     75  C   UNL A   1      34.494  29.297  27.130  1.00  0.00     0.118 C 
BRANCH  75  76
ATOM     76  N   UNL A   1      33.322  28.702  27.769  1.00  0.00    -0.352 N 
ATOM     77  C   UNL A   1      32.137  28.285  27.202  1.00  0.00     0.255 C 
ATOM     78  H   UNL A   1      33.390  28.581  28.744  1.00  0.00     0.163 HD
ATOM     79  O   UNL A   1      31.264  27.761  27.884  1.00  0.00    -0.269 OA
BRANCH  77  80
ATOM     80  C   UNL A   1      31.970  28.458  25.744  1.00  0.00     0.083 A 
ATOM     81  C   UNL A   1      31.198  29.531  25.314  1.00  0.00     0.018 A 
ATOM     82  C   UNL A   1      32.455  27.492  24.836  1.00  0.00     0.146 A 
ATOM     83  C   UNL A   1      30.762  29.557  24.011  1.00  0.00     0.002 A 
ATOM     84  C   UNL A   1      32.011  27.376  23.440  1.00  0.00     0.060 A 
ATOM     85  C   UNL A   1      31.105  28.514  23.127  1.00  0.00     0.019 A 
ATOM     86  Br  UNL A   1      32.883  25.498  21.881  1.00  0.00    -0.047 Br
BRANCH  82  87
ATOM     87  O   UNL A   1      33.429  26.664  25.304  1.00  0.00    -0.488 OA
BRANCH  87  88
ATOM     88  C   UNL A   1      32.842  25.524  24.771  1.00  0.00     0.178 C 
ATOM     89  C   UNL A   1      31.606  24.912  26.149  1.00  0.00     0.074 C 
ATOM     90  C   UNL A   1      34.424  24.499  24.329  1.00  0.00     0.080 C 
ATOM     91  C   UNL A   1      32.016  23.257  27.046  1.00  0.00     0.165 C 
ATOM     92  C   UNL A   1      34.776  22.948  25.374  1.00  0.00     0.072 C 
ATOM     93  O   UNL A   1      33.532  22.344  26.547  1.00  0.00    -0.375 OA
ATOM     94  C   UNL A   1      35.285  21.761  24.458  1.00  0.00     0.036 C 
ATOM     95  C   UNL A   1      36.271  23.002  25.877  1.00  0.00     0.036 C 
ATOM     96  C   UNL A   1      36.414  21.535  25.473  1.00  0.00     0.006 C 
ENDBRANCH  87  88
ENDBRANCH  82  87
ENDBRANCH  77  80
ENDBRANCH  75  76
ENDBRANCH  74  75
ENDBRANCH   1  74
TORSDOF 15
ENDMDL
MODEL 2
REMARK VINA RESULT:     -12.7      6.744     12.055
REMARK SMILES O=C(NCCCNC(=O)c1cccc(Br)c1O[C@@H]1CCOC2(CCC2)C1)c1ccc(-c2c3nc(c(-c4c(F)cc(S(=O)(=O)[O-])cc4F)c4ccc([nH]4)c(-c4c(F)cc(S(=O)(=O)[O-])cc4F)c4nc(c(-c5c(F)cc(S(=O)(=O)[O-])cc5F)c5ccc2[nH]5)C=C4)C=C3)cc1
REMARK SMILES IDX 4 1 3 2 1 3 2 4 27 6 28 7 92 8 29 9 91 10 30 11 31 12 32 13
REMARK SMILES IDX 85 14 33 15 90 16 84 17 86 18 34 19 89 20 83 21 82 22 35 24
REMARK SMILES IDX 69 25 48 26 68 27 49 28 52 29 67 30 87 31 50 32 51 33 66 35
REMARK SMILES IDX 88 36 53 37 36 38 37 39 46 40 38 41 39 42 45 43 47 44 40 45
REMARK SMILES IDX 41 46 42 47 43 48 44 49 70 50 71 51 80 52 72 53 73 54 79 55
REMARK SMILES IDX 81 56 74 57 75 58 76 59 77 60 78 61 54 62 55 63 64 64 56 65
REMARK SMILES IDX 57 66 63 67 65 68 58 69 59 70 60 71 61 72 62 73 5 74 6 75
REMARK SMILES IDX 7 76 8 77 9 79 10 80 11 81 16 82 12 83 14 84 13 85 15 86
REMARK SMILES IDX 17 87 18 88 19 89 26 90 20 91 22 92 21 93 23 94 25 95 24 96
REMARK H PARENT 3 5 86 23 52 34 7 78
REMARK Flexibility Score: inf
ROOT
ATOM      1  C   UNL A   1      38.085  24.205  26.457  1.00  0.00     0.118 C 
ENDROOT
BRANCH   1   2
ATOM      2  N   UNL A   1      39.471  23.901  26.133  1.00  0.00    -0.352 N 
ATOM      3  O   UNL A   1      41.696  24.219  26.034  1.00  0.00    -0.269 OA
ATOM      4  C   UNL A   1      40.623  24.530  26.543  1.00  0.00     0.251 C 
ATOM      5  H   UNL A   1      39.604  23.134  25.531  1.00  0.00     0.163 HD
BRANCH   4   6
ATOM      6  C   UNL A   1      40.563  25.586  27.578  1.00  0.00     0.039 A 
ATOM      7  C   UNL A   1      39.642  25.508  28.627  1.00  0.00     0.014 A 
ATOM      8  C   UNL A   1      41.463  26.655  27.515  1.00  0.00     0.014 A 
ATOM      9  C   UNL A   1      39.531  26.556  29.532  1.00  0.00     0.010 A 
ATOM     10  C   UNL A   1      41.413  27.663  28.482  1.00  0.00     0.010 A 
ATOM     11  C   UNL A   1      40.436  27.627  29.489  1.00  0.00    -0.014 A 
BRANCH  11  12
ATOM     12  C   UNL A   1      40.425  28.621  30.588  1.00  0.00     0.031 A 
ATOM     13  C   UNL A   1      41.346  28.498  31.767  1.00  0.00     0.074 A 
ATOM     14  C   UNL A   1      39.554  29.646  30.501  1.00  0.00     0.049 A 
ATOM     15  N   UNL A   1      41.437  29.272  32.817  1.00  0.00    -0.248 NA
ATOM     16  C   UNL A   1      42.279  27.360  31.779  1.00  0.00     0.031 C 
ATOM     17  C   UNL A   1      38.593  29.842  29.408  1.00  0.00     0.029 A 
ATOM     18  N   UNL A   1      39.326  30.712  31.331  1.00  0.00    -0.354 N 
ATOM     19  C   UNL A   1      42.414  28.708  33.626  1.00  0.00     0.074 A 
ATOM     20  C   UNL A   1      42.886  27.517  32.950  1.00  0.00     0.031 C 
ATOM     21  C   UNL A   1      37.899  30.967  29.626  1.00  0.00     0.029 A 
ATOM     22  C   UNL A   1      38.315  31.538  30.899  1.00  0.00     0.049 A 
ATOM     23  H   UNL A   1      39.838  30.870  32.158  1.00  0.00     0.167 HD
ATOM     24  C   UNL A   1      42.870  29.149  34.822  1.00  0.00     0.037 A 
ATOM     25  C   UNL A   1      37.757  32.614  31.481  1.00  0.00     0.037 A 
ATOM     26  C   UNL A   1      42.413  30.357  35.464  1.00  0.00     0.049 A 
ATOM     27  C   UNL A   1      38.272  33.065  32.815  1.00  0.00     0.074 A 
ATOM     28  C   UNL A   1      42.884  30.942  36.627  1.00  0.00     0.029 A 
ATOM     29  N   UNL A   1      41.373  31.153  35.009  1.00  0.00    -0.354 N 
ATOM     30  N   UNL A   1      39.250  32.561  33.528  1.00  0.00    -0.248 NA
ATOM     31  C   UNL A   1      37.605  34.219  33.429  1.00  0.00     0.031 C 
ATOM     32  C   UNL A   1      42.096  32.064  36.901  1.00  0.00     0.029 A 
ATOM     33  C   UNL A   1      41.159  32.200  35.890  1.00  0.00     0.049 A 
ATOM     34  H   UNL A   1      40.862  30.997  34.182  1.00  0.00     0.167 HD
ATOM     35  C   UNL A   1      39.311  33.333  34.681  1.00  0.00     0.074 A 
ATOM     36  C   UNL A   1      38.294  34.357  34.554  1.00  0.00     0.031 C 
ATOM     37  C   UNL A   1      40.131  33.199  35.751  1.00  0.00     0.037 A 
BRANCH  24  38
ATOM     38  C   UNL A   1      43.910  28.336  35.539  1.00  0.00     0.058 A 
ATOM     39  C   UNL A   1      43.560  27.334  36.456  1.00  0.00     0.135 A 
ATOM     40  C   UNL A   1      45.270  28.488  35.219  1.00  0.00     0.135 A 
ATOM     41  F   UNL A   1      42.277  27.154  36.806  1.00  0.00    -0.206 F 
ATOM     42  C   UNL A   1      44.523  26.507  37.029  1.00  0.00     0.059 A 
ATOM     43  C   UNL A   1      46.247  27.662  35.767  1.00  0.00     0.059 A 
ATOM     44  F   UNL A   1      45.657  29.435  34.350  1.00  0.00    -0.206 F 
ATOM     45  C   UNL A   1      45.863  26.675  36.674  1.00  0.00     0.060 A 
BRANCH  45  46
ATOM     46  S   UNL A   1      47.092  25.561  37.388  1.00  0.00     0.124 S 
ATOM     47  O   UNL A   1      46.266  24.416  37.759  1.00  0.00    -0.237 OA
ATOM     48  O   UNL A   1      48.006  25.345  36.272  1.00  0.00    -0.237 OA
ATOM     49  O   UNL A   1      47.640  26.326  38.504  1.00  0.00    -0.744 OA
ENDBRANCH  45  46
ENDBRANCH  24  38
BRANCH  25  50
ATOM     50  C   UNL A   1      36.609  33.294  30.828  1.00  0.00     0.058 A 
ATOM     51  C   UNL A   1      35.300  33.131  31.304  1.00  0.00     0.135 A 
ATOM     52  C   UNL A   1      36.805  34.132  29.718  1.00  0.00     0.135 A 
ATOM     53  F   UNL A   1      35.065  32.338  32.361  1.00  0.00    -0.206 F 
ATOM     54  C   UNL A   1      34.222  33.759  30.690  1.00  0.00     0.059 A 
ATOM     55  C   UNL A   1      35.746  34.790  29.104  1.00  0.00     0.059 A 
ATOM     56  F   UNL A   1      38.042  34.335  29.239  1.00  0.00    -0.206 F 
ATOM     57  C   UNL A   1      34.455  34.585  29.588  1.00  0.00     0.060 A 
BRANCH  57  58
ATOM     58  S   UNL A   1      33.057  35.421  28.811  1.00  0.00     0.124 S 
ATOM     59  O   UNL A   1      33.732  36.451  28.029  1.00  0.00    -0.237 OA
ATOM     60  O   UNL A   1      32.435  34.343  28.048  1.00  0.00    -0.237 OA
ATOM     61  O   UNL A   1      32.280  35.899  29.951  1.00  0.00    -0.744 OA
ENDBRANCH  57  58
ENDBRANCH  25  50
BRANCH  37  62
ATOM     62  C   UNL A   1      39.950  34.179  36.873  1.00  0.00     0.058 A 
ATOM     63  C   UNL A   1      40.540  35.452  36.825  1.00  0.00     0.135 A 
ATOM     64  C   UNL A   1      39.147  33.865  37.979  1.00  0.00     0.135 A 
ATOM     65  F   UNL A   1      41.328  35.793  35.792  1.00  0.00    -0.206 F 
ATOM     66  C   UNL A   1      40.348  36.377  37.844  1.00  0.00     0.059 A 
ATOM     67  C   UNL A   1      38.922  34.783  38.999  1.00  0.00     0.059 A 
ATOM     68  F   UNL A   1      38.558  32.661  38.066  1.00  0.00    -0.206 F 
ATOM     69  C   UNL A   1      39.535  36.034  38.926  1.00  0.00     0.060 A 
BRANCH  69  70
ATOM     70  S   UNL A   1      39.257  37.259  40.221  1.00  0.00     0.124 S 
ATOM     71  O   UNL A   1      38.507  36.483  41.204  1.00  0.00    -0.237 OA
ATOM     72  O   UNL A   1      40.617  37.624  40.607  1.00  0.00    -0.237 OA
ATOM     73  O   UNL A   1      38.504  38.307  39.540  1.00  0.00    -0.744 OA
ENDBRANCH  69  70
ENDBRANCH  37  62
ENDBRANCH  11  12
ENDBRANCH   4   6
ENDBRANCH   1   2
BRANCH   1  74
ATOM     74  C   UNL A   1      37.108  23.712  25.406  1.00  0.00     0.042 C 
BRANCH  74  75
ATOM     75  C   UNL A   1      36.328  22.474  25.810  1.00  0.00     0.118 C 
BRANCH  75  76
ATOM     76  N   UNL A   1      35.413  22.692  26.929  1.00  0.00    -0.352 N 
ATOM     77  C   UNL A   1      34.053  22.483  26.997  1.00  0.00     0.255 C 
ATOM     78  H   UNL A   1      35.829  23.037  27.752  1.00  0.00     0.163 HD
ATOM     79  O   UNL A   1      33.437  22.680  28.039  1.00  0.00    -0.269 OA
BRANCH  77  80
ATOM     80  C   UNL A   1      33.369  21.984  25.786  1.00  0.00     0.083 A 
ATOM     81  C   UNL A   1      32.887  20.681  25.817  1.00  0.00     0.018 A 
ATOM     82  C   UNL A   1      33.337  22.751  24.600  1.00  0.00     0.146 A 
ATOM     83  C   UNL A   1      32.529  20.076  24.635  1.00  0.00     0.002 A 
ATOM     84  C   UNL A   1      33.038  22.202  23.271  1.00  0.00     0.060 A 
ATOM     85  C   UNL A   1      32.641  20.776  23.417  1.00  0.00     0.019 A 
ATOM     86  Br  UNL A   1      33.110  23.673  21.138  1.00  0.00    -0.047 Br
BRANCH  82  87
ATOM     87  O   UNL A   1      33.554  24.087  24.744  1.00  0.00    -0.488 OA
BRANCH  87  88
ATOM     88  C   UNL A   1      32.266  24.340  25.194  1.00  0.00     0.178 C 
ATOM     89  C   UNL A   1      31.267  24.819  23.589  1.00  0.00     0.074 C 
ATOM     90  C   UNL A   1      32.633  25.657  26.564  1.00  0.00     0.080 C 
ATOM     91  C   UNL A   1      30.661  26.640  23.423  1.00  0.00     0.165 C 
ATOM     92  C   UNL A   1      32.086  27.447  26.221  1.00  0.00     0.072 C 
ATOM     93  O   UNL A   1      31.042  27.817  24.784  1.00  0.00    -0.375 OA
ATOM     94  C   UNL A   1      31.472  28.104  27.524  1.00  0.00     0.036 C 
ATOM     95  C   UNL A   1      33.305  28.413  26.489  1.00  0.00     0.036 C 
ATOM     96  C   UNL A   1      32.353  29.332  27.254  1.00  0.00     0.006 C 
ENDBRANCH  87  88
ENDBRANCH  82  87
ENDBRANCH  77  80
ENDBRANCH  75  76
ENDBRANCH  74  75
ENDBRANCH   1  74
TORSDOF 15
ENDMDL
MODEL 3
REMARK VINA RESULT:     -12.6      1.230      2.286
REMARK SMILES O=C(NCCCNC(=O)c1cccc(Br)c1O[C@@H]1CCOC2(CCC2)C1)c1ccc(-c2c3nc(c(-c4c(F)cc(S(=O)(=O)[O-])cc4F)c4ccc([nH]4)c(-c4c(F)cc(S(=O)(=O)[O-])cc4F)c4nc(c(-c5c(F)cc(S(=O)(=O)[O-])cc5F)c5ccc2[nH]5)C=C4)C=C3)cc1
REMARK SMILES IDX 4 1 3 2 1 3 2 4 27 6 28 7 92 8 29 9 91 10 30 11 31 12 32 13
REMARK SMILES IDX 85 14 33 15 90 16 84 17 86 18 34 19 89 20 83 21 82 22 35 24
REMARK SMILES IDX 69 25 48 26 68 27 49 28 52 29 67 30 87 31 50 32 51 33 66 35
REMARK SMILES IDX 88 36 53 37 36 38 37 39 46 40 38 41 39 42 45 43 47 44 40 45
REMARK SMILES IDX 41 46 42 47 43 48 44 49 70 50 71 51 80 52 72 53 73 54 79 55
REMARK SMILES IDX 81 56 74 57 75 58 76 59 77 60 78 61 54 62 55 63 64 64 56 65
REMARK SMILES IDX 57 66 63 67 65 68 58 69 59 70 60 71 61 72 62 73 5 74 6 75
REMARK SMILES IDX 7 76 8 77 9 79 10 80 11 81 16 82 12 83 14 84 13 85 15 86
REMARK SMILES IDX 17 87 18 88 19 89 26 90 20 91 22 92 21 93 23 94 25 95 24 96
REMARK H PARENT 3 5 86 23 52 34 7 78
REMARK Flexibility Score: inf
ROOT
ATOM      1  C   UNL A   1      35.212  29.285  27.522  1.00  0.00     0.118 C 
ENDROOT
BRANCH   1   2
ATOM      2  N   UNL A   1      35.184  30.122  28.713  1.00  0.00    -0.352 N 
ATOM      3  O   UNL A   1      35.926  31.014  30.640  1.00  0.00    -0.269 OA
ATOM      4  C   UNL A   1      36.189  30.406  29.607  1.00  0.00     0.251 C 
ATOM      5  H   UNL A   1      34.317  30.547  28.908  1.00  0.00     0.163 HD
BRANCH   4   6
ATOM      6  C   UNL A   1      37.573  29.964  29.330  1.00  0.00     0.039 A 
ATOM      7  C   UNL A   1      38.096  30.017  28.035  1.00  0.00     0.014 A 
ATOM      8  C   UNL A   1      38.372  29.518  30.389  1.00  0.00     0.014 A 
ATOM      9  C   UNL A   1      39.360  29.504  27.775  1.00  0.00     0.010 A 
ATOM     10  C   UNL A   1      39.680  29.091  30.140  1.00  0.00     0.010 A 
ATOM     11  C   UNL A   1      40.177  29.068  28.828  1.00  0.00    -0.014 A 
BRANCH  11  12
ATOM     12  C   UNL A   1      41.591  28.723  28.547  1.00  0.00     0.031 A 
ATOM     13  C   UNL A   1      42.671  29.764  28.567  1.00  0.00     0.074 A 
ATOM     14  C   UNL A   1      41.880  27.437  28.264  1.00  0.00     0.049 A 
ATOM     15  N   UNL A   1      43.947  29.622  28.318  1.00  0.00    -0.248 NA
ATOM     16  C   UNL A   1      42.277  31.142  28.902  1.00  0.00     0.031 C 
ATOM     17  C   UNL A   1      40.895  26.350  28.189  1.00  0.00     0.029 A 
ATOM     18  N   UNL A   1      43.071  26.819  27.986  1.00  0.00    -0.354 N 
ATOM     19  C   UNL A   1      44.505  30.888  28.438  1.00  0.00     0.074 A 
ATOM     20  C   UNL A   1      43.428  31.793  28.778  1.00  0.00     0.031 C 
ATOM     21  C   UNL A   1      41.525  25.202  27.909  1.00  0.00     0.029 A 
ATOM     22  C   UNL A   1      42.943  25.476  27.719  1.00  0.00     0.049 A 
ATOM     23  H   UNL A   1      43.935  27.292  27.978  1.00  0.00     0.167 HD
ATOM     24  C   UNL A   1      45.799  31.253  28.280  1.00  0.00     0.037 A 
ATOM     25  C   UNL A   1      43.857  24.571  27.327  1.00  0.00     0.037 A 
ATOM     26  C   UNL A   1      46.866  30.331  27.976  1.00  0.00     0.049 A 
ATOM     27  C   UNL A   1      45.278  25.013  27.141  1.00  0.00     0.074 A 
ATOM     28  C   UNL A   1      48.224  30.587  27.894  1.00  0.00     0.029 A 
ATOM     29  N   UNL A   1      46.694  28.985  27.689  1.00  0.00    -0.354 N 
ATOM     30  N   UNL A   1      45.800  26.200  27.335  1.00  0.00    -0.248 NA
ATOM     31  C   UNL A   1      46.232  24.000  26.674  1.00  0.00     0.031 C 
ATOM     32  C   UNL A   1      48.868  29.406  27.509  1.00  0.00     0.029 A 
ATOM     33  C   UNL A   1      47.916  28.407  27.388  1.00  0.00     0.049 A 
ATOM     34  H   UNL A   1      45.832  28.511  27.698  1.00  0.00     0.167 HD
ATOM     35  C   UNL A   1      47.143  26.080  27.006  1.00  0.00     0.074 A 
ATOM     36  C   UNL A   1      47.361  24.697  26.632  1.00  0.00     0.031 C 
ATOM     37  C   UNL A   1      48.107  27.032  27.005  1.00  0.00     0.037 A 
BRANCH  24  38
ATOM     38  C   UNL A   1      46.158  32.705  28.417  1.00  0.00     0.058 A 
ATOM     39  C   UNL A   1      46.119  33.581  27.322  1.00  0.00     0.135 A 
ATOM     40  C   UNL A   1      46.437  33.247  29.682  1.00  0.00     0.135 A 
ATOM     41  F   UNL A   1      45.870  33.114  26.089  1.00  0.00    -0.206 F 
ATOM     42  C   UNL A   1      46.341  34.947  27.478  1.00  0.00     0.059 A 
ATOM     43  C   UNL A   1      46.645  34.611  29.864  1.00  0.00     0.059 A 
ATOM     44  F   UNL A   1      46.489  32.450  30.761  1.00  0.00    -0.206 F 
ATOM     45  C   UNL A   1      46.597  35.453  28.755  1.00  0.00     0.060 A 
BRANCH  45  46
ATOM     46  S   UNL A   1      46.831  37.234  28.946  1.00  0.00     0.124 S 
ATOM     47  O   UNL A   1      48.060  37.449  28.188  1.00  0.00    -0.237 OA
ATOM     48  O   UNL A   1      45.616  37.776  28.349  1.00  0.00    -0.237 OA
ATOM     49  O   UNL A   1      46.948  37.409  30.391  1.00  0.00    -0.744 OA
ENDBRANCH  45  46
ENDBRANCH  24  38
BRANCH  25  50
ATOM     50  C   UNL A   1      43.437  23.179  27.027  1.00  0.00     0.058 A 
ATOM     51  C   UNL A   1      43.338  22.717  25.708  1.00  0.00     0.135 A 
ATOM     52  C   UNL A   1      43.137  22.279  28.063  1.00  0.00     0.135 A 
ATOM     53  F   UNL A   1      43.613  23.542  24.686  1.00  0.00    -0.206 F 
ATOM     54  C   UNL A   1      42.937  21.415  25.423  1.00  0.00     0.059 A 
ATOM     55  C   UNL A   1      42.759  20.967  27.805  1.00  0.00     0.059 A 
ATOM     56  F   UNL A   1      43.238  22.669  29.344  1.00  0.00    -0.206 F 
ATOM     57  C   UNL A   1      42.647  20.548  26.480  1.00  0.00     0.060 A 
BRANCH  57  58
ATOM     58  S   UNL A   1      42.154  18.853  26.108  1.00  0.00     0.124 S 
ATOM     59  O   UNL A   1      40.762  19.036  25.709  1.00  0.00    -0.237 OA
ATOM     60  O   UNL A   1      43.081  18.486  25.041  1.00  0.00    -0.237 OA
ATOM     61  O   UNL A   1      42.364  18.160  27.375  1.00  0.00    -0.744 OA
ENDBRANCH  57  58
ENDBRANCH  25  50
BRANCH  37  62
ATOM     62  C   UNL A   1      49.481  26.608  26.575  1.00  0.00     0.058 A 
ATOM     63  C   UNL A   1      50.362  25.989  27.475  1.00  0.00     0.135 A 
ATOM     64  C   UNL A   1      49.903  26.778  25.248  1.00  0.00     0.135 A 
ATOM     65  F   UNL A   1      50.007  25.816  28.758  1.00  0.00    -0.206 F 
ATOM     66  C   UNL A   1      51.623  25.562  27.074  1.00  0.00     0.059 A 
ATOM     67  C   UNL A   1      51.151  26.338  24.820  1.00  0.00     0.059 A 
ATOM     68  F   UNL A   1      49.092  27.361  24.351  1.00  0.00    -0.206 F 
ATOM     69  C   UNL A   1      52.008  25.739  25.744  1.00  0.00     0.060 A 
BRANCH  69  70
ATOM     70  S   UNL A   1      53.629  25.142  25.225  1.00  0.00     0.124 S 
ATOM     71  O   UNL A   1      53.718  25.672  23.869  1.00  0.00    -0.237 OA
ATOM     72  O   UNL A   1      54.519  25.756  26.206  1.00  0.00    -0.237 OA
ATOM     73  O   UNL A   1      53.503  23.691  25.326  1.00  0.00    -0.744 OA
ENDBRANCH  69  70
ENDBRANCH  37  62
ENDBRANCH  11  12
ENDBRANCH   4   6
ENDBRANCH   1   2
BRANCH   1  74
ATOM     74  C   UNL A   1      33.840  28.778  27.121  1.00  0.00     0.042 C 
BRANCH  74  75
ATOM     75  C   UNL A   1      33.281  29.417  25.863  1.00  0.00     0.118 C 
BRANCH  75  76
ATOM     76  N   UNL A   1      34.049  29.113  24.656  1.00  0.00    -0.352 N 
ATOM     77  C   UNL A   1      33.631  28.526  23.482  1.00  0.00     0.255 C 
ATOM     78  H   UNL A   1      35.000  29.366  24.688  1.00  0.00     0.163 HD
ATOM     79  O   UNL A   1      34.404  28.382  22.541  1.00  0.00    -0.269 OA
BRANCH  77  80
ATOM     80  C   UNL A   1      32.217  28.108  23.383  1.00  0.00     0.083 A 
ATOM     81  C   UNL A   1      31.399  28.826  22.518  1.00  0.00     0.018 A 
ATOM     82  C   UNL A   1      31.690  27.115  24.237  1.00  0.00     0.146 A 
ATOM     83  C   UNL A   1      30.035  28.682  22.621  1.00  0.00     0.002 A 
ATOM     84  C   UNL A   1      30.256  26.913  24.481  1.00  0.00     0.060 A 
ATOM     85  C   UNL A   1      29.484  27.811  23.581  1.00  0.00     0.019 A 
ATOM     86  Br  UNL A   1      29.392  25.131  26.153  1.00  0.00    -0.047 Br
BRANCH  82  87
ATOM     87  O   UNL A   1      32.597  26.280  24.817  1.00  0.00    -0.488 OA
BRANCH  87  88
ATOM     88  C   UNL A   1      32.710  25.475  23.692  1.00  0.00     0.178 C 
ATOM     89  C   UNL A   1      31.442  24.025  23.992  1.00  0.00     0.074 C 
ATOM     90  C   UNL A   1      34.618  25.143  23.700  1.00  0.00     0.080 C 
ATOM     91  C   UNL A   1      32.156  22.260  24.290  1.00  0.00     0.165 C 
ATOM     92  C   UNL A   1      35.193  23.381  24.127  1.00  0.00     0.072 C 
ATOM     93  O   UNL A   1      33.981  22.038  24.262  1.00  0.00    -0.375 OA
ATOM     94  C   UNL A   1      36.392  22.942  23.191  1.00  0.00     0.036 C 
ATOM     95  C   UNL A   1      36.298  23.465  25.251  1.00  0.00     0.036 C 
ATOM     96  C   UNL A   1      37.127  22.461  24.450  1.00  0.00     0.006 C 
ENDBRANCH  87  88
ENDBRANCH  82  87
ENDBRANCH  77  80
ENDBRANCH  75  76
ENDBRANCH  74  75
ENDBRANCH   1  74
TORSDOF 15
ENDMDL
