MODEL 1
REMARK VINA RESULT:     -13.5      0.000      0.000
REMARK SMILES Cc1ccc(C)c(N2C(=O)S[C@H](CC(=O)Nc3ccc(C(=O)NCCCNC(=O)c4ccc(-c5c6nc(c(-c7c(F)cc(S(=O)(=O)[O-])cc7F)c7ccc([nH]7)c(-c7c(F)cc(S(=O)(=O)[O-])cc7F)c7nc(c(-c8c(F)cc(S(=O)(=O)[O-])cc8F)c8ccc5[nH]8)C=C7)C=C6)cc4)c(O)c3)C2=O)c1
REMARK SMILES IDX 24 1 23 2 21 3 22 4 20 6 17 7 18 8 98 9 19 10 96 11 16 12
REMARK SMILES IDX 14 13 15 14 13 16 12 17 8 18 9 19 99 20 10 21 11 22 100 23
REMARK SMILES IDX 7 24 1 25 2 26 3 27 101 28 4 29 5 30 6 31 97 32 25 34 26 35
REMARK SMILES IDX 27 36 28 37 29 39 30 40 31 41 95 42 32 43 94 44 33 45 34 46
REMARK SMILES IDX 35 47 88 48 36 49 93 50 87 51 89 52 37 53 92 54 86 55 85 56
REMARK SMILES IDX 38 58 72 59 51 60 71 61 52 62 55 63 70 64 90 65 53 66 54 67
REMARK SMILES IDX 69 69 91 70 56 71 39 72 40 73 49 74 41 75 42 76 48 77 50 78
REMARK SMILES IDX 43 79 44 80 45 81 46 82 47 83 73 84 74 85 83 86 75 87 76 88
REMARK SMILES IDX 82 89 84 90 77 91 78 92 79 93 80 94 81 95 57 96 58 97 67 98
REMARK SMILES IDX 59 99 60 100 66 101 68 102 61 103 62 104 63 105 64 106
REMARK SMILES IDX 65 107
REMARK H PARENT 23 5 16 15 97 33 27 38 89 57 55 68
REMARK Flexibility Score: inf
ROOT
ATOM      1  C   UNL A   1      38.907  21.649  26.196  1.00  0.00     0.118 C 
ENDROOT
BRANCH   1   2
ATOM      2  N   UNL A   1      38.408  22.138  24.938  1.00  0.00    -0.352 N 
ATOM      3  C   UNL A   1      37.109  22.508  24.649  1.00  0.00     0.255 C 
ATOM      4  O   UNL A   1      36.904  23.108  23.594  1.00  0.00    -0.269 OA
ATOM      5  H   UNL A   1      39.061  22.218  24.207  1.00  0.00     0.163 HD
BRANCH   3   6
ATOM      6  C   UNL A   1      35.942  22.098  25.502  1.00  0.00     0.081 A 
ATOM      7  C   UNL A   1      33.377  21.973  26.645  1.00  0.00     0.044 A 
ATOM      8  C   UNL A   1      34.322  22.885  27.086  1.00  0.00     0.027 A 
ATOM      9  C   UNL A   1      33.824  20.922  25.871  1.00  0.00     0.073 A 
ATOM     10  C   UNL A   1      35.557  23.019  26.465  1.00  0.00     0.020 A 
ATOM     11  C   UNL A   1      35.146  20.947  25.406  1.00  0.00     0.130 A 
BRANCH   7  12
ATOM     12  N   UNL A   1      32.046  22.068  27.078  1.00  0.00    -0.326 N 
ATOM     13  C   UNL A   1      31.135  23.050  26.734  1.00  0.00     0.226 C 
ATOM     14  O   UNL A   1      30.180  23.293  27.471  1.00  0.00    -0.275 OA
ATOM     15  H   UNL A   1      31.729  21.366  27.690  1.00  0.00     0.169 HD
BRANCH  13  16
ATOM     16  C   UNL A   1      31.212  23.633  25.326  1.00  0.00     0.125 C 
BRANCH  16  17
ATOM     17  C   UNL A   1      32.237  24.736  25.068  1.00  0.00     0.156 C 
ATOM     18  N   UNL A   1      31.134  26.315  23.650  1.00  0.00    -0.240 N 
ATOM     19  C   UNL A   1      31.815  25.613  22.698  1.00  0.00     0.293 C 
ATOM     20  C   UNL A   1      31.468  26.045  24.969  1.00  0.00     0.248 C 
ATOM     21  O   UNL A   1      31.654  25.592  21.482  1.00  0.00    -0.261 OA
ATOM     22  S   UNL A   1      33.093  24.682  23.469  1.00  0.00    -0.050 SA
ATOM     23  O   UNL A   1      31.192  26.711  25.960  1.00  0.00    -0.273 OA
BRANCH  18  24
ATOM     24  C   UNL A   1      30.501  27.525  23.297  1.00  0.00     0.056 A 
ATOM     25  C   UNL A   1      26.980  28.975  22.916  1.00  0.00     0.044 C 
ATOM     26  C   UNL A   1      28.473  28.826  22.983  1.00  0.00    -0.049 A 
ATOM     27  C   UNL A   1      29.268  29.924  22.644  1.00  0.00     0.004 A 
ATOM     28  C   UNL A   1      29.098  27.621  23.325  1.00  0.00     0.030 A 
ATOM     29  C   UNL A   1      30.653  29.815  22.565  1.00  0.00     0.006 A 
ATOM     30  C   UNL A   1      31.292  28.615  22.885  1.00  0.00    -0.027 A 
ATOM     31  C   UNL A   1      32.787  28.567  22.748  1.00  0.00     0.046 C 
ENDBRANCH  18  24
ENDBRANCH  16  17
ENDBRANCH  13  16
ENDBRANCH   7  12
BRANCH  11  32
ATOM     32  O   UNL A   1      35.620  19.738  24.972  1.00  0.00    -0.507 OA
ATOM     33  H   UNL A   1      36.279  19.290  25.464  1.00  0.00     0.293 HD
ENDBRANCH  11  32
ENDBRANCH   3   6
ENDBRANCH   1   2
BRANCH   1  34
ATOM     34  C   UNL A   1      40.019  22.387  26.888  1.00  0.00     0.042 C 
BRANCH  34  35
ATOM     35  C   UNL A   1      41.089  21.528  27.515  1.00  0.00     0.118 C 
BRANCH  35  36
ATOM     36  N   UNL A   1      41.816  20.633  26.615  1.00  0.00    -0.352 N 
ATOM     37  C   UNL A   1      42.931  20.937  25.837  1.00  0.00     0.251 C 
ATOM     38  H   UNL A   1      41.480  19.710  26.553  1.00  0.00     0.163 HD
ATOM     39  O   UNL A   1      43.452  20.086  25.125  1.00  0.00    -0.269 OA
BRANCH  37  40
ATOM     40  C   UNL A   1      43.556  22.271  26.002  1.00  0.00     0.039 A 
ATOM     41  C   UNL A   1      44.240  22.533  27.191  1.00  0.00     0.014 A 
ATOM     42  C   UNL A   1      43.135  23.319  25.208  1.00  0.00     0.014 A 
ATOM     43  C   UNL A   1      44.106  23.789  27.785  1.00  0.00     0.010 A 
ATOM     44  C   UNL A   1      42.957  24.538  25.823  1.00  0.00     0.010 A 
ATOM     45  C   UNL A   1      43.285  24.734  27.179  1.00  0.00    -0.014 A 
BRANCH  45  46
ATOM     46  C   UNL A   1      42.892  26.002  27.825  1.00  0.00     0.031 A 
ATOM     47  C   UNL A   1      43.846  27.085  27.469  1.00  0.00     0.074 A 
ATOM     48  C   UNL A   1      41.727  26.338  28.434  1.00  0.00     0.049 A 
ATOM     49  N   UNL A   1      45.041  27.230  27.949  1.00  0.00    -0.248 NA
ATOM     50  C   UNL A   1      43.618  27.794  26.191  1.00  0.00     0.031 C 
ATOM     51  C   UNL A   1      40.471  25.602  28.585  1.00  0.00     0.029 A 
ATOM     52  N   UNL A   1      41.428  27.534  29.036  1.00  0.00    -0.354 N 
ATOM     53  C   UNL A   1      45.600  28.221  27.156  1.00  0.00     0.074 A 
ATOM     54  C   UNL A   1      44.881  28.131  25.923  1.00  0.00     0.031 C 
ATOM     55  C   UNL A   1      39.503  26.432  29.067  1.00  0.00     0.029 A 
ATOM     56  C   UNL A   1      40.089  27.723  29.402  1.00  0.00     0.049 A 
ATOM     57  H   UNL A   1      42.114  28.220  29.200  1.00  0.00     0.167 HD
ATOM     58  C   UNL A   1      46.258  29.292  27.686  1.00  0.00     0.037 A 
ATOM     59  C   UNL A   1      39.556  28.867  29.931  1.00  0.00     0.037 A 
ATOM     60  C   UNL A   1      46.421  29.103  29.114  1.00  0.00     0.049 A 
ATOM     61  C   UNL A   1      40.702  29.675  30.426  1.00  0.00     0.074 A 
ATOM     62  C   UNL A   1      47.039  28.175  29.929  1.00  0.00     0.029 A 
ATOM     63  N   UNL A   1      45.509  29.758  29.914  1.00  0.00    -0.354 N 
ATOM     64  N   UNL A   1      41.450  29.327  31.436  1.00  0.00    -0.248 NA
ATOM     65  C   UNL A   1      41.296  30.639  29.513  1.00  0.00     0.031 C 
ATOM     66  C   UNL A   1      46.169  28.021  31.053  1.00  0.00     0.029 A 
ATOM     67  C   UNL A   1      45.106  28.913  30.913  1.00  0.00     0.049 A 
ATOM     68  H   UNL A   1      45.197  30.683  29.786  1.00  0.00     0.167 HD
ATOM     69  C   UNL A   1      42.737  29.681  31.065  1.00  0.00     0.074 A 
ATOM     70  C   UNL A   1      42.570  30.562  29.909  1.00  0.00     0.031 C 
ATOM     71  C   UNL A   1      43.808  28.984  31.547  1.00  0.00     0.037 A 
BRANCH  58  72
ATOM     72  C   UNL A   1      46.310  30.683  27.056  1.00  0.00     0.058 A 
ATOM     73  C   UNL A   1      47.575  31.291  26.905  1.00  0.00     0.135 A 
ATOM     74  C   UNL A   1      45.214  31.545  26.812  1.00  0.00     0.135 A 
ATOM     75  F   UNL A   1      48.701  30.570  27.025  1.00  0.00    -0.206 F 
ATOM     76  C   UNL A   1      47.734  32.661  26.697  1.00  0.00     0.059 A 
ATOM     77  C   UNL A   1      45.349  32.907  26.582  1.00  0.00     0.059 A 
ATOM     78  F   UNL A   1      43.938  31.159  26.822  1.00  0.00    -0.206 F 
ATOM     79  C   UNL A   1      46.608  33.466  26.571  1.00  0.00     0.060 A 
BRANCH  79  80
ATOM     80  S   UNL A   1      46.789  35.246  26.418  1.00  0.00     0.124 S 
ATOM     81  O   UNL A   1      47.263  35.601  27.749  1.00  0.00    -0.237 OA
ATOM     82  O   UNL A   1      47.762  35.351  25.335  1.00  0.00    -0.237 OA
ATOM     83  O   UNL A   1      45.438  35.692  26.086  1.00  0.00    -0.744 OA
ENDBRANCH  79  80
ENDBRANCH  58  72
BRANCH  59  84
ATOM     84  C   UNL A   1      38.199  29.495  29.874  1.00  0.00     0.058 A 
ATOM     85  C   UNL A   1      37.510  29.891  31.045  1.00  0.00     0.135 A 
ATOM     86  C   UNL A   1      37.718  30.042  28.677  1.00  0.00     0.135 A 
ATOM     87  F   UNL A   1      37.905  29.436  32.244  1.00  0.00    -0.206 F 
ATOM     88  C   UNL A   1      36.460  30.825  31.038  1.00  0.00     0.059 A 
ATOM     89  C   UNL A   1      36.667  30.967  28.648  1.00  0.00     0.059 A 
ATOM     90  F   UNL A   1      38.337  29.785  27.514  1.00  0.00    -0.206 F 
ATOM     91  C   UNL A   1      36.066  31.387  29.831  1.00  0.00     0.060 A 
BRANCH  91  92
ATOM     92  S   UNL A   1      34.899  32.779  29.776  1.00  0.00     0.124 S 
ATOM     93  O   UNL A   1      34.275  32.719  31.094  1.00  0.00    -0.237 OA
ATOM     94  O   UNL A   1      35.750  33.939  29.541  1.00  0.00    -0.237 OA
ATOM     95  O   UNL A   1      34.036  32.411  28.657  1.00  0.00    -0.744 OA
ENDBRANCH  91  92
ENDBRANCH  59  84
BRANCH  71  96
ATOM     96  C   UNL A   1      43.574  28.080  32.731  1.00  0.00     0.058 A 
ATOM     97  C   UNL A   1      43.486  26.676  32.676  1.00  0.00     0.135 A 
ATOM     98  C   UNL A   1      43.566  28.670  34.002  1.00  0.00     0.135 A 
ATOM     99  F   UNL A   1      43.576  26.025  31.506  1.00  0.00    -0.206 F 
ATOM    100  C   UNL A   1      43.363  25.900  33.831  1.00  0.00     0.059 A 
ATOM    101  C   UNL A   1      43.476  27.917  35.167  1.00  0.00     0.059 A 
ATOM    102  F   UNL A   1      43.697  30.002  34.124  1.00  0.00    -0.206 F 
ATOM    103  C   UNL A   1      43.363  26.532  35.075  1.00  0.00     0.060 A 
BRANCH 103 104
ATOM    104  S   UNL A   1      43.282  25.533  36.577  1.00  0.00     0.124 S 
ATOM    105  O   UNL A   1      44.693  25.319  36.881  1.00  0.00    -0.237 OA
ATOM    106  O   UNL A   1      42.559  26.404  37.499  1.00  0.00    -0.237 OA
ATOM    107  O   UNL A   1      42.547  24.341  36.156  1.00  0.00    -0.744 OA
ENDBRANCH 103 104
ENDBRANCH  71  96
ENDBRANCH  45  46
ENDBRANCH  37  40
ENDBRANCH  35  36
ENDBRANCH  34  35
ENDBRANCH   1  34
TORSDOF 18
ENDMDL
MODEL 2
REMARK VINA RESULT:     -12.8      2.193      3.670
REMARK SMILES Cc1ccc(C)c(N2C(=O)S[C@H](CC(=O)Nc3ccc(C(=O)NCCCNC(=O)c4ccc(-c5c6nc(c(-c7c(F)cc(S(=O)(=O)[O-])cc7F)c7ccc([nH]7)c(-c7c(F)cc(S(=O)(=O)[O-])cc7F)c7nc(c(-c8c(F)cc(S(=O)(=O)[O-])cc8F)c8ccc5[nH]8)C=C7)C=C6)cc4)c(O)c3)C2=O)c1
REMARK SMILES IDX 24 1 23 2 21 3 22 4 20 6 17 7 18 8 98 9 19 10 96 11 16 12
REMARK SMILES IDX 14 13 15 14 13 16 12 17 8 18 9 19 99 20 10 21 11 22 100 23
REMARK SMILES IDX 7 24 1 25 2 26 3 27 101 28 4 29 5 30 6 31 97 32 25 34 26 35
REMARK SMILES IDX 27 36 28 37 29 39 30 40 31 41 95 42 32 43 94 44 33 45 34 46
REMARK SMILES IDX 35 47 88 48 36 49 93 50 87 51 89 52 37 53 92 54 86 55 85 56
REMARK SMILES IDX 38 58 72 59 51 60 71 61 52 62 55 63 70 64 90 65 53 66 54 67
REMARK SMILES IDX 69 69 91 70 56 71 39 72 40 73 49 74 41 75 42 76 48 77 50 78
REMARK SMILES IDX 43 79 44 80 45 81 46 82 47 83 73 84 74 85 83 86 75 87 76 88
REMARK SMILES IDX 82 89 84 90 77 91 78 92 79 93 80 94 81 95 57 96 58 97 67 98
REMARK SMILES IDX 59 99 60 100 66 101 68 102 61 103 62 104 63 105 64 106
REMARK SMILES IDX 65 107
REMARK H PARENT 23 5 16 15 97 33 27 38 89 57 55 68
REMARK Flexibility Score: inf
ROOT
ATOM      1  C   UNL A   1      36.843  20.793  24.827  1.00  0.00     0.118 C 
ENDROOT
BRANCH   1   2
ATOM      2  N   UNL A   1      35.749  19.978  25.282  1.00  0.00    -0.352 N 
ATOM      3  C   UNL A   1      34.416  20.116  24.948  1.00  0.00     0.255 C 
ATOM      4  O   UNL A   1      33.650  19.203  25.252  1.00  0.00    -0.269 OA
ATOM      5  H   UNL A   1      35.974  19.245  25.899  1.00  0.00     0.163 HD
BRANCH   3   6
ATOM      6  C   UNL A   1      33.858  21.376  24.347  1.00  0.00     0.081 A 
ATOM      7  C   UNL A   1      33.113  23.355  22.497  1.00  0.00     0.044 A 
ATOM      8  C   UNL A   1      34.395  23.298  23.016  1.00  0.00     0.027 A 
ATOM      9  C   UNL A   1      32.132  22.634  23.147  1.00  0.00     0.073 A 
ATOM     10  C   UNL A   1      34.800  22.269  23.857  1.00  0.00     0.020 A 
ATOM     11  C   UNL A   1      32.517  21.734  24.150  1.00  0.00     0.130 A 
BRANCH   7  12
ATOM     12  N   UNL A   1      32.822  24.211  21.424  1.00  0.00    -0.326 N 
ATOM     13  C   UNL A   1      32.285  25.483  21.505  1.00  0.00     0.226 C 
ATOM     14  O   UNL A   1      31.679  25.961  20.547  1.00  0.00    -0.275 OA
ATOM     15  H   UNL A   1      33.019  23.871  20.522  1.00  0.00     0.169 HD
BRANCH  13  16
ATOM     16  C   UNL A   1      32.675  26.347  22.701  1.00  0.00     0.125 C 
BRANCH  16  17
ATOM     17  C   UNL A   1      31.815  27.573  23.003  1.00  0.00     0.156 C 
ATOM     18  N   UNL A   1      32.584  28.387  25.116  1.00  0.00    -0.240 N 
ATOM     19  C   UNL A   1      31.508  27.666  25.546  1.00  0.00     0.293 C 
ATOM     20  C   UNL A   1      32.698  28.565  23.745  1.00  0.00     0.248 C 
ATOM     21  O   UNL A   1      31.223  27.290  26.678  1.00  0.00    -0.261 OA
ATOM     22  S   UNL A   1      30.453  27.331  24.178  1.00  0.00    -0.050 SA
ATOM     23  O   UNL A   1      33.408  29.369  23.153  1.00  0.00    -0.273 OA
BRANCH  18  24
ATOM     24  C   UNL A   1      33.236  29.257  26.015  1.00  0.00     0.056 A 
ATOM     25  C   UNL A   1      36.455  29.449  28.076  1.00  0.00     0.044 C 
ATOM     26  C   UNL A   1      35.146  29.785  27.422  1.00  0.00    -0.049 A 
ATOM     27  C   UNL A   1      34.530  30.997  27.748  1.00  0.00     0.004 A 
ATOM     28  C   UNL A   1      34.496  28.916  26.537  1.00  0.00     0.030 A 
ATOM     29  C   UNL A   1      33.259  31.311  27.274  1.00  0.00     0.006 A 
ATOM     30  C   UNL A   1      32.590  30.447  26.405  1.00  0.00    -0.027 A 
ATOM     31  C   UNL A   1      31.211  30.843  25.959  1.00  0.00     0.046 C 
ENDBRANCH  18  24
ENDBRANCH  16  17
ENDBRANCH  13  16
ENDBRANCH   7  12
BRANCH  11  32
ATOM     32  O   UNL A   1      31.502  21.341  24.982  1.00  0.00    -0.507 OA
ATOM     33  H   UNL A   1      30.681  21.793  24.966  1.00  0.00     0.293 HD
ENDBRANCH  11  32
ENDBRANCH   3   6
ENDBRANCH   1   2
BRANCH   1  34
ATOM     34  C   UNL A   1      37.609  21.625  25.817  1.00  0.00     0.042 C 
BRANCH  34  35
ATOM     35  C   UNL A   1      39.097  21.716  25.591  1.00  0.00     0.118 C 
BRANCH  35  36
ATOM     36  N   UNL A   1      39.950  21.468  26.754  1.00  0.00    -0.352 N 
ATOM     37  C   UNL A   1      40.579  22.416  27.558  1.00  0.00     0.251 C 
ATOM     38  H   UNL A   1      40.095  20.525  26.995  1.00  0.00     0.163 HD
ATOM     39  O   UNL A   1      41.266  22.073  28.513  1.00  0.00    -0.269 OA
BRANCH  37  40
ATOM     40  C   UNL A   1      40.278  23.848  27.319  1.00  0.00     0.039 A 
ATOM     41  C   UNL A   1      41.288  24.651  26.786  1.00  0.00     0.014 A 
ATOM     42  C   UNL A   1      39.207  24.431  27.966  1.00  0.00     0.014 A 
ATOM     43  C   UNL A   1      41.450  25.947  27.277  1.00  0.00     0.010 A 
ATOM     44  C   UNL A   1      39.403  25.689  28.491  1.00  0.00     0.010 A 
ATOM     45  C   UNL A   1      40.608  26.391  28.292  1.00  0.00    -0.014 A 
BRANCH  45  46
ATOM     46  C   UNL A   1      40.826  27.646  29.038  1.00  0.00     0.031 A 
ATOM     47  C   UNL A   1      41.984  28.391  28.476  1.00  0.00     0.074 A 
ATOM     48  C   UNL A   1      40.015  28.279  29.922  1.00  0.00     0.049 A 
ATOM     49  N   UNL A   1      43.233  28.091  28.648  1.00  0.00    -0.248 NA
ATOM     50  C   UNL A   1      41.726  29.260  27.307  1.00  0.00     0.031 C 
ATOM     51  C   UNL A   1      38.653  27.980  30.366  1.00  0.00     0.029 A 
ATOM     52  N   UNL A   1      40.284  29.441  30.600  1.00  0.00    -0.354 N 
ATOM     53  C   UNL A   1      43.900  28.921  27.760  1.00  0.00     0.074 A 
ATOM     54  C   UNL A   1      42.933  29.194  26.741  1.00  0.00     0.031 C 
ATOM     55  C   UNL A   1      38.160  29.027  31.086  1.00  0.00     0.029 A 
ATOM     56  C   UNL A   1      39.208  30.017  31.289  1.00  0.00     0.049 A 
ATOM     57  H   UNL A   1      41.180  29.847  30.602  1.00  0.00     0.167 HD
ATOM     58  C   UNL A   1      44.984  29.662  28.129  1.00  0.00     0.037 A 
ATOM     59  C   UNL A   1      39.230  31.213  31.954  1.00  0.00     0.037 A 
ATOM     60  C   UNL A   1      45.393  29.288  29.469  1.00  0.00     0.049 A 
ATOM     61  C   UNL A   1      40.663  31.551  32.165  1.00  0.00     0.074 A 
ATOM     62  C   UNL A   1      45.826  28.133  30.090  1.00  0.00     0.029 A 
ATOM     63  N   UNL A   1      44.964  30.120  30.481  1.00  0.00    -0.354 N 
ATOM     64  N   UNL A   1      41.457  30.880  32.953  1.00  0.00    -0.248 NA
ATOM     65  C   UNL A   1      41.326  32.357  31.151  1.00  0.00     0.031 C 
ATOM     66  C   UNL A   1      45.235  28.158  31.391  1.00  0.00     0.029 A 
ATOM     67  C   UNL A   1      44.535  29.356  31.534  1.00  0.00     0.049 A 
ATOM     68  H   UNL A   1      44.964  31.104  30.451  1.00  0.00     0.167 HD
ATOM     69  C   UNL A   1      42.668  30.832  32.281  1.00  0.00     0.074 A 
ATOM     70  C   UNL A   1      42.552  31.831  31.219  1.00  0.00     0.031 C 
ATOM     71  C   UNL A   1      43.518  29.781  32.470  1.00  0.00     0.037 A 
BRANCH  58  72
ATOM     72  C   UNL A   1      45.360  31.017  27.531  1.00  0.00     0.058 A 
ATOM     73  C   UNL A   1      46.635  31.143  26.937  1.00  0.00     0.135 A 
ATOM     74  C   UNL A   1      44.672  32.242  27.705  1.00  0.00     0.135 A 
ATOM     75  F   UNL A   1      47.363  30.056  26.638  1.00  0.00    -0.206 F 
ATOM     76  C   UNL A   1      47.234  32.379  26.693  1.00  0.00     0.059 A 
ATOM     77  C   UNL A   1      45.241  33.481  27.450  1.00  0.00     0.059 A 
ATOM     78  F   UNL A   1      43.428  32.344  28.173  1.00  0.00    -0.206 F 
ATOM     79  C   UNL A   1      46.538  33.544  26.988  1.00  0.00     0.060 A 
BRANCH  79  80
ATOM     80  S   UNL A   1      47.333  35.142  26.790  1.00  0.00     0.124 S 
ATOM     81  O   UNL A   1      46.966  35.801  28.036  1.00  0.00    -0.237 OA
ATOM     82  O   UNL A   1      48.734  34.757  26.649  1.00  0.00    -0.237 OA
ATOM     83  O   UNL A   1      46.711  35.678  25.582  1.00  0.00    -0.744 OA
ENDBRANCH  79  80
ENDBRANCH  58  72
BRANCH  59  84
ATOM     84  C   UNL A   1      38.192  32.250  32.246  1.00  0.00     0.058 A 
ATOM     85  C   UNL A   1      37.764  33.175  31.263  1.00  0.00     0.135 A 
ATOM     86  C   UNL A   1      37.353  32.123  33.361  1.00  0.00     0.135 A 
ATOM     87  F   UNL A   1      38.489  33.356  30.149  1.00  0.00    -0.206 F 
ATOM     88  C   UNL A   1      36.548  33.874  31.346  1.00  0.00     0.059 A 
ATOM     89  C   UNL A   1      36.142  32.817  33.467  1.00  0.00     0.059 A 
ATOM     90  F   UNL A   1      37.629  31.227  34.322  1.00  0.00    -0.206 F 
ATOM     91  C   UNL A   1      35.721  33.661  32.442  1.00  0.00     0.060 A 
BRANCH  91  92
ATOM     92  S   UNL A   1      34.033  34.328  32.493  1.00  0.00     0.124 S 
ATOM     93  O   UNL A   1      33.325  33.332  33.290  1.00  0.00    -0.237 OA
ATOM     94  O   UNL A   1      34.190  35.634  33.123  1.00  0.00    -0.237 OA
ATOM     95  O   UNL A   1      33.675  34.367  31.077  1.00  0.00    -0.744 OA
ENDBRANCH  91  92
ENDBRANCH  59  84
BRANCH  71  96
ATOM     96  C   UNL A   1      43.266  28.887  33.659  1.00  0.00     0.058 A 
ATOM     97  C   UNL A   1      43.701  29.143  34.973  1.00  0.00     0.135 A 
ATOM     98  C   UNL A   1      42.431  27.778  33.467  1.00  0.00     0.135 A 
ATOM     99  F   UNL A   1      44.428  30.234  35.259  1.00  0.00    -0.206 F 
ATOM    100  C   UNL A   1      43.346  28.314  36.041  1.00  0.00     0.059 A 
ATOM    101  C   UNL A   1      42.040  26.956  34.519  1.00  0.00     0.059 A 
ATOM    102  F   UNL A   1      41.944  27.509  32.245  1.00  0.00    -0.206 F 
ATOM    103  C   UNL A   1      42.511  27.222  35.802  1.00  0.00     0.060 A 
BRANCH 103 104
ATOM    104  S   UNL A   1      41.984  26.189  37.187  1.00  0.00     0.124 S 
ATOM    105  O   UNL A   1      43.038  26.428  38.167  1.00  0.00    -0.237 OA
ATOM    106  O   UNL A   1      40.674  26.744  37.516  1.00  0.00    -0.237 OA
ATOM    107  O   UNL A   1      41.955  24.844  36.617  1.00  0.00    -0.744 OA
ENDBRANCH 103 104
ENDBRANCH  71  96
ENDBRANCH  45  46
ENDBRANCH  37  40
ENDBRANCH  35  36
ENDBRANCH  34  35
ENDBRANCH   1  34
TORSDOF 18
ENDMDL
MODEL 3
REMARK VINA RESULT:     -12.8      1.615      2.416
REMARK SMILES Cc1ccc(C)c(N2C(=O)S[C@H](CC(=O)Nc3ccc(C(=O)NCCCNC(=O)c4ccc(-c5c6nc(c(-c7c(F)cc(S(=O)(=O)[O-])cc7F)c7ccc([nH]7)c(-c7c(F)cc(S(=O)(=O)[O-])cc7F)c7nc(c(-c8c(F)cc(S(=O)(=O)[O-])cc8F)c8ccc5[nH]8)C=C7)C=C6)cc4)c(O)c3)C2=O)c1
REMARK SMILES IDX 24 1 23 2 21 3 22 4 20 6 17 7 18 8 98 9 19 10 96 11 16 12
REMARK SMILES IDX 14 13 15 14 13 16 12 17 8 18 9 19 99 20 10 21 11 22 100 23
REMARK SMILES IDX 7 24 1 25 2 26 3 27 101 28 4 29 5 30 6 31 97 32 25 34 26 35
REMARK SMILES IDX 27 36 28 37 29 39 30 40 31 41 95 42 32 43 94 44 33 45 34 46
REMARK SMILES IDX 35 47 88 48 36 49 93 50 87 51 89 52 37 53 92 54 86 55 85 56
REMARK SMILES IDX 38 58 72 59 51 60 71 61 52 62 55 63 70 64 90 65 53 66 54 67
REMARK SMILES IDX 69 69 91 70 56 71 39 72 40 73 49 74 41 75 42 76 48 77 50 78
REMARK SMILES IDX 43 79 44 80 45 81 46 82 47 83 73 84 74 85 83 86 75 87 76 88
REMARK SMILES IDX 82 89 84 90 77 91 78 92 79 93 80 94 81 95 57 96 58 97 67 98
REMARK SMILES IDX 59 99 60 100 66 101 68 102 61 103 62 104 63 105 64 106
REMARK SMILES IDX 65 107
REMARK H PARENT 23 5 16 15 97 33 27 38 89 57 55 68
REMARK Flexibility Score: inf
ROOT
ATOM      1  C   UNL A   1      39.966  20.961  26.515  1.00  0.00     0.118 C 
ENDROOT
BRANCH   1   2
ATOM      2  N   UNL A   1      39.893  22.386  26.339  1.00  0.00    -0.352 N 
ATOM      3  C   UNL A   1      38.762  23.132  26.070  1.00  0.00     0.255 C 
ATOM      4  O   UNL A   1      38.844  24.355  26.168  1.00  0.00    -0.269 OA
ATOM      5  H   UNL A   1      40.739  22.883  26.418  1.00  0.00     0.163 HD
BRANCH   3   6
ATOM      6  C   UNL A   1      37.493  22.519  25.549  1.00  0.00     0.081 A 
ATOM      7  C   UNL A   1      35.277  20.818  25.231  1.00  0.00     0.044 A 
ATOM      8  C   UNL A   1      36.515  20.499  24.700  1.00  0.00     0.027 A 
ATOM      9  C   UNL A   1      35.075  22.125  25.629  1.00  0.00     0.073 A 
ATOM     10  C   UNL A   1      37.637  21.285  24.933  1.00  0.00     0.020 A 
ATOM     11  C   UNL A   1      36.177  22.990  25.670  1.00  0.00     0.130 A 
BRANCH   7  12
ATOM     12  N   UNL A   1      34.247  19.866  25.246  1.00  0.00    -0.326 N 
ATOM     13  C   UNL A   1      32.888  20.120  25.208  1.00  0.00     0.226 C 
ATOM     14  O   UNL A   1      32.092  19.294  25.653  1.00  0.00    -0.275 OA
ATOM     15  H   UNL A   1      34.519  18.921  25.289  1.00  0.00     0.169 HD
BRANCH  13  16
ATOM     16  C   UNL A   1      32.408  21.317  24.392  1.00  0.00     0.125 C 
BRANCH  16  17
ATOM     17  C   UNL A   1      31.257  22.148  24.956  1.00  0.00     0.156 C 
ATOM     18  N   UNL A   1      31.831  24.424  24.504  1.00  0.00    -0.240 N 
ATOM     19  C   UNL A   1      32.263  24.349  25.797  1.00  0.00     0.293 C 
ATOM     20  C   UNL A   1      31.085  23.350  24.041  1.00  0.00     0.248 C 
ATOM     21  O   UNL A   1      33.003  25.106  26.417  1.00  0.00    -0.261 OA
ATOM     22  S   UNL A   1      31.546  22.937  26.564  1.00  0.00    -0.050 SA
ATOM     23  O   UNL A   1      30.389  23.304  23.034  1.00  0.00    -0.273 OA
BRANCH  18  24
ATOM     24  C   UNL A   1      31.755  25.684  23.873  1.00  0.00     0.056 A 
ATOM     25  C   UNL A   1      29.278  28.559  23.381  1.00  0.00     0.044 C 
ATOM     26  C   UNL A   1      30.519  27.713  23.366  1.00  0.00    -0.049 A 
ATOM     27  C   UNL A   1      31.634  28.180  22.664  1.00  0.00     0.004 A 
ATOM     28  C   UNL A   1      30.589  26.460  23.986  1.00  0.00     0.030 A 
ATOM     29  C   UNL A   1      32.770  27.389  22.507  1.00  0.00     0.006 A 
ATOM     30  C   UNL A   1      32.848  26.130  23.104  1.00  0.00    -0.027 A 
ATOM     31  C   UNL A   1      34.095  25.325  22.865  1.00  0.00     0.046 C 
ENDBRANCH  18  24
ENDBRANCH  16  17
ENDBRANCH  13  16
ENDBRANCH   7  12
BRANCH  11  32
ATOM     32  O   UNL A   1      35.854  24.320  25.712  1.00  0.00    -0.507 OA
ATOM     33  H   UNL A   1      36.424  24.953  25.319  1.00  0.00     0.293 HD
ENDBRANCH  11  32
ENDBRANCH   3   6
ENDBRANCH   1   2
BRANCH   1  34
ATOM     34  C   UNL A   1      41.295  20.315  26.788  1.00  0.00     0.042 C 
BRANCH  34  35
ATOM     35  C   UNL A   1      42.496  20.996  26.181  1.00  0.00     0.118 C 
BRANCH  35  36
ATOM     36  N   UNL A   1      43.375  20.160  25.362  1.00  0.00    -0.352 N 
ATOM     37  C   UNL A   1      44.517  20.558  24.671  1.00  0.00     0.251 C 
ATOM     38  H   UNL A   1      43.131  19.209  25.292  1.00  0.00     0.163 HD
ATOM     39  O   UNL A   1      45.171  19.750  24.022  1.00  0.00    -0.269 OA
BRANCH  37  40
ATOM     40  C   UNL A   1      45.001  21.946  24.858  1.00  0.00     0.039 A 
ATOM     41  C   UNL A   1      45.814  22.215  25.962  1.00  0.00     0.014 A 
ATOM     42  C   UNL A   1      44.353  22.981  24.216  1.00  0.00     0.014 A 
ATOM     43  C   UNL A   1      45.622  23.403  26.669  1.00  0.00     0.010 A 
ATOM     44  C   UNL A   1      44.124  24.126  24.947  1.00  0.00     0.010 A 
ATOM     45  C   UNL A   1      44.618  24.274  26.257  1.00  0.00    -0.014 A 
BRANCH  45  46
ATOM     46  C   UNL A   1      44.179  25.438  27.052  1.00  0.00     0.031 A 
ATOM     47  C   UNL A   1      45.105  26.584  26.853  1.00  0.00     0.074 A 
ATOM     48  C   UNL A   1      42.995  25.662  27.676  1.00  0.00     0.049 A 
ATOM     49  N   UNL A   1      46.289  26.699  27.370  1.00  0.00    -0.248 NA
ATOM     50  C   UNL A   1      44.876  27.443  25.672  1.00  0.00     0.031 C 
ATOM     51  C   UNL A   1      41.759  24.879  27.709  1.00  0.00     0.029 A 
ATOM     52  N   UNL A   1      42.651  26.763  28.419  1.00  0.00    -0.354 N 
ATOM     53  C   UNL A   1      46.830  27.798  26.720  1.00  0.00     0.074 A 
ATOM     54  C   UNL A   1      46.132  27.845  25.472  1.00  0.00     0.031 C 
ATOM     55  C   UNL A   1      40.760  25.614  28.274  1.00  0.00     0.029 A 
ATOM     56  C   UNL A   1      41.302  26.867  28.781  1.00  0.00     0.049 A 
ATOM     57  H   UNL A   1      43.315  27.441  28.682  1.00  0.00     0.167 HD
ATOM     58  C   UNL A   1      47.447  28.811  27.393  1.00  0.00     0.037 A 
ATOM     59  C   UNL A   1      40.727  27.920  29.440  1.00  0.00     0.037 A 
ATOM     60  C   UNL A   1      47.594  28.447  28.789  1.00  0.00     0.049 A 
ATOM     61  C   UNL A   1      41.842  28.689  30.055  1.00  0.00     0.074 A 
ATOM     62  C   UNL A   1      48.227  27.440  29.492  1.00  0.00     0.029 A 
ATOM     63  N   UNL A   1      46.651  28.969  29.648  1.00  0.00    -0.354 N 
ATOM     64  N   UNL A   1      42.584  28.236  31.027  1.00  0.00    -0.248 NA
ATOM     65  C   UNL A   1      42.421  29.778  29.283  1.00  0.00     0.031 C 
ATOM     66  C   UNL A   1      47.345  27.120  30.570  1.00  0.00     0.029 A 
ATOM     67  C   UNL A   1      46.258  27.993  30.524  1.00  0.00     0.049 A 
ATOM     68  H   UNL A   1      46.314  29.894  29.633  1.00  0.00     0.167 HD
ATOM     69  C   UNL A   1      43.866  28.670  30.728  1.00  0.00     0.074 A 
ATOM     70  C   UNL A   1      43.690  29.686  29.690  1.00  0.00     0.031 C 
ATOM     71  C   UNL A   1      44.949  27.947  31.137  1.00  0.00     0.037 A 
BRANCH  58  72
ATOM     72  C   UNL A   1      47.468  30.272  26.946  1.00  0.00     0.058 A 
ATOM     73  C   UNL A   1      48.708  30.946  26.953  1.00  0.00     0.135 A 
ATOM     74  C   UNL A   1      46.347  31.112  26.742  1.00  0.00     0.135 A 
ATOM     75  F   UNL A   1      49.859  30.263  27.055  1.00  0.00    -0.206 F 
ATOM     76  C   UNL A   1      48.811  32.337  26.927  1.00  0.00     0.059 A 
ATOM     77  C   UNL A   1      46.428  32.496  26.692  1.00  0.00     0.059 A 
ATOM     78  F   UNL A   1      45.093  30.675  26.622  1.00  0.00    -0.206 F 
ATOM     79  C   UNL A   1      47.657  33.104  26.831  1.00  0.00     0.060 A 
BRANCH  79  80
ATOM     80  S   UNL A   1      47.758  34.894  26.912  1.00  0.00     0.124 S 
ATOM     81  O   UNL A   1      48.057  35.101  28.323  1.00  0.00    -0.237 OA
ATOM     82  O   UNL A   1      48.842  35.170  25.974  1.00  0.00    -0.237 OA
ATOM     83  O   UNL A   1      46.433  35.325  26.475  1.00  0.00    -0.744 OA
ENDBRANCH  79  80
ENDBRANCH  58  72
BRANCH  59  84
ATOM     84  C   UNL A   1      39.354  28.513  29.438  1.00  0.00     0.058 A 
ATOM     85  C   UNL A   1      38.573  28.591  30.616  1.00  0.00     0.135 A 
ATOM     86  C   UNL A   1      38.932  29.328  28.379  1.00  0.00     0.135 A 
ATOM     87  F   UNL A   1      38.904  27.863  31.692  1.00  0.00    -0.206 F 
ATOM     88  C   UNL A   1      37.489  29.474  30.759  1.00  0.00     0.059 A 
ATOM     89  C   UNL A   1      37.850  30.207  28.499  1.00  0.00     0.059 A 
ATOM     90  F   UNL A   1      39.638  29.379  27.238  1.00  0.00    -0.206 F 
ATOM     91  C   UNL A   1      37.154  30.309  29.701  1.00  0.00     0.060 A 
BRANCH  91  92
ATOM     92  S   UNL A   1      35.940  31.645  29.901  1.00  0.00     0.124 S 
ATOM     93  O   UNL A   1      34.907  31.278  28.937  1.00  0.00    -0.237 OA
ATOM     94  O   UNL A   1      35.547  31.553  31.302  1.00  0.00    -0.237 OA
ATOM     95  O   UNL A   1      36.725  32.827  29.558  1.00  0.00    -0.744 OA
ENDBRANCH  91  92
ENDBRANCH  59  84
BRANCH  71  96
ATOM     96  C   UNL A   1      44.724  26.894  32.193  1.00  0.00     0.058 A 
ATOM     97  C   UNL A   1      44.590  27.142  33.572  1.00  0.00     0.135 A 
ATOM     98  C   UNL A   1      44.509  25.579  31.757  1.00  0.00     0.135 A 
ATOM     99  F   UNL A   1      44.691  28.387  34.061  1.00  0.00    -0.206 F 
ATOM    100  C   UNL A   1      44.289  26.121  34.478  1.00  0.00     0.059 A 
ATOM    101  C   UNL A   1      44.178  24.553  32.636  1.00  0.00     0.059 A 
ATOM    102  F   UNL A   1      44.574  25.288  30.448  1.00  0.00    -0.206 F 
ATOM    103  C   UNL A   1      44.081  24.829  33.998  1.00  0.00     0.060 A 
BRANCH 103 104
ATOM    104  S   UNL A   1      43.615  23.518  35.150  1.00  0.00     0.124 S 
ATOM    105  O   UNL A   1      44.170  22.332  34.509  1.00  0.00    -0.237 OA
ATOM    106  O   UNL A   1      44.269  23.936  36.387  1.00  0.00    -0.237 OA
ATOM    107  O   UNL A   1      42.155  23.589  35.175  1.00  0.00    -0.744 OA
ENDBRANCH 103 104
ENDBRANCH  71  96
ENDBRANCH  45  46
ENDBRANCH  37  40
ENDBRANCH  35  36
ENDBRANCH  34  35
ENDBRANCH   1  34
TORSDOF 18
ENDMDL
