MODEL 1
REMARK VINA RESULT:     -11.9      0.000      0.000
REMARK SMILES COc1ccc(/C=C(\NC(=O)c2ccccc2Br)C(=O)NCCCNC(=O)c2ccc(-c3c4nc(c(-c5c(F)cc(S(=O)(=O)[O-])cc5F)c5ccc([nH]5)c(-c5c(F)cc(S(=O)(=O)[O-])cc5F)c5nc(c(-c6c(F)cc(S(=O)(=O)[O-])cc6F)c6ccc3[nH]6)C=C5)C=C4)cc2)cc1
REMARK SMILES IDX 23 1 22 2 21 3 19 4 20 5 8 7 7 8 6 9 3 10 4 11 95 12 5 13
REMARK SMILES IDX 94 14 2 15 1 16 9 17 10 18 11 20 12 21 13 22 17 23 14 24
REMARK SMILES IDX 16 25 18 26 15 27 24 28 25 29 26 30 27 32 28 33 29 34 93 35
REMARK SMILES IDX 30 36 92 37 31 38 32 39 33 40 86 41 34 42 91 43 85 44 87 45
REMARK SMILES IDX 35 46 90 47 84 48 83 49 36 51 70 52 49 53 69 54 50 55 53 56
REMARK SMILES IDX 68 57 88 58 51 59 52 60 67 62 89 63 54 64 37 65 38 66 47 67
REMARK SMILES IDX 39 68 40 69 46 70 48 71 41 72 42 73 43 74 44 75 45 76 71 77
REMARK SMILES IDX 72 78 81 79 73 80 74 81 80 82 82 83 75 84 76 85 77 86 78 87
REMARK SMILES IDX 79 88 55 89 56 90 65 91 57 92 58 93 64 94 66 95 59 96 60 97
REMARK SMILES IDX 61 98 62 99 63 100
REMARK H PARENT 21 6 9 19 25 31 87 50 53 61
REMARK Flexibility Score: inf
ROOT
ATOM      1  C   UNL A   1      32.900  29.652  25.779  1.00  0.00     0.042 C 
ENDROOT
BRANCH   1   2
ATOM      2  C   UNL A   1      33.460  28.642  24.788  1.00  0.00     0.118 C 
BRANCH   2   3
ATOM      3  N   UNL A   1      32.486  28.119  23.852  1.00  0.00    -0.351 N 
ATOM      4  C   UNL A   1      32.202  26.801  23.618  1.00  0.00     0.267 C 
ATOM      5  O   UNL A   1      31.440  26.488  22.706  1.00  0.00    -0.268 OA
ATOM      6  H   UNL A   1      31.977  28.781  23.329  1.00  0.00     0.163 HD
BRANCH   4   7
ATOM      7  C   UNL A   1      32.913  25.760  24.440  1.00  0.00     0.107 C 
ATOM      8  C   UNL A   1      34.073  25.349  23.885  1.00  0.00     0.040 C 
BRANCH   8   9
ATOM      9  C   UNL A   1      35.077  24.369  24.350  1.00  0.00    -0.023 A 
ATOM     10  C   UNL A   1      37.097  22.512  25.031  1.00  0.00     0.118 A 
ATOM     11  C   UNL A   1      36.718  23.507  25.929  1.00  0.00     0.047 A 
ATOM     12  C   UNL A   1      36.460  22.426  23.797  1.00  0.00     0.047 A 
ATOM     13  C   UNL A   1      35.744  24.451  25.578  1.00  0.00     0.012 A 
ATOM     14  C   UNL A   1      35.459  23.348  23.462  1.00  0.00     0.012 A 
BRANCH  10  15
ATOM     15  O   UNL A   1      38.077  21.661  25.463  1.00  0.00    -0.497 OA
ATOM     16  C   UNL A   1      39.101  22.283  26.234  1.00  0.00     0.278 C 
ENDBRANCH  10  15
ENDBRANCH   8   9
BRANCH   7  17
ATOM     17  N   UNL A   1      32.437  25.304  25.652  1.00  0.00    -0.317 N 
ATOM     18  C   UNL A   1      32.031  24.074  26.116  1.00  0.00     0.256 C 
ATOM     19  H   UNL A   1      32.375  26.013  26.331  1.00  0.00     0.170 HD
ATOM     20  O   UNL A   1      31.385  24.025  27.164  1.00  0.00    -0.269 OA
BRANCH  18  21
ATOM     21  C   UNL A   1      32.331  22.808  25.422  1.00  0.00     0.054 A 
ATOM     22  C   UNL A   1      31.653  22.573  24.215  1.00  0.00     0.015 A 
ATOM     23  C   UNL A   1      33.157  21.809  25.945  1.00  0.00     0.030 A 
ATOM     24  C   UNL A   1      31.907  21.424  23.468  1.00  0.00     0.001 A 
ATOM     25  C   UNL A   1      33.418  20.661  25.188  1.00  0.00     0.016 A 
ATOM     26  Br  UNL A   1      33.845  21.856  27.716  1.00  0.00    -0.050 Br
ATOM     27  C   UNL A   1      32.812  20.480  23.943  1.00  0.00     0.001 A 
ENDBRANCH  18  21
ENDBRANCH   7  17
ENDBRANCH   4   7
ENDBRANCH   2   3
ENDBRANCH   1   2
BRANCH   1  28
ATOM     28  C   UNL A   1      33.291  29.467  27.244  1.00  0.00     0.118 C 
BRANCH  28  29
ATOM     29  N   UNL A   1      33.637  30.686  27.960  1.00  0.00    -0.352 N 
ATOM     30  C   UNL A   1      34.839  31.130  28.463  1.00  0.00     0.251 C 
ATOM     31  H   UNL A   1      32.881  31.299  28.112  1.00  0.00     0.163 HD
ATOM     32  O   UNL A   1      34.918  32.266  28.925  1.00  0.00    -0.269 OA
BRANCH  30  33
ATOM     33  C   UNL A   1      35.994  30.212  28.554  1.00  0.00     0.039 A 
ATOM     34  C   UNL A   1      36.868  30.159  27.463  1.00  0.00     0.014 A 
ATOM     35  C   UNL A   1      36.300  29.534  29.732  1.00  0.00     0.014 A 
ATOM     36  C   UNL A   1      38.128  29.587  27.620  1.00  0.00     0.010 A 
ATOM     37  C   UNL A   1      37.590  29.058  29.922  1.00  0.00     0.010 A 
ATOM     38  C   UNL A   1      38.530  29.131  28.884  1.00  0.00    -0.014 A 
BRANCH  38  39
ATOM     39  C   UNL A   1      39.954  28.837  29.170  1.00  0.00     0.031 A 
ATOM     40  C   UNL A   1      40.832  29.881  29.790  1.00  0.00     0.074 A 
ATOM     41  C   UNL A   1      40.469  27.660  28.754  1.00  0.00     0.049 A 
ATOM     42  N   UNL A   1      42.118  29.846  30.019  1.00  0.00    -0.248 NA
ATOM     43  C   UNL A   1      40.187  31.150  30.164  1.00  0.00     0.031 C 
ATOM     44  C   UNL A   1      39.722  26.608  28.052  1.00  0.00     0.029 A 
ATOM     45  N   UNL A   1      41.737  27.149  28.850  1.00  0.00    -0.354 N 
ATOM     46  C   UNL A   1      42.441  31.092  30.540  1.00  0.00     0.074 A 
ATOM     47  C   UNL A   1      41.227  31.878  30.544  1.00  0.00     0.031 C 
ATOM     48  C   UNL A   1      40.536  25.566  27.820  1.00  0.00     0.029 A 
ATOM     49  C   UNL A   1      41.866  25.885  28.320  1.00  0.00     0.049 A 
ATOM     50  H   UNL A   1      42.486  27.640  29.259  1.00  0.00     0.167 HD
ATOM     51  C   UNL A   1      43.638  31.528  30.997  1.00  0.00     0.037 A 
ATOM     52  C   UNL A   1      42.939  25.075  28.250  1.00  0.00     0.037 A 
ATOM     53  C   UNL A   1      44.827  30.719  31.020  1.00  0.00     0.049 A 
ATOM     54  C   UNL A   1      44.239  25.557  28.829  1.00  0.00     0.074 A 
ATOM     55  C   UNL A   1      46.081  31.038  31.508  1.00  0.00     0.029 A 
ATOM     56  N   UNL A   1      44.903  29.418  30.541  1.00  0.00    -0.354 N 
ATOM     57  N   UNL A   1      44.514  26.718  29.374  1.00  0.00    -0.248 NA
ATOM     58  C   UNL A   1      45.372  24.622  28.790  1.00  0.00     0.031 C 
ATOM     59  C   UNL A   1      46.919  29.934  31.311  1.00  0.00     0.029 A 
ATOM     60  C   UNL A   1      46.179  28.918  30.723  1.00  0.00     0.049 A 
ATOM     61  H   UNL A   1      44.156  28.923  30.131  1.00  0.00     0.167 HD
ATOM     62  C   UNL A   1      45.845  26.648  29.764  1.00  0.00     0.074 A 
ATOM     63  C   UNL A   1      46.317  25.325  29.401  1.00  0.00     0.031 C 
ATOM     64  C   UNL A   1      46.612  27.592  30.363  1.00  0.00     0.037 A 
BRANCH  51  65
ATOM     65  C   UNL A   1      43.700  32.936  31.517  1.00  0.00     0.058 A 
ATOM     66  C   UNL A   1      43.857  34.029  30.650  1.00  0.00     0.135 A 
ATOM     67  C   UNL A   1      43.622  33.197  32.894  1.00  0.00     0.135 A 
ATOM     68  F   UNL A   1      43.957  33.832  29.326  1.00  0.00    -0.206 F 
ATOM     69  C   UNL A   1      43.982  35.328  31.131  1.00  0.00     0.059 A 
ATOM     70  C   UNL A   1      43.718  34.493  33.396  1.00  0.00     0.059 A 
ATOM     71  F   UNL A   1      43.473  32.189  33.767  1.00  0.00    -0.206 F 
ATOM     72  C   UNL A   1      43.921  35.549  32.507  1.00  0.00     0.060 A 
BRANCH  72  73
ATOM     73  S   UNL A   1      44.115  37.235  33.123  1.00  0.00     0.124 S 
ATOM     74  O   UNL A   1      44.361  37.966  31.884  1.00  0.00    -0.237 OA
ATOM     75  O   UNL A   1      42.827  37.488  33.761  1.00  0.00    -0.237 OA
ATOM     76  O   UNL A   1      45.253  37.134  34.031  1.00  0.00    -0.744 OA
ENDBRANCH  72  73
ENDBRANCH  51  65
BRANCH  52  77
ATOM     77  C   UNL A   1      42.814  23.716  27.660  1.00  0.00     0.058 A 
ATOM     78  C   UNL A   1      43.039  23.507  26.291  1.00  0.00     0.135 A 
ATOM     79  C   UNL A   1      42.493  22.600  28.447  1.00  0.00     0.135 A 
ATOM     80  F   UNL A   1      43.350  24.544  25.498  1.00  0.00    -0.206 F 
ATOM     81  C   UNL A   1      42.932  22.245  25.718  1.00  0.00     0.059 A 
ATOM     82  C   UNL A   1      42.400  21.323  27.899  1.00  0.00     0.059 A 
ATOM     83  F   UNL A   1      42.291  22.742  29.766  1.00  0.00    -0.206 F 
ATOM     84  C   UNL A   1      42.611  21.157  26.531  1.00  0.00     0.060 A 
BRANCH  84  85
ATOM     85  S   UNL A   1      42.518  19.512  25.787  1.00  0.00     0.124 S 
ATOM     86  O   UNL A   1      43.459  19.639  24.681  1.00  0.00    -0.237 OA
ATOM     87  O   UNL A   1      42.938  18.651  26.888  1.00  0.00    -0.237 OA
ATOM     88  O   UNL A   1      41.112  19.396  25.413  1.00  0.00    -0.744 OA
ENDBRANCH  84  85
ENDBRANCH  52  77
BRANCH  64  89
ATOM     89  C   UNL A   1      48.027  27.215  30.684  1.00  0.00     0.058 A 
ATOM     90  C   UNL A   1      48.347  26.512  31.854  1.00  0.00     0.135 A 
ATOM     91  C   UNL A   1      49.062  27.510  29.782  1.00  0.00     0.135 A 
ATOM     92  F   UNL A   1      47.391  26.216  32.748  1.00  0.00    -0.206 F 
ATOM     93  C   UNL A   1      49.653  26.124  32.128  1.00  0.00     0.059 A 
ATOM     94  C   UNL A   1      50.371  27.114  30.027  1.00  0.00     0.059 A 
ATOM     95  F   UNL A   1      48.799  28.175  28.646  1.00  0.00    -0.206 F 
ATOM     96  C   UNL A   1      50.658  26.427  31.207  1.00  0.00     0.060 A 
BRANCH  96  97
ATOM     97  S   UNL A   1      52.343  25.876  31.547  1.00  0.00     0.124 S 
ATOM     98  O   UNL A   1      52.949  25.955  30.222  1.00  0.00    -0.237 OA
ATOM     99  O   UNL A   1      52.808  26.864  32.517  1.00  0.00    -0.237 OA
ATOM    100  O   UNL A   1      52.157  24.529  32.075  1.00  0.00    -0.744 OA
ENDBRANCH  96  97
ENDBRANCH  64  89
ENDBRANCH  38  39
ENDBRANCH  30  33
ENDBRANCH  28  29
ENDBRANCH   1  28
TORSDOF 17
ENDMDL
MODEL 2
REMARK VINA RESULT:     -11.8      2.855      9.411
REMARK SMILES COc1ccc(/C=C(\NC(=O)c2ccccc2Br)C(=O)NCCCNC(=O)c2ccc(-c3c4nc(c(-c5c(F)cc(S(=O)(=O)[O-])cc5F)c5ccc([nH]5)c(-c5c(F)cc(S(=O)(=O)[O-])cc5F)c5nc(c(-c6c(F)cc(S(=O)(=O)[O-])cc6F)c6ccc3[nH]6)C=C5)C=C4)cc2)cc1
REMARK SMILES IDX 23 1 22 2 21 3 19 4 20 5 8 7 7 8 6 9 3 10 4 11 95 12 5 13
REMARK SMILES IDX 94 14 2 15 1 16 9 17 10 18 11 20 12 21 13 22 17 23 14 24
REMARK SMILES IDX 16 25 18 26 15 27 24 28 25 29 26 30 27 32 28 33 29 34 93 35
REMARK SMILES IDX 30 36 92 37 31 38 32 39 33 40 86 41 34 42 91 43 85 44 87 45
REMARK SMILES IDX 35 46 90 47 84 48 83 49 36 51 70 52 49 53 69 54 50 55 53 56
REMARK SMILES IDX 68 57 88 58 51 59 52 60 67 62 89 63 54 64 37 65 38 66 47 67
REMARK SMILES IDX 39 68 40 69 46 70 48 71 41 72 42 73 43 74 44 75 45 76 71 77
REMARK SMILES IDX 72 78 81 79 73 80 74 81 80 82 82 83 75 84 76 85 77 86 78 87
REMARK SMILES IDX 79 88 55 89 56 90 65 91 57 92 58 93 64 94 66 95 59 96 60 97
REMARK SMILES IDX 61 98 62 99 63 100
REMARK H PARENT 21 6 9 19 25 31 87 50 53 61
REMARK Flexibility Score: inf
ROOT
ATOM      1  C   UNL A   1      36.402  21.940  25.832  1.00  0.00     0.042 C 
ENDROOT
BRANCH   1   2
ATOM      2  C   UNL A   1      35.183  22.684  26.356  1.00  0.00     0.118 C 
BRANCH   2   3
ATOM      3  N   UNL A   1      33.918  22.184  25.857  1.00  0.00    -0.351 N 
ATOM      4  C   UNL A   1      32.922  22.918  25.270  1.00  0.00     0.267 C 
ATOM      5  O   UNL A   1      31.845  22.391  25.003  1.00  0.00    -0.268 OA
ATOM      6  H   UNL A   1      33.757  21.217  25.951  1.00  0.00     0.163 HD
BRANCH   4   7
ATOM      7  C   UNL A   1      33.154  24.389  25.051  1.00  0.00     0.107 C 
ATOM      8  C   UNL A   1      32.806  25.143  26.115  1.00  0.00     0.040 C 
BRANCH   8   9
ATOM      9  C   UNL A   1      32.877  26.604  26.333  1.00  0.00    -0.023 A 
ATOM     10  C   UNL A   1      32.892  29.364  26.945  1.00  0.00     0.118 A 
ATOM     11  C   UNL A   1      34.046  28.734  26.486  1.00  0.00     0.047 A 
ATOM     12  C   UNL A   1      31.720  28.627  27.084  1.00  0.00     0.047 A 
ATOM     13  C   UNL A   1      34.050  27.359  26.219  1.00  0.00     0.012 A 
ATOM     14  C   UNL A   1      31.716  27.259  26.779  1.00  0.00     0.012 A 
BRANCH  10  15
ATOM     15  O   UNL A   1      33.005  30.703  27.203  1.00  0.00    -0.497 OA
ATOM     16  C   UNL A   1      34.263  31.094  27.746  1.00  0.00     0.278 C 
ENDBRANCH  10  15
ENDBRANCH   8   9
BRANCH   7  17
ATOM     17  N   UNL A   1      33.698  24.900  23.891  1.00  0.00    -0.317 N 
ATOM     18  C   UNL A   1      33.245  25.772  22.928  1.00  0.00     0.256 C 
ATOM     19  H   UNL A   1      34.608  24.569  23.715  1.00  0.00     0.170 HD
ATOM     20  O   UNL A   1      33.844  25.825  21.853  1.00  0.00    -0.269 OA
BRANCH  18  21
ATOM     21  C   UNL A   1      32.076  26.651  23.118  1.00  0.00     0.054 A 
ATOM     22  C   UNL A   1      30.817  26.029  23.152  1.00  0.00     0.015 A 
ATOM     23  C   UNL A   1      32.148  28.046  23.160  1.00  0.00     0.030 A 
ATOM     24  C   UNL A   1      29.661  26.776  23.372  1.00  0.00     0.001 A 
ATOM     25  C   UNL A   1      30.986  28.792  23.391  1.00  0.00     0.016 A 
ATOM     26  Br  UNL A   1      33.738  29.013  22.773  1.00  0.00    -0.050 Br
ATOM     27  C   UNL A   1      29.750  28.157  23.519  1.00  0.00     0.001 A 
ENDBRANCH  18  21
ENDBRANCH   7  17
ENDBRANCH   4   7
ENDBRANCH   2   3
ENDBRANCH   1   2
BRANCH   1  28
ATOM     28  C   UNL A   1      37.540  22.792  25.273  1.00  0.00     0.118 C 
BRANCH  28  29
ATOM     29  N   UNL A   1      38.884  22.335  25.596  1.00  0.00    -0.352 N 
ATOM     30  C   UNL A   1      39.864  22.894  26.386  1.00  0.00     0.251 C 
ATOM     31  H   UNL A   1      39.136  21.480  25.178  1.00  0.00     0.163 HD
ATOM     32  O   UNL A   1      40.888  22.256  26.618  1.00  0.00    -0.269 OA
BRANCH  30  33
ATOM     33  C   UNL A   1      39.738  24.290  26.855  1.00  0.00     0.039 A 
ATOM     34  C   UNL A   1      39.143  24.503  28.102  1.00  0.00     0.014 A 
ATOM     35  C   UNL A   1      40.322  25.350  26.165  1.00  0.00     0.014 A 
ATOM     36  C   UNL A   1      39.300  25.733  28.736  1.00  0.00     0.010 A 
ATOM     37  C   UNL A   1      40.569  26.539  26.837  1.00  0.00     0.010 A 
ATOM     38  C   UNL A   1      40.107  26.718  28.149  1.00  0.00    -0.014 A 
BRANCH  38  39
ATOM     39  C   UNL A   1      40.573  27.888  28.931  1.00  0.00     0.031 A 
ATOM     40  C   UNL A   1      41.925  27.875  29.576  1.00  0.00     0.074 A 
ATOM     41  C   UNL A   1      39.714  28.906  29.147  1.00  0.00     0.049 A 
ATOM     42  N   UNL A   1      42.463  28.755  30.379  1.00  0.00    -0.248 NA
ATOM     43  C   UNL A   1      42.769  26.697  29.320  1.00  0.00     0.031 C 
ATOM     44  C   UNL A   1      38.336  28.976  28.644  1.00  0.00     0.029 A 
ATOM     45  N   UNL A   1      39.862  30.074  29.851  1.00  0.00    -0.354 N 
ATOM     46  C   UNL A   1      43.695  28.228  30.742  1.00  0.00     0.074 A 
ATOM     47  C   UNL A   1      43.803  26.929  30.115  1.00  0.00     0.031 C 
ATOM     48  C   UNL A   1      37.784  30.140  29.020  1.00  0.00     0.029 A 
ATOM     49  C   UNL A   1      38.748  30.883  29.820  1.00  0.00     0.049 A 
ATOM     50  H   UNL A   1      40.686  30.310  30.334  1.00  0.00     0.167 HD
ATOM     51  C   UNL A   1      44.658  28.791  31.509  1.00  0.00     0.037 A 
ATOM     52  C   UNL A   1      38.535  32.092  30.372  1.00  0.00     0.037 A 
ATOM     53  C   UNL A   1      44.549  30.101  32.094  1.00  0.00     0.049 A 
ATOM     54  C   UNL A   1      39.647  32.726  31.160  1.00  0.00     0.074 A 
ATOM     55  C   UNL A   1      45.482  30.794  32.844  1.00  0.00     0.029 A 
ATOM     56  N   UNL A   1      43.435  30.923  31.981  1.00  0.00    -0.354 N 
ATOM     57  N   UNL A   1      40.831  32.240  31.444  1.00  0.00    -0.248 NA
ATOM     58  C   UNL A   1      39.400  34.072  31.696  1.00  0.00     0.031 C 
ATOM     59  C   UNL A   1      44.926  32.029  33.197  1.00  0.00     0.029 A 
ATOM     60  C   UNL A   1      43.656  32.116  32.644  1.00  0.00     0.049 A 
ATOM     61  H   UNL A   1      42.608  30.689  31.498  1.00  0.00     0.167 HD
ATOM     62  C   UNL A   1      41.480  33.226  32.175  1.00  0.00     0.074 A 
ATOM     63  C   UNL A   1      40.560  34.342  32.278  1.00  0.00     0.031 C 
ATOM     64  C   UNL A   1      42.723  33.211  32.716  1.00  0.00     0.037 A 
BRANCH  51  65
ATOM     65  C   UNL A   1      45.907  27.990  31.736  1.00  0.00     0.058 A 
ATOM     66  C   UNL A   1      47.023  28.121  30.893  1.00  0.00     0.135 A 
ATOM     67  C   UNL A   1      45.988  27.066  32.790  1.00  0.00     0.135 A 
ATOM     68  F   UNL A   1      46.990  28.976  29.859  1.00  0.00    -0.206 F 
ATOM     69  C   UNL A   1      48.157  27.334  31.058  1.00  0.00     0.059 A 
ATOM     70  C   UNL A   1      47.124  26.286  32.990  1.00  0.00     0.059 A 
ATOM     71  F   UNL A   1      44.950  26.899  33.625  1.00  0.00    -0.206 F 
ATOM     72  C   UNL A   1      48.194  26.411  32.104  1.00  0.00     0.060 A 
BRANCH  72  73
ATOM     73  S   UNL A   1      49.659  25.372  32.290  1.00  0.00     0.124 S 
ATOM     74  O   UNL A   1      49.868  24.923  30.917  1.00  0.00    -0.237 OA
ATOM     75  O   UNL A   1      50.649  26.311  32.806  1.00  0.00    -0.237 OA
ATOM     76  O   UNL A   1      49.226  24.343  33.229  1.00  0.00    -0.744 OA
ENDBRANCH  72  73
ENDBRANCH  51  65
BRANCH  52  77
ATOM     77  C   UNL A   1      37.244  32.796  30.156  1.00  0.00     0.058 A 
ATOM     78  C   UNL A   1      36.162  32.590  31.026  1.00  0.00     0.135 A 
ATOM     79  C   UNL A   1      37.069  33.702  29.100  1.00  0.00     0.135 A 
ATOM     80  F   UNL A   1      36.282  31.734  32.051  1.00  0.00    -0.206 F 
ATOM     81  C   UNL A   1      34.946  33.241  30.846  1.00  0.00     0.059 A 
ATOM     82  C   UNL A   1      35.868  34.382  28.911  1.00  0.00     0.059 A 
ATOM     83  F   UNL A   1      38.081  33.953  28.254  1.00  0.00    -0.206 F 
ATOM     84  C   UNL A   1      34.808  34.136  29.783  1.00  0.00     0.060 A 
BRANCH  84  85
ATOM     85  S   UNL A   1      33.240  35.012  29.583  1.00  0.00     0.124 S 
ATOM     86  O   UNL A   1      32.758  35.066  30.957  1.00  0.00    -0.237 OA
ATOM     87  O   UNL A   1      33.668  36.283  29.006  1.00  0.00    -0.237 OA
ATOM     88  O   UNL A   1      32.488  34.146  28.680  1.00  0.00    -0.744 OA
ENDBRANCH  84  85
ENDBRANCH  52  77
BRANCH  64  89
ATOM     89  C   UNL A   1      43.163  34.447  33.443  1.00  0.00     0.058 A 
ATOM     90  C   UNL A   1      43.687  35.551  32.754  1.00  0.00     0.135 A 
ATOM     91  C   UNL A   1      43.002  34.547  34.834  1.00  0.00     0.135 A 
ATOM     92  F   UNL A   1      43.865  35.497  31.426  1.00  0.00    -0.206 F 
ATOM     93  C   UNL A   1      44.052  36.713  33.425  1.00  0.00     0.059 A 
ATOM     94  C   UNL A   1      43.342  35.706  35.521  1.00  0.00     0.059 A 
ATOM     95  F   UNL A   1      42.498  33.518  35.531  1.00  0.00    -0.206 F 
ATOM     96  C   UNL A   1      43.874  36.781  34.808  1.00  0.00     0.060 A 
BRANCH  96  97
ATOM     97  S   UNL A   1      44.303  38.311  35.664  1.00  0.00     0.124 S 
ATOM     98  O   UNL A   1      43.725  39.315  34.777  1.00  0.00    -0.237 OA
ATOM     99  O   UNL A   1      43.640  38.148  36.954  1.00  0.00    -0.237 OA
ATOM    100  O   UNL A   1      45.761  38.274  35.709  1.00  0.00    -0.744 OA
ENDBRANCH  96  97
ENDBRANCH  64  89
ENDBRANCH  38  39
ENDBRANCH  30  33
ENDBRANCH  28  29
ENDBRANCH   1  28
TORSDOF 17
ENDMDL
MODEL 3
REMARK VINA RESULT:     -11.5      0.623      8.180
REMARK SMILES COc1ccc(/C=C(\NC(=O)c2ccccc2Br)C(=O)NCCCNC(=O)c2ccc(-c3c4nc(c(-c5c(F)cc(S(=O)(=O)[O-])cc5F)c5ccc([nH]5)c(-c5c(F)cc(S(=O)(=O)[O-])cc5F)c5nc(c(-c6c(F)cc(S(=O)(=O)[O-])cc6F)c6ccc3[nH]6)C=C5)C=C4)cc2)cc1
REMARK SMILES IDX 23 1 22 2 21 3 19 4 20 5 8 7 7 8 6 9 3 10 4 11 95 12 5 13
REMARK SMILES IDX 94 14 2 15 1 16 9 17 10 18 11 20 12 21 13 22 17 23 14 24
REMARK SMILES IDX 16 25 18 26 15 27 24 28 25 29 26 30 27 32 28 33 29 34 93 35
REMARK SMILES IDX 30 36 92 37 31 38 32 39 33 40 86 41 34 42 91 43 85 44 87 45
REMARK SMILES IDX 35 46 90 47 84 48 83 49 36 51 70 52 49 53 69 54 50 55 53 56
REMARK SMILES IDX 68 57 88 58 51 59 52 60 67 62 89 63 54 64 37 65 38 66 47 67
REMARK SMILES IDX 39 68 40 69 46 70 48 71 41 72 42 73 43 74 44 75 45 76 71 77
REMARK SMILES IDX 72 78 81 79 73 80 74 81 80 82 82 83 75 84 76 85 77 86 78 87
REMARK SMILES IDX 79 88 55 89 56 90 65 91 57 92 58 93 64 94 66 95 59 96 60 97
REMARK SMILES IDX 61 98 62 99 63 100
REMARK H PARENT 21 6 9 19 25 31 87 50 53 61
REMARK Flexibility Score: inf
ROOT
ATOM      1  C   UNL A   1      31.866  29.029  27.221  1.00  0.00     0.042 C 
ENDROOT
BRANCH   1   2
ATOM      2  C   UNL A   1      31.455  27.729  26.547  1.00  0.00     0.118 C 
BRANCH   2   3
ATOM      3  N   UNL A   1      31.488  27.770  25.099  1.00  0.00    -0.351 N 
ATOM      4  C   UNL A   1      32.159  26.911  24.271  1.00  0.00     0.267 C 
ATOM      5  O   UNL A   1      32.207  27.131  23.063  1.00  0.00    -0.268 OA
ATOM      6  H   UNL A   1      30.975  28.491  24.666  1.00  0.00     0.163 HD
BRANCH   4   7
ATOM      7  C   UNL A   1      32.904  25.758  24.889  1.00  0.00     0.107 C 
ATOM      8  C   UNL A   1      34.057  25.469  24.249  1.00  0.00     0.040 C 
BRANCH   8   9
ATOM      9  C   UNL A   1      35.085  24.442  24.520  1.00  0.00    -0.023 A 
ATOM     10  C   UNL A   1      37.137  22.522  24.828  1.00  0.00     0.118 A 
ATOM     11  C   UNL A   1      36.824  23.396  25.865  1.00  0.00     0.047 A 
ATOM     12  C   UNL A   1      36.417  22.587  23.639  1.00  0.00     0.047 A 
ATOM     13  C   UNL A   1      35.834  24.373  25.701  1.00  0.00     0.012 A 
ATOM     14  C   UNL A   1      35.400  23.539  23.489  1.00  0.00     0.012 A 
BRANCH  10  15
ATOM     15  O   UNL A   1      38.140  21.626  25.083  1.00  0.00    -0.497 OA
ATOM     16  C   UNL A   1      38.970  21.971  26.188  1.00  0.00     0.278 C 
ENDBRANCH  10  15
ENDBRANCH   8   9
BRANCH   7  17
ATOM     17  N   UNL A   1      32.463  25.095  26.016  1.00  0.00    -0.317 N 
ATOM     18  C   UNL A   1      32.058  23.804  26.266  1.00  0.00     0.256 C 
ATOM     19  H   UNL A   1      32.431  25.671  26.813  1.00  0.00     0.170 HD
ATOM     20  O   UNL A   1      31.446  23.571  27.309  1.00  0.00    -0.269 OA
BRANCH  18  21
ATOM     21  C   UNL A   1      32.322  22.681  25.346  1.00  0.00     0.054 A 
ATOM     22  C   UNL A   1      31.560  22.638  24.167  1.00  0.00     0.015 A 
ATOM     23  C   UNL A   1      33.195  21.629  25.632  1.00  0.00     0.030 A 
ATOM     24  C   UNL A   1      31.772  21.638  23.219  1.00  0.00     0.001 A 
ATOM     25  C   UNL A   1      33.414  20.632  24.673  1.00  0.00     0.016 A 
ATOM     26  Br  UNL A   1      34.011  21.391  27.332  1.00  0.00    -0.050 Br
ATOM     27  C   UNL A   1      32.721  20.650  23.462  1.00  0.00     0.001 A 
ENDBRANCH  18  21
ENDBRANCH   7  17
ENDBRANCH   4   7
ENDBRANCH   2   3
ENDBRANCH   1   2
BRANCH   1  28
ATOM     28  C   UNL A   1      33.364  29.272  27.391  1.00  0.00     0.118 C 
BRANCH  28  29
ATOM     29  N   UNL A   1      33.729  30.530  28.025  1.00  0.00    -0.352 N 
ATOM     30  C   UNL A   1      34.955  31.029  28.405  1.00  0.00     0.251 C 
ATOM     31  H   UNL A   1      32.970  31.127  28.215  1.00  0.00     0.163 HD
ATOM     32  O   UNL A   1      35.036  32.186  28.812  1.00  0.00    -0.269 OA
BRANCH  30  33
ATOM     33  C   UNL A   1      36.142  30.149  28.435  1.00  0.00     0.039 A 
ATOM     34  C   UNL A   1      36.964  30.131  27.304  1.00  0.00     0.014 A 
ATOM     35  C   UNL A   1      36.526  29.475  29.592  1.00  0.00     0.014 A 
ATOM     36  C   UNL A   1      38.248  29.600  27.396  1.00  0.00     0.010 A 
ATOM     37  C   UNL A   1      37.838  29.041  29.717  1.00  0.00     0.010 A 
ATOM     38  C   UNL A   1      38.725  29.150  28.636  1.00  0.00    -0.014 A 
BRANCH  38  39
ATOM     39  C   UNL A   1      40.170  28.902  28.852  1.00  0.00     0.031 A 
ATOM     40  C   UNL A   1      40.771  27.577  28.493  1.00  0.00     0.074 A 
ATOM     41  C   UNL A   1      40.902  29.844  29.483  1.00  0.00     0.049 A 
ATOM     42  N   UNL A   1      41.985  27.140  28.701  1.00  0.00    -0.248 NA
ATOM     43  C   UNL A   1      39.878  26.597  27.853  1.00  0.00     0.031 C 
ATOM     44  C   UNL A   1      40.392  31.135  29.963  1.00  0.00     0.029 A 
ATOM     45  N   UNL A   1      42.226  29.866  29.840  1.00  0.00    -0.354 N 
ATOM     46  C   UNL A   1      41.996  25.829  28.242  1.00  0.00     0.074 A 
ATOM     47  C   UNL A   1      40.655  25.525  27.792  1.00  0.00     0.031 C 
ATOM     48  C   UNL A   1      41.398  31.834  30.511  1.00  0.00     0.029 A 
ATOM     49  C   UNL A   1      42.613  31.033  30.458  1.00  0.00     0.049 A 
ATOM     50  H   UNL A   1      42.841  29.116  29.671  1.00  0.00     0.167 HD
ATOM     51  C   UNL A   1      43.039  24.969  28.178  1.00  0.00     0.037 A 
ATOM     52  C   UNL A   1      43.818  31.414  30.924  1.00  0.00     0.037 A 
ATOM     53  C   UNL A   1      44.375  25.301  28.595  1.00  0.00     0.049 A 
ATOM     54  C   UNL A   1      44.975  30.466  30.777  1.00  0.00     0.074 A 
ATOM     55  C   UNL A   1      45.520  24.528  28.527  1.00  0.00     0.029 A 
ATOM     56  N   UNL A   1      44.746  26.519  29.149  1.00  0.00    -0.354 N 
ATOM     57  N   UNL A   1      44.982  29.251  30.283  1.00  0.00    -0.248 NA
ATOM     58  C   UNL A   1      46.286  30.939  31.241  1.00  0.00     0.031 C 
ATOM     59  C   UNL A   1      46.580  25.274  29.055  1.00  0.00     0.029 A 
ATOM     60  C   UNL A   1      46.101  26.521  29.426  1.00  0.00     0.049 A 
ATOM     61  H   UNL A   1      44.133  27.272  29.320  1.00  0.00     0.167 HD
ATOM     62  C   UNL A   1      46.300  28.819  30.357  1.00  0.00     0.074 A 
ATOM     63  C   UNL A   1      47.064  29.910  30.933  1.00  0.00     0.031 C 
ATOM     64  C   UNL A   1      46.832  27.628  29.988  1.00  0.00     0.037 A 
BRANCH  51  65
ATOM     65  C   UNL A   1      42.764  23.601  27.624  1.00  0.00     0.058 A 
ATOM     66  C   UNL A   1      42.405  22.531  28.461  1.00  0.00     0.135 A 
ATOM     67  C   UNL A   1      42.878  23.346  26.248  1.00  0.00     0.135 A 
ATOM     68  F   UNL A   1      42.303  22.717  29.786  1.00  0.00    -0.206 F 
ATOM     69  C   UNL A   1      42.215  21.248  27.961  1.00  0.00     0.059 A 
ATOM     70  C   UNL A   1      42.665  22.074  25.722  1.00  0.00     0.059 A 
ATOM     71  F   UNL A   1      43.219  24.332  25.403  1.00  0.00    -0.206 F 
ATOM     72  C   UNL A   1      42.357  21.027  26.591  1.00  0.00     0.060 A 
BRANCH  72  73
ATOM     73  S   UNL A   1      42.138  19.350  25.957  1.00  0.00     0.124 S 
ATOM     74  O   UNL A   1      43.004  19.372  24.783  1.00  0.00    -0.237 OA
ATOM     75  O   UNL A   1      42.603  18.529  27.071  1.00  0.00    -0.237 OA
ATOM     76  O   UNL A   1      40.707  19.277  25.683  1.00  0.00    -0.744 OA
ENDBRANCH  72  73
ENDBRANCH  51  65
BRANCH  52  77
ATOM     77  C   UNL A   1      43.997  32.763  31.521  1.00  0.00     0.058 A 
ATOM     78  C   UNL A   1      44.233  33.880  30.707  1.00  0.00     0.135 A 
ATOM     79  C   UNL A   1      43.915  32.970  32.906  1.00  0.00     0.135 A 
ATOM     80  F   UNL A   1      44.319  33.732  29.376  1.00  0.00    -0.206 F 
ATOM     81  C   UNL A   1      44.400  35.153  31.243  1.00  0.00     0.059 A 
ATOM     82  C   UNL A   1      44.058  34.237  33.465  1.00  0.00     0.059 A 
ATOM     83  F   UNL A   1      43.667  31.937  33.727  1.00  0.00    -0.206 F 
ATOM     84  C   UNL A   1      44.311  35.322  32.626  1.00  0.00     0.060 A 
BRANCH  84  85
ATOM     85  S   UNL A   1      44.483  36.985  33.311  1.00  0.00     0.124 S 
ATOM     86  O   UNL A   1      43.090  37.375  33.485  1.00  0.00    -0.237 OA
ATOM     87  O   UNL A   1      45.235  36.737  34.537  1.00  0.00    -0.237 OA
ATOM     88  O   UNL A   1      45.217  37.699  32.270  1.00  0.00    -0.744 OA
ENDBRANCH  84  85
ENDBRANCH  52  77
BRANCH  64  89
ATOM     89  C   UNL A   1      48.310  27.458  30.172  1.00  0.00     0.058 A 
ATOM     90  C   UNL A   1      49.220  27.865  29.186  1.00  0.00     0.135 A 
ATOM     91  C   UNL A   1      48.820  26.938  31.372  1.00  0.00     0.135 A 
ATOM     92  F   UNL A   1      48.778  28.361  28.021  1.00  0.00    -0.206 F 
ATOM     93  C   UNL A   1      50.592  27.749  29.377  1.00  0.00     0.059 A 
ATOM     94  C   UNL A   1      50.188  26.830  31.592  1.00  0.00     0.059 A 
ATOM     95  F   UNL A   1      47.985  26.543  32.346  1.00  0.00    -0.206 F 
ATOM     96  C   UNL A   1      51.067  27.232  30.585  1.00  0.00     0.060 A 
BRANCH  96  97
ATOM     97  S   UNL A   1      52.850  27.129  30.845  1.00  0.00     0.124 S 
ATOM     98  O   UNL A   1      52.972  25.844  31.526  1.00  0.00    -0.237 OA
ATOM     99  O   UNL A   1      53.370  27.178  29.482  1.00  0.00    -0.237 OA
ATOM    100  O   UNL A   1      53.139  28.304  31.661  1.00  0.00    -0.744 OA
ENDBRANCH  96  97
ENDBRANCH  64  89
ENDBRANCH  38  39
ENDBRANCH  30  33
ENDBRANCH  28  29
ENDBRANCH   1  28
TORSDOF 17
ENDMDL
