MODEL 1
REMARK VINA RESULT:     -12.1      0.000      0.000
REMARK SMILES O=C(NCCCNC(=O)c1ccc(OC[C@H]2C[C@H]3CC[C@@H]2C3)c(Cl)c1)c1ccc(-c2c3nc(c(-c4c(F)cc(S(=O)(=O)[O-])cc4F)c4ccc([nH]4)c(-c4c(F)cc(S(=O)(=O)[O-])cc4F)c4nc(c(-c5c(F)cc(S(=O)(=O)[O-])cc5F)c5ccc2[nH]5)C=C4)C=C3)cc1
REMARK SMILES IDX 5 1 4 2 3 3 1 4 2 5 26 7 27 8 91 9 28 10 90 11 29 12 30 13
REMARK SMILES IDX 31 14 84 15 32 16 89 17 83 18 85 19 33 20 88 21 82 22 81 23
REMARK SMILES IDX 34 25 68 26 47 27 67 28 48 29 51 30 66 31 86 32 49 33 50 34
REMARK SMILES IDX 65 36 87 37 52 38 35 39 36 40 45 41 37 42 38 43 44 44 46 45
REMARK SMILES IDX 39 46 40 47 41 48 42 49 43 50 69 51 70 52 79 53 71 54 72 55
REMARK SMILES IDX 78 56 80 57 73 58 74 59 75 60 76 61 77 62 53 63 54 64 63 65
REMARK SMILES IDX 55 66 56 67 62 68 64 69 57 70 58 71 59 72 60 73 61 74 6 75
REMARK SMILES IDX 7 76 8 77 9 79 10 80 11 81 25 82 12 83 23 84 13 85 24 86
REMARK SMILES IDX 14 87 15 88 16 89 17 90 21 91 18 92 20 93 22 94 19 95
REMARK H PARENT 3 6 85 24 51 35 7 78
REMARK Flexibility Score: inf
ROOT
ATOM      1  C   UNL A   1      34.362  31.317  27.576  1.00  0.00     0.042 C 
ENDROOT
BRANCH   1   2
ATOM      2  C   UNL A   1      35.393  30.411  28.230  1.00  0.00     0.118 C 
BRANCH   2   3
ATOM      3  N   UNL A   1      35.441  30.598  29.675  1.00  0.00    -0.352 N 
ATOM      4  O   UNL A   1      36.147  30.253  31.779  1.00  0.00    -0.269 OA
ATOM      5  C   UNL A   1      36.419  30.275  30.582  1.00  0.00     0.251 C 
ATOM      6  H   UNL A   1      34.644  31.026  30.063  1.00  0.00     0.163 HD
BRANCH   5   7
ATOM      7  C   UNL A   1      37.786  29.955  30.121  1.00  0.00     0.039 A 
ATOM      8  C   UNL A   1      38.748  29.502  31.025  1.00  0.00     0.014 A 
ATOM      9  C   UNL A   1      38.097  30.056  28.762  1.00  0.00     0.014 A 
ATOM     10  C   UNL A   1      40.055  29.300  30.604  1.00  0.00     0.010 A 
ATOM     11  C   UNL A   1      39.386  29.747  28.321  1.00  0.00     0.010 A 
ATOM     12  C   UNL A   1      40.381  29.390  29.242  1.00  0.00    -0.014 A 
BRANCH  12  13
ATOM     13  C   UNL A   1      41.751  29.018  28.809  1.00  0.00     0.031 A 
ATOM     14  C   UNL A   1      42.870  30.018  28.820  1.00  0.00     0.074 A 
ATOM     15  C   UNL A   1      41.974  27.744  28.429  1.00  0.00     0.049 A 
ATOM     16  N   UNL A   1      44.123  29.849  28.487  1.00  0.00    -0.248 NA
ATOM     17  C   UNL A   1      42.542  31.387  29.249  1.00  0.00     0.031 C 
ATOM     18  C   UNL A   1      40.951  26.695  28.360  1.00  0.00     0.029 A 
ATOM     19  N   UNL A   1      43.124  27.108  28.043  1.00  0.00    -0.354 N 
ATOM     20  C   UNL A   1      44.731  31.089  28.641  1.00  0.00     0.074 A 
ATOM     21  C   UNL A   1      43.701  32.008  29.079  1.00  0.00     0.031 C 
ATOM     22  C   UNL A   1      41.526  25.540  27.999  1.00  0.00     0.029 A 
ATOM     23  C   UNL A   1      42.942  25.778  27.745  1.00  0.00     0.049 A 
ATOM     24  H   UNL A   1      43.997  27.559  27.985  1.00  0.00     0.167 HD
ATOM     25  C   UNL A   1      46.029  31.422  28.441  1.00  0.00     0.037 A 
ATOM     26  C   UNL A   1      43.810  24.855  27.294  1.00  0.00     0.037 A 
ATOM     27  C   UNL A   1      47.044  30.491  28.021  1.00  0.00     0.049 A 
ATOM     28  C   UNL A   1      45.240  25.252  27.077  1.00  0.00     0.074 A 
ATOM     29  C   UNL A   1      48.397  30.718  27.833  1.00  0.00     0.029 A 
ATOM     30  N   UNL A   1      46.819  29.155  27.716  1.00  0.00    -0.354 N 
ATOM     31  N   UNL A   1      45.804  26.420  27.268  1.00  0.00    -0.248 NA
ATOM     32  C   UNL A   1      46.149  24.212  26.583  1.00  0.00     0.031 C 
ATOM     33  C   UNL A   1      48.980  29.532  27.372  1.00  0.00     0.029 A 
ATOM     34  C   UNL A   1      48.002  28.552  27.317  1.00  0.00     0.049 A 
ATOM     35  H   UNL A   1      45.947  28.702  27.774  1.00  0.00     0.167 HD
ATOM     36  C   UNL A   1      47.140  26.256  26.924  1.00  0.00     0.074 A 
ATOM     37  C   UNL A   1      47.301  24.868  26.535  1.00  0.00     0.031 C 
ATOM     38  C   UNL A   1      48.141  27.171  26.927  1.00  0.00     0.037 A 
BRANCH  25  39
ATOM     39  C   UNL A   1      46.420  32.859  28.653  1.00  0.00     0.058 A 
ATOM     40  C   UNL A   1      46.331  33.813  27.626  1.00  0.00     0.135 A 
ATOM     41  C   UNL A   1      46.863  33.297  29.913  1.00  0.00     0.135 A 
ATOM     42  F   UNL A   1      45.928  33.448  26.399  1.00  0.00    -0.206 F 
ATOM     43  C   UNL A   1      46.698  35.140  27.831  1.00  0.00     0.059 A 
ATOM     44  C   UNL A   1      47.210  34.624  30.147  1.00  0.00     0.059 A 
ATOM     45  F   UNL A   1      46.965  32.428  30.931  1.00  0.00    -0.206 F 
ATOM     46  C   UNL A   1      47.140  35.536  29.094  1.00  0.00     0.060 A 
BRANCH  46  47
ATOM     47  S   UNL A   1      47.623  37.258  29.343  1.00  0.00     0.124 S 
ATOM     48  O   UNL A   1      48.901  37.305  28.638  1.00  0.00    -0.237 OA
ATOM     49  O   UNL A   1      46.527  37.985  28.712  1.00  0.00    -0.237 OA
ATOM     50  O   UNL A   1      47.702  37.384  30.794  1.00  0.00    -0.744 OA
ENDBRANCH  46  47
ENDBRANCH  25  39
BRANCH  26  51
ATOM     51  C   UNL A   1      43.329  23.479  27.007  1.00  0.00     0.058 A 
ATOM     52  C   UNL A   1      43.096  23.051  25.693  1.00  0.00     0.135 A 
ATOM     53  C   UNL A   1      43.149  22.547  28.042  1.00  0.00     0.135 A 
ATOM     54  F   UNL A   1      43.253  23.906  24.670  1.00  0.00    -0.206 F 
ATOM     55  C   UNL A   1      42.696  21.748  25.414  1.00  0.00     0.059 A 
ATOM     56  C   UNL A   1      42.777  21.233  27.786  1.00  0.00     0.059 A 
ATOM     57  F   UNL A   1      43.381  22.904  29.315  1.00  0.00    -0.206 F 
ATOM     58  C   UNL A   1      42.546  20.844  26.468  1.00  0.00     0.060 A 
BRANCH  58  59
ATOM     59  S   UNL A   1      42.095  19.136  26.092  1.00  0.00     0.124 S 
ATOM     60  O   UNL A   1      40.660  19.258  25.861  1.00  0.00    -0.237 OA
ATOM     61  O   UNL A   1      42.910  18.855  24.914  1.00  0.00    -0.237 OA
ATOM     62  O   UNL A   1      42.482  18.414  27.300  1.00  0.00    -0.744 OA
ENDBRANCH  58  59
ENDBRANCH  26  51
BRANCH  38  63
ATOM     63  C   UNL A   1      49.503  26.692  26.512  1.00  0.00     0.058 A 
ATOM     64  C   UNL A   1      50.358  26.040  27.412  1.00  0.00     0.135 A 
ATOM     65  C   UNL A   1      49.939  26.852  25.187  1.00  0.00     0.135 A 
ATOM     66  F   UNL A   1      49.991  25.871  28.692  1.00  0.00    -0.206 F 
ATOM     67  C   UNL A   1      51.611  25.580  27.020  1.00  0.00     0.059 A 
ATOM     68  C   UNL A   1      51.176  26.378  24.765  1.00  0.00     0.059 A 
ATOM     69  F   UNL A   1      49.154  27.463  24.285  1.00  0.00    -0.206 F 
ATOM     70  C   UNL A   1      52.010  25.754  25.692  1.00  0.00     0.060 A 
BRANCH  70  71
ATOM     71  S   UNL A   1      53.625  25.126  25.186  1.00  0.00     0.124 S 
ATOM     72  O   UNL A   1      54.506  25.759  26.160  1.00  0.00    -0.237 OA
ATOM     73  O   UNL A   1      53.458  23.682  25.326  1.00  0.00    -0.237 OA
ATOM     74  O   UNL A   1      53.759  25.605  23.813  1.00  0.00    -0.744 OA
ENDBRANCH  70  71
ENDBRANCH  38  63
ENDBRANCH  12  13
ENDBRANCH   5   7
ENDBRANCH   2   3
ENDBRANCH   1   2
BRANCH   1  75
ATOM     75  C   UNL A   1      33.313  30.537  26.798  1.00  0.00     0.118 C 
BRANCH  75  76
ATOM     76  N   UNL A   1      32.621  29.571  27.640  1.00  0.00    -0.352 N 
ATOM     77  C   UNL A   1      32.093  28.351  27.297  1.00  0.00     0.251 C 
ATOM     78  H   UNL A   1      32.518  29.827  28.586  1.00  0.00     0.163 HD
ATOM     79  O   UNL A   1      31.341  27.752  28.054  1.00  0.00    -0.269 OA
BRANCH  77  80
ATOM     80  C   UNL A   1      32.442  27.761  25.993  1.00  0.00     0.041 A 
ATOM     81  C   UNL A   1      33.630  27.050  25.852  1.00  0.00     0.018 A 
ATOM     82  C   UNL A   1      31.564  27.895  24.915  1.00  0.00     0.038 A 
ATOM     83  C   UNL A   1      33.970  26.534  24.612  1.00  0.00     0.049 A 
ATOM     84  C   UNL A   1      31.881  27.317  23.678  1.00  0.00     0.083 A 
ATOM     85  C   UNL A   1      33.072  26.594  23.535  1.00  0.00     0.137 A 
ATOM     86  Cl  UNL A   1      30.750  27.583  22.405  1.00  0.00    -0.080 Cl
BRANCH  85  87
ATOM     87  O   UNL A   1      33.522  25.849  22.487  1.00  0.00    -0.492 OA
BRANCH  87  88
ATOM     88  C   UNL A   1      32.722  24.817  21.927  1.00  0.00     0.233 C 
BRANCH  88  89
ATOM     89  C   UNL A   1      32.859  23.377  22.462  1.00  0.00     0.030 C 
ATOM     90  C   UNL A   1      34.224  23.084  23.138  1.00  0.00     0.011 C 
ATOM     91  C   UNL A   1      31.875  22.739  23.469  1.00  0.00    -0.004 C 
ATOM     92  C   UNL A   1      33.855  22.128  24.294  1.00  0.00    -0.010 C 
ATOM     93  C   UNL A   1      31.922  23.407  24.857  1.00  0.00     0.004 C 
ATOM     94  C   UNL A   1      32.609  21.422  23.764  1.00  0.00     0.007 C 
ATOM     95  C   UNL A   1      33.262  22.956  25.439  1.00  0.00     0.004 C 
ENDBRANCH  88  89
ENDBRANCH  87  88
ENDBRANCH  85  87
ENDBRANCH  77  80
ENDBRANCH  75  76
ENDBRANCH   1  75
TORSDOF 16
ENDMDL
MODEL 2
REMARK VINA RESULT:     -11.9      6.696     12.081
REMARK SMILES O=C(NCCCNC(=O)c1ccc(OC[C@H]2C[C@H]3CC[C@@H]2C3)c(Cl)c1)c1ccc(-c2c3nc(c(-c4c(F)cc(S(=O)(=O)[O-])cc4F)c4ccc([nH]4)c(-c4c(F)cc(S(=O)(=O)[O-])cc4F)c4nc(c(-c5c(F)cc(S(=O)(=O)[O-])cc5F)c5ccc2[nH]5)C=C4)C=C3)cc1
REMARK SMILES IDX 5 1 4 2 3 3 1 4 2 5 26 7 27 8 91 9 28 10 90 11 29 12 30 13
REMARK SMILES IDX 31 14 84 15 32 16 89 17 83 18 85 19 33 20 88 21 82 22 81 23
REMARK SMILES IDX 34 25 68 26 47 27 67 28 48 29 51 30 66 31 86 32 49 33 50 34
REMARK SMILES IDX 65 36 87 37 52 38 35 39 36 40 45 41 37 42 38 43 44 44 46 45
REMARK SMILES IDX 39 46 40 47 41 48 42 49 43 50 69 51 70 52 79 53 71 54 72 55
REMARK SMILES IDX 78 56 80 57 73 58 74 59 75 60 76 61 77 62 53 63 54 64 63 65
REMARK SMILES IDX 55 66 56 67 62 68 64 69 57 70 58 71 59 72 60 73 61 74 6 75
REMARK SMILES IDX 7 76 8 77 9 79 10 80 11 81 25 82 12 83 23 84 13 85 24 86
REMARK SMILES IDX 14 87 15 88 16 89 17 90 21 91 18 92 20 93 22 94 19 95
REMARK H PARENT 3 6 85 24 51 35 7 78
REMARK Flexibility Score: inf
ROOT
ATOM      1  C   UNL A   1      37.411  23.270  25.654  1.00  0.00     0.042 C 
ENDROOT
BRANCH   1   2
ATOM      2  C   UNL A   1      38.303  24.151  26.515  1.00  0.00     0.118 C 
BRANCH   2   3
ATOM      3  N   UNL A   1      39.695  24.099  26.085  1.00  0.00    -0.352 N 
ATOM      4  O   UNL A   1      41.767  24.875  25.702  1.00  0.00    -0.269 OA
ATOM      5  C   UNL A   1      40.751  24.922  26.389  1.00  0.00     0.251 C 
ATOM      6  H   UNL A   1      39.914  23.353  25.482  1.00  0.00     0.163 HD
BRANCH   5   7
ATOM      7  C   UNL A   1      40.664  25.856  27.529  1.00  0.00     0.039 A 
ATOM      8  C   UNL A   1      41.498  26.973  27.594  1.00  0.00     0.014 A 
ATOM      9  C   UNL A   1      39.700  25.647  28.521  1.00  0.00     0.014 A 
ATOM     10  C   UNL A   1      41.480  27.789  28.716  1.00  0.00     0.010 A 
ATOM     11  C   UNL A   1      39.609  26.532  29.597  1.00  0.00     0.010 A 
ATOM     12  C   UNL A   1      40.514  27.596  29.715  1.00  0.00    -0.014 A 
BRANCH  12  13
ATOM     13  C   UNL A   1      40.425  28.580  30.822  1.00  0.00     0.031 A 
ATOM     14  C   UNL A   1      41.343  28.503  32.008  1.00  0.00     0.074 A 
ATOM     15  C   UNL A   1      39.513  29.568  30.726  1.00  0.00     0.049 A 
ATOM     16  N   UNL A   1      41.404  29.291  33.050  1.00  0.00    -0.248 NA
ATOM     17  C   UNL A   1      42.311  27.395  32.036  1.00  0.00     0.031 C 
ATOM     18  C   UNL A   1      38.555  29.723  29.625  1.00  0.00     0.029 A 
ATOM     19  N   UNL A   1      39.246  30.631  31.547  1.00  0.00    -0.354 N 
ATOM     20  C   UNL A   1      42.395  28.767  33.869  1.00  0.00     0.074 A 
ATOM     21  C   UNL A   1      42.896  27.577  33.212  1.00  0.00     0.031 C 
ATOM     22  C   UNL A   1      37.837  30.838  29.819  1.00  0.00     0.029 A 
ATOM     23  C   UNL A   1      38.234  31.439  31.086  1.00  0.00     0.049 A 
ATOM     24  H   UNL A   1      39.731  30.799  32.387  1.00  0.00     0.167 HD
ATOM     25  C   UNL A   1      42.847  29.240  35.056  1.00  0.00     0.037 A 
ATOM     26  C   UNL A   1      37.668  32.531  31.631  1.00  0.00     0.037 A 
ATOM     27  C   UNL A   1      42.349  30.435  35.688  1.00  0.00     0.049 A 
ATOM     28  C   UNL A   1      38.183  33.031  32.948  1.00  0.00     0.074 A 
ATOM     29  C   UNL A   1      42.769  31.026  36.867  1.00  0.00     0.029 A 
ATOM     30  N   UNL A   1      41.313  31.221  35.198  1.00  0.00    -0.354 N 
ATOM     31  N   UNL A   1      39.150  32.544  33.689  1.00  0.00    -0.248 NA
ATOM     32  C   UNL A   1      37.534  34.224  33.504  1.00  0.00     0.031 C 
ATOM     33  C   UNL A   1      41.960  32.140  37.113  1.00  0.00     0.029 A 
ATOM     34  C   UNL A   1      41.065  32.275  36.062  1.00  0.00     0.049 A 
ATOM     35  H   UNL A   1      40.827  31.053  34.358  1.00  0.00     0.167 HD
ATOM     36  C   UNL A   1      39.232  33.376  34.798  1.00  0.00     0.074 A 
ATOM     37  C   UNL A   1      38.231  34.409  34.618  1.00  0.00     0.031 C 
ATOM     38  C   UNL A   1      40.059  33.290  35.869  1.00  0.00     0.037 A 
BRANCH  25  39
ATOM     39  C   UNL A   1      43.919  28.453  35.759  1.00  0.00     0.058 A 
ATOM     40  C   UNL A   1      43.613  27.400  36.636  1.00  0.00     0.135 A 
ATOM     41  C   UNL A   1      45.275  28.738  35.528  1.00  0.00     0.135 A 
ATOM     42  F   UNL A   1      42.334  27.094  36.904  1.00  0.00    -0.206 F 
ATOM     43  C   UNL A   1      44.612  26.679  37.283  1.00  0.00     0.059 A 
ATOM     44  C   UNL A   1      46.291  28.013  36.145  1.00  0.00     0.059 A 
ATOM     45  F   UNL A   1      45.625  29.733  34.698  1.00  0.00    -0.206 F 
ATOM     46  C   UNL A   1      45.949  26.995  37.035  1.00  0.00     0.060 A 
BRANCH  46  47
ATOM     47  S   UNL A   1      47.234  26.059  37.890  1.00  0.00     0.124 S 
ATOM     48  O   UNL A   1      48.432  26.496  37.179  1.00  0.00    -0.237 OA
ATOM     49  O   UNL A   1      47.106  26.533  39.264  1.00  0.00    -0.237 OA
ATOM     50  O   UNL A   1      46.847  24.669  37.671  1.00  0.00    -0.744 OA
ENDBRANCH  46  47
ENDBRANCH  25  39
BRANCH  26  51
ATOM     51  C   UNL A   1      36.541  33.197  30.929  1.00  0.00     0.058 A 
ATOM     52  C   UNL A   1      35.227  33.095  31.404  1.00  0.00     0.135 A 
ATOM     53  C   UNL A   1      36.769  33.999  29.799  1.00  0.00     0.135 A 
ATOM     54  F   UNL A   1      34.959  32.339  32.481  1.00  0.00    -0.206 F 
ATOM     55  C   UNL A   1      34.176  33.760  30.781  1.00  0.00     0.059 A 
ATOM     56  C   UNL A   1      35.740  34.695  29.176  1.00  0.00     0.059 A 
ATOM     57  F   UNL A   1      38.014  34.145  29.319  1.00  0.00    -0.206 F 
ATOM     58  C   UNL A   1      34.444  34.563  29.671  1.00  0.00     0.060 A 
BRANCH  58  59
ATOM     59  S   UNL A   1      33.086  35.478  28.911  1.00  0.00     0.124 S 
ATOM     60  O   UNL A   1      32.428  34.433  28.135  1.00  0.00    -0.237 OA
ATOM     61  O   UNL A   1      32.353  35.966  30.075  1.00  0.00    -0.237 OA
ATOM     62  O   UNL A   1      33.769  36.508  28.134  1.00  0.00    -0.744 OA
ENDBRANCH  58  59
ENDBRANCH  26  51
BRANCH  38  63
ATOM     63  C   UNL A   1      39.923  34.353  36.922  1.00  0.00     0.058 A 
ATOM     64  C   UNL A   1      40.520  35.614  36.772  1.00  0.00     0.135 A 
ATOM     65  C   UNL A   1      39.154  34.121  38.072  1.00  0.00     0.135 A 
ATOM     66  F   UNL A   1      41.274  35.882  35.694  1.00  0.00    -0.206 F 
ATOM     67  C   UNL A   1      40.377  36.604  37.739  1.00  0.00     0.059 A 
ATOM     68  C   UNL A   1      38.975  35.104  39.040  1.00  0.00     0.059 A 
ATOM     69  F   UNL A   1      38.555  32.933  38.258  1.00  0.00    -0.206 F 
ATOM     70  C   UNL A   1      39.601  36.339  38.869  1.00  0.00     0.060 A 
BRANCH  70  71
ATOM     71  S   UNL A   1      39.395  37.641  40.103  1.00  0.00     0.124 S 
ATOM     72  O   UNL A   1      40.678  38.330  40.019  1.00  0.00    -0.237 OA
ATOM     73  O   UNL A   1      38.244  38.378  39.591  1.00  0.00    -0.237 OA
ATOM     74  O   UNL A   1      39.159  36.901  41.340  1.00  0.00    -0.744 OA
ENDBRANCH  70  71
ENDBRANCH  38  63
ENDBRANCH  12  13
ENDBRANCH   5   7
ENDBRANCH   2   3
ENDBRANCH   1   2
BRANCH   1  75
ATOM     75  C   UNL A   1      36.081  23.931  25.329  1.00  0.00     0.118 C 
BRANCH  75  76
ATOM     76  N   UNL A   1      34.971  23.280  26.011  1.00  0.00    -0.352 N 
ATOM     77  C   UNL A   1      33.699  23.748  26.227  1.00  0.00     0.251 C 
ATOM     78  H   UNL A   1      35.158  22.380  26.365  1.00  0.00     0.163 HD
ATOM     79  O   UNL A   1      32.944  23.189  27.012  1.00  0.00    -0.269 OA
BRANCH  77  80
ATOM     80  C   UNL A   1      33.242  24.945  25.499  1.00  0.00     0.041 A 
ATOM     81  C   UNL A   1      33.311  26.193  26.111  1.00  0.00     0.018 A 
ATOM     82  C   UNL A   1      32.770  24.822  24.191  1.00  0.00     0.038 A 
ATOM     83  C   UNL A   1      32.841  27.307  25.436  1.00  0.00     0.049 A 
ATOM     84  C   UNL A   1      32.354  25.960  23.487  1.00  0.00     0.083 A 
ATOM     85  C   UNL A   1      32.430  27.219  24.098  1.00  0.00     0.137 A 
ATOM     86  Cl  UNL A   1      31.745  25.689  21.898  1.00  0.00    -0.080 Cl
BRANCH  85  87
ATOM     87  O   UNL A   1      32.209  28.458  23.575  1.00  0.00    -0.492 OA
BRANCH  87  88
ATOM     88  C   UNL A   1      31.022  29.178  23.877  1.00  0.00     0.233 C 
BRANCH  88  89
ATOM     89  C   UNL A   1      29.949  29.364  22.784  1.00  0.00     0.030 C 
ATOM     90  C   UNL A   1      28.624  28.606  23.069  1.00  0.00     0.011 C 
ATOM     91  C   UNL A   1      29.421  30.742  22.325  1.00  0.00    -0.004 C 
ATOM     92  C   UNL A   1      27.541  29.557  22.514  1.00  0.00    -0.010 C 
ATOM     93  C   UNL A   1      28.628  31.475  23.424  1.00  0.00     0.004 C 
ATOM     94  C   UNL A   1      28.277  30.297  21.400  1.00  0.00     0.007 C 
ATOM     95  C   UNL A   1      27.322  30.687  23.526  1.00  0.00     0.004 C 
ENDBRANCH  88  89
ENDBRANCH  87  88
ENDBRANCH  85  87
ENDBRANCH  77  80
ENDBRANCH  75  76
ENDBRANCH   1  75
TORSDOF 16
ENDMDL
MODEL 3
REMARK VINA RESULT:     -11.9      3.007      9.084
REMARK SMILES O=C(NCCCNC(=O)c1ccc(OC[C@H]2C[C@H]3CC[C@@H]2C3)c(Cl)c1)c1ccc(-c2c3nc(c(-c4c(F)cc(S(=O)(=O)[O-])cc4F)c4ccc([nH]4)c(-c4c(F)cc(S(=O)(=O)[O-])cc4F)c4nc(c(-c5c(F)cc(S(=O)(=O)[O-])cc5F)c5ccc2[nH]5)C=C4)C=C3)cc1
REMARK SMILES IDX 5 1 4 2 3 3 1 4 2 5 26 7 27 8 91 9 28 10 90 11 29 12 30 13
REMARK SMILES IDX 31 14 84 15 32 16 89 17 83 18 85 19 33 20 88 21 82 22 81 23
REMARK SMILES IDX 34 25 68 26 47 27 67 28 48 29 51 30 66 31 86 32 49 33 50 34
REMARK SMILES IDX 65 36 87 37 52 38 35 39 36 40 45 41 37 42 38 43 44 44 46 45
REMARK SMILES IDX 39 46 40 47 41 48 42 49 43 50 69 51 70 52 79 53 71 54 72 55
REMARK SMILES IDX 78 56 80 57 73 58 74 59 75 60 76 61 77 62 53 63 54 64 63 65
REMARK SMILES IDX 55 66 56 67 62 68 64 69 57 70 58 71 59 72 60 73 61 74 6 75
REMARK SMILES IDX 7 76 8 77 9 79 10 80 11 81 25 82 12 83 23 84 13 85 24 86
REMARK SMILES IDX 14 87 15 88 16 89 17 90 21 91 18 92 20 93 22 94 19 95
REMARK H PARENT 3 6 85 24 51 35 7 78
REMARK Flexibility Score: inf
ROOT
ATOM      1  C   UNL A   1      33.925  27.987  25.408  1.00  0.00     0.042 C 
ENDROOT
BRANCH   1   2
ATOM      2  C   UNL A   1      33.899  28.131  26.921  1.00  0.00     0.118 C 
BRANCH   2   3
ATOM      3  N   UNL A   1      33.689  29.515  27.331  1.00  0.00    -0.352 N 
ATOM      4  O   UNL A   1      33.995  31.375  28.551  1.00  0.00    -0.269 OA
ATOM      5  C   UNL A   1      34.479  30.350  28.082  1.00  0.00     0.251 C 
ATOM      6  H   UNL A   1      32.847  29.916  27.018  1.00  0.00     0.163 HD
BRANCH   5   7
ATOM      7  C   UNL A   1      35.897  30.016  28.323  1.00  0.00     0.039 A 
ATOM      8  C   UNL A   1      36.847  30.193  27.316  1.00  0.00     0.014 A 
ATOM      9  C   UNL A   1      36.296  29.571  29.587  1.00  0.00     0.014 A 
ATOM     10  C   UNL A   1      38.157  29.782  27.516  1.00  0.00     0.010 A 
ATOM     11  C   UNL A   1      37.638  29.261  29.823  1.00  0.00     0.010 A 
ATOM     12  C   UNL A   1      38.574  29.341  28.781  1.00  0.00    -0.014 A 
BRANCH  12  13
ATOM     13  C   UNL A   1      40.014  29.058  29.001  1.00  0.00     0.031 A 
ATOM     14  C   UNL A   1      40.613  27.734  28.625  1.00  0.00     0.074 A 
ATOM     15  C   UNL A   1      40.783  30.033  29.524  1.00  0.00     0.049 A 
ATOM     16  N   UNL A   1      41.852  27.333  28.737  1.00  0.00    -0.248 NA
ATOM     17  C   UNL A   1      39.705  26.723  28.058  1.00  0.00     0.031 C 
ATOM     18  C   UNL A   1      40.297  31.352  29.946  1.00  0.00     0.029 A 
ATOM     19  N   UNL A   1      42.127  30.080  29.780  1.00  0.00    -0.354 N 
ATOM     20  C   UNL A   1      41.874  26.021  28.281  1.00  0.00     0.074 A 
ATOM     21  C   UNL A   1      40.516  25.685  27.909  1.00  0.00     0.031 C 
ATOM     22  C   UNL A   1      41.333  32.090  30.367  1.00  0.00     0.029 A 
ATOM     23  C   UNL A   1      42.543  31.279  30.309  1.00  0.00     0.049 A 
ATOM     24  H   UNL A   1      42.737  29.328  29.602  1.00  0.00     0.167 HD
ATOM     25  C   UNL A   1      42.933  25.182  28.178  1.00  0.00     0.037 A 
ATOM     26  C   UNL A   1      43.758  31.678  30.726  1.00  0.00     0.037 A 
ATOM     27  C   UNL A   1      44.281  25.538  28.538  1.00  0.00     0.049 A 
ATOM     28  C   UNL A   1      44.912  30.727  30.605  1.00  0.00     0.074 A 
ATOM     29  C   UNL A   1      45.432  24.776  28.431  1.00  0.00     0.029 A 
ATOM     30  N   UNL A   1      44.662  26.757  29.084  1.00  0.00    -0.354 N 
ATOM     31  N   UNL A   1      44.920  29.503  30.133  1.00  0.00    -0.248 NA
ATOM     32  C   UNL A   1      46.218  31.206  31.074  1.00  0.00     0.031 C 
ATOM     33  C   UNL A   1      46.499  25.517  28.951  1.00  0.00     0.029 A 
ATOM     34  C   UNL A   1      46.024  26.760  29.341  1.00  0.00     0.049 A 
ATOM     35  H   UNL A   1      44.053  27.510  29.262  1.00  0.00     0.167 HD
ATOM     36  C   UNL A   1      46.234  29.066  30.240  1.00  0.00     0.074 A 
ATOM     37  C   UNL A   1      46.995  30.166  30.801  1.00  0.00     0.031 C 
ATOM     38  C   UNL A   1      46.762  27.862  29.906  1.00  0.00     0.037 A 
BRANCH  25  39
ATOM     39  C   UNL A   1      42.671  23.788  27.677  1.00  0.00     0.058 A 
ATOM     40  C   UNL A   1      42.440  22.715  28.552  1.00  0.00     0.135 A 
ATOM     41  C   UNL A   1      42.622  23.527  26.297  1.00  0.00     0.135 A 
ATOM     42  F   UNL A   1      42.488  22.903  29.880  1.00  0.00    -0.206 F 
ATOM     43  C   UNL A   1      42.200  21.427  28.079  1.00  0.00     0.059 A 
ATOM     44  C   UNL A   1      42.360  22.253  25.801  1.00  0.00     0.059 A 
ATOM     45  F   UNL A   1      42.835  24.516  25.415  1.00  0.00    -0.206 F 
ATOM     46  C   UNL A   1      42.166  21.205  26.701  1.00  0.00     0.060 A 
BRANCH  46  47
ATOM     47  S   UNL A   1      41.866  19.529  26.101  1.00  0.00     0.124 S 
ATOM     48  O   UNL A   1      40.424  19.557  25.875  1.00  0.00    -0.237 OA
ATOM     49  O   UNL A   1      42.693  19.473  24.901  1.00  0.00    -0.237 OA
ATOM     50  O   UNL A   1      42.311  18.687  27.206  1.00  0.00    -0.744 OA
ENDBRANCH  46  47
ENDBRANCH  25  39
BRANCH  26  51
ATOM     51  C   UNL A   1      43.922  33.035  31.308  1.00  0.00     0.058 A 
ATOM     52  C   UNL A   1      44.129  34.155  30.491  1.00  0.00     0.135 A 
ATOM     53  C   UNL A   1      43.814  33.243  32.692  1.00  0.00     0.135 A 
ATOM     54  F   UNL A   1      44.241  34.006  29.162  1.00  0.00    -0.206 F 
ATOM     55  C   UNL A   1      44.231  35.435  31.027  1.00  0.00     0.059 A 
ATOM     56  C   UNL A   1      43.883  34.516  33.248  1.00  0.00     0.059 A 
ATOM     57  F   UNL A   1      43.593  32.204  33.512  1.00  0.00    -0.206 F 
ATOM     58  C   UNL A   1      44.100  35.605  32.407  1.00  0.00     0.060 A 
BRANCH  58  59
ATOM     59  S   UNL A   1      44.161  37.277  33.086  1.00  0.00     0.124 S 
ATOM     60  O   UNL A   1      45.432  37.254  33.802  1.00  0.00    -0.237 OA
ATOM     61  O   UNL A   1      44.121  38.101  31.882  1.00  0.00    -0.237 OA
ATOM     62  O   UNL A   1      42.967  37.343  33.921  1.00  0.00    -0.744 OA
ENDBRANCH  58  59
ENDBRANCH  26  51
BRANCH  38  63
ATOM     63  C   UNL A   1      48.237  27.680  30.127  1.00  0.00     0.058 A 
ATOM     64  C   UNL A   1      49.175  28.046  29.150  1.00  0.00     0.135 A 
ATOM     65  C   UNL A   1      48.717  27.173  31.344  1.00  0.00     0.135 A 
ATOM     66  F   UNL A   1      48.766  28.526  27.965  1.00  0.00    -0.206 F 
ATOM     67  C   UNL A   1      50.541  27.894  29.364  1.00  0.00     0.059 A 
ATOM     68  C   UNL A   1      50.078  27.037  31.591  1.00  0.00     0.059 A 
ATOM     69  F   UNL A   1      47.858  26.817  32.314  1.00  0.00    -0.206 F 
ATOM     70  C   UNL A   1      50.983  27.390  30.590  1.00  0.00     0.060 A 
BRANCH  70  71
ATOM     71  S   UNL A   1      52.759  27.227  30.869  1.00  0.00     0.124 S 
ATOM     72  O   UNL A   1      52.795  26.674  32.218  1.00  0.00    -0.237 OA
ATOM     73  O   UNL A   1      53.162  26.318  29.800  1.00  0.00    -0.237 OA
ATOM     74  O   UNL A   1      53.249  28.596  30.738  1.00  0.00    -0.744 OA
ENDBRANCH  70  71
ENDBRANCH  38  63
ENDBRANCH  12  13
ENDBRANCH   5   7
ENDBRANCH   2   3
ENDBRANCH   1   2
BRANCH   1  75
ATOM     75  C   UNL A   1      32.869  27.019  24.898  1.00  0.00     0.118 C 
BRANCH  75  76
ATOM     76  N   UNL A   1      32.930  26.861  23.452  1.00  0.00    -0.352 N 
ATOM     77  C   UNL A   1      33.510  25.857  22.718  1.00  0.00     0.251 C 
ATOM     78  H   UNL A   1      32.494  27.572  22.928  1.00  0.00     0.163 HD
ATOM     79  O   UNL A   1      33.683  25.974  21.512  1.00  0.00    -0.269 OA
BRANCH  77  80
ATOM     80  C   UNL A   1      33.932  24.622  23.402  1.00  0.00     0.041 A 
ATOM     81  C   UNL A   1      33.252  23.432  23.160  1.00  0.00     0.018 A 
ATOM     82  C   UNL A   1      35.029  24.648  24.265  1.00  0.00     0.038 A 
ATOM     83  C   UNL A   1      33.628  22.285  23.839  1.00  0.00     0.049 A 
ATOM     84  C   UNL A   1      35.447  23.472  24.901  1.00  0.00     0.083 A 
ATOM     85  C   UNL A   1      34.770  22.271  24.654  1.00  0.00     0.137 A 
ATOM     86  Cl  UNL A   1      36.782  23.626  25.981  1.00  0.00    -0.080 Cl
BRANCH  85  87
ATOM     87  O   UNL A   1      35.068  21.002  25.049  1.00  0.00    -0.492 OA
BRANCH  87  88
ATOM     88  C   UNL A   1      34.047  20.030  25.224  1.00  0.00     0.233 C 
BRANCH  88  89
ATOM     89  C   UNL A   1      33.980  18.820  24.269  1.00  0.00     0.030 C 
ATOM     90  C   UNL A   1      35.105  17.774  24.499  1.00  0.00     0.011 C 
ATOM     91  C   UNL A   1      32.740  17.908  24.124  1.00  0.00    -0.004 C 
ATOM     92  C   UNL A   1      34.404  16.427  24.219  1.00  0.00    -0.010 C 
ATOM     93  C   UNL A   1      32.443  17.096  25.399  1.00  0.00     0.004 C 
ATOM     94  C   UNL A   1      33.318  16.811  23.217  1.00  0.00     0.007 C 
ATOM     95  C   UNL A   1      33.561  16.054  25.443  1.00  0.00     0.004 C 
ENDBRANCH  88  89
ENDBRANCH  87  88
ENDBRANCH  85  87
ENDBRANCH  77  80
ENDBRANCH  75  76
ENDBRANCH   1  75
TORSDOF 16
ENDMDL
