MODEL 1
REMARK VINA RESULT:     -12.6      0.000      0.000
REMARK SMILES O=C(NCCCNC(=O)c1ccc(-c2c3nc(c(-c4c(F)cc(S(=O)(=O)[O-])cc4F)c4ccc([nH]4)c(-c4c(F)cc(S(=O)(=O)[O-])cc4F)c4nc(c(-c5c(F)cc(S(=O)(=O)[O-])cc5F)c5ccc2[nH]5)C=C4)C=C3)cc1)C1=C([O-])N(c2ccc3c(c2)OCCO3)CC1
REMARK SMILES IDX 6 1 5 2 4 3 3 4 1 5 2 6 76 8 77 9 91 10 78 11 79 12 90 13
REMARK SMILES IDX 80 14 81 15 85 16 82 17 84 18 83 19 86 20 89 21 87 22 88 23
REMARK SMILES IDX 7 24 8 25 9 27 10 28 11 29 75 30 12 31 74 32 13 33 14 34
REMARK SMILES IDX 15 35 68 36 16 37 73 38 67 39 69 40 17 41 72 42 66 43 65 44
REMARK SMILES IDX 18 46 52 47 31 48 51 49 32 50 35 51 50 52 70 53 33 54 34 55
REMARK SMILES IDX 49 57 71 58 36 59 19 60 20 61 29 62 21 63 22 64 28 65 30 66
REMARK SMILES IDX 23 67 24 68 25 69 26 70 27 71 53 72 54 73 63 74 55 75 56 76
REMARK SMILES IDX 62 77 64 78 57 79 58 80 59 81 60 82 61 83 37 84 38 85 47 86
REMARK SMILES IDX 39 87 40 88 46 89 48 90 41 91 42 92 43 93 44 94 45 95
REMARK H PARENT 3 7 7 26 69 45 35 56
REMARK Flexibility Score: inf
ROOT
ATOM      1  C   UNL A   1      33.456  28.511  27.220  1.00  0.00     0.118 C 
ENDROOT
BRANCH   1   2
ATOM      2  C   UNL A   1      33.660  28.323  25.726  1.00  0.00     0.042 C 
BRANCH   2   3
ATOM      3  C   UNL A   1      33.718  26.874  25.278  1.00  0.00     0.118 C 
BRANCH   3   4
ATOM      4  N   UNL A   1      33.907  26.713  23.843  1.00  0.00    -0.352 N 
ATOM      5  O   UNL A   1      33.866  25.722  21.824  1.00  0.00    -0.270 OA
ATOM      6  C   UNL A   1      33.626  25.654  23.034  1.00  0.00     0.248 C 
ATOM      7  H   UNL A   1      34.301  27.491  23.386  1.00  0.00     0.163 HD
BRANCH   6   8
ATOM      8  C   UNL A   1      32.989  24.487  23.627  1.00  0.00     0.027 C 
ATOM      9  C   UNL A   1      33.509  23.253  23.724  1.00  0.00    -0.028 C 
ATOM     10  C   UNL A   1      31.587  24.481  24.163  1.00  0.00     0.064 C 
ATOM     11  O   UNL A   1      34.718  22.840  23.275  1.00  0.00    -0.860 OA
ATOM     12  N   UNL A   1      32.703  22.411  24.462  1.00  0.00    -0.354 N 
ATOM     13  C   UNL A   1      31.588  23.211  25.030  1.00  0.00     0.126 C 
BRANCH  12  14
ATOM     14  C   UNL A   1      32.278  21.119  24.084  1.00  0.00     0.044 A 
ATOM     15  C   UNL A   1      32.063  20.851  22.724  1.00  0.00     0.030 A 
ATOM     16  C   UNL A   1      32.417  20.056  24.988  1.00  0.00     0.076 A 
ATOM     17  C   UNL A   1      32.149  19.545  22.244  1.00  0.00     0.052 A 
ATOM     18  C   UNL A   1      32.627  18.777  24.496  1.00  0.00     0.163 A 
ATOM     19  C   UNL A   1      32.529  18.537  23.123  1.00  0.00     0.161 A 
ATOM     20  O   UNL A   1      33.097  17.856  25.396  1.00  0.00    -0.486 OA
ATOM     21  O   UNL A   1      32.959  17.351  22.577  1.00  0.00    -0.486 OA
ATOM     22  C   UNL A   1      33.719  16.720  24.781  1.00  0.00     0.271 C 
ATOM     23  C   UNL A   1      34.114  16.951  23.328  1.00  0.00     0.271 C 
ENDBRANCH  12  14
ENDBRANCH   6   8
ENDBRANCH   3   4
ENDBRANCH   2   3
ENDBRANCH   1   2
BRANCH   1  24
ATOM     24  N   UNL A   1      33.484  29.912  27.631  1.00  0.00    -0.352 N 
ATOM     25  C   UNL A   1      34.487  30.641  28.221  1.00  0.00     0.251 C 
ATOM     26  H   UNL A   1      32.654  30.412  27.458  1.00  0.00     0.163 HD
ATOM     27  O   UNL A   1      34.248  31.779  28.634  1.00  0.00    -0.269 OA
BRANCH  25  28
ATOM     28  C   UNL A   1      35.832  30.057  28.396  1.00  0.00     0.039 A 
ATOM     29  C   UNL A   1      36.720  30.052  27.316  1.00  0.00     0.014 A 
ATOM     30  C   UNL A   1      36.230  29.536  29.627  1.00  0.00     0.014 A 
ATOM     31  C   UNL A   1      38.036  29.620  27.501  1.00  0.00     0.010 A 
ATOM     32  C   UNL A   1      37.562  29.197  29.836  1.00  0.00     0.010 A 
ATOM     33  C   UNL A   1      38.482  29.242  28.777  1.00  0.00    -0.014 A 
BRANCH  33  34
ATOM     34  C   UNL A   1      39.903  28.898  29.049  1.00  0.00     0.031 A 
ATOM     35  C   UNL A   1      40.843  29.956  29.560  1.00  0.00     0.074 A 
ATOM     36  C   UNL A   1      40.369  27.673  28.731  1.00  0.00     0.049 A 
ATOM     37  N   UNL A   1      42.143  29.911  29.695  1.00  0.00    -0.248 NA
ATOM     38  C   UNL A   1      40.244  31.249  29.933  1.00  0.00     0.031 C 
ATOM     39  C   UNL A   1      39.568  26.573  28.189  1.00  0.00     0.029 A 
ATOM     40  N   UNL A   1      41.639  27.154  28.796  1.00  0.00    -0.354 N 
ATOM     41  C   UNL A   1      42.520  31.172  30.140  1.00  0.00     0.074 A 
ATOM     42  C   UNL A   1      41.318  31.974  30.209  1.00  0.00     0.031 C 
ATOM     43  C   UNL A   1      40.361  25.510  27.981  1.00  0.00     0.029 A 
ATOM     44  C   UNL A   1      41.733  25.863  28.329  1.00  0.00     0.049 A 
ATOM     45  H   UNL A   1      42.410  27.659  29.144  1.00  0.00     0.167 HD
ATOM     46  C   UNL A   1      43.753  31.617  30.480  1.00  0.00     0.037 A 
ATOM     47  C   UNL A   1      42.807  25.062  28.176  1.00  0.00     0.037 A 
ATOM     48  C   UNL A   1      44.939  30.802  30.445  1.00  0.00     0.049 A 
ATOM     49  C   UNL A   1      44.168  25.577  28.561  1.00  0.00     0.074 A 
ATOM     50  C   UNL A   1      46.224  31.139  30.829  1.00  0.00     0.029 A 
ATOM     51  N   UNL A   1      44.985  29.487  30.003  1.00  0.00    -0.354 N 
ATOM     52  N   UNL A   1      44.499  26.756  29.029  1.00  0.00    -0.248 NA
ATOM     53  C   UNL A   1      45.300  24.655  28.399  1.00  0.00     0.031 C 
ATOM     54  C   UNL A   1      47.055  30.041  30.585  1.00  0.00     0.029 A 
ATOM     55  C   UNL A   1      46.279  29.004  30.091  1.00  0.00     0.049 A 
ATOM     56  H   UNL A   1      44.211  28.975  29.676  1.00  0.00     0.167 HD
ATOM     57  C   UNL A   1      45.872  26.707  29.245  1.00  0.00     0.074 A 
ATOM     58  C   UNL A   1      46.308  25.382  28.860  1.00  0.00     0.031 C 
ATOM     59  C   UNL A   1      46.693  27.673  29.722  1.00  0.00     0.037 A 
BRANCH  46  60
ATOM     60  C   UNL A   1      43.881  33.047  30.924  1.00  0.00     0.058 A 
ATOM     61  C   UNL A   1      43.771  33.411  32.276  1.00  0.00     0.135 A 
ATOM     62  C   UNL A   1      44.150  34.063  29.993  1.00  0.00     0.135 A 
ATOM     63  F   UNL A   1      43.499  32.482  33.205  1.00  0.00    -0.206 F 
ATOM     64  C   UNL A   1      43.890  34.734  32.684  1.00  0.00     0.059 A 
ATOM     65  C   UNL A   1      44.302  35.391  30.383  1.00  0.00     0.059 A 
ATOM     66  F   UNL A   1      44.266  33.771  28.688  1.00  0.00    -0.206 F 
ATOM     67  C   UNL A   1      44.155  35.717  31.730  1.00  0.00     0.060 A 
BRANCH  67  68
ATOM     68  S   UNL A   1      44.310  37.431  32.278  1.00  0.00     0.124 S 
ATOM     69  O   UNL A   1      43.977  38.157  31.056  1.00  0.00    -0.237 OA
ATOM     70  O   UNL A   1      43.320  37.508  33.348  1.00  0.00    -0.237 OA
ATOM     71  O   UNL A   1      45.702  37.527  32.706  1.00  0.00    -0.744 OA
ENDBRANCH  67  68
ENDBRANCH  46  60
BRANCH  47  72
ATOM     72  C   UNL A   1      42.634  23.685  27.643  1.00  0.00     0.058 A 
ATOM     73  C   UNL A   1      42.624  23.445  26.261  1.00  0.00     0.135 A 
ATOM     74  C   UNL A   1      42.492  22.580  28.498  1.00  0.00     0.135 A 
ATOM     75  F   UNL A   1      42.749  24.469  25.403  1.00  0.00    -0.206 F 
ATOM     76  C   UNL A   1      42.467  22.163  25.743  1.00  0.00     0.059 A 
ATOM     77  C   UNL A   1      42.358  21.286  28.005  1.00  0.00     0.059 A 
ATOM     78  F   UNL A   1      42.513  22.754  29.829  1.00  0.00    -0.206 F 
ATOM     79  C   UNL A   1      42.337  21.089  26.625  1.00  0.00     0.060 A 
BRANCH  79  80
ATOM     80  S   UNL A   1      42.189  19.423  25.943  1.00  0.00     0.124 S 
ATOM     81  O   UNL A   1      40.750  19.319  25.732  1.00  0.00    -0.237 OA
ATOM     82  O   UNL A   1      43.008  19.509  24.739  1.00  0.00    -0.237 OA
ATOM     83  O   UNL A   1      42.734  18.578  27.002  1.00  0.00    -0.744 OA
ENDBRANCH  79  80
ENDBRANCH  47  72
BRANCH  59  84
ATOM     84  C   UNL A   1      48.145  27.330  29.901  1.00  0.00     0.058 A 
ATOM     85  C   UNL A   1      49.117  27.721  28.968  1.00  0.00     0.135 A 
ATOM     86  C   UNL A   1      48.578  26.675  31.067  1.00  0.00     0.135 A 
ATOM     87  F   UNL A   1      48.754  28.341  27.834  1.00  0.00    -0.206 F 
ATOM     88  C   UNL A   1      50.468  27.471  29.182  1.00  0.00     0.059 A 
ATOM     89  C   UNL A   1      49.926  26.438  31.312  1.00  0.00     0.059 A 
ATOM     90  F   UNL A   1      47.687  26.288  31.994  1.00  0.00    -0.206 F 
ATOM     91  C   UNL A   1      50.864  26.836  30.361  1.00  0.00     0.060 A 
BRANCH  91  92
ATOM     92  S   UNL A   1      52.627  26.578  30.656  1.00  0.00     0.124 S 
ATOM     93  O   UNL A   1      52.603  25.570  31.710  1.00  0.00    -0.237 OA
ATOM     94  O   UNL A   1      53.099  26.122  29.352  1.00  0.00    -0.237 OA
ATOM     95  O   UNL A   1      53.100  27.899  31.061  1.00  0.00    -0.744 OA
ENDBRANCH  91  92
ENDBRANCH  59  84
ENDBRANCH  33  34
ENDBRANCH  25  28
ENDBRANCH   1  24
TORSDOF 14
ENDMDL
MODEL 2
REMARK VINA RESULT:     -12.5      1.487      2.249
REMARK SMILES O=C(NCCCNC(=O)c1ccc(-c2c3nc(c(-c4c(F)cc(S(=O)(=O)[O-])cc4F)c4ccc([nH]4)c(-c4c(F)cc(S(=O)(=O)[O-])cc4F)c4nc(c(-c5c(F)cc(S(=O)(=O)[O-])cc5F)c5ccc2[nH]5)C=C4)C=C3)cc1)C1=C([O-])N(c2ccc3c(c2)OCCO3)CC1
REMARK SMILES IDX 6 1 5 2 4 3 3 4 1 5 2 6 76 8 77 9 91 10 78 11 79 12 90 13
REMARK SMILES IDX 80 14 81 15 85 16 82 17 84 18 83 19 86 20 89 21 87 22 88 23
REMARK SMILES IDX 7 24 8 25 9 27 10 28 11 29 75 30 12 31 74 32 13 33 14 34
REMARK SMILES IDX 15 35 68 36 16 37 73 38 67 39 69 40 17 41 72 42 66 43 65 44
REMARK SMILES IDX 18 46 52 47 31 48 51 49 32 50 35 51 50 52 70 53 33 54 34 55
REMARK SMILES IDX 49 57 71 58 36 59 19 60 20 61 29 62 21 63 22 64 28 65 30 66
REMARK SMILES IDX 23 67 24 68 25 69 26 70 27 71 53 72 54 73 63 74 55 75 56 76
REMARK SMILES IDX 62 77 64 78 57 79 58 80 59 81 60 82 61 83 37 84 38 85 47 86
REMARK SMILES IDX 39 87 40 88 46 89 48 90 41 91 42 92 43 93 44 94 45 95
REMARK H PARENT 3 7 7 26 69 45 35 56
REMARK Flexibility Score: inf
ROOT
ATOM      1  C   UNL A   1      33.492  28.674  27.162  1.00  0.00     0.118 C 
ENDROOT
BRANCH   1   2
ATOM      2  C   UNL A   1      32.109  28.204  26.742  1.00  0.00     0.042 C 
BRANCH   2   3
ATOM      3  C   UNL A   1      32.036  27.649  25.332  1.00  0.00     0.118 C 
BRANCH   3   4
ATOM      4  N   UNL A   1      30.682  27.578  24.801  1.00  0.00    -0.352 N 
ATOM      5  O   UNL A   1      28.836  26.672  23.889  1.00  0.00    -0.270 OA
ATOM      6  C   UNL A   1      29.993  26.518  24.292  1.00  0.00     0.248 C 
ATOM      7  H   UNL A   1      30.187  28.428  24.810  1.00  0.00     0.163 HD
BRANCH   6   8
ATOM      8  C   UNL A   1      30.638  25.213  24.297  1.00  0.00     0.027 C 
ATOM      9  C   UNL A   1      30.847  24.427  25.366  1.00  0.00    -0.028 C 
ATOM     10  C   UNL A   1      31.245  24.576  23.082  1.00  0.00     0.064 C 
ATOM     11  O   UNL A   1      30.521  24.695  26.652  1.00  0.00    -0.860 OA
ATOM     12  N   UNL A   1      31.359  23.197  25.007  1.00  0.00    -0.354 N 
ATOM     13  C   UNL A   1      31.365  23.108  23.525  1.00  0.00     0.126 C 
BRANCH  12  14
ATOM     14  C   UNL A   1      32.488  22.566  25.573  1.00  0.00     0.044 A 
ATOM     15  C   UNL A   1      32.672  21.193  25.355  1.00  0.00     0.030 A 
ATOM     16  C   UNL A   1      33.560  23.348  26.026  1.00  0.00     0.076 A 
ATOM     17  C   UNL A   1      33.948  20.635  25.427  1.00  0.00     0.052 A 
ATOM     18  C   UNL A   1      34.843  22.823  25.974  1.00  0.00     0.163 A 
ATOM     19  C   UNL A   1      35.032  21.480  25.639  1.00  0.00     0.161 A 
ATOM     20  O   UNL A   1      35.867  23.727  26.091  1.00  0.00    -0.486 OA
ATOM     21  O   UNL A   1      36.283  20.990  25.348  1.00  0.00    -0.486 OA
ATOM     22  C   UNL A   1      37.120  23.242  25.590  1.00  0.00     0.271 C 
ATOM     23  C   UNL A   1      36.983  22.040  24.665  1.00  0.00     0.271 C 
ENDBRANCH  12  14
ENDBRANCH   6   8
ENDBRANCH   3   4
ENDBRANCH   2   3
ENDBRANCH   1   2
BRANCH   1  24
ATOM     24  N   UNL A   1      33.508  30.053  27.641  1.00  0.00    -0.352 N 
ATOM     25  C   UNL A   1      34.497  30.754  28.286  1.00  0.00     0.251 C 
ATOM     26  H   UNL A   1      32.680  30.559  27.477  1.00  0.00     0.163 HD
ATOM     27  O   UNL A   1      34.248  31.870  28.750  1.00  0.00    -0.269 OA
BRANCH  25  28
ATOM     28  C   UNL A   1      35.840  30.164  28.458  1.00  0.00     0.039 A 
ATOM     29  C   UNL A   1      36.716  30.128  27.368  1.00  0.00     0.014 A 
ATOM     30  C   UNL A   1      36.249  29.668  29.697  1.00  0.00     0.014 A 
ATOM     31  C   UNL A   1      38.030  29.691  27.549  1.00  0.00     0.010 A 
ATOM     32  C   UNL A   1      37.580  29.324  29.897  1.00  0.00     0.010 A 
ATOM     33  C   UNL A   1      38.489  29.338  28.828  1.00  0.00    -0.014 A 
BRANCH  33  34
ATOM     34  C   UNL A   1      39.910  28.990  29.091  1.00  0.00     0.031 A 
ATOM     35  C   UNL A   1      40.856  30.045  29.598  1.00  0.00     0.074 A 
ATOM     36  C   UNL A   1      40.371  27.765  28.768  1.00  0.00     0.049 A 
ATOM     37  N   UNL A   1      42.156  29.996  29.727  1.00  0.00    -0.248 NA
ATOM     38  C   UNL A   1      40.263  31.338  29.977  1.00  0.00     0.031 C 
ATOM     39  C   UNL A   1      39.564  26.668  28.228  1.00  0.00     0.029 A 
ATOM     40  N   UNL A   1      41.640  27.242  28.825  1.00  0.00    -0.354 N 
ATOM     41  C   UNL A   1      42.539  31.255  30.171  1.00  0.00     0.074 A 
ATOM     42  C   UNL A   1      41.340  32.060  30.249  1.00  0.00     0.031 C 
ATOM     43  C   UNL A   1      40.354  25.603  28.014  1.00  0.00     0.029 A 
ATOM     44  C   UNL A   1      41.729  25.952  28.355  1.00  0.00     0.049 A 
ATOM     45  H   UNL A   1      42.415  27.744  29.170  1.00  0.00     0.167 HD
ATOM     46  C   UNL A   1      43.775  31.696  30.505  1.00  0.00     0.037 A 
ATOM     47  C   UNL A   1      42.799  25.148  28.195  1.00  0.00     0.037 A 
ATOM     48  C   UNL A   1      44.959  30.878  30.462  1.00  0.00     0.049 A 
ATOM     49  C   UNL A   1      44.163  25.659  28.573  1.00  0.00     0.074 A 
ATOM     50  C   UNL A   1      46.248  31.211  30.840  1.00  0.00     0.029 A 
ATOM     51  N   UNL A   1      44.999  29.564  30.018  1.00  0.00    -0.354 N 
ATOM     52  N   UNL A   1      44.500  26.836  29.041  1.00  0.00    -0.248 NA
ATOM     53  C   UNL A   1      45.292  24.733  28.403  1.00  0.00     0.031 C 
ATOM     54  C   UNL A   1      47.074  30.111  30.589  1.00  0.00     0.029 A 
ATOM     55  C   UNL A   1      46.292  29.078  30.097  1.00  0.00     0.049 A 
ATOM     56  H   UNL A   1      44.222  29.054  29.694  1.00  0.00     0.167 HD
ATOM     57  C   UNL A   1      45.874  26.783  29.249  1.00  0.00     0.074 A 
ATOM     58  C   UNL A   1      46.305  25.457  28.860  1.00  0.00     0.031 C 
ATOM     59  C   UNL A   1      46.701  27.746  29.723  1.00  0.00     0.037 A 
BRANCH  46  60
ATOM     60  C   UNL A   1      43.910  33.125  30.951  1.00  0.00     0.058 A 
ATOM     61  C   UNL A   1      43.857  33.481  32.308  1.00  0.00     0.135 A 
ATOM     62  C   UNL A   1      44.128  34.148  30.015  1.00  0.00     0.135 A 
ATOM     63  F   UNL A   1      43.636  32.545  33.244  1.00  0.00    -0.206 F 
ATOM     64  C   UNL A   1      43.982  34.804  32.719  1.00  0.00     0.059 A 
ATOM     65  C   UNL A   1      44.284  35.475  30.405  1.00  0.00     0.059 A 
ATOM     66  F   UNL A   1      44.187  33.864  28.703  1.00  0.00    -0.206 F 
ATOM     67  C   UNL A   1      44.194  35.794  31.759  1.00  0.00     0.060 A 
BRANCH  67  68
ATOM     68  S   UNL A   1      44.358  37.506  32.309  1.00  0.00     0.124 S 
ATOM     69  O   UNL A   1      43.951  38.235  31.111  1.00  0.00    -0.237 OA
ATOM     70  O   UNL A   1      43.426  37.564  33.431  1.00  0.00    -0.237 OA
ATOM     71  O   UNL A   1      45.769  37.617  32.662  1.00  0.00    -0.744 OA
ENDBRANCH  67  68
ENDBRANCH  46  60
BRANCH  47  72
ATOM     72  C   UNL A   1      42.620  23.772  27.661  1.00  0.00     0.058 A 
ATOM     73  C   UNL A   1      42.460  22.681  28.528  1.00  0.00     0.135 A 
ATOM     74  C   UNL A   1      42.588  23.519  26.280  1.00  0.00     0.135 A 
ATOM     75  F   UNL A   1      42.491  22.870  29.856  1.00  0.00    -0.206 F 
ATOM     76  C   UNL A   1      42.287  21.386  28.047  1.00  0.00     0.059 A 
ATOM     77  C   UNL A   1      42.393  22.238  25.775  1.00  0.00     0.059 A 
ATOM     78  F   UNL A   1      42.719  24.531  25.409  1.00  0.00    -0.206 F 
ATOM     79  C   UNL A   1      42.253  21.175  26.668  1.00  0.00     0.060 A 
BRANCH  79  80
ATOM     80  S   UNL A   1      41.974  19.499  26.055  1.00  0.00     0.124 S 
ATOM     81  O   UNL A   1      42.908  19.436  24.937  1.00  0.00    -0.237 OA
ATOM     82  O   UNL A   1      42.313  18.687  27.219  1.00  0.00    -0.237 OA
ATOM     83  O   UNL A   1      40.559  19.505  25.697  1.00  0.00    -0.744 OA
ENDBRANCH  79  80
ENDBRANCH  47  72
BRANCH  59  84
ATOM     84  C   UNL A   1      48.153  27.398  29.894  1.00  0.00     0.058 A 
ATOM     85  C   UNL A   1      49.103  27.688  28.903  1.00  0.00     0.135 A 
ATOM     86  C   UNL A   1      48.610  26.847  31.103  1.00  0.00     0.135 A 
ATOM     87  F   UNL A   1      48.715  28.207  27.727  1.00  0.00    -0.206 F 
ATOM     88  C   UNL A   1      50.456  27.438  29.102  1.00  0.00     0.059 A 
ATOM     89  C   UNL A   1      49.962  26.612  31.332  1.00  0.00     0.059 A 
ATOM     90  F   UNL A   1      47.742  26.560  32.085  1.00  0.00    -0.206 F 
ATOM     91  C   UNL A   1      50.877  26.907  30.323  1.00  0.00     0.060 A 
BRANCH  91  92
ATOM     92  S   UNL A   1      52.644  26.651  30.592  1.00  0.00     0.124 S 
ATOM     93  O   UNL A   1      52.638  25.560  31.561  1.00  0.00    -0.237 OA
ATOM     94  O   UNL A   1      53.118  26.309  29.255  1.00  0.00    -0.237 OA
ATOM     95  O   UNL A   1      53.101  27.941  31.103  1.00  0.00    -0.744 OA
ENDBRANCH  91  92
ENDBRANCH  59  84
ENDBRANCH  33  34
ENDBRANCH  25  28
ENDBRANCH   1  24
TORSDOF 14
ENDMDL
MODEL 3
REMARK VINA RESULT:     -12.3      1.180      2.243
REMARK SMILES O=C(NCCCNC(=O)c1ccc(-c2c3nc(c(-c4c(F)cc(S(=O)(=O)[O-])cc4F)c4ccc([nH]4)c(-c4c(F)cc(S(=O)(=O)[O-])cc4F)c4nc(c(-c5c(F)cc(S(=O)(=O)[O-])cc5F)c5ccc2[nH]5)C=C4)C=C3)cc1)C1=C([O-])N(c2ccc3c(c2)OCCO3)CC1
REMARK SMILES IDX 6 1 5 2 4 3 3 4 1 5 2 6 76 8 77 9 91 10 78 11 79 12 90 13
REMARK SMILES IDX 80 14 81 15 85 16 82 17 84 18 83 19 86 20 89 21 87 22 88 23
REMARK SMILES IDX 7 24 8 25 9 27 10 28 11 29 75 30 12 31 74 32 13 33 14 34
REMARK SMILES IDX 15 35 68 36 16 37 73 38 67 39 69 40 17 41 72 42 66 43 65 44
REMARK SMILES IDX 18 46 52 47 31 48 51 49 32 50 35 51 50 52 70 53 33 54 34 55
REMARK SMILES IDX 49 57 71 58 36 59 19 60 20 61 29 62 21 63 22 64 28 65 30 66
REMARK SMILES IDX 23 67 24 68 25 69 26 70 27 71 53 72 54 73 63 74 55 75 56 76
REMARK SMILES IDX 62 77 64 78 57 79 58 80 59 81 60 82 61 83 37 84 38 85 47 86
REMARK SMILES IDX 39 87 40 88 46 89 48 90 41 91 42 92 43 93 44 94 45 95
REMARK H PARENT 3 7 7 26 69 45 35 56
REMARK Flexibility Score: inf
ROOT
ATOM      1  C   UNL A   1      33.475  28.600  27.262  1.00  0.00     0.118 C 
ENDROOT
BRANCH   1   2
ATOM      2  C   UNL A   1      32.090  27.980  27.339  1.00  0.00     0.042 C 
BRANCH   2   3
ATOM      3  C   UNL A   1      31.700  27.164  26.119  1.00  0.00     0.118 C 
BRANCH   3   4
ATOM      4  N   UNL A   1      30.860  27.888  25.177  1.00  0.00    -0.352 N 
ATOM      5  O   UNL A   1      29.981  28.503  23.199  1.00  0.00    -0.270 OA
ATOM      6  C   UNL A   1      30.771  27.785  23.821  1.00  0.00     0.248 C 
ATOM      7  H   UNL A   1      30.263  28.557  25.582  1.00  0.00     0.163 HD
BRANCH   6   8
ATOM      8  C   UNL A   1      31.582  26.777  23.154  1.00  0.00     0.027 C 
ATOM      9  C   UNL A   1      31.400  25.447  23.196  1.00  0.00    -0.028 C 
ATOM     10  C   UNL A   1      32.817  27.087  22.361  1.00  0.00     0.064 C 
ATOM     11  O   UNL A   1      30.443  24.776  23.878  1.00  0.00    -0.860 OA
ATOM     12  N   UNL A   1      32.258  24.784  22.344  1.00  0.00    -0.354 N 
ATOM     13  C   UNL A   1      33.002  25.794  21.550  1.00  0.00     0.126 C 
BRANCH  12  14
ATOM     14  C   UNL A   1      33.071  23.677  22.673  1.00  0.00     0.044 A 
ATOM     15  C   UNL A   1      34.308  23.910  23.292  1.00  0.00     0.030 A 
ATOM     16  C   UNL A   1      32.507  22.394  22.708  1.00  0.00     0.076 A 
ATOM     17  C   UNL A   1      34.898  22.920  24.077  1.00  0.00     0.052 A 
ATOM     18  C   UNL A   1      33.026  21.455  23.587  1.00  0.00     0.163 A 
ATOM     19  C   UNL A   1      34.197  21.739  24.294  1.00  0.00     0.161 A 
ATOM     20  O   UNL A   1      32.238  20.361  23.832  1.00  0.00    -0.486 OA
ATOM     21  O   UNL A   1      34.607  20.943  25.338  1.00  0.00    -0.486 OA
ATOM     22  C   UNL A   1      32.575  19.671  25.043  1.00  0.00     0.271 C 
ATOM     23  C   UNL A   1      33.416  20.500  26.005  1.00  0.00     0.271 C 
ENDBRANCH  12  14
ENDBRANCH   6   8
ENDBRANCH   3   4
ENDBRANCH   2   3
ENDBRANCH   1   2
BRANCH   1  24
ATOM     24  N   UNL A   1      33.503  29.995  27.694  1.00  0.00    -0.352 N 
ATOM     25  C   UNL A   1      34.505  30.715  28.298  1.00  0.00     0.251 C 
ATOM     26  H   UNL A   1      32.674  30.498  27.526  1.00  0.00     0.163 HD
ATOM     27  O   UNL A   1      34.266  31.846  28.727  1.00  0.00    -0.269 OA
BRANCH  25  28
ATOM     28  C   UNL A   1      35.849  30.127  28.468  1.00  0.00     0.039 A 
ATOM     29  C   UNL A   1      36.734  30.120  27.385  1.00  0.00     0.014 A 
ATOM     30  C   UNL A   1      36.249  29.603  29.698  1.00  0.00     0.014 A 
ATOM     31  C   UNL A   1      38.049  29.683  27.567  1.00  0.00     0.010 A 
ATOM     32  C   UNL A   1      37.580  29.260  29.902  1.00  0.00     0.010 A 
ATOM     33  C   UNL A   1      38.498  29.303  28.841  1.00  0.00    -0.014 A 
BRANCH  33  34
ATOM     34  C   UNL A   1      39.918  28.955  29.108  1.00  0.00     0.031 A 
ATOM     35  C   UNL A   1      40.862  30.009  29.622  1.00  0.00     0.074 A 
ATOM     36  C   UNL A   1      40.382  27.730  28.784  1.00  0.00     0.049 A 
ATOM     37  N   UNL A   1      42.162  29.960  29.755  1.00  0.00    -0.248 NA
ATOM     38  C   UNL A   1      40.266  31.301  30.003  1.00  0.00     0.031 C 
ATOM     39  C   UNL A   1      39.577  26.635  28.238  1.00  0.00     0.029 A 
ATOM     40  N   UNL A   1      41.650  27.208  28.844  1.00  0.00    -0.354 N 
ATOM     41  C   UNL A   1      42.543  31.218  30.204  1.00  0.00     0.074 A 
ATOM     42  C   UNL A   1      41.343  32.022  30.280  1.00  0.00     0.031 C 
ATOM     43  C   UNL A   1      40.368  25.571  28.024  1.00  0.00     0.029 A 
ATOM     44  C   UNL A   1      41.741  25.920  28.371  1.00  0.00     0.049 A 
ATOM     45  H   UNL A   1      42.423  27.710  29.193  1.00  0.00     0.167 HD
ATOM     46  C   UNL A   1      43.777  31.659  30.544  1.00  0.00     0.037 A 
ATOM     47  C   UNL A   1      42.812  25.117  28.212  1.00  0.00     0.037 A 
ATOM     48  C   UNL A   1      44.962  30.841  30.503  1.00  0.00     0.049 A 
ATOM     49  C   UNL A   1      44.175  25.627  28.597  1.00  0.00     0.074 A 
ATOM     50  C   UNL A   1      46.249  31.174  30.886  1.00  0.00     0.029 A 
ATOM     51  N   UNL A   1      45.003  29.529  30.055  1.00  0.00    -0.354 N 
ATOM     52  N   UNL A   1      44.510  26.803  29.070  1.00  0.00    -0.248 NA
ATOM     53  C   UNL A   1      45.305  24.703  28.428  1.00  0.00     0.031 C 
ATOM     54  C   UNL A   1      47.076  30.075  30.635  1.00  0.00     0.029 A 
ATOM     55  C   UNL A   1      46.297  29.043  30.138  1.00  0.00     0.049 A 
ATOM     56  H   UNL A   1      44.228  29.019  29.727  1.00  0.00     0.167 HD
ATOM     57  C   UNL A   1      45.883  26.751  29.282  1.00  0.00     0.074 A 
ATOM     58  C   UNL A   1      46.316  25.425  28.891  1.00  0.00     0.031 C 
ATOM     59  C   UNL A   1      46.708  27.713  29.762  1.00  0.00     0.037 A 
BRANCH  46  60
ATOM     60  C   UNL A   1      43.910  33.087  30.995  1.00  0.00     0.058 A 
ATOM     61  C   UNL A   1      44.049  34.139  30.076  1.00  0.00     0.135 A 
ATOM     62  C   UNL A   1      43.866  33.411  32.360  1.00  0.00     0.135 A 
ATOM     63  F   UNL A   1      44.112  33.883  28.760  1.00  0.00    -0.206 F 
ATOM     64  C   UNL A   1      44.171  35.459  30.496  1.00  0.00     0.059 A 
ATOM     65  C   UNL A   1      43.958  34.728  32.801  1.00  0.00     0.059 A 
ATOM     66  F   UNL A   1      43.735  32.444  33.282  1.00  0.00    -0.206 F 
ATOM     67  C   UNL A   1      44.126  35.743  31.861  1.00  0.00     0.060 A 
BRANCH  67  68
ATOM     68  S   UNL A   1      44.283  37.463  32.389  1.00  0.00     0.124 S 
ATOM     69  O   UNL A   1      43.967  38.175  31.155  1.00  0.00    -0.237 OA
ATOM     70  O   UNL A   1      43.282  37.558  33.447  1.00  0.00    -0.237 OA
ATOM     71  O   UNL A   1      45.670  37.557  32.831  1.00  0.00    -0.744 OA
ENDBRANCH  67  68
ENDBRANCH  46  60
BRANCH  47  72
ATOM     72  C   UNL A   1      42.636  23.742  27.673  1.00  0.00     0.058 A 
ATOM     73  C   UNL A   1      42.515  22.643  28.537  1.00  0.00     0.135 A 
ATOM     74  C   UNL A   1      42.568  23.498  26.292  1.00  0.00     0.135 A 
ATOM     75  F   UNL A   1      42.582  22.824  29.865  1.00  0.00    -0.206 F 
ATOM     76  C   UNL A   1      42.346  21.349  28.052  1.00  0.00     0.059 A 
ATOM     77  C   UNL A   1      42.375  22.218  25.784  1.00  0.00     0.059 A 
ATOM     78  F   UNL A   1      42.660  24.518  25.425  1.00  0.00    -0.206 F 
ATOM     79  C   UNL A   1      42.274  21.148  26.673  1.00  0.00     0.060 A 
BRANCH  79  80
ATOM     80  S   UNL A   1      42.000  19.472  26.057  1.00  0.00     0.124 S 
ATOM     81  O   UNL A   1      42.459  18.666  27.182  1.00  0.00    -0.237 OA
ATOM     82  O   UNL A   1      40.562  19.467  25.810  1.00  0.00    -0.237 OA
ATOM     83  O   UNL A   1      42.833  19.416  24.858  1.00  0.00    -0.744 OA
ENDBRANCH  79  80
ENDBRANCH  47  72
BRANCH  59  84
ATOM     84  C   UNL A   1      48.159  27.365  29.937  1.00  0.00     0.058 A 
ATOM     85  C   UNL A   1      49.115  27.672  28.957  1.00  0.00     0.135 A 
ATOM     86  C   UNL A   1      48.609  26.796  31.140  1.00  0.00     0.135 A 
ATOM     87  F   UNL A   1      48.734  28.208  27.786  1.00  0.00    -0.206 F 
ATOM     88  C   UNL A   1      50.467  27.421  29.161  1.00  0.00     0.059 A 
ATOM     89  C   UNL A   1      49.960  26.560  31.374  1.00  0.00     0.059 A 
ATOM     90  F   UNL A   1      47.735  26.492  32.112  1.00  0.00    -0.206 F 
ATOM     91  C   UNL A   1      50.881  26.872  30.376  1.00  0.00     0.060 A 
BRANCH  91  92
ATOM     92  S   UNL A   1      52.647  26.615  30.654  1.00  0.00     0.124 S 
ATOM     93  O   UNL A   1      53.050  27.908  31.196  1.00  0.00    -0.237 OA
ATOM     94  O   UNL A   1      52.656  25.500  31.596  1.00  0.00    -0.237 OA
ATOM     95  O   UNL A   1      53.159  26.306  29.321  1.00  0.00    -0.744 OA
ENDBRANCH  91  92
ENDBRANCH  59  84
ENDBRANCH  33  34
ENDBRANCH  25  28
ENDBRANCH   1  24
TORSDOF 14
ENDMDL
