MODEL 1
REMARK VINA RESULT:     -11.1      0.000      0.000
REMARK SMILES CSCC[C@@H](CO)n1ccnc1-c1ccccc1C(=O)NCCCNC(=O)c1ccc(-c2c3nc(c(-c4c(F)cc(S(=O)(=O)[O-])cc4F)c4ccc([nH]4)c(-c4c(F)cc(S(=O)(=O)[O-])cc4F)c4nc(c(-c5c(F)cc(S(=O)(=O)[O-])cc5F)c5ccc2[nH]5)C=C4)C=C3)cc1
REMARK SMILES IDX 22 1 21 2 19 3 20 4 18 6 13 7 14 8 15 9 17 10 16 11 12 12
REMARK SMILES IDX 8 13 9 14 10 15 11 16 5 17 4 18 3 19 2 20 1 21 6 22 7 23
REMARK SMILES IDX 23 25 24 26 25 27 26 28 27 30 28 31 29 32 93 33 30 34 92 35
REMARK SMILES IDX 31 36 32 37 33 38 86 39 34 40 91 41 85 42 87 43 35 44 90 45
REMARK SMILES IDX 84 46 83 47 36 49 70 50 49 51 69 52 50 53 53 54 68 55 88 56
REMARK SMILES IDX 51 57 52 58 67 60 89 61 54 62 37 63 38 64 47 65 39 66 40 67
REMARK SMILES IDX 46 68 48 69 41 70 42 71 43 72 44 73 45 74 71 75 72 76 81 77
REMARK SMILES IDX 73 78 74 79 80 80 82 81 75 82 76 83 77 84 78 85 79 86 55 87
REMARK SMILES IDX 56 88 65 89 57 90 58 91 64 92 66 93 59 94 60 95 61 96 62 97
REMARK SMILES IDX 63 98
REMARK H PARENT 21 5 7 24 25 29 87 48 53 59
REMARK Flexibility Score: inf
ROOT
ATOM      1  C   UNL A   1      37.184  23.153  25.264  1.00  0.00     0.118 C 
ENDROOT
BRANCH   1   2
ATOM      2  N   UNL A   1      36.254  23.346  26.346  1.00  0.00    -0.352 N 
ATOM      3  C   UNL A   1      34.983  22.848  26.493  1.00  0.00     0.252 C 
ATOM      4  O   UNL A   1      34.447  23.018  27.594  1.00  0.00    -0.269 OA
ATOM      5  H   UNL A   1      36.574  23.917  27.082  1.00  0.00     0.163 HD
BRANCH   3   6
ATOM      6  C   UNL A   1      34.182  22.122  25.440  1.00  0.00     0.050 A 
ATOM      7  C   UNL A   1      33.515  22.613  24.294  1.00  0.00     0.030 A 
ATOM      8  C   UNL A   1      32.758  21.700  23.516  1.00  0.00     0.013 A 
ATOM      9  C   UNL A   1      32.731  20.332  23.778  1.00  0.00     0.001 A 
ATOM     10  C   UNL A   1      34.188  20.716  25.643  1.00  0.00     0.014 A 
ATOM     11  C   UNL A   1      33.481  19.832  24.825  1.00  0.00     0.001 A 
BRANCH   7  12
ATOM     12  C   UNL A   1      33.387  24.004  23.837  1.00  0.00     0.141 A 
ATOM     13  N   UNL A   1      32.801  25.108  24.462  1.00  0.00    -0.326 N 
ATOM     14  C   UNL A   1      32.965  26.174  23.598  1.00  0.00     0.108 A 
ATOM     15  C   UNL A   1      33.675  25.704  22.527  1.00  0.00     0.131 A 
ATOM     16  N   UNL A   1      33.944  24.381  22.692  1.00  0.00    -0.237 NA
BRANCH  13  17
ATOM     17  C   UNL A   1      32.250  25.213  25.824  1.00  0.00     0.115 C 
BRANCH  17  18
ATOM     18  C   UNL A   1      31.721  26.633  26.176  1.00  0.00     0.039 C 
BRANCH  18  19
ATOM     19  C   UNL A   1      32.759  27.628  26.705  1.00  0.00     0.071 C 
BRANCH  19  20
ATOM     20  S   UNL A   1      32.063  29.264  27.129  1.00  0.00    -0.165 SA
ATOM     21  C   UNL A   1      33.559  30.282  27.240  1.00  0.00     0.085 C 
ENDBRANCH  19  20
ENDBRANCH  18  19
ENDBRANCH  17  18
BRANCH  17  22
ATOM     22  C   UNL A   1      31.141  24.201  26.153  1.00  0.00     0.181 C 
BRANCH  22  23
ATOM     23  O   UNL A   1      31.495  23.410  27.281  1.00  0.00    -0.394 OA
ATOM     24  H   UNL A   1      30.789  23.460  27.945  1.00  0.00     0.210 HD
ENDBRANCH  22  23
ENDBRANCH  17  22
ENDBRANCH  13  17
ENDBRANCH   7  12
ENDBRANCH   3   6
ENDBRANCH   1   2
BRANCH   1  25
ATOM     25  C   UNL A   1      37.742  21.754  25.053  1.00  0.00     0.042 C 
BRANCH  25  26
ATOM     26  C   UNL A   1      39.027  21.519  25.847  1.00  0.00     0.118 C 
BRANCH  26  27
ATOM     27  N   UNL A   1      39.572  20.154  25.761  1.00  0.00    -0.352 N 
ATOM     28  C   UNL A   1      40.896  19.763  25.934  1.00  0.00     0.251 C 
ATOM     29  H   UNL A   1      38.926  19.438  25.558  1.00  0.00     0.163 HD
ATOM     30  O   UNL A   1      41.273  18.625  25.743  1.00  0.00    -0.269 OA
BRANCH  28  31
ATOM     31  C   UNL A   1      41.835  20.823  26.353  1.00  0.00     0.039 A 
ATOM     32  C   UNL A   1      41.947  21.990  25.599  1.00  0.00     0.014 A 
ATOM     33  C   UNL A   1      42.305  20.752  27.661  1.00  0.00     0.014 A 
ATOM     34  C   UNL A   1      42.364  23.153  26.241  1.00  0.00     0.010 A 
ATOM     35  C   UNL A   1      42.583  21.931  28.321  1.00  0.00     0.010 A 
ATOM     36  C   UNL A   1      42.584  23.147  27.633  1.00  0.00    -0.014 A 
BRANCH  36  37
ATOM     37  C   UNL A   1      42.551  24.425  28.370  1.00  0.00     0.031 A 
ATOM     38  C   UNL A   1      41.314  25.242  28.158  1.00  0.00     0.074 A 
ATOM     39  C   UNL A   1      43.399  24.795  29.355  1.00  0.00     0.049 A 
ATOM     40  N   UNL A   1      41.208  26.351  27.503  1.00  0.00    -0.248 NA
ATOM     41  C   UNL A   1      40.021  24.704  28.612  1.00  0.00     0.031 C 
ATOM     42  C   UNL A   1      44.492  24.016  29.945  1.00  0.00     0.029 A 
ATOM     43  N   UNL A   1      43.394  25.930  30.119  1.00  0.00    -0.354 N 
ATOM     44  C   UNL A   1      39.891  26.777  27.672  1.00  0.00     0.074 A 
ATOM     45  C   UNL A   1      39.170  25.641  28.184  1.00  0.00     0.031 C 
ATOM     46  C   UNL A   1      44.880  24.582  31.107  1.00  0.00     0.029 A 
ATOM     47  C   UNL A   1      44.217  25.865  31.237  1.00  0.00     0.049 A 
ATOM     48  H   UNL A   1      42.855  26.724  29.896  1.00  0.00     0.167 HD
ATOM     49  C   UNL A   1      39.569  28.102  27.632  1.00  0.00     0.037 A 
ATOM     50  C   UNL A   1      44.394  26.803  32.197  1.00  0.00     0.037 A 
ATOM     51  C   UNL A   1      40.670  28.878  27.118  1.00  0.00     0.049 A 
ATOM     52  C   UNL A   1      44.060  28.112  31.596  1.00  0.00     0.074 A 
ATOM     53  C   UNL A   1      41.326  29.010  25.913  1.00  0.00     0.029 A 
ATOM     54  N   UNL A   1      41.482  29.420  28.081  1.00  0.00    -0.354 N 
ATOM     55  N   UNL A   1      44.742  28.655  30.624  1.00  0.00    -0.248 NA
ATOM     56  C   UNL A   1      42.761  28.718  31.856  1.00  0.00     0.031 C 
ATOM     57  C   UNL A   1      42.669  29.365  26.242  1.00  0.00     0.029 A 
ATOM     58  C   UNL A   1      42.772  29.480  27.629  1.00  0.00     0.049 A 
ATOM     59  H   UNL A   1      41.180  29.722  28.968  1.00  0.00     0.167 HD
ATOM     60  C   UNL A   1      43.800  29.344  29.886  1.00  0.00     0.074 A 
ATOM     61  C   UNL A   1      42.665  29.505  30.782  1.00  0.00     0.031 C 
ATOM     62  C   UNL A   1      43.907  29.434  28.529  1.00  0.00     0.037 A 
BRANCH  49  63
ATOM     63  C   UNL A   1      38.486  28.770  28.464  1.00  0.00     0.058 A 
ATOM     64  C   UNL A   1      37.681  29.771  27.870  1.00  0.00     0.135 A 
ATOM     65  C   UNL A   1      38.420  28.707  29.873  1.00  0.00     0.135 A 
ATOM     66  F   UNL A   1      37.664  29.932  26.537  1.00  0.00    -0.206 F 
ATOM     67  C   UNL A   1      36.939  30.686  28.621  1.00  0.00     0.059 A 
ATOM     68  C   UNL A   1      37.646  29.576  30.638  1.00  0.00     0.059 A 
ATOM     69  F   UNL A   1      39.181  27.871  30.587  1.00  0.00    -0.206 F 
ATOM     70  C   UNL A   1      36.943  30.591  30.008  1.00  0.00     0.060 A 
BRANCH  70  71
ATOM     71  S   UNL A   1      36.075  31.827  30.991  1.00  0.00     0.124 S 
ATOM     72  O   UNL A   1      34.874  32.039  30.193  1.00  0.00    -0.237 OA
ATOM     73  O   UNL A   1      35.888  31.130  32.259  1.00  0.00    -0.237 OA
ATOM     74  O   UNL A   1      37.016  32.942  31.029  1.00  0.00    -0.744 OA
ENDBRANCH  70  71
ENDBRANCH  49  63
BRANCH  50  75
ATOM     75  C   UNL A   1      44.696  26.626  33.638  1.00  0.00     0.058 A 
ATOM     76  C   UNL A   1      43.677  26.353  34.567  1.00  0.00     0.135 A 
ATOM     77  C   UNL A   1      46.018  26.433  34.086  1.00  0.00     0.135 A 
ATOM     78  F   UNL A   1      42.389  26.508  34.223  1.00  0.00    -0.206 F 
ATOM     79  C   UNL A   1      43.947  25.844  35.839  1.00  0.00     0.059 A 
ATOM     80  C   UNL A   1      46.313  25.934  35.354  1.00  0.00     0.059 A 
ATOM     81  F   UNL A   1      47.060  26.631  33.264  1.00  0.00    -0.206 F 
ATOM     82  C   UNL A   1      45.270  25.610  36.213  1.00  0.00     0.060 A 
BRANCH  82  83
ATOM     83  S   UNL A   1      45.608  24.750  37.768  1.00  0.00     0.124 S 
ATOM     84  O   UNL A   1      44.460  25.134  38.580  1.00  0.00    -0.237 OA
ATOM     85  O   UNL A   1      45.653  23.355  37.344  1.00  0.00    -0.237 OA
ATOM     86  O   UNL A   1      46.889  25.311  38.192  1.00  0.00    -0.744 OA
ENDBRANCH  82  83
ENDBRANCH  50  75
BRANCH  62  87
ATOM     87  C   UNL A   1      45.278  29.305  27.925  1.00  0.00     0.058 A 
ATOM     88  C   UNL A   1      46.240  30.327  27.866  1.00  0.00     0.135 A 
ATOM     89  C   UNL A   1      45.656  28.040  27.452  1.00  0.00     0.135 A 
ATOM     90  F   UNL A   1      45.993  31.542  28.376  1.00  0.00    -0.206 F 
ATOM     91  C   UNL A   1      47.507  30.107  27.320  1.00  0.00     0.059 A 
ATOM     92  C   UNL A   1      46.923  27.789  26.936  1.00  0.00     0.059 A 
ATOM     93  F   UNL A   1      44.797  27.008  27.525  1.00  0.00    -0.206 F 
ATOM     94  C   UNL A   1      47.839  28.834  26.857  1.00  0.00     0.060 A 
BRANCH  94  95
ATOM     95  S   UNL A   1      49.497  28.533  26.211  1.00  0.00     0.124 S 
ATOM     96  O   UNL A   1      50.108  29.855  26.304  1.00  0.00    -0.237 OA
ATOM     97  O   UNL A   1      50.020  27.527  27.131  1.00  0.00    -0.237 OA
ATOM     98  O   UNL A   1      49.252  28.054  24.853  1.00  0.00    -0.744 OA
ENDBRANCH  94  95
ENDBRANCH  62  87
ENDBRANCH  36  37
ENDBRANCH  28  31
ENDBRANCH  26  27
ENDBRANCH  25  26
ENDBRANCH   1  25
TORSDOF 20
ENDMDL
MODEL 2
REMARK VINA RESULT:     -11.1      2.954      8.021
REMARK SMILES CSCC[C@@H](CO)n1ccnc1-c1ccccc1C(=O)NCCCNC(=O)c1ccc(-c2c3nc(c(-c4c(F)cc(S(=O)(=O)[O-])cc4F)c4ccc([nH]4)c(-c4c(F)cc(S(=O)(=O)[O-])cc4F)c4nc(c(-c5c(F)cc(S(=O)(=O)[O-])cc5F)c5ccc2[nH]5)C=C4)C=C3)cc1
REMARK SMILES IDX 22 1 21 2 19 3 20 4 18 6 13 7 14 8 15 9 17 10 16 11 12 12
REMARK SMILES IDX 8 13 9 14 10 15 11 16 5 17 4 18 3 19 2 20 1 21 6 22 7 23
REMARK SMILES IDX 23 25 24 26 25 27 26 28 27 30 28 31 29 32 93 33 30 34 92 35
REMARK SMILES IDX 31 36 32 37 33 38 86 39 34 40 91 41 85 42 87 43 35 44 90 45
REMARK SMILES IDX 84 46 83 47 36 49 70 50 49 51 69 52 50 53 53 54 68 55 88 56
REMARK SMILES IDX 51 57 52 58 67 60 89 61 54 62 37 63 38 64 47 65 39 66 40 67
REMARK SMILES IDX 46 68 48 69 41 70 42 71 43 72 44 73 45 74 71 75 72 76 81 77
REMARK SMILES IDX 73 78 74 79 80 80 82 81 75 82 76 83 77 84 78 85 79 86 55 87
REMARK SMILES IDX 56 88 65 89 57 90 58 91 64 92 66 93 59 94 60 95 61 96 62 97
REMARK SMILES IDX 63 98
REMARK H PARENT 21 5 7 24 25 29 87 48 53 59
REMARK Flexibility Score: inf
ROOT
ATOM      1  C   UNL A   1      33.435  30.248  27.303  1.00  0.00     0.118 C 
ENDROOT
BRANCH   1   2
ATOM      2  N   UNL A   1      32.570  29.133  27.589  1.00  0.00    -0.352 N 
ATOM      3  C   UNL A   1      32.335  28.006  26.840  1.00  0.00     0.252 C 
ATOM      4  O   UNL A   1      31.679  27.110  27.382  1.00  0.00    -0.269 OA
ATOM      5  H   UNL A   1      32.077  29.186  28.441  1.00  0.00     0.163 HD
BRANCH   3   6
ATOM      6  C   UNL A   1      32.797  27.764  25.424  1.00  0.00     0.050 A 
ATOM      7  C   UNL A   1      33.347  26.609  24.822  1.00  0.00     0.030 A 
ATOM      8  C   UNL A   1      33.775  26.695  23.472  1.00  0.00     0.013 A 
ATOM      9  C   UNL A   1      33.581  27.834  22.694  1.00  0.00     0.001 A 
ATOM     10  C   UNL A   1      32.554  28.887  24.587  1.00  0.00     0.014 A 
ATOM     11  C   UNL A   1      32.933  28.923  23.244  1.00  0.00     0.001 A 
BRANCH   7  12
ATOM     12  C   UNL A   1      33.662  25.316  25.445  1.00  0.00     0.141 A 
ATOM     13  N   UNL A   1      32.814  24.292  25.875  1.00  0.00    -0.326 N 
ATOM     14  C   UNL A   1      33.632  23.297  26.378  1.00  0.00     0.108 A 
ATOM     15  C   UNL A   1      34.920  23.720  26.193  1.00  0.00     0.131 A 
ATOM     16  N   UNL A   1      34.928  24.946  25.605  1.00  0.00    -0.237 NA
BRANCH  13  17
ATOM     17  C   UNL A   1      31.355  24.169  25.708  1.00  0.00     0.115 C 
BRANCH  17  18
ATOM     18  C   UNL A   1      30.925  23.744  24.275  1.00  0.00     0.039 C 
BRANCH  18  19
ATOM     19  C   UNL A   1      30.256  24.827  23.422  1.00  0.00     0.071 C 
BRANCH  19  20
ATOM     20  S   UNL A   1      29.551  26.203  24.398  1.00  0.00    -0.165 SA
ATOM     21  C   UNL A   1      29.479  27.529  23.163  1.00  0.00     0.085 C 
ENDBRANCH  19  20
ENDBRANCH  18  19
ENDBRANCH  17  18
BRANCH  17  22
ATOM     22  C   UNL A   1      30.667  23.226  26.708  1.00  0.00     0.181 C 
BRANCH  22  23
ATOM     23  O   UNL A   1      30.457  21.943  26.131  1.00  0.00    -0.394 OA
ATOM     24  H   UNL A   1      29.646  21.554  26.495  1.00  0.00     0.210 HD
ENDBRANCH  22  23
ENDBRANCH  17  22
ENDBRANCH  13  17
ENDBRANCH   7  12
ENDBRANCH   3   6
ENDBRANCH   1   2
BRANCH   1  25
ATOM     25  C   UNL A   1      32.888  31.646  27.542  1.00  0.00     0.042 C 
BRANCH  25  26
ATOM     26  C   UNL A   1      33.940  32.585  28.136  1.00  0.00     0.118 C 
BRANCH  26  27
ATOM     27  N   UNL A   1      34.096  32.500  29.597  1.00  0.00    -0.352 N 
ATOM     28  C   UNL A   1      35.140  31.905  30.299  1.00  0.00     0.251 C 
ATOM     29  H   UNL A   1      33.382  32.909  30.137  1.00  0.00     0.163 HD
ATOM     30  O   UNL A   1      35.136  31.792  31.508  1.00  0.00    -0.269 OA
BRANCH  28  31
ATOM     31  C   UNL A   1      36.263  31.397  29.484  1.00  0.00     0.039 A 
ATOM     32  C   UNL A   1      37.407  32.176  29.318  1.00  0.00     0.014 A 
ATOM     33  C   UNL A   1      36.263  30.033  29.213  1.00  0.00     0.014 A 
ATOM     34  C   UNL A   1      38.613  31.529  29.058  1.00  0.00     0.010 A 
ATOM     35  C   UNL A   1      37.478  29.389  29.093  1.00  0.00     0.010 A 
ATOM     36  C   UNL A   1      38.667  30.121  29.048  1.00  0.00    -0.014 A 
BRANCH  36  37
ATOM     37  C   UNL A   1      39.966  29.452  29.253  1.00  0.00     0.031 A 
ATOM     38  C   UNL A   1      40.330  29.209  30.684  1.00  0.00     0.074 A 
ATOM     39  C   UNL A   1      40.714  28.859  28.295  1.00  0.00     0.049 A 
ATOM     40  N   UNL A   1      41.250  29.802  31.373  1.00  0.00    -0.248 NA
ATOM     41  C   UNL A   1      39.496  28.296  31.484  1.00  0.00     0.031 C 
ATOM     42  C   UNL A   1      40.396  28.699  26.872  1.00  0.00     0.029 A 
ATOM     43  N   UNL A   1      41.891  28.173  28.418  1.00  0.00    -0.354 N 
ATOM     44  C   UNL A   1      41.275  29.166  32.614  1.00  0.00     0.074 A 
ATOM     45  C   UNL A   1      40.060  28.399  32.691  1.00  0.00     0.031 C 
ATOM     46  C   UNL A   1      41.214  27.777  26.323  1.00  0.00     0.029 A 
ATOM     47  C   UNL A   1      42.239  27.439  27.291  1.00  0.00     0.049 A 
ATOM     48  H   UNL A   1      42.443  28.198  29.233  1.00  0.00     0.167 HD
ATOM     49  C   UNL A   1      42.419  29.113  33.354  1.00  0.00     0.037 A 
ATOM     50  C   UNL A   1      43.314  26.633  27.120  1.00  0.00     0.037 A 
ATOM     51  C   UNL A   1      43.411  30.015  32.823  1.00  0.00     0.049 A 
ATOM     52  C   UNL A   1      44.360  27.096  28.059  1.00  0.00     0.074 A 
ATOM     53  C   UNL A   1      43.562  31.380  32.704  1.00  0.00     0.029 A 
ATOM     54  N   UNL A   1      44.307  29.434  31.963  1.00  0.00    -0.354 N 
ATOM     55  N   UNL A   1      44.939  28.263  27.974  1.00  0.00    -0.248 NA
ATOM     56  C   UNL A   1      44.573  26.387  29.312  1.00  0.00     0.031 C 
ATOM     57  C   UNL A   1      44.351  31.580  31.531  1.00  0.00     0.029 A 
ATOM     58  C   UNL A   1      44.690  30.333  31.005  1.00  0.00     0.049 A 
ATOM     59  H   UNL A   1      44.626  28.504  32.024  1.00  0.00     0.167 HD
ATOM     60  C   UNL A   1      45.196  28.614  29.284  1.00  0.00     0.074 A 
ATOM     61  C   UNL A   1      45.132  27.365  30.028  1.00  0.00     0.031 C 
ATOM     62  C   UNL A   1      45.120  29.916  29.685  1.00  0.00     0.037 A 
BRANCH  49  63
ATOM     63  C   UNL A   1      42.840  27.954  34.244  1.00  0.00     0.058 A 
ATOM     64  C   UNL A   1      43.032  28.182  35.627  1.00  0.00     0.135 A 
ATOM     65  C   UNL A   1      43.365  26.736  33.759  1.00  0.00     0.135 A 
ATOM     66  F   UNL A   1      42.581  29.309  36.203  1.00  0.00    -0.206 F 
ATOM     67  C   UNL A   1      43.760  27.311  36.441  1.00  0.00     0.059 A 
ATOM     68  C   UNL A   1      44.049  25.829  34.565  1.00  0.00     0.059 A 
ATOM     69  F   UNL A   1      43.336  26.411  32.463  1.00  0.00    -0.206 F 
ATOM     70  C   UNL A   1      44.281  26.144  35.894  1.00  0.00     0.060 A 
BRANCH  70  71
ATOM     71  S   UNL A   1      45.310  25.064  36.907  1.00  0.00     0.124 S 
ATOM     72  O   UNL A   1      45.128  25.650  38.229  1.00  0.00    -0.237 OA
ATOM     73  O   UNL A   1      44.688  23.762  36.691  1.00  0.00    -0.237 OA
ATOM     74  O   UNL A   1      46.636  25.223  36.320  1.00  0.00    -0.744 OA
ENDBRANCH  70  71
ENDBRANCH  49  63
BRANCH  50  75
ATOM     75  C   UNL A   1      43.446  25.403  26.303  1.00  0.00     0.058 A 
ATOM     76  C   UNL A   1      44.456  25.276  25.335  1.00  0.00     0.135 A 
ATOM     77  C   UNL A   1      42.768  24.219  26.658  1.00  0.00     0.135 A 
ATOM     78  F   UNL A   1      45.153  26.353  24.940  1.00  0.00    -0.206 F 
ATOM     79  C   UNL A   1      44.828  24.039  24.805  1.00  0.00     0.059 A 
ATOM     80  C   UNL A   1      43.115  22.974  26.137  1.00  0.00     0.059 A 
ATOM     81  F   UNL A   1      41.812  24.228  27.600  1.00  0.00    -0.206 F 
ATOM     82  C   UNL A   1      44.169  22.888  25.235  1.00  0.00     0.060 A 
BRANCH  82  83
ATOM     83  S   UNL A   1      44.793  21.270  24.718  1.00  0.00     0.124 S 
ATOM     84  O   UNL A   1      43.751  20.375  25.207  1.00  0.00    -0.237 OA
ATOM     85  O   UNL A   1      44.878  21.422  23.270  1.00  0.00    -0.237 OA
ATOM     86  O   UNL A   1      46.078  21.168  25.407  1.00  0.00    -0.744 OA
ENDBRANCH  82  83
ENDBRANCH  50  75
BRANCH  62  87
ATOM     87  C   UNL A   1      45.327  30.982  28.645  1.00  0.00     0.058 A 
ATOM     88  C   UNL A   1      44.316  31.561  27.860  1.00  0.00     0.135 A 
ATOM     89  C   UNL A   1      46.625  31.496  28.501  1.00  0.00     0.135 A 
ATOM     90  F   UNL A   1      43.035  31.192  27.998  1.00  0.00    -0.206 F 
ATOM     91  C   UNL A   1      44.594  32.577  26.942  1.00  0.00     0.059 A 
ATOM     92  C   UNL A   1      46.919  32.530  27.618  1.00  0.00     0.059 A 
ATOM     93  F   UNL A   1      47.627  31.017  29.258  1.00  0.00    -0.206 F 
ATOM     94  C   UNL A   1      45.900  33.054  26.828  1.00  0.00     0.060 A 
BRANCH  94  95
ATOM     95  S   UNL A   1      46.249  34.410  25.689  1.00  0.00     0.124 S 
ATOM     96  O   UNL A   1      45.382  34.092  24.559  1.00  0.00    -0.237 OA
ATOM     97  O   UNL A   1      45.868  35.586  26.467  1.00  0.00    -0.237 OA
ATOM     98  O   UNL A   1      47.681  34.281  25.433  1.00  0.00    -0.744 OA
ENDBRANCH  94  95
ENDBRANCH  62  87
ENDBRANCH  36  37
ENDBRANCH  28  31
ENDBRANCH  26  27
ENDBRANCH  25  26
ENDBRANCH   1  25
TORSDOF 20
ENDMDL
MODEL 3
REMARK VINA RESULT:     -10.8      3.958     10.245
REMARK SMILES CSCC[C@@H](CO)n1ccnc1-c1ccccc1C(=O)NCCCNC(=O)c1ccc(-c2c3nc(c(-c4c(F)cc(S(=O)(=O)[O-])cc4F)c4ccc([nH]4)c(-c4c(F)cc(S(=O)(=O)[O-])cc4F)c4nc(c(-c5c(F)cc(S(=O)(=O)[O-])cc5F)c5ccc2[nH]5)C=C4)C=C3)cc1
REMARK SMILES IDX 22 1 21 2 19 3 20 4 18 6 13 7 14 8 15 9 17 10 16 11 12 12
REMARK SMILES IDX 8 13 9 14 10 15 11 16 5 17 4 18 3 19 2 20 1 21 6 22 7 23
REMARK SMILES IDX 23 25 24 26 25 27 26 28 27 30 28 31 29 32 93 33 30 34 92 35
REMARK SMILES IDX 31 36 32 37 33 38 86 39 34 40 91 41 85 42 87 43 35 44 90 45
REMARK SMILES IDX 84 46 83 47 36 49 70 50 49 51 69 52 50 53 53 54 68 55 88 56
REMARK SMILES IDX 51 57 52 58 67 60 89 61 54 62 37 63 38 64 47 65 39 66 40 67
REMARK SMILES IDX 46 68 48 69 41 70 42 71 43 72 44 73 45 74 71 75 72 76 81 77
REMARK SMILES IDX 73 78 74 79 80 80 82 81 75 82 76 83 77 84 78 85 79 86 55 87
REMARK SMILES IDX 56 88 65 89 57 90 58 91 64 92 66 93 59 94 60 95 61 96 62 97
REMARK SMILES IDX 63 98
REMARK H PARENT 21 5 7 24 25 29 87 48 53 59
REMARK Flexibility Score: inf
ROOT
ATOM      1  C   UNL A   1      42.811  21.402  27.709  1.00  0.00     0.118 C 
ENDROOT
BRANCH   1   2
ATOM      2  N   UNL A   1      43.951  21.850  26.952  1.00  0.00    -0.352 N 
ATOM      3  C   UNL A   1      44.820  22.878  27.225  1.00  0.00     0.252 C 
ATOM      4  O   UNL A   1      45.824  22.957  26.508  1.00  0.00    -0.269 OA
ATOM      5  H   UNL A   1      44.132  21.351  26.122  1.00  0.00     0.163 HD
BRANCH   3   6
ATOM      6  C   UNL A   1      44.662  23.916  28.309  1.00  0.00     0.050 A 
ATOM      7  C   UNL A   1      44.767  25.325  28.252  1.00  0.00     0.030 A 
ATOM      8  C   UNL A   1      44.650  26.055  29.463  1.00  0.00     0.013 A 
ATOM      9  C   UNL A   1      44.337  25.450  30.678  1.00  0.00     0.001 A 
ATOM     10  C   UNL A   1      44.279  23.336  29.549  1.00  0.00     0.014 A 
ATOM     11  C   UNL A   1      44.113  24.088  30.714  1.00  0.00     0.001 A 
BRANCH   7  12
ATOM     12  C   UNL A   1      45.110  26.170  27.100  1.00  0.00     0.141 A 
ATOM     13  N   UNL A   1      46.298  26.837  26.793  1.00  0.00    -0.326 N 
ATOM     14  C   UNL A   1      46.083  27.479  25.588  1.00  0.00     0.108 A 
ATOM     15  C   UNL A   1      44.819  27.143  25.188  1.00  0.00     0.131 A 
ATOM     16  N   UNL A   1      44.239  26.327  26.109  1.00  0.00    -0.237 NA
BRANCH  13  17
ATOM     17  C   UNL A   1      47.596  26.779  27.489  1.00  0.00     0.115 C 
BRANCH  17  18
ATOM     18  C   UNL A   1      47.663  27.672  28.760  1.00  0.00     0.039 C 
BRANCH  18  19
ATOM     19  C   UNL A   1      48.839  28.652  28.835  1.00  0.00     0.071 C 
BRANCH  19  20
ATOM     20  S   UNL A   1      50.159  28.133  29.989  1.00  0.00    -0.165 SA
ATOM     21  C   UNL A   1      51.179  27.074  28.927  1.00  0.00     0.085 C 
ENDBRANCH  19  20
ENDBRANCH  18  19
ENDBRANCH  17  18
BRANCH  17  22
ATOM     22  C   UNL A   1      48.058  25.365  27.878  1.00  0.00     0.181 C 
BRANCH  22  23
ATOM     23  O   UNL A   1      48.076  24.508  26.743  1.00  0.00    -0.394 OA
ATOM     24  H   UNL A   1      47.733  23.635  26.992  1.00  0.00     0.210 HD
ENDBRANCH  22  23
ENDBRANCH  17  22
ENDBRANCH  13  17
ENDBRANCH   7  12
ENDBRANCH   3   6
ENDBRANCH   1   2
BRANCH   1  25
ATOM     25  C   UNL A   1      41.651  20.787  26.943  1.00  0.00     0.042 C 
BRANCH  25  26
ATOM     26  C   UNL A   1      41.159  21.693  25.813  1.00  0.00     0.118 C 
BRANCH  26  27
ATOM     27  N   UNL A   1      39.742  22.083  25.900  1.00  0.00    -0.352 N 
ATOM     28  C   UNL A   1      39.228  23.288  26.370  1.00  0.00     0.251 C 
ATOM     29  H   UNL A   1      39.086  21.417  25.592  1.00  0.00     0.163 HD
ATOM     30  O   UNL A   1      38.037  23.485  26.501  1.00  0.00    -0.269 OA
BRANCH  28  31
ATOM     31  C   UNL A   1      40.221  24.324  26.720  1.00  0.00     0.039 A 
ATOM     32  C   UNL A   1      40.312  25.485  25.954  1.00  0.00     0.014 A 
ATOM     33  C   UNL A   1      40.775  24.246  27.993  1.00  0.00     0.014 A 
ATOM     34  C   UNL A   1      40.801  26.639  26.560  1.00  0.00     0.010 A 
ATOM     35  C   UNL A   1      41.128  25.419  28.627  1.00  0.00     0.010 A 
ATOM     36  C   UNL A   1      41.115  26.633  27.934  1.00  0.00    -0.014 A 
BRANCH  36  37
ATOM     37  C   UNL A   1      41.164  27.913  28.665  1.00  0.00     0.031 A 
ATOM     38  C   UNL A   1      42.293  28.816  28.279  1.00  0.00     0.074 A 
ATOM     39  C   UNL A   1      40.186  28.415  29.453  1.00  0.00     0.049 A 
ATOM     40  N   UNL A   1      43.340  29.109  28.978  1.00  0.00    -0.248 NA
ATOM     41  C   UNL A   1      42.334  29.355  26.909  1.00  0.00     0.031 C 
ATOM     42  C   UNL A   1      38.861  27.847  29.720  1.00  0.00     0.029 A 
ATOM     43  N   UNL A   1      40.138  29.613  30.111  1.00  0.00    -0.354 N 
ATOM     44  C   UNL A   1      44.045  30.060  28.240  1.00  0.00     0.074 A 
ATOM     45  C   UNL A   1      43.493  30.020  26.912  1.00  0.00     0.031 C 
ATOM     46  C   UNL A   1      38.065  28.787  30.270  1.00  0.00     0.029 A 
ATOM     47  C   UNL A   1      38.874  29.948  30.586  1.00  0.00     0.049 A 
ATOM     48  H   UNL A   1      40.927  30.188  30.239  1.00  0.00     0.167 HD
ATOM     49  C   UNL A   1      44.836  30.984  28.858  1.00  0.00     0.037 A 
ATOM     50  C   UNL A   1      38.500  31.075  31.236  1.00  0.00     0.037 A 
ATOM     51  C   UNL A   1      45.041  30.635  30.242  1.00  0.00     0.049 A 
ATOM     52  C   UNL A   1      39.708  31.626  31.887  1.00  0.00     0.074 A 
ATOM     53  C   UNL A   1      45.683  29.634  30.938  1.00  0.00     0.029 A 
ATOM     54  N   UNL A   1      44.177  31.244  31.116  1.00  0.00    -0.354 N 
ATOM     55  N   UNL A   1      40.352  31.017  32.846  1.00  0.00    -0.248 NA
ATOM     56  C   UNL A   1      40.419  32.738  31.271  1.00  0.00     0.031 C 
ATOM     57  C   UNL A   1      44.950  29.477  32.153  1.00  0.00     0.029 A 
ATOM     58  C   UNL A   1      43.918  30.415  32.174  1.00  0.00     0.049 A 
ATOM     59  H   UNL A   1      43.798  32.145  30.999  1.00  0.00     0.167 HD
ATOM     60  C   UNL A   1      41.672  31.366  32.649  1.00  0.00     0.074 A 
ATOM     61  C   UNL A   1      41.627  32.554  31.810  1.00  0.00     0.031 C 
ATOM     62  C   UNL A   1      42.676  30.481  32.917  1.00  0.00     0.037 A 
BRANCH  49  63
ATOM     63  C   UNL A   1      45.044  32.417  28.393  1.00  0.00     0.058 A 
ATOM     64  C   UNL A   1      46.360  32.878  28.155  1.00  0.00     0.135 A 
ATOM     65  C   UNL A   1      44.062  33.427  28.481  1.00  0.00     0.135 A 
ATOM     66  F   UNL A   1      47.382  32.011  28.056  1.00  0.00    -0.206 F 
ATOM     67  C   UNL A   1      46.683  34.237  28.094  1.00  0.00     0.059 A 
ATOM     68  C   UNL A   1      44.355  34.783  28.372  1.00  0.00     0.059 A 
ATOM     69  F   UNL A   1      42.787  33.159  28.782  1.00  0.00    -0.206 F 
ATOM     70  C   UNL A   1      45.673  35.183  28.224  1.00  0.00     0.060 A 
BRANCH  70  71
ATOM     71  S   UNL A   1      46.090  36.936  28.253  1.00  0.00     0.124 S 
ATOM     72  O   UNL A   1      45.402  37.377  29.460  1.00  0.00    -0.237 OA
ATOM     73  O   UNL A   1      47.547  36.900  28.322  1.00  0.00    -0.237 OA
ATOM     74  O   UNL A   1      45.540  37.430  26.995  1.00  0.00    -0.744 OA
ENDBRANCH  70  71
ENDBRANCH  49  63
BRANCH  50  75
ATOM     75  C   UNL A   1      37.197  31.783  31.213  1.00  0.00     0.058 A 
ATOM     76  C   UNL A   1      36.297  31.686  32.287  1.00  0.00     0.135 A 
ATOM     77  C   UNL A   1      36.939  32.799  30.271  1.00  0.00     0.135 A 
ATOM     78  F   UNL A   1      36.469  30.749  33.232  1.00  0.00    -0.206 F 
ATOM     79  C   UNL A   1      35.246  32.590  32.461  1.00  0.00     0.059 A 
ATOM     80  C   UNL A   1      35.892  33.707  30.418  1.00  0.00     0.059 A 
ATOM     81  F   UNL A   1      37.761  32.997  29.229  1.00  0.00    -0.206 F 
ATOM     82  C   UNL A   1      35.070  33.617  31.535  1.00  0.00     0.060 A 
BRANCH  82  83
ATOM     83  S   UNL A   1      33.853  34.911  31.874  1.00  0.00     0.124 S 
ATOM     84  O   UNL A   1      33.276  35.137  30.554  1.00  0.00    -0.237 OA
ATOM     85  O   UNL A   1      32.982  34.266  32.850  1.00  0.00    -0.237 OA
ATOM     86  O   UNL A   1      34.664  36.008  32.397  1.00  0.00    -0.744 OA
ENDBRANCH  82  83
ENDBRANCH  50  75
BRANCH  62  87
ATOM     87  C   UNL A   1      42.404  29.401  33.928  1.00  0.00     0.058 A 
ATOM     88  C   UNL A   1      41.803  28.162  33.653  1.00  0.00     0.135 A 
ATOM     89  C   UNL A   1      42.858  29.617  35.238  1.00  0.00     0.135 A 
ATOM     90  F   UNL A   1      41.420  27.838  32.410  1.00  0.00    -0.206 F 
ATOM     91  C   UNL A   1      41.624  27.198  34.649  1.00  0.00     0.059 A 
ATOM     92  C   UNL A   1      42.722  28.660  36.237  1.00  0.00     0.059 A 
ATOM     93  F   UNL A   1      43.485  30.764  35.553  1.00  0.00    -0.206 F 
ATOM     94  C   UNL A   1      42.087  27.457  35.939  1.00  0.00     0.060 A 
BRANCH  94  95
ATOM     95  S   UNL A   1      41.914  26.189  37.211  1.00  0.00     0.124 S 
ATOM     96  O   UNL A   1      40.563  26.433  37.706  1.00  0.00    -0.237 OA
ATOM     97  O   UNL A   1      42.099  24.953  36.456  1.00  0.00    -0.237 OA
ATOM     98  O   UNL A   1      42.988  26.499  38.151  1.00  0.00    -0.744 OA
ENDBRANCH  94  95
ENDBRANCH  62  87
ENDBRANCH  36  37
ENDBRANCH  28  31
ENDBRANCH  26  27
ENDBRANCH  25  26
ENDBRANCH   1  25
TORSDOF 20
ENDMDL
