MODEL 1
REMARK VINA RESULT:     -11.4      0.000      0.000
REMARK SMILES C[C@H](Oc1ccnc2c(F)cc(F)cc12)C(=O)NCCCNC(=O)c1ccc(-c2c3nc(c(-c4c(F)cc(S(=O)(=O)[O-])cc4F)c4ccc([nH]4)c(-c4c(F)cc(S(=O)(=O)[O-])cc4F)c4nc(c(-c5c(F)cc(S(=O)(=O)[O-])cc5F)c5ccc2[nH]5)C=C4)C=C3)cc1
REMARK SMILES IDX 20 1 19 2 18 3 16 4 17 5 2 7 1 8 3 9 4 10 5 11 15 12 6 13
REMARK SMILES IDX 8 14 14 15 7 16 9 17 12 18 10 19 11 20 13 21 21 22 22 23
REMARK SMILES IDX 23 24 24 26 25 27 26 28 90 29 27 30 89 31 28 32 29 33 30 34
REMARK SMILES IDX 83 35 31 36 88 37 82 38 84 39 32 40 87 41 81 42 80 43 33 45
REMARK SMILES IDX 67 46 46 47 66 48 47 49 50 50 65 51 85 52 48 53 49 54 64 56
REMARK SMILES IDX 86 57 51 58 34 59 35 60 44 61 36 62 37 63 43 64 45 65 38 66
REMARK SMILES IDX 39 67 40 68 41 69 42 70 68 71 69 72 78 73 70 74 71 75 77 76
REMARK SMILES IDX 79 77 72 78 73 79 74 80 75 81 76 82 52 83 53 84 62 85 54 86
REMARK SMILES IDX 55 87 61 88 63 89 56 90 57 91 58 92 59 93 60 94
REMARK H PARENT 18 6 22 25 84 44 50 55
REMARK Flexibility Score: inf
ROOT
ATOM      1  C   UNL A   1      33.666  27.896  25.187  1.00  0.00     0.042 C 
ENDROOT
BRANCH   1   2
ATOM      2  C   UNL A   1      33.681  26.429  24.775  1.00  0.00     0.118 C 
BRANCH   2   3
ATOM      3  N   UNL A   1      33.750  26.216  23.340  1.00  0.00    -0.353 N 
ATOM      4  C   UNL A   1      33.299  25.195  22.566  1.00  0.00     0.260 C 
ATOM      5  O   UNL A   1      33.455  25.296  21.344  1.00  0.00    -0.271 OA
ATOM      6  H   UNL A   1      34.204  26.934  22.843  1.00  0.00     0.163 HD
BRANCH   4   7
ATOM      7  C   UNL A   1      32.607  23.945  23.160  1.00  0.00     0.258 C 
ATOM      8  C   UNL A   1      31.093  24.170  23.086  1.00  0.00     0.064 C 
BRANCH   7   9
ATOM      9  O   UNL A   1      32.908  23.489  24.471  1.00  0.00    -0.480 OA
BRANCH   9  10
ATOM     10  C   UNL A   1      33.368  22.211  24.674  1.00  0.00     0.131 A 
ATOM     11  C   UNL A   1      32.591  21.064  24.571  1.00  0.00     0.067 A 
ATOM     12  C   UNL A   1      34.759  22.088  24.914  1.00  0.00     0.048 A 
ATOM     13  C   UNL A   1      33.235  19.844  24.549  1.00  0.00     0.115 A 
ATOM     14  C   UNL A   1      35.324  20.794  24.879  1.00  0.00     0.110 A 
ATOM     15  C   UNL A   1      35.595  23.198  25.173  1.00  0.00     0.053 A 
ATOM     16  N   UNL A   1      34.567  19.699  24.667  1.00  0.00    -0.253 NA
ATOM     17  C   UNL A   1      36.706  20.677  25.062  1.00  0.00     0.152 A 
ATOM     18  C   UNL A   1      36.957  23.026  25.389  1.00  0.00     0.127 A 
ATOM     19  F   UNL A   1      37.281  19.466  24.993  1.00  0.00    -0.204 F 
ATOM     20  C   UNL A   1      37.528  21.770  25.321  1.00  0.00     0.080 A 
ATOM     21  F   UNL A   1      37.718  24.090  25.667  1.00  0.00    -0.207 F 
ENDBRANCH   9  10
ENDBRANCH   7   9
ENDBRANCH   4   7
ENDBRANCH   2   3
ENDBRANCH   1   2
BRANCH   1  22
ATOM     22  C   UNL A   1      33.928  28.152  26.664  1.00  0.00     0.118 C 
BRANCH  22  23
ATOM     23  N   UNL A   1      33.667  29.534  27.031  1.00  0.00    -0.352 N 
ATOM     24  C   UNL A   1      34.428  30.381  27.799  1.00  0.00     0.251 C 
ATOM     25  H   UNL A   1      32.829  29.915  26.681  1.00  0.00     0.163 HD
ATOM     26  O   UNL A   1      33.939  31.428  28.220  1.00  0.00    -0.269 OA
BRANCH  24  27
ATOM     27  C   UNL A   1      35.823  30.023  28.128  1.00  0.00     0.039 A 
ATOM     28  C   UNL A   1      36.803  30.115  27.136  1.00  0.00     0.014 A 
ATOM     29  C   UNL A   1      36.157  29.574  29.409  1.00  0.00     0.014 A 
ATOM     30  C   UNL A   1      38.129  29.804  27.445  1.00  0.00     0.010 A 
ATOM     31  C   UNL A   1      37.487  29.332  29.734  1.00  0.00     0.010 A 
ATOM     32  C   UNL A   1      38.482  29.425  28.751  1.00  0.00    -0.014 A 
BRANCH  32  33
ATOM     33  C   UNL A   1      39.876  29.051  29.091  1.00  0.00     0.031 A 
ATOM     34  C   UNL A   1      40.758  30.051  29.787  1.00  0.00     0.074 A 
ATOM     35  C   UNL A   1      40.357  27.841  28.748  1.00  0.00     0.049 A 
ATOM     36  N   UNL A   1      42.013  29.944  30.136  1.00  0.00    -0.248 NA
ATOM     37  C   UNL A   1      40.151  31.351  30.119  1.00  0.00     0.031 C 
ATOM     38  C   UNL A   1      39.603  26.798  28.051  1.00  0.00     0.029 A 
ATOM     39  N   UNL A   1      41.598  27.285  28.935  1.00  0.00    -0.354 N 
ATOM     40  C   UNL A   1      42.344  31.155  30.731  1.00  0.00     0.074 A 
ATOM     41  C   UNL A   1      41.179  32.006  30.638  1.00  0.00     0.031 C 
ATOM     42  C   UNL A   1      40.392  25.722  27.887  1.00  0.00     0.029 A 
ATOM     43  C   UNL A   1      41.715  26.010  28.435  1.00  0.00     0.049 A 
ATOM     44  H   UNL A   1      42.337  27.757  29.386  1.00  0.00     0.167 HD
ATOM     45  C   UNL A   1      43.503  31.516  31.329  1.00  0.00     0.037 A 
ATOM     46  C   UNL A   1      42.771  25.173  28.418  1.00  0.00     0.037 A 
ATOM     47  C   UNL A   1      44.657  30.660  31.425  1.00  0.00     0.049 A 
ATOM     48  C   UNL A   1      44.069  25.617  29.042  1.00  0.00     0.074 A 
ATOM     49  C   UNL A   1      45.869  30.919  32.038  1.00  0.00     0.029 A 
ATOM     50  N   UNL A   1      44.744  29.384  30.888  1.00  0.00    -0.354 N 
ATOM     51  N   UNL A   1      44.350  26.745  29.648  1.00  0.00    -0.248 NA
ATOM     52  C   UNL A   1      45.193  24.672  28.982  1.00  0.00     0.031 C 
ATOM     53  C   UNL A   1      46.707  29.820  31.831  1.00  0.00     0.029 A 
ATOM     54  C   UNL A   1      45.998  28.852  31.135  1.00  0.00     0.049 A 
ATOM     55  H   UNL A   1      44.020  28.924  30.404  1.00  0.00     0.167 HD
ATOM     56  C   UNL A   1      45.674  26.638  30.061  1.00  0.00     0.074 A 
ATOM     57  C   UNL A   1      46.133  25.328  29.651  1.00  0.00     0.031 C 
ATOM     58  C   UNL A   1      46.440  27.543  30.720  1.00  0.00     0.037 A 
BRANCH  45  59
ATOM     59  C   UNL A   1      43.577  32.888  31.941  1.00  0.00     0.058 A 
ATOM     60  C   UNL A   1      43.975  34.004  31.188  1.00  0.00     0.135 A 
ATOM     61  C   UNL A   1      43.202  33.100  33.277  1.00  0.00     0.135 A 
ATOM     62  F   UNL A   1      44.362  33.856  29.911  1.00  0.00    -0.206 F 
ATOM     63  C   UNL A   1      44.018  35.278  31.742  1.00  0.00     0.059 A 
ATOM     64  C   UNL A   1      43.210  34.370  33.844  1.00  0.00     0.059 A 
ATOM     65  F   UNL A   1      42.817  32.067  34.043  1.00  0.00    -0.206 F 
ATOM     66  C   UNL A   1      43.628  35.452  33.071  1.00  0.00     0.060 A 
BRANCH  66  67
ATOM     67  S   UNL A   1      43.672  37.117  33.765  1.00  0.00     0.124 S 
ATOM     68  O   UNL A   1      43.689  37.938  32.557  1.00  0.00    -0.237 OA
ATOM     69  O   UNL A   1      42.438  37.161  34.543  1.00  0.00    -0.237 OA
ATOM     70  O   UNL A   1      44.905  37.130  34.547  1.00  0.00    -0.744 OA
ENDBRANCH  66  67
ENDBRANCH  45  59
BRANCH  46  71
ATOM     71  C   UNL A   1      42.636  23.818  27.816  1.00  0.00     0.058 A 
ATOM     72  C   UNL A   1      42.494  22.683  28.628  1.00  0.00     0.135 A 
ATOM     73  C   UNL A   1      42.628  23.631  26.425  1.00  0.00     0.135 A 
ATOM     74  F   UNL A   1      42.505  22.808  29.964  1.00  0.00    -0.206 F 
ATOM     75  C   UNL A   1      42.355  21.410  28.085  1.00  0.00     0.059 A 
ATOM     76  C   UNL A   1      42.466  22.370  25.857  1.00  0.00     0.059 A 
ATOM     77  F   UNL A   1      42.751  24.684  25.603  1.00  0.00    -0.206 F 
ATOM     78  C   UNL A   1      42.336  21.265  26.696  1.00  0.00     0.060 A 
BRANCH  78  79
ATOM     79  S   UNL A   1      42.096  19.613  26.005  1.00  0.00     0.124 S 
ATOM     80  O   UNL A   1      40.670  19.623  25.703  1.00  0.00    -0.237 OA
ATOM     81  O   UNL A   1      42.993  19.633  24.853  1.00  0.00    -0.237 OA
ATOM     82  O   UNL A   1      42.505  18.730  27.093  1.00  0.00    -0.744 OA
ENDBRANCH  78  79
ENDBRANCH  46  71
BRANCH  58  83
ATOM     83  C   UNL A   1      47.853  27.152  31.056  1.00  0.00     0.058 A 
ATOM     84  C   UNL A   1      48.174  26.533  32.274  1.00  0.00     0.135 A 
ATOM     85  C   UNL A   1      48.884  27.323  30.118  1.00  0.00     0.135 A 
ATOM     86  F   UNL A   1      47.228  26.350  33.209  1.00  0.00    -0.206 F 
ATOM     87  C   UNL A   1      49.470  26.111  32.556  1.00  0.00     0.059 A 
ATOM     88  C   UNL A   1      50.180  26.883  30.366  1.00  0.00     0.059 A 
ATOM     89  F   UNL A   1      48.630  27.899  28.931  1.00  0.00    -0.206 F 
ATOM     90  C   UNL A   1      50.465  26.284  31.592  1.00  0.00     0.060 A 
BRANCH  90  91
ATOM     91  S   UNL A   1      52.130  25.690  31.958  1.00  0.00     0.124 S 
ATOM     92  O   UNL A   1      52.468  26.470  33.144  1.00  0.00    -0.237 OA
ATOM     93  O   UNL A   1      51.908  24.264  32.177  1.00  0.00    -0.237 OA
ATOM     94  O   UNL A   1      52.883  26.024  30.753  1.00  0.00    -0.744 OA
ENDBRANCH  90  91
ENDBRANCH  58  83
ENDBRANCH  32  33
ENDBRANCH  24  27
ENDBRANCH  22  23
ENDBRANCH   1  22
TORSDOF 15
ENDMDL
MODEL 2
REMARK VINA RESULT:     -11.4      1.128      2.253
REMARK SMILES C[C@H](Oc1ccnc2c(F)cc(F)cc12)C(=O)NCCCNC(=O)c1ccc(-c2c3nc(c(-c4c(F)cc(S(=O)(=O)[O-])cc4F)c4ccc([nH]4)c(-c4c(F)cc(S(=O)(=O)[O-])cc4F)c4nc(c(-c5c(F)cc(S(=O)(=O)[O-])cc5F)c5ccc2[nH]5)C=C4)C=C3)cc1
REMARK SMILES IDX 20 1 19 2 18 3 16 4 17 5 2 7 1 8 3 9 4 10 5 11 15 12 6 13
REMARK SMILES IDX 8 14 14 15 7 16 9 17 12 18 10 19 11 20 13 21 21 22 22 23
REMARK SMILES IDX 23 24 24 26 25 27 26 28 90 29 27 30 89 31 28 32 29 33 30 34
REMARK SMILES IDX 83 35 31 36 88 37 82 38 84 39 32 40 87 41 81 42 80 43 33 45
REMARK SMILES IDX 67 46 46 47 66 48 47 49 50 50 65 51 85 52 48 53 49 54 64 56
REMARK SMILES IDX 86 57 51 58 34 59 35 60 44 61 36 62 37 63 43 64 45 65 38 66
REMARK SMILES IDX 39 67 40 68 41 69 42 70 68 71 69 72 78 73 70 74 71 75 77 76
REMARK SMILES IDX 79 77 72 78 73 79 74 80 75 81 76 82 52 83 53 84 62 85 54 86
REMARK SMILES IDX 55 87 61 88 63 89 56 90 57 91 58 92 59 93 60 94
REMARK H PARENT 18 6 22 25 84 44 50 55
REMARK Flexibility Score: inf
ROOT
ATOM      1  C   UNL A   1      33.992  27.999  25.350  1.00  0.00     0.042 C 
ENDROOT
BRANCH   1   2
ATOM      2  C   UNL A   1      33.128  26.882  24.774  1.00  0.00     0.118 C 
BRANCH   2   3
ATOM      3  N   UNL A   1      32.078  26.424  25.667  1.00  0.00    -0.353 N 
ATOM      4  C   UNL A   1      31.652  25.171  25.976  1.00  0.00     0.260 C 
ATOM      5  O   UNL A   1      30.755  25.068  26.819  1.00  0.00    -0.271 OA
ATOM      6  H   UNL A   1      31.591  27.145  26.127  1.00  0.00     0.163 HD
BRANCH   4   7
ATOM      7  C   UNL A   1      32.252  23.905  25.320  1.00  0.00     0.258 C 
ATOM      8  C   UNL A   1      31.089  23.049  24.808  1.00  0.00     0.064 C 
BRANCH   7   9
ATOM      9  O   UNL A   1      33.130  23.049  26.037  1.00  0.00    -0.480 OA
BRANCH   9  10
ATOM     10  C   UNL A   1      34.436  22.900  25.637  1.00  0.00     0.131 A 
ATOM     11  C   UNL A   1      35.384  23.916  25.634  1.00  0.00     0.067 A 
ATOM     12  C   UNL A   1      34.830  21.582  25.299  1.00  0.00     0.048 A 
ATOM     13  C   UNL A   1      36.707  23.569  25.454  1.00  0.00     0.115 A 
ATOM     14  C   UNL A   1      36.209  21.328  25.127  1.00  0.00     0.110 A 
ATOM     15  C   UNL A   1      33.909  20.521  25.140  1.00  0.00     0.053 A 
ATOM     16  N   UNL A   1      37.126  22.309  25.237  1.00  0.00    -0.253 NA
ATOM     17  C   UNL A   1      36.604  20.016  24.847  1.00  0.00     0.152 A 
ATOM     18  C   UNL A   1      34.348  19.242  24.821  1.00  0.00     0.127 A 
ATOM     19  F   UNL A   1      37.910  19.731  24.719  1.00  0.00    -0.204 F 
ATOM     20  C   UNL A   1      35.696  18.973  24.686  1.00  0.00     0.080 A 
ATOM     21  F   UNL A   1      33.452  18.266  24.640  1.00  0.00    -0.207 F 
ENDBRANCH   9  10
ENDBRANCH   7   9
ENDBRANCH   4   7
ENDBRANCH   2   3
ENDBRANCH   1   2
BRANCH   1  22
ATOM     22  C   UNL A   1      33.878  28.189  26.855  1.00  0.00     0.118 C 
BRANCH  22  23
ATOM     23  N   UNL A   1      33.655  29.581  27.211  1.00  0.00    -0.352 N 
ATOM     24  C   UNL A   1      34.462  30.426  27.932  1.00  0.00     0.251 C 
ATOM     25  H   UNL A   1      32.809  29.970  26.891  1.00  0.00     0.163 HD
ATOM     26  O   UNL A   1      34.009  31.487  28.358  1.00  0.00    -0.269 OA
BRANCH  24  27
ATOM     27  C   UNL A   1      35.864  30.050  28.206  1.00  0.00     0.039 A 
ATOM     28  C   UNL A   1      36.204  29.552  29.467  1.00  0.00     0.014 A 
ATOM     29  C   UNL A   1      36.847  30.211  27.224  1.00  0.00     0.014 A 
ATOM     30  C   UNL A   1      37.522  29.170  29.726  1.00  0.00     0.010 A 
ATOM     31  C   UNL A   1      38.143  29.765  27.461  1.00  0.00     0.010 A 
ATOM     32  C   UNL A   1      38.497  29.259  28.719  1.00  0.00    -0.014 A 
BRANCH  32  33
ATOM     33  C   UNL A   1      39.910  28.897  28.984  1.00  0.00     0.031 A 
ATOM     34  C   UNL A   1      40.831  29.917  29.596  1.00  0.00     0.074 A 
ATOM     35  C   UNL A   1      40.373  27.677  28.647  1.00  0.00     0.049 A 
ATOM     36  N   UNL A   1      42.105  29.821  29.870  1.00  0.00    -0.248 NA
ATOM     37  C   UNL A   1      40.242  31.225  29.928  1.00  0.00     0.031 C 
ATOM     38  C   UNL A   1      39.580  26.615  28.027  1.00  0.00     0.029 A 
ATOM     39  N   UNL A   1      41.624  27.129  28.773  1.00  0.00    -0.354 N 
ATOM     40  C   UNL A   1      42.468  31.048  30.409  1.00  0.00     0.074 A 
ATOM     41  C   UNL A   1      41.298  31.896  30.364  1.00  0.00     0.031 C 
ATOM     42  C   UNL A   1      40.360  25.535  27.845  1.00  0.00     0.029 A 
ATOM     43  C   UNL A   1      41.713  25.840  28.302  1.00  0.00     0.049 A 
ATOM     44  H   UNL A   1      42.387  27.613  29.164  1.00  0.00     0.167 HD
ATOM     45  C   UNL A   1      43.661  31.426  30.925  1.00  0.00     0.037 A 
ATOM     46  C   UNL A   1      42.768  25.003  28.245  1.00  0.00     0.037 A 
ATOM     47  C   UNL A   1      44.821  30.575  30.974  1.00  0.00     0.049 A 
ATOM     48  C   UNL A   1      44.101  25.465  28.775  1.00  0.00     0.074 A 
ATOM     49  C   UNL A   1      46.067  30.852  31.504  1.00  0.00     0.029 A 
ATOM     50  N   UNL A   1      44.878  29.284  30.470  1.00  0.00    -0.354 N 
ATOM     51  N   UNL A   1      44.415  26.611  29.331  1.00  0.00    -0.248 NA
ATOM     52  C   UNL A   1      45.222  24.520  28.673  1.00  0.00     0.031 C 
ATOM     53  C   UNL A   1      46.894  29.748  31.277  1.00  0.00     0.029 A 
ATOM     54  C   UNL A   1      46.146  28.760  30.654  1.00  0.00     0.049 A 
ATOM     55  H   UNL A   1      44.127  28.810  30.044  1.00  0.00     0.167 HD
ATOM     56  C   UNL A   1      45.762  26.517  29.665  1.00  0.00     0.074 A 
ATOM     57  C   UNL A   1      46.199  25.195  29.265  1.00  0.00     0.031 C 
ATOM     58  C   UNL A   1      46.566  27.441  30.250  1.00  0.00     0.037 A 
BRANCH  45  59
ATOM     59  C   UNL A   1      43.769  32.815  31.492  1.00  0.00     0.058 A 
ATOM     60  C   UNL A   1      44.157  33.903  30.694  1.00  0.00     0.135 A 
ATOM     61  C   UNL A   1      43.436  33.072  32.832  1.00  0.00     0.135 A 
ATOM     62  F   UNL A   1      44.504  33.712  29.411  1.00  0.00    -0.206 F 
ATOM     63  C   UNL A   1      44.231  35.193  31.207  1.00  0.00     0.059 A 
ATOM     64  C   UNL A   1      43.475  34.359  33.359  1.00  0.00     0.059 A 
ATOM     65  F   UNL A   1      43.063  32.068  33.640  1.00  0.00    -0.206 F 
ATOM     66  C   UNL A   1      43.883  35.412  32.541  1.00  0.00     0.060 A 
BRANCH  66  67
ATOM     67  S   UNL A   1      43.967  37.097  33.182  1.00  0.00     0.124 S 
ATOM     68  O   UNL A   1      42.758  37.160  34.000  1.00  0.00    -0.237 OA
ATOM     69  O   UNL A   1      45.228  37.086  33.917  1.00  0.00    -0.237 OA
ATOM     70  O   UNL A   1      43.951  37.923  31.979  1.00  0.00    -0.744 OA
ENDBRANCH  66  67
ENDBRANCH  45  59
BRANCH  46  71
ATOM     71  C   UNL A   1      42.600  23.632  27.691  1.00  0.00     0.058 A 
ATOM     72  C   UNL A   1      42.674  23.402  26.309  1.00  0.00     0.135 A 
ATOM     73  C   UNL A   1      42.380  22.525  28.525  1.00  0.00     0.135 A 
ATOM     74  F   UNL A   1      42.873  24.428  25.467  1.00  0.00    -0.206 F 
ATOM     75  C   UNL A   1      42.530  22.127  25.772  1.00  0.00     0.059 A 
ATOM     76  C   UNL A   1      42.258  21.236  28.014  1.00  0.00     0.059 A 
ATOM     77  F   UNL A   1      42.311  22.688  29.855  1.00  0.00    -0.206 F 
ATOM     78  C   UNL A   1      42.329  21.048  26.635  1.00  0.00     0.060 A 
BRANCH  78  79
ATOM     79  S   UNL A   1      42.203  19.390  25.928  1.00  0.00     0.124 S 
ATOM     80  O   UNL A   1      43.027  19.515  24.732  1.00  0.00    -0.237 OA
ATOM     81  O   UNL A   1      42.752  18.562  26.998  1.00  0.00    -0.237 OA
ATOM     82  O   UNL A   1      40.771  19.232  25.694  1.00  0.00    -0.744 OA
ENDBRANCH  78  79
ENDBRANCH  46  71
BRANCH  58  83
ATOM     83  C   UNL A   1      47.997  27.060  30.510  1.00  0.00     0.058 A 
ATOM     84  C   UNL A   1      49.013  27.346  29.585  1.00  0.00     0.135 A 
ATOM     85  C   UNL A   1      48.369  26.475  31.732  1.00  0.00     0.135 A 
ATOM     86  F   UNL A   1      48.713  27.899  28.400  1.00  0.00    -0.206 F 
ATOM     87  C   UNL A   1      50.346  27.053  29.856  1.00  0.00     0.059 A 
ATOM     88  C   UNL A   1      49.699  26.200  32.036  1.00  0.00     0.059 A 
ATOM     89  F   UNL A   1      47.438  26.191  32.658  1.00  0.00    -0.206 F 
ATOM     90  C   UNL A   1      50.680  26.486  31.088  1.00  0.00     0.060 A 
BRANCH  90  91
ATOM     91  S   UNL A   1      52.419  26.154  31.440  1.00  0.00     0.124 S 
ATOM     92  O   UNL A   1      52.361  24.789  31.953  1.00  0.00    -0.237 OA
ATOM     93  O   UNL A   1      53.037  26.313  30.127  1.00  0.00    -0.237 OA
ATOM     94  O   UNL A   1      52.771  27.177  32.420  1.00  0.00    -0.744 OA
ENDBRANCH  90  91
ENDBRANCH  58  83
ENDBRANCH  32  33
ENDBRANCH  24  27
ENDBRANCH  22  23
ENDBRANCH   1  22
TORSDOF 15
ENDMDL
MODEL 3
REMARK VINA RESULT:     -11.4      3.695     10.379
REMARK SMILES C[C@H](Oc1ccnc2c(F)cc(F)cc12)C(=O)NCCCNC(=O)c1ccc(-c2c3nc(c(-c4c(F)cc(S(=O)(=O)[O-])cc4F)c4ccc([nH]4)c(-c4c(F)cc(S(=O)(=O)[O-])cc4F)c4nc(c(-c5c(F)cc(S(=O)(=O)[O-])cc5F)c5ccc2[nH]5)C=C4)C=C3)cc1
REMARK SMILES IDX 20 1 19 2 18 3 16 4 17 5 2 7 1 8 3 9 4 10 5 11 15 12 6 13
REMARK SMILES IDX 8 14 14 15 7 16 9 17 12 18 10 19 11 20 13 21 21 22 22 23
REMARK SMILES IDX 23 24 24 26 25 27 26 28 90 29 27 30 89 31 28 32 29 33 30 34
REMARK SMILES IDX 83 35 31 36 88 37 82 38 84 39 32 40 87 41 81 42 80 43 33 45
REMARK SMILES IDX 67 46 46 47 66 48 47 49 50 50 65 51 85 52 48 53 49 54 64 56
REMARK SMILES IDX 86 57 51 58 34 59 35 60 44 61 36 62 37 63 43 64 45 65 38 66
REMARK SMILES IDX 39 67 40 68 41 69 42 70 68 71 69 72 78 73 70 74 71 75 77 76
REMARK SMILES IDX 79 77 72 78 73 79 74 80 75 81 76 82 52 83 53 84 62 85 54 86
REMARK SMILES IDX 55 87 61 88 63 89 56 90 57 91 58 92 59 93 60 94
REMARK H PARENT 18 6 22 25 84 44 50 55
REMARK Flexibility Score: inf
ROOT
ATOM      1  C   UNL A   1      41.086  20.322  26.138  1.00  0.00     0.042 C 
ENDROOT
BRANCH   1   2
ATOM      2  C   UNL A   1      42.352  19.896  26.873  1.00  0.00     0.118 C 
BRANCH   2   3
ATOM      3  N   UNL A   1      43.208  19.003  26.112  1.00  0.00    -0.353 N 
ATOM      4  C   UNL A   1      44.292  19.255  25.331  1.00  0.00     0.260 C 
ATOM      5  O   UNL A   1      44.869  18.284  24.830  1.00  0.00    -0.271 OA
ATOM      6  H   UNL A   1      42.960  18.053  26.170  1.00  0.00     0.163 HD
BRANCH   4   7
ATOM      7  C   UNL A   1      44.810  20.689  25.067  1.00  0.00     0.258 C 
ATOM      8  C   UNL A   1      46.271  20.583  24.621  1.00  0.00     0.064 C 
BRANCH   7   9
ATOM      9  O   UNL A   1      44.741  21.694  26.068  1.00  0.00    -0.480 OA
BRANCH   9  10
ATOM     10  C   UNL A   1      44.407  22.985  25.737  1.00  0.00     0.131 A 
ATOM     11  C   UNL A   1      43.289  23.348  24.997  1.00  0.00     0.067 A 
ATOM     12  C   UNL A   1      45.236  23.995  26.284  1.00  0.00     0.048 A 
ATOM     13  C   UNL A   1      42.942  24.683  24.957  1.00  0.00     0.115 A 
ATOM     14  C   UNL A   1      44.797  25.334  26.187  1.00  0.00     0.110 A 
ATOM     15  C   UNL A   1      46.464  23.718  26.926  1.00  0.00     0.053 A 
ATOM     16  N   UNL A   1      43.649  25.657  25.558  1.00  0.00    -0.253 NA
ATOM     17  C   UNL A   1      45.587  26.327  26.774  1.00  0.00     0.152 A 
ATOM     18  C   UNL A   1      47.234  24.744  27.459  1.00  0.00     0.127 A 
ATOM     19  F   UNL A   1      45.179  27.606  26.737  1.00  0.00    -0.204 F 
ATOM     20  C   UNL A   1      46.799  26.054  27.403  1.00  0.00     0.080 A 
ATOM     21  F   UNL A   1      48.409  24.456  28.029  1.00  0.00    -0.207 F 
ENDBRANCH   9  10
ENDBRANCH   7   9
ENDBRANCH   4   7
ENDBRANCH   2   3
ENDBRANCH   1   2
BRANCH   1  22
ATOM     22  C   UNL A   1      40.556  21.697  26.514  1.00  0.00     0.118 C 
BRANCH  22  23
ATOM     23  N   UNL A   1      39.348  22.034  25.778  1.00  0.00    -0.352 N 
ATOM     24  C   UNL A   1      38.539  23.136  25.907  1.00  0.00     0.251 C 
ATOM     25  H   UNL A   1      39.074  21.383  25.092  1.00  0.00     0.163 HD
ATOM     26  O   UNL A   1      37.424  23.139  25.387  1.00  0.00    -0.269 OA
BRANCH  24  27
ATOM     27  C   UNL A   1      39.004  24.304  26.683  1.00  0.00     0.039 A 
ATOM     28  C   UNL A   1      38.602  24.443  28.014  1.00  0.00     0.014 A 
ATOM     29  C   UNL A   1      39.817  25.273  26.088  1.00  0.00     0.014 A 
ATOM     30  C   UNL A   1      39.058  25.531  28.762  1.00  0.00     0.010 A 
ATOM     31  C   UNL A   1      40.326  26.317  26.853  1.00  0.00     0.010 A 
ATOM     32  C   UNL A   1      39.936  26.466  28.191  1.00  0.00    -0.014 A 
BRANCH  32  33
ATOM     33  C   UNL A   1      40.400  27.650  28.955  1.00  0.00     0.031 A 
ATOM     34  C   UNL A   1      41.777  27.643  29.559  1.00  0.00     0.074 A 
ATOM     35  C   UNL A   1      39.582  28.705  29.135  1.00  0.00     0.049 A 
ATOM     36  N   UNL A   1      42.361  28.552  30.295  1.00  0.00    -0.248 NA
ATOM     37  C   UNL A   1      42.601  26.447  29.317  1.00  0.00     0.031 C 
ATOM     38  C   UNL A   1      38.218  28.815  28.616  1.00  0.00     0.029 A 
ATOM     39  N   UNL A   1      39.778  29.884  29.809  1.00  0.00    -0.354 N 
ATOM     40  C   UNL A   1      43.617  28.042  30.598  1.00  0.00     0.074 A 
ATOM     41  C   UNL A   1      43.688  26.718  30.023  1.00  0.00     0.031 C 
ATOM     42  C   UNL A   1      37.707  30.005  28.975  1.00  0.00     0.029 A 
ATOM     43  C   UNL A   1      38.692  30.727  29.777  1.00  0.00     0.049 A 
ATOM     44  H   UNL A   1      40.618  30.105  30.274  1.00  0.00     0.167 HD
ATOM     45  C   UNL A   1      44.632  28.635  31.269  1.00  0.00     0.037 A 
ATOM     46  C   UNL A   1      38.513  31.941  30.334  1.00  0.00     0.037 A 
ATOM     47  C   UNL A   1      44.557  29.957  31.833  1.00  0.00     0.049 A 
ATOM     48  C   UNL A   1      39.639  32.559  31.123  1.00  0.00     0.074 A 
ATOM     49  C   UNL A   1      45.540  30.661  32.503  1.00  0.00     0.029 A 
ATOM     50  N   UNL A   1      43.435  30.771  31.797  1.00  0.00    -0.354 N 
ATOM     51  N   UNL A   1      40.840  32.086  31.356  1.00  0.00    -0.248 NA
ATOM     52  C   UNL A   1      39.386  33.877  31.723  1.00  0.00     0.031 C 
ATOM     53  C   UNL A   1      44.999  31.881  32.917  1.00  0.00     0.029 A 
ATOM     54  C   UNL A   1      43.693  31.961  32.456  1.00  0.00     0.049 A 
ATOM     55  H   UNL A   1      42.581  30.538  31.366  1.00  0.00     0.167 HD
ATOM     56  C   UNL A   1      41.493  33.056  32.109  1.00  0.00     0.074 A 
ATOM     57  C   UNL A   1      40.560  34.151  32.278  1.00  0.00     0.031 C 
ATOM     58  C   UNL A   1      42.752  33.043  32.615  1.00  0.00     0.037 A 
BRANCH  45  59
ATOM     59  C   UNL A   1      45.916  27.866  31.416  1.00  0.00     0.058 A 
ATOM     60  C   UNL A   1      46.966  28.012  30.496  1.00  0.00     0.135 A 
ATOM     61  C   UNL A   1      46.120  27.010  32.511  1.00  0.00     0.135 A 
ATOM     62  F   UNL A   1      46.818  28.802  29.420  1.00  0.00    -0.206 F 
ATOM     63  C   UNL A   1      48.165  27.324  30.644  1.00  0.00     0.059 A 
ATOM     64  C   UNL A   1      47.322  26.334  32.695  1.00  0.00     0.059 A 
ATOM     65  F   UNL A   1      45.147  26.831  33.418  1.00  0.00    -0.206 F 
ATOM     66  C   UNL A   1      48.335  26.490  31.750  1.00  0.00     0.060 A 
BRANCH  66  67
ATOM     67  S   UNL A   1      49.906  25.621  31.934  1.00  0.00     0.124 S 
ATOM     68  O   UNL A   1      50.124  25.120  30.580  1.00  0.00    -0.237 OA
ATOM     69  O   UNL A   1      50.802  26.690  32.364  1.00  0.00    -0.237 OA
ATOM     70  O   UNL A   1      49.619  24.603  32.939  1.00  0.00    -0.744 OA
ENDBRANCH  66  67
ENDBRANCH  45  59
BRANCH  46  71
ATOM     71  C   UNL A   1      37.228  32.666  30.140  1.00  0.00     0.058 A 
ATOM     72  C   UNL A   1      36.142  32.445  31.000  1.00  0.00     0.135 A 
ATOM     73  C   UNL A   1      37.062  33.603  29.108  1.00  0.00     0.135 A 
ATOM     74  F   UNL A   1      36.246  31.552  31.997  1.00  0.00    -0.206 F 
ATOM     75  C   UNL A   1      34.936  33.120  30.842  1.00  0.00     0.059 A 
ATOM     76  C   UNL A   1      35.874  34.309  28.944  1.00  0.00     0.059 A 
ATOM     77  F   UNL A   1      38.073  33.859  28.263  1.00  0.00    -0.206 F 
ATOM     78  C   UNL A   1      34.814  34.057  29.813  1.00  0.00     0.060 A 
BRANCH  78  79
ATOM     79  S   UNL A   1      33.263  34.969  29.657  1.00  0.00     0.124 S 
ATOM     80  O   UNL A   1      32.531  34.145  28.702  1.00  0.00    -0.237 OA
ATOM     81  O   UNL A   1      32.763  34.954  31.028  1.00  0.00    -0.237 OA
ATOM     82  O   UNL A   1      33.689  36.275  29.166  1.00  0.00    -0.744 OA
ENDBRANCH  78  79
ENDBRANCH  46  71
BRANCH  58  83
ATOM     83  C   UNL A   1      43.208  34.249  33.390  1.00  0.00     0.058 A 
ATOM     84  C   UNL A   1      43.687  35.399  32.744  1.00  0.00     0.135 A 
ATOM     85  C   UNL A   1      43.089  34.285  34.789  1.00  0.00     0.135 A 
ATOM     86  F   UNL A   1      43.827  35.416  31.409  1.00  0.00    -0.206 F 
ATOM     87  C   UNL A   1      44.046  36.538  33.459  1.00  0.00     0.059 A 
ATOM     88  C   UNL A   1      43.414  35.423  35.521  1.00  0.00     0.059 A 
ATOM     89  F   UNL A   1      42.624  33.216  35.457  1.00  0.00    -0.206 F 
ATOM     90  C   UNL A   1      43.899  36.542  34.847  1.00  0.00     0.060 A 
BRANCH  90  91
ATOM     91  S   UNL A   1      44.328  38.043  35.753  1.00  0.00     0.124 S 
ATOM     92  O   UNL A   1      43.574  37.867  36.990  1.00  0.00    -0.237 OA
ATOM     93  O   UNL A   1      45.779  37.930  35.872  1.00  0.00    -0.237 OA
ATOM     94  O   UNL A   1      43.857  39.115  34.881  1.00  0.00    -0.744 OA
ENDBRANCH  90  91
ENDBRANCH  58  83
ENDBRANCH  32  33
ENDBRANCH  24  27
ENDBRANCH  22  23
ENDBRANCH   1  22
TORSDOF 15
ENDMDL
