MODEL 1
REMARK VINA RESULT:     -13.5      0.000      0.000
REMARK SMILES C[NH+]1CCC([NH+]2CCC(Oc3ccc4ccccc4c3)(C(=O)NCCCNC(=O)c3ccc(-c4c5nc(c(-c6c(F)cc(S(=O)(=O)[O-])cc6F)c6ccc([nH]6)c(-c6c(F)cc(S(=O)(=O)[O-])cc6F)c6nc(c(-c7c(F)cc(S(=O)(=O)[O-])cc7F)c7ccc4[nH]7)C=C6)C=C5)cc3)CC2)CC1
REMARK SMILES IDX 25 1 24 2 23 3 21 4 22 5 9 7 6 8 7 9 97 10 8 12 96 13 5 14
REMARK SMILES IDX 1 15 2 16 3 17 99 18 4 20 98 21 10 22 11 23 12 24 20 25
REMARK SMILES IDX 13 26 19 27 14 28 18 29 15 30 17 31 16 32 26 33 27 34 28 35
REMARK SMILES IDX 29 37 30 38 31 39 95 40 32 41 94 42 33 43 34 44 35 45 88 46
REMARK SMILES IDX 36 47 93 48 87 49 89 50 37 51 92 52 86 53 85 54 38 56 72 57
REMARK SMILES IDX 51 58 71 59 52 60 55 61 70 62 90 63 53 64 54 65 69 67 91 68
REMARK SMILES IDX 56 69 39 70 40 71 49 72 41 73 42 74 48 75 50 76 43 77 44 78
REMARK SMILES IDX 45 79 46 80 47 81 73 82 74 83 83 84 75 85 76 86 82 87 84 88
REMARK SMILES IDX 77 89 78 90 79 91 80 92 81 93 57 94 58 95 67 96 59 97 60 98
REMARK SMILES IDX 66 99 68 100 61 101 62 102 63 103 64 104 65 105
REMARK H PARENT 23 6 6 11 2 19 27 36 89 55 55 66
REMARK Flexibility Score: inf
ROOT
ATOM      1  C   UNL A   1      39.449  22.269  26.280  1.00  0.00     0.042 C 
ENDROOT
BRANCH   1   2
ATOM      2  C   UNL A   1      38.015  22.721  26.022  1.00  0.00     0.118 C 
BRANCH   2   3
ATOM      3  N   UNL A   1      37.674  22.694  24.609  1.00  0.00    -0.353 N 
ATOM      4  C   UNL A   1      36.495  22.962  23.969  1.00  0.00     0.264 C 
ATOM      5  O   UNL A   1      36.548  22.985  22.735  1.00  0.00    -0.270 OA
ATOM      6  H   UNL A   1      38.415  22.440  24.013  1.00  0.00     0.163 HD
BRANCH   4   7
ATOM      7  C   UNL A   1      35.172  23.219  24.755  1.00  0.00     0.197 C 
ATOM      8  N   UNL A   1      33.825  20.597  24.828  1.00  0.00    -0.332 N 
ATOM      9  C   UNL A   1      35.045  20.847  25.602  1.00  0.00     0.267 C 
ATOM     10  C   UNL A   1      33.809  21.387  23.585  1.00  0.00     0.267 C 
ATOM     11  H   UNL A   1      33.048  20.918  25.405  1.00  0.00     0.348 HD
ATOM     12  C   UNL A   1      35.092  22.318  25.991  1.00  0.00     0.120 C 
ATOM     13  C   UNL A   1      33.964  22.897  23.848  1.00  0.00     0.120 C 
BRANCH   8  14
ATOM     14  C   UNL A   1      33.552  19.155  24.593  1.00  0.00     0.195 C 
ATOM     15  C   UNL A   1      33.305  14.906  25.300  1.00  0.00     0.332 C 
ATOM     16  N   UNL A   1      33.571  16.339  25.386  1.00  0.00    -0.337 N 
ATOM     17  C   UNL A   1      32.320  17.102  25.446  1.00  0.00     0.268 C 
ATOM     18  C   UNL A   1      34.406  16.791  24.269  1.00  0.00     0.268 C 
ATOM     19  H   UNL A   1      34.086  16.510  26.249  1.00  0.00     0.347 HD
ATOM     20  C   UNL A   1      32.609  18.585  25.673  1.00  0.00     0.126 C 
ATOM     21  C   UNL A   1      34.795  18.260  24.448  1.00  0.00     0.126 C 
ENDBRANCH   8  14
BRANCH   7  22
ATOM     22  O   UNL A   1      35.288  24.640  25.021  1.00  0.00    -0.477 OA
BRANCH  22  23
ATOM     23  C   UNL A   1      34.172  25.419  25.017  1.00  0.00     0.121 A 
ATOM     24  C   UNL A   1      33.324  25.522  26.114  1.00  0.00     0.047 A 
ATOM     25  C   UNL A   1      33.993  26.265  23.923  1.00  0.00     0.055 A 
ATOM     26  C   UNL A   1      32.226  26.381  26.074  1.00  0.00     0.012 A 
ATOM     27  C   UNL A   1      32.916  27.166  23.881  1.00  0.00    -0.015 A 
ATOM     28  C   UNL A   1      32.005  27.204  24.962  1.00  0.00    -0.018 A 
ATOM     29  C   UNL A   1      32.728  28.039  22.797  1.00  0.00     0.009 A 
ATOM     30  C   UNL A   1      30.913  28.083  24.914  1.00  0.00     0.009 A 
ATOM     31  C   UNL A   1      31.646  28.920  22.772  1.00  0.00     0.001 A 
ATOM     32  C   UNL A   1      30.734  28.935  23.824  1.00  0.00     0.001 A 
ENDBRANCH  22  23
ENDBRANCH   7  22
ENDBRANCH   4   7
ENDBRANCH   2   3
ENDBRANCH   1   2
BRANCH   1  33
ATOM     33  C   UNL A   1      40.330  23.317  26.949  1.00  0.00     0.118 C 
BRANCH  33  34
ATOM     34  N   UNL A   1      41.164  24.037  26.000  1.00  0.00    -0.352 N 
ATOM     35  C   UNL A   1      41.613  25.333  26.017  1.00  0.00     0.251 C 
ATOM     36  H   UNL A   1      41.452  23.510  25.219  1.00  0.00     0.163 HD
ATOM     37  O   UNL A   1      42.147  25.792  25.005  1.00  0.00    -0.269 OA
BRANCH  35  38
ATOM     38  C   UNL A   1      41.453  26.185  27.216  1.00  0.00     0.039 A 
ATOM     39  C   UNL A   1      42.339  27.251  27.403  1.00  0.00     0.014 A 
ATOM     40  C   UNL A   1      40.473  25.922  28.176  1.00  0.00     0.014 A 
ATOM     41  C   UNL A   1      42.205  28.083  28.519  1.00  0.00     0.010 A 
ATOM     42  C   UNL A   1      40.292  26.797  29.247  1.00  0.00     0.010 A 
ATOM     43  C   UNL A   1      41.158  27.884  29.433  1.00  0.00    -0.014 A 
BRANCH  43  44
ATOM     44  C   UNL A   1      40.956  28.807  30.580  1.00  0.00     0.031 A 
ATOM     45  C   UNL A   1      41.789  28.671  31.827  1.00  0.00     0.074 A 
ATOM     46  C   UNL A   1      39.978  29.732  30.522  1.00  0.00     0.049 A 
ATOM     47  N   UNL A   1      41.721  29.348  32.944  1.00  0.00    -0.248 NA
ATOM     48  C   UNL A   1      42.818  27.617  31.827  1.00  0.00     0.031 C 
ATOM     49  C   UNL A   1      39.065  29.928  29.393  1.00  0.00     0.029 A 
ATOM     50  N   UNL A   1      39.579  30.675  31.436  1.00  0.00    -0.354 N 
ATOM     51  C   UNL A   1      42.682  28.796  33.784  1.00  0.00     0.074 A 
ATOM     52  C   UNL A   1      43.286  27.696  33.064  1.00  0.00     0.031 C 
ATOM     53  C   UNL A   1      38.227  30.938  29.674  1.00  0.00     0.029 A 
ATOM     54  C   UNL A   1      38.517  31.439  31.013  1.00  0.00     0.049 A 
ATOM     55  H   UNL A   1      40.011  30.792  32.313  1.00  0.00     0.167 HD
ATOM     56  C   UNL A   1      43.040  29.182  35.032  1.00  0.00     0.037 A 
ATOM     57  C   UNL A   1      37.847  32.429  31.635  1.00  0.00     0.037 A 
ATOM     58  C   UNL A   1      42.452  30.296  35.734  1.00  0.00     0.049 A 
ATOM     59  C   UNL A   1      38.275  32.853  33.014  1.00  0.00     0.074 A 
ATOM     60  C   UNL A   1      42.794  30.810  36.972  1.00  0.00     0.029 A 
ATOM     61  N   UNL A   1      41.399  31.064  35.260  1.00  0.00    -0.354 N 
ATOM     62  N   UNL A   1      39.234  32.365  33.764  1.00  0.00    -0.248 NA
ATOM     63  C   UNL A   1      37.535  33.965  33.626  1.00  0.00     0.031 C 
ATOM     64  C   UNL A   1      41.921  31.862  37.265  1.00  0.00     0.029 A 
ATOM     65  C   UNL A   1      41.065  32.035  36.190  1.00  0.00     0.049 A 
ATOM     66  H   UNL A   1      40.954  30.939  34.390  1.00  0.00     0.167 HD
ATOM     67  C   UNL A   1      39.227  33.125  34.929  1.00  0.00     0.074 A 
ATOM     68  C   UNL A   1      38.179  34.114  34.776  1.00  0.00     0.031 C 
ATOM     69  C   UNL A   1      40.017  33.013  36.025  1.00  0.00     0.037 A 
BRANCH  56  70
ATOM     70  C   UNL A   1      44.122  28.397  35.721  1.00  0.00     0.058 A 
ATOM     71  C   UNL A   1      45.481  28.712  35.557  1.00  0.00     0.135 A 
ATOM     72  C   UNL A   1      43.798  27.336  36.583  1.00  0.00     0.135 A 
ATOM     73  F   UNL A   1      45.850  29.708  34.736  1.00  0.00    -0.206 F 
ATOM     74  C   UNL A   1      46.481  27.983  36.194  1.00  0.00     0.059 A 
ATOM     75  C   UNL A   1      44.780  26.611  37.253  1.00  0.00     0.059 A 
ATOM     76  F   UNL A   1      42.515  26.992  36.778  1.00  0.00    -0.206 F 
ATOM     77  C   UNL A   1      46.120  26.933  37.039  1.00  0.00     0.060 A 
BRANCH  77  78
ATOM     78  S   UNL A   1      47.428  25.997  37.859  1.00  0.00     0.124 S 
ATOM     79  O   UNL A   1      48.624  26.600  37.278  1.00  0.00    -0.237 OA
ATOM     80  O   UNL A   1      47.190  26.293  39.268  1.00  0.00    -0.237 OA
ATOM     81  O   UNL A   1      47.163  24.619  37.458  1.00  0.00    -0.744 OA
ENDBRANCH  77  78
ENDBRANCH  56  70
BRANCH  57  82
ATOM     82  C   UNL A   1      36.714  33.102  30.945  1.00  0.00     0.058 A 
ATOM     83  C   UNL A   1      35.387  32.841  31.314  1.00  0.00     0.135 A 
ATOM     84  C   UNL A   1      36.937  34.035  29.921  1.00  0.00     0.135 A 
ATOM     85  F   UNL A   1      35.122  31.953  32.285  1.00  0.00    -0.206 F 
ATOM     86  C   UNL A   1      34.318  33.470  30.684  1.00  0.00     0.059 A 
ATOM     87  C   UNL A   1      35.887  34.695  29.292  1.00  0.00     0.059 A 
ATOM     88  F   UNL A   1      38.190  34.332  29.543  1.00  0.00    -0.206 F 
ATOM     89  C   UNL A   1      34.579  34.399  29.675  1.00  0.00     0.060 A 
BRANCH  89  90
ATOM     90  S   UNL A   1      33.188  35.253  28.901  1.00  0.00     0.124 S 
ATOM     91  O   UNL A   1      32.383  35.615  30.062  1.00  0.00    -0.237 OA
ATOM     92  O   UNL A   1      33.851  36.358  28.214  1.00  0.00    -0.237 OA
ATOM     93  O   UNL A   1      32.615  34.235  28.026  1.00  0.00    -0.744 OA
ENDBRANCH  89  90
ENDBRANCH  57  82
BRANCH  69  94
ATOM     94  C   UNL A   1      39.798  34.002  37.137  1.00  0.00     0.058 A 
ATOM     95  C   UNL A   1      38.952  33.716  38.220  1.00  0.00     0.135 A 
ATOM     96  C   UNL A   1      40.469  35.235  37.136  1.00  0.00     0.135 A 
ATOM     97  F   UNL A   1      38.282  32.553  38.266  1.00  0.00    -0.206 F 
ATOM     98  C   UNL A   1      38.759  34.629  39.251  1.00  0.00     0.059 A 
ATOM     99  C   UNL A   1      40.312  36.152  38.170  1.00  0.00     0.059 A 
ATOM    100  F   UNL A   1      41.297  35.554  36.129  1.00  0.00    -0.206 F 
ATOM    101  C   UNL A   1      39.443  35.846  39.216  1.00  0.00     0.060 A 
BRANCH 101 102
ATOM    102  S   UNL A   1      39.202  37.015  40.571  1.00  0.00     0.124 S 
ATOM    103  O   UNL A   1      40.563  37.495  40.788  1.00  0.00    -0.237 OA
ATOM    104  O   UNL A   1      38.275  37.981  39.992  1.00  0.00    -0.237 OA
ATOM    105  O   UNL A   1      38.650  36.188  41.639  1.00  0.00    -0.744 OA
ENDBRANCH 101 102
ENDBRANCH  69  94
ENDBRANCH  43  44
ENDBRANCH  35  38
ENDBRANCH  33  34
ENDBRANCH   1  33
TORSDOF 16
ENDMDL
MODEL 2
REMARK VINA RESULT:     -13.3      6.568     12.040
REMARK SMILES C[NH+]1CCC([NH+]2CCC(Oc3ccc4ccccc4c3)(C(=O)NCCCNC(=O)c3ccc(-c4c5nc(c(-c6c(F)cc(S(=O)(=O)[O-])cc6F)c6ccc([nH]6)c(-c6c(F)cc(S(=O)(=O)[O-])cc6F)c6nc(c(-c7c(F)cc(S(=O)(=O)[O-])cc7F)c7ccc4[nH]7)C=C6)C=C5)cc3)CC2)CC1
REMARK SMILES IDX 25 1 24 2 23 3 21 4 22 5 9 7 6 8 7 9 97 10 8 12 96 13 5 14
REMARK SMILES IDX 1 15 2 16 3 17 99 18 4 20 98 21 10 22 11 23 12 24 20 25
REMARK SMILES IDX 13 26 19 27 14 28 18 29 15 30 17 31 16 32 26 33 27 34 28 35
REMARK SMILES IDX 29 37 30 38 31 39 95 40 32 41 94 42 33 43 34 44 35 45 88 46
REMARK SMILES IDX 36 47 93 48 87 49 89 50 37 51 92 52 86 53 85 54 38 56 72 57
REMARK SMILES IDX 51 58 71 59 52 60 55 61 70 62 90 63 53 64 54 65 69 67 91 68
REMARK SMILES IDX 56 69 39 70 40 71 49 72 41 73 42 74 48 75 50 76 43 77 44 78
REMARK SMILES IDX 45 79 46 80 47 81 73 82 74 83 83 84 75 85 76 86 82 87 84 88
REMARK SMILES IDX 77 89 78 90 79 91 80 92 81 93 57 94 58 95 67 96 59 97 60 98
REMARK SMILES IDX 66 99 68 100 61 101 62 102 63 103 64 104 65 105
REMARK H PARENT 23 6 6 11 2 19 27 36 89 55 55 66
REMARK Flexibility Score: inf
ROOT
ATOM      1  C   UNL A   1      34.694  30.838  27.645  1.00  0.00     0.042 C 
ENDROOT
BRANCH   1   2
ATOM      2  C   UNL A   1      34.619  29.319  27.534  1.00  0.00     0.118 C 
BRANCH   2   3
ATOM      3  N   UNL A   1      33.294  28.808  27.843  1.00  0.00    -0.353 N 
ATOM      4  C   UNL A   1      32.510  27.900  27.186  1.00  0.00     0.264 C 
ATOM      5  O   UNL A   1      31.475  27.562  27.770  1.00  0.00    -0.270 OA
ATOM      6  H   UNL A   1      32.893  29.176  28.663  1.00  0.00     0.163 HD
BRANCH   4   7
ATOM      7  C   UNL A   1      32.904  27.334  25.787  1.00  0.00     0.197 C 
ATOM      8  N   UNL A   1      31.077  28.671  23.898  1.00  0.00    -0.332 N 
ATOM      9  C   UNL A   1      32.148  29.411  24.573  1.00  0.00     0.267 C 
ATOM     10  C   UNL A   1      30.574  27.571  24.739  1.00  0.00     0.267 C 
ATOM     11  H   UNL A   1      31.495  28.254  23.066  1.00  0.00     0.348 HD
ATOM     12  C   UNL A   1      33.311  28.466  24.839  1.00  0.00     0.120 C 
ATOM     13  C   UNL A   1      31.692  26.602  25.167  1.00  0.00     0.120 C 
BRANCH   8  14
ATOM     14  C   UNL A   1      29.987  29.538  23.378  1.00  0.00     0.195 C 
ATOM     15  C   UNL A   1      28.015  32.819  21.388  1.00  0.00     0.332 C 
ATOM     16  N   UNL A   1      28.987  31.912  21.991  1.00  0.00    -0.337 N 
ATOM     17  C   UNL A   1      28.993  30.616  21.302  1.00  0.00     0.268 C 
ATOM     18  C   UNL A   1      28.734  31.741  23.424  1.00  0.00     0.268 C 
ATOM     19  H   UNL A   1      29.911  32.329  21.885  1.00  0.00     0.347 HD
ATOM     20  C   UNL A   1      30.106  29.725  21.852  1.00  0.00     0.126 C 
ATOM     21  C   UNL A   1      29.841  30.905  24.070  1.00  0.00     0.126 C 
ENDBRANCH   8  14
BRANCH   7  22
ATOM     22  O   UNL A   1      33.962  26.414  26.156  1.00  0.00    -0.477 OA
BRANCH  22  23
ATOM     23  C   UNL A   1      34.016  25.182  25.580  1.00  0.00     0.121 A 
ATOM     24  C   UNL A   1      34.614  24.955  24.346  1.00  0.00     0.047 A 
ATOM     25  C   UNL A   1      33.601  24.101  26.358  1.00  0.00     0.055 A 
ATOM     26  C   UNL A   1      34.690  23.661  23.830  1.00  0.00     0.012 A 
ATOM     27  C   UNL A   1      33.707  22.786  25.873  1.00  0.00    -0.015 A 
ATOM     28  C   UNL A   1      34.235  22.568  24.579  1.00  0.00    -0.018 A 
ATOM     29  C   UNL A   1      33.313  21.682  26.646  1.00  0.00     0.009 A 
ATOM     30  C   UNL A   1      34.319  21.260  24.080  1.00  0.00     0.009 A 
ATOM     31  C   UNL A   1      33.417  20.386  26.141  1.00  0.00     0.001 A 
ATOM     32  C   UNL A   1      33.911  20.175  24.855  1.00  0.00     0.001 A 
ENDBRANCH  22  23
ENDBRANCH   7  22
ENDBRANCH   4   7
ENDBRANCH   2   3
ENDBRANCH   1   2
BRANCH   1  33
ATOM     33  C   UNL A   1      35.849  31.353  28.496  1.00  0.00     0.118 C 
BRANCH  33  34
ATOM     34  N   UNL A   1      35.755  30.929  29.884  1.00  0.00    -0.352 N 
ATOM     35  C   UNL A   1      36.597  30.146  30.632  1.00  0.00     0.251 C 
ATOM     36  H   UNL A   1      34.959  31.254  30.363  1.00  0.00     0.163 HD
ATOM     37  O   UNL A   1      36.218  29.750  31.737  1.00  0.00    -0.269 OA
BRANCH  35  38
ATOM     38  C   UNL A   1      37.934  29.758  30.131  1.00  0.00     0.039 A 
ATOM     39  C   UNL A   1      38.168  29.791  28.753  1.00  0.00     0.014 A 
ATOM     40  C   UNL A   1      38.942  29.323  30.996  1.00  0.00     0.014 A 
ATOM     41  C   UNL A   1      39.426  29.445  28.250  1.00  0.00     0.010 A 
ATOM     42  C   UNL A   1      40.217  29.051  30.501  1.00  0.00     0.010 A 
ATOM     43  C   UNL A   1      40.473  29.104  29.123  1.00  0.00    -0.014 A 
BRANCH  43  44
ATOM     44  C   UNL A   1      41.835  28.809  28.608  1.00  0.00     0.031 A 
ATOM     45  C   UNL A   1      42.194  27.422  28.147  1.00  0.00     0.074 A 
ATOM     46  C   UNL A   1      42.769  29.781  28.611  1.00  0.00     0.049 A 
ATOM     47  N   UNL A   1      43.343  26.966  27.718  1.00  0.00    -0.248 NA
ATOM     48  C   UNL A   1      41.130  26.407  28.201  1.00  0.00     0.031 C 
ATOM     49  C   UNL A   1      42.562  31.152  29.085  1.00  0.00     0.029 A 
ATOM     50  N   UNL A   1      44.084  29.763  28.216  1.00  0.00    -0.354 N 
ATOM     51  C   UNL A   1      43.146  25.612  27.466  1.00  0.00     0.074 A 
ATOM     52  C   UNL A   1      41.780  25.312  27.836  1.00  0.00     0.031 C 
ATOM     53  C   UNL A   1      43.701  31.847  28.935  1.00  0.00     0.029 A 
ATOM     54  C   UNL A   1      44.728  30.966  28.389  1.00  0.00     0.049 A 
ATOM     55  H   UNL A   1      44.524  28.966  27.843  1.00  0.00     0.167 HD
ATOM     56  C   UNL A   1      44.016  24.710  26.954  1.00  0.00     0.037 A 
ATOM     57  C   UNL A   1      46.005  31.319  28.142  1.00  0.00     0.037 A 
ATOM     58  C   UNL A   1      45.368  25.022  26.562  1.00  0.00     0.049 A 
ATOM     59  C   UNL A   1      46.948  30.304  27.557  1.00  0.00     0.074 A 
ATOM     60  C   UNL A   1      46.304  24.194  25.968  1.00  0.00     0.029 A 
ATOM     61  N   UNL A   1      45.975  26.258  26.726  1.00  0.00    -0.354 N 
ATOM     62  N   UNL A   1      46.722  29.047  27.258  1.00  0.00    -0.248 NA
ATOM     63  C   UNL A   1      48.316  30.756  27.269  1.00  0.00     0.031 C 
ATOM     64  C   UNL A   1      47.491  24.917  25.812  1.00  0.00     0.029 A 
ATOM     65  C   UNL A   1      47.280  26.210  26.265  1.00  0.00     0.049 A 
ATOM     66  H   UNL A   1      45.542  27.053  27.112  1.00  0.00     0.167 HD
ATOM     67  C   UNL A   1      47.914  28.564  26.727  1.00  0.00     0.074 A 
ATOM     68  C   UNL A   1      48.851  29.668  26.731  1.00  0.00     0.031 C 
ATOM     69  C   UNL A   1      48.204  27.318  26.276  1.00  0.00     0.037 A 
BRANCH  56  70
ATOM     70  C   UNL A   1      43.534  23.295  26.785  1.00  0.00     0.058 A 
ATOM     71  C   UNL A   1      43.269  22.752  25.517  1.00  0.00     0.135 A 
ATOM     72  C   UNL A   1      43.366  22.458  27.900  1.00  0.00     0.135 A 
ATOM     73  F   UNL A   1      43.400  23.510  24.416  1.00  0.00    -0.206 F 
ATOM     74  C   UNL A   1      42.821  21.444  25.363  1.00  0.00     0.059 A 
ATOM     75  C   UNL A   1      42.945  21.137  27.768  1.00  0.00     0.059 A 
ATOM     76  F   UNL A   1      43.606  22.923  29.136  1.00  0.00    -0.206 F 
ATOM     77  C   UNL A   1      42.661  20.644  26.495  1.00  0.00     0.060 A 
BRANCH  77  78
ATOM     78  S   UNL A   1      42.080  18.949  26.280  1.00  0.00     0.124 S 
ATOM     79  O   UNL A   1      43.018  18.445  25.280  1.00  0.00    -0.237 OA
ATOM     80  O   UNL A   1      42.226  18.394  27.621  1.00  0.00    -0.237 OA
ATOM     81  O   UNL A   1      40.705  19.116  25.820  1.00  0.00    -0.744 OA
ENDBRANCH  77  78
ENDBRANCH  56  70
BRANCH  57  82
ATOM     82  C   UNL A   1      46.456  32.707  28.427  1.00  0.00     0.058 A 
ATOM     83  C   UNL A   1      46.377  33.707  27.448  1.00  0.00     0.135 A 
ATOM     84  C   UNL A   1      46.953  33.065  29.691  1.00  0.00     0.135 A 
ATOM     85  F   UNL A   1      45.914  33.413  26.224  1.00  0.00    -0.206 F 
ATOM     86  C   UNL A   1      46.787  35.013  27.705  1.00  0.00     0.059 A 
ATOM     87  C   UNL A   1      47.347  34.367  29.979  1.00  0.00     0.059 A 
ATOM     88  F   UNL A   1      47.032  32.147  30.667  1.00  0.00    -0.206 F 
ATOM     89  C   UNL A   1      47.267  35.333  28.976  1.00  0.00     0.060 A 
BRANCH  89  90
ATOM     90  S   UNL A   1      47.744  37.042  29.317  1.00  0.00     0.124 S 
ATOM     91  O   UNL A   1      47.893  37.580  27.970  1.00  0.00    -0.237 OA
ATOM     92  O   UNL A   1      46.599  37.533  30.079  1.00  0.00    -0.237 OA
ATOM     93  O   UNL A   1      48.979  36.898  30.083  1.00  0.00    -0.744 OA
ENDBRANCH  89  90
ENDBRANCH  57  82
BRANCH  69  94
ATOM     94  C   UNL A   1      49.584  27.089  25.726  1.00  0.00     0.058 A 
ATOM     95  C   UNL A   1      50.642  26.664  26.545  1.00  0.00     0.135 A 
ATOM     96  C   UNL A   1      49.842  27.260  24.357  1.00  0.00     0.135 A 
ATOM     97  F   UNL A   1      50.450  26.491  27.862  1.00  0.00    -0.206 F 
ATOM     98  C   UNL A   1      51.915  26.444  26.030  1.00  0.00     0.059 A 
ATOM     99  C   UNL A   1      51.101  27.020  23.815  1.00  0.00     0.059 A 
ATOM    100  F   UNL A   1      48.862  27.655  23.528  1.00  0.00    -0.206 F 
ATOM    101  C   UNL A   1      52.135  26.626  24.663  1.00  0.00     0.060 A 
BRANCH 101 102
ATOM    102  S   UNL A   1      53.786  26.315  24.001  1.00  0.00     0.124 S 
ATOM    103  O   UNL A   1      54.509  27.501  24.450  1.00  0.00    -0.237 OA
ATOM    104  O   UNL A   1      54.156  25.064  24.654  1.00  0.00    -0.237 OA
ATOM    105  O   UNL A   1      53.563  26.223  22.562  1.00  0.00    -0.744 OA
ENDBRANCH 101 102
ENDBRANCH  69  94
ENDBRANCH  43  44
ENDBRANCH  35  38
ENDBRANCH  33  34
ENDBRANCH   1  33
TORSDOF 16
ENDMDL
MODEL 3
REMARK VINA RESULT:     -13.1      6.390     11.676
REMARK SMILES C[NH+]1CCC([NH+]2CCC(Oc3ccc4ccccc4c3)(C(=O)NCCCNC(=O)c3ccc(-c4c5nc(c(-c6c(F)cc(S(=O)(=O)[O-])cc6F)c6ccc([nH]6)c(-c6c(F)cc(S(=O)(=O)[O-])cc6F)c6nc(c(-c7c(F)cc(S(=O)(=O)[O-])cc7F)c7ccc4[nH]7)C=C6)C=C5)cc3)CC2)CC1
REMARK SMILES IDX 25 1 24 2 23 3 21 4 22 5 9 7 6 8 7 9 97 10 8 12 96 13 5 14
REMARK SMILES IDX 1 15 2 16 3 17 99 18 4 20 98 21 10 22 11 23 12 24 20 25
REMARK SMILES IDX 13 26 19 27 14 28 18 29 15 30 17 31 16 32 26 33 27 34 28 35
REMARK SMILES IDX 29 37 30 38 31 39 95 40 32 41 94 42 33 43 34 44 35 45 88 46
REMARK SMILES IDX 36 47 93 48 87 49 89 50 37 51 92 52 86 53 85 54 38 56 72 57
REMARK SMILES IDX 51 58 71 59 52 60 55 61 70 62 90 63 53 64 54 65 69 67 91 68
REMARK SMILES IDX 56 69 39 70 40 71 49 72 41 73 42 74 48 75 50 76 43 77 44 78
REMARK SMILES IDX 45 79 46 80 47 81 73 82 74 83 83 84 75 85 76 86 82 87 84 88
REMARK SMILES IDX 77 89 78 90 79 91 80 92 81 93 57 94 58 95 67 96 59 97 60 98
REMARK SMILES IDX 66 99 68 100 61 101 62 102 63 103 64 104 65 105
REMARK H PARENT 23 6 6 11 2 19 27 36 89 55 55 66
REMARK Flexibility Score: inf
ROOT
ATOM      1  C   UNL A   1      34.385  30.827  27.298  1.00  0.00     0.042 C 
ENDROOT
BRANCH   1   2
ATOM      2  C   UNL A   1      34.350  29.309  27.154  1.00  0.00     0.118 C 
BRANCH   2   3
ATOM      3  N   UNL A   1      33.214  28.716  27.840  1.00  0.00    -0.353 N 
ATOM      4  C   UNL A   1      32.114  28.066  27.350  1.00  0.00     0.264 C 
ATOM      5  O   UNL A   1      31.376  27.550  28.196  1.00  0.00    -0.270 OA
ATOM      6  H   UNL A   1      33.239  28.796  28.821  1.00  0.00     0.163 HD
BRANCH   4   7
ATOM      7  C   UNL A   1      31.818  27.988  25.821  1.00  0.00     0.197 C 
ATOM      8  N   UNL A   1      32.496  25.219  25.069  1.00  0.00    -0.332 N 
ATOM      9  C   UNL A   1      31.323  25.516  25.897  1.00  0.00     0.267 C 
ATOM     10  C   UNL A   1      33.576  26.193  25.301  1.00  0.00     0.267 C 
ATOM     11  H   UNL A   1      32.196  25.319  24.099  1.00  0.00     0.348 HD
ATOM     12  C   UNL A   1      30.789  26.892  25.524  1.00  0.00     0.120 C 
ATOM     13  C   UNL A   1      33.118  27.644  25.061  1.00  0.00     0.120 C 
BRANCH   8  14
ATOM     14  C   UNL A   1      32.962  23.812  25.177  1.00  0.00     0.195 C 
ATOM     15  C   UNL A   1      32.856  19.536  25.746  1.00  0.00     0.332 C 
ATOM     16  N   UNL A   1      32.536  20.958  25.663  1.00  0.00    -0.337 N 
ATOM     17  C   UNL A   1      32.677  21.448  24.287  1.00  0.00     0.268 C 
ATOM     18  C   UNL A   1      33.364  21.742  26.583  1.00  0.00     0.268 C 
ATOM     19  H   UNL A   1      31.563  21.076  25.941  1.00  0.00     0.347 HD
ATOM     20  C   UNL A   1      32.209  22.899  24.187  1.00  0.00     0.126 C 
ATOM     21  C   UNL A   1      32.922  23.207  26.591  1.00  0.00     0.126 C 
ENDBRANCH   8  14
BRANCH   7  22
ATOM     22  O   UNL A   1      31.380  29.346  25.561  1.00  0.00    -0.477 OA
BRANCH  22  23
ATOM     23  C   UNL A   1      30.711  29.629  24.411  1.00  0.00     0.121 A 
ATOM     24  C   UNL A   1      30.443  28.670  23.441  1.00  0.00     0.047 A 
ATOM     25  C   UNL A   1      30.136  30.896  24.308  1.00  0.00     0.055 A 
ATOM     26  C   UNL A   1      29.704  29.005  22.307  1.00  0.00     0.012 A 
ATOM     27  C   UNL A   1      29.353  31.240  23.193  1.00  0.00    -0.015 A 
ATOM     28  C   UNL A   1      29.158  30.288  22.166  1.00  0.00    -0.018 A 
ATOM     29  C   UNL A   1      28.750  32.503  23.078  1.00  0.00     0.009 A 
ATOM     30  C   UNL A   1      28.400  30.634  21.038  1.00  0.00     0.009 A 
ATOM     31  C   UNL A   1      27.985  32.827  21.957  1.00  0.00     0.001 A 
ATOM     32  C   UNL A   1      27.818  31.898  20.933  1.00  0.00     0.001 A 
ENDBRANCH  22  23
ENDBRANCH   7  22
ENDBRANCH   4   7
ENDBRANCH   2   3
ENDBRANCH   1   2
BRANCH   1  33
ATOM     33  C   UNL A   1      35.583  31.360  28.076  1.00  0.00     0.118 C 
BRANCH  33  34
ATOM     34  N   UNL A   1      35.483  31.104  29.505  1.00  0.00    -0.352 N 
ATOM     35  C   UNL A   1      36.365  30.498  30.362  1.00  0.00     0.251 C 
ATOM     36  H   UNL A   1      34.647  31.415  29.922  1.00  0.00     0.163 HD
ATOM     37  O   UNL A   1      35.987  30.210  31.501  1.00  0.00    -0.269 OA
BRANCH  35  38
ATOM     38  C   UNL A   1      37.745  30.172  29.941  1.00  0.00     0.039 A 
ATOM     39  C   UNL A   1      38.708  29.936  30.927  1.00  0.00     0.014 A 
ATOM     40  C   UNL A   1      38.111  30.139  28.593  1.00  0.00     0.014 A 
ATOM     41  C   UNL A   1      40.018  29.611  30.560  1.00  0.00     0.010 A 
ATOM     42  C   UNL A   1      39.397  29.742  28.227  1.00  0.00     0.010 A 
ATOM     43  C   UNL A   1      40.366  29.478  29.206  1.00  0.00    -0.014 A 
BRANCH  43  44
ATOM     44  C   UNL A   1      41.733  29.058  28.804  1.00  0.00     0.031 A 
ATOM     45  C   UNL A   1      42.855  30.061  28.747  1.00  0.00     0.074 A 
ATOM     46  C   UNL A   1      41.951  27.782  28.431  1.00  0.00     0.049 A 
ATOM     47  N   UNL A   1      44.096  29.891  28.370  1.00  0.00    -0.248 NA
ATOM     48  C   UNL A   1      42.533  31.442  29.141  1.00  0.00     0.031 C 
ATOM     49  C   UNL A   1      40.935  26.727  28.388  1.00  0.00     0.029 A 
ATOM     50  N   UNL A   1      43.095  27.154  28.005  1.00  0.00    -0.354 N 
ATOM     51  C   UNL A   1      44.698  31.140  28.465  1.00  0.00     0.074 A 
ATOM     52  C   UNL A   1      43.673  32.068  28.890  1.00  0.00     0.031 C 
ATOM     53  C   UNL A   1      41.504  25.582  27.979  1.00  0.00     0.029 A 
ATOM     54  C   UNL A   1      42.914  25.826  27.696  1.00  0.00     0.049 A 
ATOM     55  H   UNL A   1      43.963  27.611  27.927  1.00  0.00     0.167 HD
ATOM     56  C   UNL A   1      45.990  31.478  28.239  1.00  0.00     0.037 A 
ATOM     57  C   UNL A   1      43.784  24.908  27.231  1.00  0.00     0.037 A 
ATOM     58  C   UNL A   1      47.013  30.544  27.843  1.00  0.00     0.049 A 
ATOM     59  C   UNL A   1      45.218  25.304  27.004  1.00  0.00     0.074 A 
ATOM     60  C   UNL A   1      48.365  30.775  27.658  1.00  0.00     0.029 A 
ATOM     61  N   UNL A   1      46.797  29.201  27.568  1.00  0.00    -0.354 N 
ATOM     62  N   UNL A   1      45.785  26.474  27.169  1.00  0.00    -0.248 NA
ATOM     63  C   UNL A   1      46.131  24.251  26.537  1.00  0.00     0.031 C 
ATOM     64  C   UNL A   1      48.959  29.583  27.231  1.00  0.00     0.029 A 
ATOM     65  C   UNL A   1      47.986  28.596  27.194  1.00  0.00     0.049 A 
ATOM     66  H   UNL A   1      45.927  28.745  27.630  1.00  0.00     0.167 HD
ATOM     67  C   UNL A   1      47.126  26.295  26.846  1.00  0.00     0.074 A 
ATOM     68  C   UNL A   1      47.287  24.900  26.492  1.00  0.00     0.031 C 
ATOM     69  C   UNL A   1      48.132  27.205  26.843  1.00  0.00     0.037 A 
BRANCH  56  70
ATOM     70  C   UNL A   1      46.375  32.922  28.419  1.00  0.00     0.058 A 
ATOM     71  C   UNL A   1      46.815  33.420  29.655  1.00  0.00     0.135 A 
ATOM     72  C   UNL A   1      46.334  33.813  27.334  1.00  0.00     0.135 A 
ATOM     73  F   UNL A   1      46.862  32.617  30.730  1.00  0.00    -0.206 F 
ATOM     74  C   UNL A   1      47.169  34.756  29.819  1.00  0.00     0.059 A 
ATOM     75  C   UNL A   1      46.709  35.147  27.468  1.00  0.00     0.059 A 
ATOM     76  F   UNL A   1      45.922  33.391  26.128  1.00  0.00    -0.206 F 
ATOM     77  C   UNL A   1      47.111  35.612  28.719  1.00  0.00     0.060 A 
BRANCH  77  78
ATOM     78  S   UNL A   1      47.573  37.343  28.947  1.00  0.00     0.124 S 
ATOM     79  O   UNL A   1      47.517  37.840  27.575  1.00  0.00    -0.237 OA
ATOM     80  O   UNL A   1      46.528  37.831  29.840  1.00  0.00    -0.237 OA
ATOM     81  O   UNL A   1      48.908  37.265  29.531  1.00  0.00    -0.744 OA
ENDBRANCH  77  78
ENDBRANCH  56  70
BRANCH  57  82
ATOM     82  C   UNL A   1      43.323  23.518  26.971  1.00  0.00     0.058 A 
ATOM     83  C   UNL A   1      43.092  23.067  25.664  1.00  0.00     0.135 A 
ATOM     84  C   UNL A   1      43.128  22.609  28.022  1.00  0.00     0.135 A 
ATOM     85  F   UNL A   1      43.260  23.901  24.626  1.00  0.00    -0.206 F 
ATOM     86  C   UNL A   1      42.670  21.766  25.406  1.00  0.00     0.059 A 
ATOM     87  C   UNL A   1      42.729  21.297  27.788  1.00  0.00     0.059 A 
ATOM     88  F   UNL A   1      43.352  22.987  29.290  1.00  0.00    -0.206 F 
ATOM     89  C   UNL A   1      42.495  20.887  26.476  1.00  0.00     0.060 A 
BRANCH  89  90
ATOM     90  S   UNL A   1      42.002  19.185  26.127  1.00  0.00     0.124 S 
ATOM     91  O   UNL A   1      42.811  18.879  24.953  1.00  0.00    -0.237 OA
ATOM     92  O   UNL A   1      42.378  18.498  27.359  1.00  0.00    -0.237 OA
ATOM     93  O   UNL A   1      40.565  19.294  25.895  1.00  0.00    -0.744 OA
ENDBRANCH  89  90
ENDBRANCH  57  82
BRANCH  69  94
ATOM     94  C   UNL A   1      49.503  26.714  26.470  1.00  0.00     0.058 A 
ATOM     95  C   UNL A   1      50.362  26.136  27.419  1.00  0.00     0.135 A 
ATOM     96  C   UNL A   1      49.949  26.790  25.142  1.00  0.00     0.135 A 
ATOM     97  F   UNL A   1      49.985  26.045  28.704  1.00  0.00    -0.206 F 
ATOM     98  C   UNL A   1      51.626  25.674  27.068  1.00  0.00     0.059 A 
ATOM     99  C   UNL A   1      51.199  26.311  24.763  1.00  0.00     0.059 A 
ATOM    100  F   UNL A   1      49.164  27.324  24.193  1.00  0.00    -0.206 F 
ATOM    101  C   UNL A   1      52.037  25.768  25.736  1.00  0.00     0.060 A 
BRANCH 101 102
ATOM    102  S   UNL A   1      53.671  25.145  25.287  1.00  0.00     0.124 S 
ATOM    103  O   UNL A   1      53.455  23.702  25.330  1.00  0.00    -0.237 OA
ATOM    104  O   UNL A   1      53.870  25.715  23.959  1.00  0.00    -0.237 OA
ATOM    105  O   UNL A   1      54.537  25.682  26.331  1.00  0.00    -0.744 OA
ENDBRANCH 101 102
ENDBRANCH  69  94
ENDBRANCH  43  44
ENDBRANCH  35  38
ENDBRANCH  33  34
ENDBRANCH   1  33
TORSDOF 16
ENDMDL
