MODEL 1
REMARK VINA RESULT:     -12.6      0.000      0.000
REMARK SMILES O=C(NCCCNC(=O)c1ccc(-c2ccc(F)c(C(F)(F)F)c2)cc1[N+](=O)[O-])c1ccc(-c2c3nc(c(-c4c(F)cc(S(=O)(=O)[O-])cc4F)c4ccc([nH]4)c(-c4c(F)cc(S(=O)(=O)[O-])cc4F)c4nc(c(-c5c(F)cc(S(=O)(=O)[O-])cc5F)c5ccc2[nH]5)C=C4)C=C3)cc1
REMARK SMILES IDX 4 1 3 2 1 3 2 4 30 6 31 7 95 8 32 9 94 10 33 11 34 12 35 13
REMARK SMILES IDX 88 14 36 15 93 16 87 17 89 18 37 19 92 20 86 21 85 22 38 24
REMARK SMILES IDX 72 25 51 26 71 27 52 28 55 29 70 30 90 31 53 32 54 33 69 35
REMARK SMILES IDX 91 36 56 37 39 38 40 39 49 40 41 41 42 42 48 43 50 44 43 45
REMARK SMILES IDX 44 46 45 47 46 48 47 49 73 50 74 51 83 52 75 53 76 54 82 55
REMARK SMILES IDX 84 56 77 57 78 58 79 59 80 60 81 61 57 62 58 63 67 64 59 65
REMARK SMILES IDX 60 66 66 67 68 68 61 69 62 70 63 71 64 72 65 73 5 74 6 75
REMARK SMILES IDX 7 76 8 77 9 79 10 80 11 81 26 82 12 83 25 84 13 85 27 86
REMARK SMILES IDX 28 87 29 88 14 89 15 90 24 91 16 92 19 93 17 94 18 95 20 96
REMARK SMILES IDX 21 97 22 98 23 99
REMARK H PARENT 3 5 89 23 55 34 7 78
REMARK Flexibility Score: inf
ROOT
ATOM      1  C   UNL A   1      35.230  29.336  27.555  1.00  0.00     0.118 C 
ENDROOT
BRANCH   1   2
ATOM      2  N   UNL A   1      35.201  30.130  28.776  1.00  0.00    -0.352 N 
ATOM      3  O   UNL A   1      35.926  30.953  30.740  1.00  0.00    -0.269 OA
ATOM      4  C   UNL A   1      36.202  30.409  29.675  1.00  0.00     0.251 C 
ATOM      5  H   UNL A   1      34.328  30.529  28.990  1.00  0.00     0.163 HD
BRANCH   4   6
ATOM      6  C   UNL A   1      37.601  30.038  29.373  1.00  0.00     0.039 A 
ATOM      7  C   UNL A   1      38.076  30.050  28.060  1.00  0.00     0.014 A 
ATOM      8  C   UNL A   1      38.461  29.699  30.423  1.00  0.00     0.014 A 
ATOM      9  C   UNL A   1      39.350  29.573  27.780  1.00  0.00     0.010 A 
ATOM     10  C   UNL A   1      39.778  29.318  30.149  1.00  0.00     0.010 A 
ATOM     11  C   UNL A   1      40.224  29.226  28.822  1.00  0.00    -0.014 A 
BRANCH  11  12
ATOM     12  C   UNL A   1      41.626  28.862  28.498  1.00  0.00     0.031 A 
ATOM     13  C   UNL A   1      42.727  29.883  28.537  1.00  0.00     0.074 A 
ATOM     14  C   UNL A   1      41.894  27.580  28.175  1.00  0.00     0.049 A 
ATOM     15  N   UNL A   1      43.998  29.728  28.268  1.00  0.00    -0.248 NA
ATOM     16  C   UNL A   1      42.360  31.256  28.917  1.00  0.00     0.031 C 
ATOM     17  C   UNL A   1      40.895  26.509  28.087  1.00  0.00     0.029 A 
ATOM     18  N   UNL A   1      43.075  26.954  27.874  1.00  0.00    -0.354 N 
ATOM     19  C   UNL A   1      44.578  30.982  28.418  1.00  0.00     0.074 A 
ATOM     20  C   UNL A   1      43.516  31.893  28.791  1.00  0.00     0.031 C 
ATOM     21  C   UNL A   1      41.509  25.355  27.791  1.00  0.00     0.029 A 
ATOM     22  C   UNL A   1      42.931  25.614  27.602  1.00  0.00     0.049 A 
ATOM     23  H   UNL A   1      43.942  27.419  27.855  1.00  0.00     0.167 HD
ATOM     24  C   UNL A   1      45.876  31.334  28.259  1.00  0.00     0.037 A 
ATOM     25  C   UNL A   1      43.835  24.698  27.212  1.00  0.00     0.037 A 
ATOM     26  C   UNL A   1      46.927  30.409  27.916  1.00  0.00     0.049 A 
ATOM     27  C   UNL A   1      45.263  25.119  27.035  1.00  0.00     0.074 A 
ATOM     28  C   UNL A   1      48.284  30.655  27.800  1.00  0.00     0.029 A 
ATOM     29  N   UNL A   1      46.738  29.066  27.627  1.00  0.00    -0.354 N 
ATOM     30  N   UNL A   1      45.800  26.300  27.228  1.00  0.00    -0.248 NA
ATOM     31  C   UNL A   1      46.207  24.092  26.577  1.00  0.00     0.031 C 
ATOM     32  C   UNL A   1      48.910  29.470  27.398  1.00  0.00     0.029 A 
ATOM     33  C   UNL A   1      47.949  28.476  27.301  1.00  0.00     0.049 A 
ATOM     34  H   UNL A   1      45.871  28.599  27.648  1.00  0.00     0.167 HD
ATOM     35  C   UNL A   1      47.145  26.160  26.915  1.00  0.00     0.074 A 
ATOM     36  C   UNL A   1      47.345  24.773  26.544  1.00  0.00     0.031 C 
ATOM     37  C   UNL A   1      48.125  27.096  26.928  1.00  0.00     0.037 A 
BRANCH  24  38
ATOM     38  C   UNL A   1      46.243  32.781  28.436  1.00  0.00     0.058 A 
ATOM     39  C   UNL A   1      46.688  33.287  29.667  1.00  0.00     0.135 A 
ATOM     40  C   UNL A   1      46.210  33.660  27.340  1.00  0.00     0.135 A 
ATOM     41  F   UNL A   1      46.726  32.494  30.750  1.00  0.00    -0.206 F 
ATOM     42  C   UNL A   1      47.073  34.617  29.809  1.00  0.00     0.059 A 
ATOM     43  C   UNL A   1      46.610  34.989  27.455  1.00  0.00     0.059 A 
ATOM     44  F   UNL A   1      45.791  33.227  26.140  1.00  0.00    -0.206 F 
ATOM     45  C   UNL A   1      47.030  35.460  28.697  1.00  0.00     0.060 A 
BRANCH  45  46
ATOM     46  S   UNL A   1      47.547  37.180  28.896  1.00  0.00     0.124 S 
ATOM     47  O   UNL A   1      46.831  37.559  30.110  1.00  0.00    -0.237 OA
ATOM     48  O   UNL A   1      48.995  37.058  29.028  1.00  0.00    -0.237 OA
ATOM     49  O   UNL A   1      47.084  37.819  27.668  1.00  0.00    -0.744 OA
ENDBRANCH  45  46
ENDBRANCH  24  38
BRANCH  25  50
ATOM     50  C   UNL A   1      43.398  23.307  26.935  1.00  0.00     0.058 A 
ATOM     51  C   UNL A   1      43.286  22.828  25.622  1.00  0.00     0.135 A 
ATOM     52  C   UNL A   1      43.120  22.415  27.984  1.00  0.00     0.135 A 
ATOM     53  F   UNL A   1      43.538  23.644  24.588  1.00  0.00    -0.206 F 
ATOM     54  C   UNL A   1      42.906  21.517  25.357  1.00  0.00     0.059 A 
ATOM     55  C   UNL A   1      42.764  21.093  27.745  1.00  0.00     0.059 A 
ATOM     56  F   UNL A   1      43.233  22.821  29.258  1.00  0.00    -0.206 F 
ATOM     57  C   UNL A   1      42.650  20.656  26.426  1.00  0.00     0.060 A 
BRANCH  57  58
ATOM     58  S   UNL A   1      42.213  18.939  26.078  1.00  0.00     0.124 S 
ATOM     59  O   UNL A   1      43.110  18.629  24.970  1.00  0.00    -0.237 OA
ATOM     60  O   UNL A   1      42.513  18.280  27.345  1.00  0.00    -0.237 OA
ATOM     61  O   UNL A   1      40.795  19.018  25.742  1.00  0.00    -0.744 OA
ENDBRANCH  57  58
ENDBRANCH  25  50
BRANCH  37  62
ATOM     62  C   UNL A   1      49.502  26.648  26.532  1.00  0.00     0.058 A 
ATOM     63  C   UNL A   1      50.354  26.015  27.450  1.00  0.00     0.135 A 
ATOM     64  C   UNL A   1      49.952  26.809  25.213  1.00  0.00     0.135 A 
ATOM     65  F   UNL A   1      49.972  25.851  28.725  1.00  0.00    -0.206 F 
ATOM     66  C   UNL A   1      51.616  25.568  27.075  1.00  0.00     0.059 A 
ATOM     67  C   UNL A   1      51.202  26.349  24.811  1.00  0.00     0.059 A 
ATOM     68  F   UNL A   1      49.169  27.403  24.298  1.00  0.00    -0.206 F 
ATOM     69  C   UNL A   1      52.030  25.737  25.752  1.00  0.00     0.060 A 
BRANCH  69  70
ATOM     70  S   UNL A   1      53.652  25.112  25.265  1.00  0.00     0.124 S 
ATOM     71  O   UNL A   1      54.512  25.704  26.285  1.00  0.00    -0.237 OA
ATOM     72  O   UNL A   1      53.471  23.666  25.350  1.00  0.00    -0.237 OA
ATOM     73  O   UNL A   1      53.824  25.638  23.914  1.00  0.00    -0.744 OA
ENDBRANCH  69  70
ENDBRANCH  37  62
ENDBRANCH  11  12
ENDBRANCH   4   6
ENDBRANCH   1   2
BRANCH   1  74
ATOM     74  C   UNL A   1      33.851  28.856  27.129  1.00  0.00     0.042 C 
BRANCH  74  75
ATOM     75  C   UNL A   1      33.604  28.924  25.631  1.00  0.00     0.118 C 
BRANCH  75  76
ATOM     76  N   UNL A   1      32.214  28.661  25.279  1.00  0.00    -0.352 N 
ATOM     77  C   UNL A   1      31.616  27.505  24.857  1.00  0.00     0.258 C 
ATOM     78  H   UNL A   1      31.611  29.435  25.360  1.00  0.00     0.163 HD
ATOM     79  O   UNL A   1      30.454  27.498  24.465  1.00  0.00    -0.269 OA
BRANCH  77  80
ATOM     80  C   UNL A   1      32.390  26.257  24.820  1.00  0.00     0.117 A 
ATOM     81  C   UNL A   1      32.493  25.524  26.004  1.00  0.00     0.022 A 
ATOM     82  C   UNL A   1      33.004  25.772  23.667  1.00  0.00     0.282 A 
ATOM     83  C   UNL A   1      33.157  24.292  26.008  1.00  0.00     0.010 A 
ATOM     84  C   UNL A   1      33.644  24.527  23.657  1.00  0.00     0.095 A 
ATOM     85  C   UNL A   1      33.726  23.764  24.834  1.00  0.00    -0.012 A 
BRANCH  82  86
ATOM     86  N   UNL A   1      33.003  26.545  22.440  1.00  0.00     0.063 N 
ATOM     87  O   UNL A   1      33.756  27.529  22.401  1.00  0.00    -0.258 OA
ATOM     88  O   UNL A   1      32.234  26.193  21.540  1.00  0.00    -0.258 OA
ENDBRANCH  82  86
BRANCH  85  89
ATOM     89  C   UNL A   1      34.398  22.453  24.834  1.00  0.00    -0.017 A 
ATOM     90  C   UNL A   1      35.785  22.345  25.028  1.00  0.00     0.012 A 
ATOM     91  C   UNL A   1      33.661  21.266  24.655  1.00  0.00     0.025 A 
ATOM     92  C   UNL A   1      36.413  21.096  25.039  1.00  0.00     0.040 A 
ATOM     93  C   UNL A   1      34.282  20.007  24.674  1.00  0.00     0.092 A 
ATOM     94  C   UNL A   1      35.658  19.943  24.862  1.00  0.00     0.135 A 
ATOM     95  F   UNL A   1      36.278  18.755  24.875  1.00  0.00    -0.206 F 
BRANCH  93  96
ATOM     96  C   UNL A   1      33.503  18.741  24.491  1.00  0.00     0.419 C 
ATOM     97  F   UNL A   1      33.973  17.970  23.472  1.00  0.00    -0.166 F 
ATOM     98  F   UNL A   1      33.498  17.950  25.600  1.00  0.00    -0.166 F 
ATOM     99  F   UNL A   1      32.188  18.964  24.200  1.00  0.00    -0.166 F 
ENDBRANCH  93  96
ENDBRANCH  85  89
ENDBRANCH  77  80
ENDBRANCH  75  76
ENDBRANCH  74  75
ENDBRANCH   1  74
TORSDOF 16
ENDMDL
MODEL 2
REMARK VINA RESULT:     -12.6      5.108     11.255
REMARK SMILES O=C(NCCCNC(=O)c1ccc(-c2ccc(F)c(C(F)(F)F)c2)cc1[N+](=O)[O-])c1ccc(-c2c3nc(c(-c4c(F)cc(S(=O)(=O)[O-])cc4F)c4ccc([nH]4)c(-c4c(F)cc(S(=O)(=O)[O-])cc4F)c4nc(c(-c5c(F)cc(S(=O)(=O)[O-])cc5F)c5ccc2[nH]5)C=C4)C=C3)cc1
REMARK SMILES IDX 4 1 3 2 1 3 2 4 30 6 31 7 95 8 32 9 94 10 33 11 34 12 35 13
REMARK SMILES IDX 88 14 36 15 93 16 87 17 89 18 37 19 92 20 86 21 85 22 38 24
REMARK SMILES IDX 72 25 51 26 71 27 52 28 55 29 70 30 90 31 53 32 54 33 69 35
REMARK SMILES IDX 91 36 56 37 39 38 40 39 49 40 41 41 42 42 48 43 50 44 43 45
REMARK SMILES IDX 44 46 45 47 46 48 47 49 73 50 74 51 83 52 75 53 76 54 82 55
REMARK SMILES IDX 84 56 77 57 78 58 79 59 80 60 81 61 57 62 58 63 67 64 59 65
REMARK SMILES IDX 60 66 66 67 68 68 61 69 62 70 63 71 64 72 65 73 5 74 6 75
REMARK SMILES IDX 7 76 8 77 9 79 10 80 11 81 26 82 12 83 25 84 13 85 27 86
REMARK SMILES IDX 28 87 29 88 14 89 15 90 24 91 16 92 19 93 17 94 18 95 20 96
REMARK SMILES IDX 21 97 22 98 23 99
REMARK H PARENT 3 5 89 23 55 34 7 78
REMARK Flexibility Score: inf
ROOT
ATOM      1  C   UNL A   1      40.095  21.230  26.981  1.00  0.00     0.118 C 
ENDROOT
BRANCH   1   2
ATOM      2  N   UNL A   1      38.905  21.644  26.250  1.00  0.00    -0.352 N 
ATOM      3  O   UNL A   1      37.225  22.993  25.604  1.00  0.00    -0.269 OA
ATOM      4  C   UNL A   1      38.334  22.887  26.120  1.00  0.00     0.251 C 
ATOM      5  H   UNL A   1      38.438  20.921  25.775  1.00  0.00     0.163 HD
BRANCH   4   6
ATOM      6  C   UNL A   1      39.037  24.088  26.617  1.00  0.00     0.039 A 
ATOM      7  C   UNL A   1      38.966  24.453  27.962  1.00  0.00     0.014 A 
ATOM      8  C   UNL A   1      39.805  24.848  25.727  1.00  0.00     0.014 A 
ATOM      9  C   UNL A   1      39.521  25.653  28.386  1.00  0.00     0.010 A 
ATOM     10  C   UNL A   1      40.451  26.003  26.179  1.00  0.00     0.010 A 
ATOM     11  C   UNL A   1      40.292  26.429  27.506  1.00  0.00    -0.014 A 
BRANCH  11  12
ATOM     12  C   UNL A   1      40.995  27.628  28.026  1.00  0.00     0.031 A 
ATOM     13  C   UNL A   1      42.491  27.746  27.962  1.00  0.00     0.074 A 
ATOM     14  C   UNL A   1      40.253  28.624  28.552  1.00  0.00     0.049 A 
ATOM     15  N   UNL A   1      43.255  28.720  28.384  1.00  0.00    -0.248 NA
ATOM     16  C   UNL A   1      43.229  26.627  27.356  1.00  0.00     0.031 C 
ATOM     17  C   UNL A   1      38.791  28.605  28.683  1.00  0.00     0.029 A 
ATOM     18  N   UNL A   1      40.613  29.843  29.063  1.00  0.00    -0.354 N 
ATOM     19  C   UNL A   1      44.561  28.325  28.123  1.00  0.00     0.074 A 
ATOM     20  C   UNL A   1      44.488  27.013  27.514  1.00  0.00     0.031 C 
ATOM     21  C   UNL A   1      38.379  29.770  29.202  1.00  0.00     0.029 A 
ATOM     22  C   UNL A   1      39.546  30.590  29.503  1.00  0.00     0.049 A 
ATOM     23  H   UNL A   1      41.546  30.155  29.110  1.00  0.00     0.167 HD
ATOM     24  C   UNL A   1      45.710  28.998  28.369  1.00  0.00     0.037 A 
ATOM     25  C   UNL A   1      39.508  31.788  30.113  1.00  0.00     0.037 A 
ATOM     26  C   UNL A   1      45.765  30.316  28.949  1.00  0.00     0.049 A 
ATOM     27  C   UNL A   1      40.797  32.506  30.381  1.00  0.00     0.074 A 
ATOM     28  C   UNL A   1      46.876  31.111  29.174  1.00  0.00     0.029 A 
ATOM     29  N   UNL A   1      44.665  31.030  29.402  1.00  0.00    -0.354 N 
ATOM     30  N   UNL A   1      42.019  32.136  30.083  1.00  0.00    -0.248 NA
ATOM     31  C   UNL A   1      40.707  33.796  31.077  1.00  0.00     0.031 C 
ATOM     32  C   UNL A   1      46.451  32.287  29.803  1.00  0.00     0.029 A 
ATOM     33  C   UNL A   1      45.073  32.242  29.935  1.00  0.00     0.049 A 
ATOM     34  H   UNL A   1      43.731  30.720  29.354  1.00  0.00     0.167 HD
ATOM     35  C   UNL A   1      42.846  33.147  30.554  1.00  0.00     0.074 A 
ATOM     36  C   UNL A   1      41.982  34.156  31.135  1.00  0.00     0.031 C 
ATOM     37  C   UNL A   1      44.198  33.229  30.515  1.00  0.00     0.037 A 
BRANCH  24  38
ATOM     38  C   UNL A   1      47.011  28.324  28.031  1.00  0.00     0.058 A 
ATOM     39  C   UNL A   1      47.671  27.487  28.943  1.00  0.00     0.135 A 
ATOM     40  C   UNL A   1      47.571  28.468  26.750  1.00  0.00     0.135 A 
ATOM     41  F   UNL A   1      47.187  27.325  30.185  1.00  0.00    -0.206 F 
ATOM     42  C   UNL A   1      48.849  26.828  28.603  1.00  0.00     0.059 A 
ATOM     43  C   UNL A   1      48.737  27.803  26.382  1.00  0.00     0.059 A 
ATOM     44  F   UNL A   1      46.979  29.258  25.840  1.00  0.00    -0.206 F 
ATOM     45  C   UNL A   1      49.374  26.992  27.319  1.00  0.00     0.060 A 
BRANCH  45  46
ATOM     46  S   UNL A   1      50.896  26.119  26.890  1.00  0.00     0.124 S 
ATOM     47  O   UNL A   1      50.547  24.744  27.234  1.00  0.00    -0.237 OA
ATOM     48  O   UNL A   1      51.027  26.400  25.464  1.00  0.00    -0.237 OA
ATOM     49  O   UNL A   1      51.900  26.744  27.745  1.00  0.00    -0.744 OA
ENDBRANCH  45  46
ENDBRANCH  24  38
BRANCH  25  50
ATOM     50  C   UNL A   1      38.202  32.356  30.534  1.00  0.00     0.058 A 
ATOM     51  C   UNL A   1      37.691  32.127  31.819  1.00  0.00     0.135 A 
ATOM     52  C   UNL A   1      37.458  33.175  29.668  1.00  0.00     0.135 A 
ATOM     53  F   UNL A   1      38.365  31.350  32.680  1.00  0.00    -0.206 F 
ATOM     54  C   UNL A   1      36.484  32.681  32.230  1.00  0.00     0.059 A 
ATOM     55  C   UNL A   1      36.262  33.761  30.064  1.00  0.00     0.059 A 
ATOM     56  F   UNL A   1      37.917  33.440  28.435  1.00  0.00    -0.206 F 
ATOM     57  C   UNL A   1      35.778  33.500  31.345  1.00  0.00     0.060 A 
BRANCH  57  58
ATOM     58  S   UNL A   1      34.239  34.264  31.903  1.00  0.00     0.124 S 
ATOM     59  O   UNL A   1      34.737  35.447  32.596  1.00  0.00    -0.237 OA
ATOM     60  O   UNL A   1      33.542  34.508  30.645  1.00  0.00    -0.237 OA
ATOM     61  O   UNL A   1      33.645  33.236  32.751  1.00  0.00    -0.744 OA
ENDBRANCH  57  58
ENDBRANCH  25  50
BRANCH  37  62
ATOM     62  C   UNL A   1      44.824  34.454  31.115  1.00  0.00     0.058 A 
ATOM     63  C   UNL A   1      45.014  35.620  30.359  1.00  0.00     0.135 A 
ATOM     64  C   UNL A   1      45.192  34.476  32.468  1.00  0.00     0.135 A 
ATOM     65  F   UNL A   1      44.689  35.642  29.057  1.00  0.00    -0.206 F 
ATOM     66  C   UNL A   1      45.562  36.766  30.923  1.00  0.00     0.059 A 
ATOM     67  C   UNL A   1      45.721  35.619  33.059  1.00  0.00     0.059 A 
ATOM     68  F   UNL A   1      45.024  33.385  33.234  1.00  0.00    -0.206 F 
ATOM     69  C   UNL A   1      45.910  36.757  32.275  1.00  0.00     0.060 A 
BRANCH  69  70
ATOM     70  S   UNL A   1      46.578  38.265  33.008  1.00  0.00     0.124 S 
ATOM     71  O   UNL A   1      47.386  38.790  31.913  1.00  0.00    -0.237 OA
ATOM     72  O   UNL A   1      45.371  39.022  33.326  1.00  0.00    -0.237 OA
ATOM     73  O   UNL A   1      47.325  37.776  34.163  1.00  0.00    -0.744 OA
ENDBRANCH  69  70
ENDBRANCH  37  62
ENDBRANCH  11  12
ENDBRANCH   4   6
ENDBRANCH   1   2
BRANCH   1  74
ATOM     74  C   UNL A   1      40.736  19.976  26.405  1.00  0.00     0.042 C 
BRANCH  74  75
ATOM     75  C   UNL A   1      42.250  20.046  26.295  1.00  0.00     0.118 C 
BRANCH  75  76
ATOM     76  N   UNL A   1      42.695  20.962  25.251  1.00  0.00    -0.352 N 
ATOM     77  C   UNL A   1      43.214  22.224  25.349  1.00  0.00     0.258 C 
ATOM     78  H   UNL A   1      42.610  20.618  24.333  1.00  0.00     0.163 HD
ATOM     79  O   UNL A   1      43.404  22.911  24.352  1.00  0.00    -0.269 OA
BRANCH  77  80
ATOM     80  C   UNL A   1      43.503  22.791  26.673  1.00  0.00     0.117 A 
ATOM     81  C   UNL A   1      42.416  23.160  27.469  1.00  0.00     0.022 A 
ATOM     82  C   UNL A   1      44.794  22.959  27.169  1.00  0.00     0.282 A 
ATOM     83  C   UNL A   1      42.630  23.637  28.768  1.00  0.00     0.010 A 
ATOM     84  C   UNL A   1      45.014  23.407  28.477  1.00  0.00     0.095 A 
ATOM     85  C   UNL A   1      43.929  23.750  29.300  1.00  0.00    -0.012 A 
BRANCH  82  86
ATOM     86  N   UNL A   1      45.952  22.678  26.342  1.00  0.00     0.063 N 
ATOM     87  O   UNL A   1      46.778  23.591  26.214  1.00  0.00    -0.258 OA
ATOM     88  O   UNL A   1      46.016  21.569  25.802  1.00  0.00    -0.258 OA
ENDBRANCH  82  86
BRANCH  85  89
ATOM     89  C   UNL A   1      44.151  24.224  30.677  1.00  0.00    -0.017 A 
ATOM     90  C   UNL A   1      44.196  23.328  31.758  1.00  0.00     0.012 A 
ATOM     91  C   UNL A   1      44.340  25.593  30.945  1.00  0.00     0.025 A 
ATOM     92  C   UNL A   1      44.420  23.784  33.060  1.00  0.00     0.040 A 
ATOM     93  C   UNL A   1      44.576  26.060  32.249  1.00  0.00     0.092 A 
ATOM     94  C   UNL A   1      44.606  25.142  33.292  1.00  0.00     0.135 A 
ATOM     95  F   UNL A   1      44.819  25.561  34.547  1.00  0.00    -0.206 F 
BRANCH  93  96
ATOM     96  C   UNL A   1      44.786  27.514  32.539  1.00  0.00     0.419 C 
ATOM     97  F   UNL A   1      43.879  28.015  33.423  1.00  0.00    -0.166 F 
ATOM     98  F   UNL A   1      46.016  27.785  33.055  1.00  0.00    -0.166 F 
ATOM     99  F   UNL A   1      44.679  28.299  31.427  1.00  0.00    -0.166 F 
ENDBRANCH  93  96
ENDBRANCH  85  89
ENDBRANCH  77  80
ENDBRANCH  75  76
ENDBRANCH  74  75
ENDBRANCH   1  74
TORSDOF 16
ENDMDL
MODEL 3
REMARK VINA RESULT:     -12.5      0.727      1.639
REMARK SMILES O=C(NCCCNC(=O)c1ccc(-c2ccc(F)c(C(F)(F)F)c2)cc1[N+](=O)[O-])c1ccc(-c2c3nc(c(-c4c(F)cc(S(=O)(=O)[O-])cc4F)c4ccc([nH]4)c(-c4c(F)cc(S(=O)(=O)[O-])cc4F)c4nc(c(-c5c(F)cc(S(=O)(=O)[O-])cc5F)c5ccc2[nH]5)C=C4)C=C3)cc1
REMARK SMILES IDX 4 1 3 2 1 3 2 4 30 6 31 7 95 8 32 9 94 10 33 11 34 12 35 13
REMARK SMILES IDX 88 14 36 15 93 16 87 17 89 18 37 19 92 20 86 21 85 22 38 24
REMARK SMILES IDX 72 25 51 26 71 27 52 28 55 29 70 30 90 31 53 32 54 33 69 35
REMARK SMILES IDX 91 36 56 37 39 38 40 39 49 40 41 41 42 42 48 43 50 44 43 45
REMARK SMILES IDX 44 46 45 47 46 48 47 49 73 50 74 51 83 52 75 53 76 54 82 55
REMARK SMILES IDX 84 56 77 57 78 58 79 59 80 60 81 61 57 62 58 63 67 64 59 65
REMARK SMILES IDX 60 66 66 67 68 68 61 69 62 70 63 71 64 72 65 73 5 74 6 75
REMARK SMILES IDX 7 76 8 77 9 79 10 80 11 81 26 82 12 83 25 84 13 85 27 86
REMARK SMILES IDX 28 87 29 88 14 89 15 90 24 91 16 92 19 93 17 94 18 95 20 96
REMARK SMILES IDX 21 97 22 98 23 99
REMARK H PARENT 3 5 89 23 55 34 7 78
REMARK Flexibility Score: inf
ROOT
ATOM      1  C   UNL A   1      35.233  29.629  27.588  1.00  0.00     0.118 C 
ENDROOT
BRANCH   1   2
ATOM      2  N   UNL A   1      35.218  30.230  28.914  1.00  0.00    -0.352 N 
ATOM      3  O   UNL A   1      35.951  30.723  30.983  1.00  0.00    -0.269 OA
ATOM      4  C   UNL A   1      36.220  30.336  29.850  1.00  0.00     0.251 C 
ATOM      5  H   UNL A   1      34.357  30.622  29.183  1.00  0.00     0.163 HD
BRANCH   4   6
ATOM      6  C   UNL A   1      37.608  29.967  29.502  1.00  0.00     0.039 A 
ATOM      7  C   UNL A   1      38.507  29.558  30.489  1.00  0.00     0.014 A 
ATOM      8  C   UNL A   1      38.011  30.004  28.163  1.00  0.00     0.014 A 
ATOM      9  C   UNL A   1      39.840  29.342  30.166  1.00  0.00     0.010 A 
ATOM     10  C   UNL A   1      39.330  29.685  27.825  1.00  0.00     0.010 A 
ATOM     11  C   UNL A   1      40.262  29.378  28.828  1.00  0.00    -0.014 A 
BRANCH  11  12
ATOM     12  C   UNL A   1      41.658  28.999  28.500  1.00  0.00     0.031 A 
ATOM     13  C   UNL A   1      42.771  30.008  28.535  1.00  0.00     0.074 A 
ATOM     14  C   UNL A   1      41.911  27.714  28.176  1.00  0.00     0.049 A 
ATOM     15  N   UNL A   1      44.039  29.838  28.263  1.00  0.00    -0.248 NA
ATOM     16  C   UNL A   1      42.419  31.384  28.917  1.00  0.00     0.031 C 
ATOM     17  C   UNL A   1      40.900  26.654  28.091  1.00  0.00     0.029 A 
ATOM     18  N   UNL A   1      43.084  27.075  27.872  1.00  0.00    -0.354 N 
ATOM     19  C   UNL A   1      44.633  31.086  28.411  1.00  0.00     0.074 A 
ATOM     20  C   UNL A   1      43.583  32.009  28.787  1.00  0.00     0.031 C 
ATOM     21  C   UNL A   1      41.501  25.493  27.793  1.00  0.00     0.029 A 
ATOM     22  C   UNL A   1      42.925  25.736  27.601  1.00  0.00     0.049 A 
ATOM     23  H   UNL A   1      43.957  27.530  27.850  1.00  0.00     0.167 HD
ATOM     24  C   UNL A   1      45.934  31.424  28.248  1.00  0.00     0.037 A 
ATOM     25  C   UNL A   1      43.818  24.811  27.208  1.00  0.00     0.037 A 
ATOM     26  C   UNL A   1      46.974  30.488  27.902  1.00  0.00     0.049 A 
ATOM     27  C   UNL A   1      45.251  25.216  27.026  1.00  0.00     0.074 A 
ATOM     28  C   UNL A   1      48.334  30.719  27.781  1.00  0.00     0.029 A 
ATOM     29  N   UNL A   1      46.770  29.147  27.613  1.00  0.00    -0.354 N 
ATOM     30  N   UNL A   1      45.801  26.391  27.217  1.00  0.00    -0.248 NA
ATOM     31  C   UNL A   1      46.182  24.179  26.565  1.00  0.00     0.031 C 
ATOM     32  C   UNL A   1      48.945  29.527  27.378  1.00  0.00     0.029 A 
ATOM     33  C   UNL A   1      47.974  28.543  27.284  1.00  0.00     0.049 A 
ATOM     34  H   UNL A   1      45.898  28.689  27.637  1.00  0.00     0.167 HD
ATOM     35  C   UNL A   1      47.143  26.236  26.901  1.00  0.00     0.074 A 
ATOM     36  C   UNL A   1      47.327  24.847  26.529  1.00  0.00     0.031 C 
ATOM     37  C   UNL A   1      48.134  27.161  26.911  1.00  0.00     0.037 A 
BRANCH  24  38
ATOM     38  C   UNL A   1      46.318  32.867  28.424  1.00  0.00     0.058 A 
ATOM     39  C   UNL A   1      46.279  33.779  27.359  1.00  0.00     0.135 A 
ATOM     40  C   UNL A   1      46.668  33.357  29.693  1.00  0.00     0.135 A 
ATOM     41  F   UNL A   1      45.964  33.362  26.122  1.00  0.00    -0.206 F 
ATOM     42  C   UNL A   1      46.587  35.124  27.543  1.00  0.00     0.059 A 
ATOM     43  C   UNL A   1      46.960  34.702  29.904  1.00  0.00     0.059 A 
ATOM     44  F   UNL A   1      46.721  32.525  30.746  1.00  0.00    -0.206 F 
ATOM     45  C   UNL A   1      46.927  35.576  28.820  1.00  0.00     0.060 A 
BRANCH  45  46
ATOM     46  S   UNL A   1      47.310  37.327  29.043  1.00  0.00     0.124 S 
ATOM     47  O   UNL A   1      47.891  37.328  30.382  1.00  0.00    -0.237 OA
ATOM     48  O   UNL A   1      48.242  37.585  27.950  1.00  0.00    -0.237 OA
ATOM     49  O   UNL A   1      46.010  37.978  28.922  1.00  0.00    -0.744 OA
ENDBRANCH  45  46
ENDBRANCH  24  38
BRANCH  25  50
ATOM     50  C   UNL A   1      43.365  23.424  26.932  1.00  0.00     0.058 A 
ATOM     51  C   UNL A   1      43.213  22.957  25.619  1.00  0.00     0.135 A 
ATOM     52  C   UNL A   1      43.112  22.525  27.981  1.00  0.00     0.135 A 
ATOM     53  F   UNL A   1      43.441  23.780  24.584  1.00  0.00    -0.206 F 
ATOM     54  C   UNL A   1      42.818  21.650  25.354  1.00  0.00     0.059 A 
ATOM     55  C   UNL A   1      42.741  21.207  27.742  1.00  0.00     0.059 A 
ATOM     56  F   UNL A   1      43.263  22.920  29.255  1.00  0.00    -0.206 F 
ATOM     57  C   UNL A   1      42.587  20.782  26.423  1.00  0.00     0.060 A 
BRANCH  57  58
ATOM     58  S   UNL A   1      42.130  19.070  26.074  1.00  0.00     0.124 S 
ATOM     59  O   UNL A   1      40.696  19.195  25.837  1.00  0.00    -0.237 OA
ATOM     60  O   UNL A   1      42.946  18.764  24.904  1.00  0.00    -0.237 OA
ATOM     61  O   UNL A   1      42.512  18.368  27.295  1.00  0.00    -0.744 OA
ENDBRANCH  57  58
ENDBRANCH  25  50
BRANCH  37  62
ATOM     62  C   UNL A   1      49.504  26.698  26.511  1.00  0.00     0.058 A 
ATOM     63  C   UNL A   1      50.360  26.074  27.431  1.00  0.00     0.135 A 
ATOM     64  C   UNL A   1      49.945  26.837  25.186  1.00  0.00     0.135 A 
ATOM     65  F   UNL A   1      49.986  25.932  28.711  1.00  0.00    -0.206 F 
ATOM     66  C   UNL A   1      51.615  25.613  27.053  1.00  0.00     0.059 A 
ATOM     67  C   UNL A   1      51.189  26.362  24.781  1.00  0.00     0.059 A 
ATOM     68  F   UNL A   1      49.158  27.422  24.268  1.00  0.00    -0.206 F 
ATOM     69  C   UNL A   1      52.020  25.759  25.724  1.00  0.00     0.060 A 
BRANCH  69  70
ATOM     70  S   UNL A   1      53.634  25.117  25.234  1.00  0.00     0.124 S 
ATOM     71  O   UNL A   1      53.763  25.648  23.881  1.00  0.00    -0.237 OA
ATOM     72  O   UNL A   1      54.522  25.702  26.234  1.00  0.00    -0.237 OA
ATOM     73  O   UNL A   1      53.463  23.669  25.328  1.00  0.00    -0.744 OA
ENDBRANCH  69  70
ENDBRANCH  37  62
ENDBRANCH  11  12
ENDBRANCH   4   6
ENDBRANCH   1   2
BRANCH   1  74
ATOM     74  C   UNL A   1      33.855  29.581  26.945  1.00  0.00     0.042 C 
BRANCH  74  75
ATOM     75  C   UNL A   1      33.866  29.183  25.479  1.00  0.00     0.118 C 
BRANCH  75  76
ATOM     76  N   UNL A   1      32.527  29.106  24.908  1.00  0.00    -0.352 N 
ATOM     77  C   UNL A   1      31.850  28.037  24.389  1.00  0.00     0.258 C 
ATOM     78  H   UNL A   1      32.032  29.957  24.895  1.00  0.00     0.163 HD
ATOM     79  O   UNL A   1      30.777  28.182  23.816  1.00  0.00    -0.269 OA
BRANCH  77  80
ATOM     80  C   UNL A   1      32.442  26.694  24.469  1.00  0.00     0.117 A 
ATOM     81  C   UNL A   1      33.334  26.319  23.462  1.00  0.00     0.022 A 
ATOM     82  C   UNL A   1      32.166  25.798  25.499  1.00  0.00     0.282 A 
ATOM     83  C   UNL A   1      33.983  25.080  23.529  1.00  0.00     0.010 A 
ATOM     84  C   UNL A   1      32.834  24.570  25.588  1.00  0.00     0.095 A 
ATOM     85  C   UNL A   1      33.759  24.194  24.600  1.00  0.00    -0.012 A 
BRANCH  82  86
ATOM     86  N   UNL A   1      31.176  26.108  26.512  1.00  0.00     0.063 N 
ATOM     87  O   UNL A   1      31.462  27.010  27.312  1.00  0.00    -0.258 OA
ATOM     88  O   UNL A   1      30.141  25.434  26.529  1.00  0.00    -0.258 OA
ENDBRANCH  82  86
BRANCH  85  89
ATOM     89  C   UNL A   1      34.465  22.904  24.683  1.00  0.00    -0.017 A 
ATOM     90  C   UNL A   1      35.853  22.844  24.894  1.00  0.00     0.012 A 
ATOM     91  C   UNL A   1      33.761  21.690  24.569  1.00  0.00     0.025 A 
ATOM     92  C   UNL A   1      36.512  21.616  24.985  1.00  0.00     0.040 A 
ATOM     93  C   UNL A   1      34.413  20.450  24.669  1.00  0.00     0.092 A 
ATOM     94  C   UNL A   1      35.789  20.434  24.871  1.00  0.00     0.135 A 
ATOM     95  F   UNL A   1      36.438  19.266  24.960  1.00  0.00    -0.206 F 
BRANCH  93  96
ATOM     96  C   UNL A   1      33.668  19.156  24.556  1.00  0.00     0.419 C 
ATOM     97  F   UNL A   1      32.609  19.226  23.703  1.00  0.00    -0.166 F 
ATOM     98  F   UNL A   1      34.446  18.127  24.120  1.00  0.00    -0.166 F 
ATOM     99  F   UNL A   1      33.148  18.737  25.747  1.00  0.00    -0.166 F 
ENDBRANCH  93  96
ENDBRANCH  85  89
ENDBRANCH  77  80
ENDBRANCH  75  76
ENDBRANCH  74  75
ENDBRANCH   1  74
TORSDOF 16
ENDMDL
