MODEL 1
REMARK VINA RESULT:     -12.8      0.000      0.000
REMARK SMILES CC(C)c1noc(C[N@@H+]2[C@@H](C(=O)NCCCNC(=O)c3ccc(-c4c5nc(c(-c6c(F)cc(S(=O)(=O)[O-])cc6F)c6ccc([nH]6)c(-c6c(F)cc(S(=O)(=O)[O-])cc6F)c6nc(c(-c7c(F)cc(S(=O)(=O)[O-])cc7F)c7ccc4[nH]7)C=C6)C=C5)cc3)C[C@H]3CCCC[C@@H]32)n1
REMARK SMILES IDX 15 1 14 2 13 3 11 4 12 5 10 7 9 8 92 9 86 11 87 12 91 13
REMARK SMILES IDX 88 14 90 15 89 16 8 17 7 18 4 19 5 20 93 21 6 22 2 23 1 24
REMARK SMILES IDX 3 25 16 26 17 27 18 28 19 30 20 31 21 32 85 33 22 34 84 35
REMARK SMILES IDX 23 36 24 37 25 38 78 39 26 40 83 41 77 42 79 43 27 44 82 45
REMARK SMILES IDX 76 46 75 47 28 49 62 50 41 51 61 52 42 53 45 54 60 55 80 56
REMARK SMILES IDX 43 57 44 58 59 60 81 61 46 62 29 63 30 64 39 65 31 66 32 67
REMARK SMILES IDX 38 68 40 69 33 70 34 71 35 72 36 73 37 74 63 75 64 76 73 77
REMARK SMILES IDX 65 78 66 79 72 80 74 81 67 82 68 83 69 84 70 85 71 86 47 87
REMARK SMILES IDX 48 88 57 89 49 90 50 91 56 92 58 93 51 94 52 95 53 96 54 97
REMARK SMILES IDX 55 98
REMARK H PARENT 13 6 9 10 17 29 79 48 45 59
REMARK Flexibility Score: inf
ROOT
ATOM      1  C   UNL A   1      34.999  29.841  27.560  1.00  0.00     0.042 C 
ENDROOT
BRANCH   1   2
ATOM      2  C   UNL A   1      33.670  30.197  26.908  1.00  0.00     0.118 C 
BRANCH   2   3
ATOM      3  N   UNL A   1      32.559  29.474  27.504  1.00  0.00    -0.351 N 
ATOM      4  C   UNL A   1      31.945  28.325  27.073  1.00  0.00     0.278 C 
ATOM      5  O   UNL A   1      31.008  27.888  27.742  1.00  0.00    -0.268 OA
ATOM      6  H   UNL A   1      32.197  29.862  28.333  1.00  0.00     0.163 HD
BRANCH   4   7
ATOM      7  C   UNL A   1      32.510  27.636  25.812  1.00  0.00     0.275 C 
ATOM      8  N   UNL A   1      31.420  27.032  24.991  1.00  0.00    -0.314 N 
ATOM      9  C   UNL A   1      31.422  25.602  25.324  1.00  0.00     0.188 C 
ATOM     10  H   UNL A   1      30.498  27.406  25.217  1.00  0.00     0.349 HD
ATOM     11  C   UNL A   1      33.430  26.480  26.256  1.00  0.00     0.085 C 
ATOM     12  C   UNL A   1      32.898  25.272  25.515  1.00  0.00     0.054 C 
ATOM     13  C   UNL A   1      30.742  24.573  24.419  1.00  0.00     0.065 C 
ATOM     14  C   UNL A   1      33.071  23.919  26.182  1.00  0.00     0.010 C 
ATOM     15  C   UNL A   1      30.983  23.146  24.936  1.00  0.00     0.006 C 
ATOM     16  C   UNL A   1      32.449  22.851  25.280  1.00  0.00     0.001 C 
BRANCH   8  17
ATOM     17  C   UNL A   1      31.481  27.412  23.564  1.00  0.00     0.364 C 
BRANCH  17  18
ATOM     18  C   UNL A   1      30.700  28.618  23.146  1.00  0.00     0.281 A 
ATOM     19  C   UNL A   1      29.476  30.310  23.005  1.00  0.00     0.174 A 
ATOM     20  N   UNL A   1      29.315  29.716  21.814  1.00  0.00    -0.062 NA
ATOM     21  N   UNL A   1      30.345  29.670  23.851  1.00  0.00    -0.191 NA
ATOM     22  O   UNL A   1      30.152  28.602  21.894  1.00  0.00    -0.333 OA
BRANCH  19  23
ATOM     23  C   UNL A   1      28.712  31.517  23.440  1.00  0.00     0.055 C 
ATOM     24  C   UNL A   1      28.768  32.654  22.421  1.00  0.00     0.016 C 
ATOM     25  C   UNL A   1      27.258  31.164  23.766  1.00  0.00     0.016 C 
ENDBRANCH  19  23
ENDBRANCH  17  18
ENDBRANCH   8  17
ENDBRANCH   4   7
ENDBRANCH   2   3
ENDBRANCH   1   2
BRANCH   1  26
ATOM     26  C   UNL A   1      35.629  30.989  28.344  1.00  0.00     0.118 C 
BRANCH  26  27
ATOM     27  N   UNL A   1      35.546  30.798  29.787  1.00  0.00    -0.352 N 
ATOM     28  C   UNL A   1      36.500  30.387  30.684  1.00  0.00     0.251 C 
ATOM     29  H   UNL A   1      34.664  30.994  30.180  1.00  0.00     0.163 HD
ATOM     30  O   UNL A   1      36.171  30.120  31.837  1.00  0.00    -0.269 OA
BRANCH  28  31
ATOM     31  C   UNL A   1      37.910  30.238  30.263  1.00  0.00     0.039 A 
ATOM     32  C   UNL A   1      38.901  30.140  31.244  1.00  0.00     0.014 A 
ATOM     33  C   UNL A   1      38.259  30.188  28.911  1.00  0.00     0.014 A 
ATOM     34  C   UNL A   1      40.224  29.896  30.872  1.00  0.00     0.010 A 
ATOM     35  C   UNL A   1      39.565  29.872  28.544  1.00  0.00     0.010 A 
ATOM     36  C   UNL A   1      40.557  29.702  29.521  1.00  0.00    -0.014 A 
BRANCH  36  37
ATOM     37  C   UNL A   1      41.917  29.261  29.115  1.00  0.00     0.031 A 
ATOM     38  C   UNL A   1      43.041  30.252  29.006  1.00  0.00     0.074 A 
ATOM     39  C   UNL A   1      42.111  27.975  28.760  1.00  0.00     0.049 A 
ATOM     40  N   UNL A   1      44.257  30.073  28.557  1.00  0.00    -0.248 NA
ATOM     41  C   UNL A   1      42.759  31.630  29.439  1.00  0.00     0.031 C 
ATOM     42  C   UNL A   1      41.086  26.926  28.782  1.00  0.00     0.029 A 
ATOM     43  N   UNL A   1      43.228  27.330  28.290  1.00  0.00    -0.354 N 
ATOM     44  C   UNL A   1      44.884  31.310  28.651  1.00  0.00     0.074 A 
ATOM     45  C   UNL A   1      43.900  32.243  29.154  1.00  0.00     0.031 C 
ATOM     46  C   UNL A   1      41.623  25.774  28.352  1.00  0.00     0.029 A 
ATOM     47  C   UNL A   1      43.012  26.008  27.976  1.00  0.00     0.049 A 
ATOM     48  H   UNL A   1      44.102  27.772  28.186  1.00  0.00     0.167 HD
ATOM     49  C   UNL A   1      46.168  31.631  28.363  1.00  0.00     0.037 A 
ATOM     50  C   UNL A   1      43.831  25.092  27.422  1.00  0.00     0.037 A 
ATOM     51  C   UNL A   1      47.145  30.693  27.870  1.00  0.00     0.049 A 
ATOM     52  C   UNL A   1      45.241  25.485  27.073  1.00  0.00     0.074 A 
ATOM     53  C   UNL A   1      48.484  30.913  27.591  1.00  0.00     0.029 A 
ATOM     54  N   UNL A   1      46.891  29.361  27.575  1.00  0.00    -0.354 N 
ATOM     55  N   UNL A   1      45.834  26.645  27.227  1.00  0.00    -0.248 NA
ATOM     56  C   UNL A   1      46.094  24.447  26.478  1.00  0.00     0.031 C 
ATOM     57  C   UNL A   1      49.026  29.728  27.082  1.00  0.00     0.029 A 
ATOM     58  C   UNL A   1      48.040  28.756  27.092  1.00  0.00     0.049 A 
ATOM     59  H   UNL A   1      46.023  28.912  27.692  1.00  0.00     0.167 HD
ATOM     60  C   UNL A   1      47.133  26.471  26.762  1.00  0.00     0.074 A 
ATOM     61  C   UNL A   1      47.246  25.090  26.345  1.00  0.00     0.031 C 
ATOM     62  C   UNL A   1      48.140  27.377  26.681  1.00  0.00     0.037 A 
BRANCH  49  63
ATOM     63  C   UNL A   1      46.604  33.053  28.583  1.00  0.00     0.058 A 
ATOM     64  C   UNL A   1      47.139  33.475  29.811  1.00  0.00     0.135 A 
ATOM     65  C   UNL A   1      46.550  33.990  27.537  1.00  0.00     0.135 A 
ATOM     66  F   UNL A   1      47.199  32.626  30.849  1.00  0.00    -0.206 F 
ATOM     67  C   UNL A   1      47.590  34.777  29.999  1.00  0.00     0.059 A 
ATOM     68  C   UNL A   1      47.020  35.290  27.695  1.00  0.00     0.059 A 
ATOM     69  F   UNL A   1      46.047  33.641  26.343  1.00  0.00    -0.206 F 
ATOM     70  C   UNL A   1      47.532  35.677  28.934  1.00  0.00     0.060 A 
BRANCH  70  71
ATOM     71  S   UNL A   1      48.148  37.354  29.191  1.00  0.00     0.124 S 
ATOM     72  O   UNL A   1      49.419  37.097  29.861  1.00  0.00    -0.237 OA
ATOM     73  O   UNL A   1      48.244  37.862  27.827  1.00  0.00    -0.237 OA
ATOM     74  O   UNL A   1      47.117  37.973  30.018  1.00  0.00    -0.744 OA
ENDBRANCH  70  71
ENDBRANCH  49  63
BRANCH  50  75
ATOM     75  C   UNL A   1      43.334  23.717  27.141  1.00  0.00     0.058 A 
ATOM     76  C   UNL A   1      43.246  22.756  28.158  1.00  0.00     0.135 A 
ATOM     77  C   UNL A   1      42.947  23.335  25.847  1.00  0.00     0.135 A 
ATOM     78  F   UNL A   1      43.610  23.070  29.411  1.00  0.00    -0.206 F 
ATOM     79  C   UNL A   1      42.819  21.458  27.900  1.00  0.00     0.059 A 
ATOM     80  C   UNL A   1      42.488  22.052  25.569  1.00  0.00     0.059 A 
ATOM     81  F   UNL A   1      42.994  24.222  24.840  1.00  0.00    -0.206 F 
ATOM     82  C   UNL A   1      42.442  21.114  26.599  1.00  0.00     0.060 A 
BRANCH  82  83
ATOM     83  S   UNL A   1      41.864  19.434  26.278  1.00  0.00     0.124 S 
ATOM     84  O   UNL A   1      42.291  18.742  27.490  1.00  0.00    -0.237 OA
ATOM     85  O   UNL A   1      40.426  19.628  26.125  1.00  0.00    -0.237 OA
ATOM     86  O   UNL A   1      42.573  19.065  25.057  1.00  0.00    -0.744 OA
ENDBRANCH  82  83
ENDBRANCH  50  75
BRANCH  62  87
ATOM     87  C   UNL A   1      49.457  26.899  26.136  1.00  0.00     0.058 A 
ATOM     88  C   UNL A   1      49.763  26.988  24.769  1.00  0.00     0.135 A 
ATOM     89  C   UNL A   1      50.447  26.394  26.997  1.00  0.00     0.135 A 
ATOM     90  F   UNL A   1      48.850  27.453  23.901  1.00  0.00    -0.206 F 
ATOM     91  C   UNL A   1      50.994  26.574  24.270  1.00  0.00     0.059 A 
ATOM     92  C   UNL A   1      51.695  26.003  26.524  1.00  0.00     0.059 A 
ATOM     93  F   UNL A   1      50.210  26.296  28.315  1.00  0.00    -0.206 F 
ATOM     94  C   UNL A   1      51.956  26.087  25.158  1.00  0.00     0.060 A 
BRANCH  94  95
ATOM     95  S   UNL A   1      53.563  25.593  24.501  1.00  0.00     0.124 S 
ATOM     96  O   UNL A   1      54.477  26.318  25.380  1.00  0.00    -0.237 OA
ATOM     97  O   UNL A   1      53.537  24.144  24.670  1.00  0.00    -0.237 OA
ATOM     98  O   UNL A   1      53.523  26.058  23.117  1.00  0.00    -0.744 OA
ENDBRANCH  94  95
ENDBRANCH  62  87
ENDBRANCH  36  37
ENDBRANCH  28  31
ENDBRANCH  26  27
ENDBRANCH   1  26
TORSDOF 16
ENDMDL
MODEL 2
REMARK VINA RESULT:     -12.7      6.963     12.150
REMARK SMILES CC(C)c1noc(C[N@@H+]2[C@@H](C(=O)NCCCNC(=O)c3ccc(-c4c5nc(c(-c6c(F)cc(S(=O)(=O)[O-])cc6F)c6ccc([nH]6)c(-c6c(F)cc(S(=O)(=O)[O-])cc6F)c6nc(c(-c7c(F)cc(S(=O)(=O)[O-])cc7F)c7ccc4[nH]7)C=C6)C=C5)cc3)C[C@H]3CCCC[C@@H]32)n1
REMARK SMILES IDX 15 1 14 2 13 3 11 4 12 5 10 7 9 8 92 9 86 11 87 12 91 13
REMARK SMILES IDX 88 14 90 15 89 16 8 17 7 18 4 19 5 20 93 21 6 22 2 23 1 24
REMARK SMILES IDX 3 25 16 26 17 27 18 28 19 30 20 31 21 32 85 33 22 34 84 35
REMARK SMILES IDX 23 36 24 37 25 38 78 39 26 40 83 41 77 42 79 43 27 44 82 45
REMARK SMILES IDX 76 46 75 47 28 49 62 50 41 51 61 52 42 53 45 54 60 55 80 56
REMARK SMILES IDX 43 57 44 58 59 60 81 61 46 62 29 63 30 64 39 65 31 66 32 67
REMARK SMILES IDX 38 68 40 69 33 70 34 71 35 72 36 73 37 74 63 75 64 76 73 77
REMARK SMILES IDX 65 78 66 79 72 80 74 81 67 82 68 83 69 84 70 85 71 86 47 87
REMARK SMILES IDX 48 88 57 89 49 90 50 91 56 92 58 93 51 94 52 95 53 96 54 97
REMARK SMILES IDX 55 98
REMARK H PARENT 13 6 9 10 17 29 79 48 45 59
REMARK Flexibility Score: inf
ROOT
ATOM      1  C   UNL A   1      39.286  22.459  26.357  1.00  0.00     0.042 C 
ENDROOT
BRANCH   1   2
ATOM      2  C   UNL A   1      37.978  23.190  26.089  1.00  0.00     0.118 C 
BRANCH   2   3
ATOM      3  N   UNL A   1      37.617  23.164  24.682  1.00  0.00    -0.351 N 
ATOM      4  C   UNL A   1      36.373  23.237  24.107  1.00  0.00     0.278 C 
ATOM      5  O   UNL A   1      36.304  23.190  22.879  1.00  0.00    -0.268 OA
ATOM      6  H   UNL A   1      38.370  23.082  24.053  1.00  0.00     0.163 HD
BRANCH   4   7
ATOM      7  C   UNL A   1      35.159  23.430  25.041  1.00  0.00     0.275 C 
ATOM      8  N   UNL A   1      33.964  22.691  24.534  1.00  0.00    -0.314 N 
ATOM      9  C   UNL A   1      33.137  23.698  23.858  1.00  0.00     0.188 C 
ATOM     10  H   UNL A   1      34.202  21.970  23.852  1.00  0.00     0.349 HD
ATOM     11  C   UNL A   1      34.786  24.925  25.059  1.00  0.00     0.085 C 
ATOM     12  C   UNL A   1      33.313  24.950  24.708  1.00  0.00     0.054 C 
ATOM     13  C   UNL A   1      31.659  23.442  23.557  1.00  0.00     0.065 C 
ATOM     14  C   UNL A   1      32.795  26.179  23.983  1.00  0.00     0.010 C 
ATOM     15  C   UNL A   1      31.001  24.689  22.946  1.00  0.00     0.006 C 
ATOM     16  C   UNL A   1      31.301  25.985  23.711  1.00  0.00     0.001 C 
BRANCH   8  17
ATOM     17  C   UNL A   1      33.323  21.839  25.557  1.00  0.00     0.364 C 
BRANCH  17  18
ATOM     18  C   UNL A   1      33.328  20.363  25.316  1.00  0.00     0.281 A 
ATOM     19  C   UNL A   1      33.695  18.395  24.704  1.00  0.00     0.174 A 
ATOM     20  N   UNL A   1      32.361  18.432  24.830  1.00  0.00    -0.062 NA
ATOM     21  N   UNL A   1      34.333  19.567  25.018  1.00  0.00    -0.191 NA
ATOM     22  O   UNL A   1      32.115  19.735  25.266  1.00  0.00    -0.333 OA
BRANCH  19  23
ATOM     23  C   UNL A   1      34.446  17.218  24.175  1.00  0.00     0.055 C 
ATOM     24  C   UNL A   1      34.384  16.008  25.105  1.00  0.00     0.016 C 
ATOM     25  C   UNL A   1      33.962  16.837  22.773  1.00  0.00     0.016 C 
ENDBRANCH  19  23
ENDBRANCH  17  18
ENDBRANCH   8  17
ENDBRANCH   4   7
ENDBRANCH   2   3
ENDBRANCH   1   2
BRANCH   1  26
ATOM     26  C   UNL A   1      40.384  23.348  26.934  1.00  0.00     0.118 C 
BRANCH  26  27
ATOM     27  N   UNL A   1      40.903  24.303  25.963  1.00  0.00    -0.352 N 
ATOM     28  C   UNL A   1      41.151  25.648  26.086  1.00  0.00     0.251 C 
ATOM     29  H   UNL A   1      41.108  23.924  25.078  1.00  0.00     0.163 HD
ATOM     30  O   UNL A   1      41.422  26.307  25.085  1.00  0.00    -0.269 OA
BRANCH  28  31
ATOM     31  C   UNL A   1      41.065  26.308  27.407  1.00  0.00     0.039 A 
ATOM     32  C   UNL A   1      42.099  27.161  27.804  1.00  0.00     0.014 A 
ATOM     33  C   UNL A   1      39.972  26.096  28.251  1.00  0.00     0.014 A 
ATOM     34  C   UNL A   1      41.990  27.874  28.999  1.00  0.00     0.010 A 
ATOM     35  C   UNL A   1      39.830  26.862  29.406  1.00  0.00     0.010 A 
ATOM     36  C   UNL A   1      40.828  27.774  29.781  1.00  0.00    -0.014 A 
BRANCH  36  37
ATOM     37  C   UNL A   1      40.608  28.655  30.957  1.00  0.00     0.031 A 
ATOM     38  C   UNL A   1      39.584  29.755  30.908  1.00  0.00     0.074 A 
ATOM     39  C   UNL A   1      41.398  28.514  32.041  1.00  0.00     0.049 A 
ATOM     40  N   UNL A   1      39.337  30.691  31.789  1.00  0.00    -0.248 NA
ATOM     41  C   UNL A   1      38.741  29.826  29.704  1.00  0.00     0.031 C 
ATOM     42  C   UNL A   1      42.457  27.511  32.192  1.00  0.00     0.029 A 
ATOM     43  N   UNL A   1      41.453  29.227  33.213  1.00  0.00    -0.354 N 
ATOM     44  C   UNL A   1      38.314  31.461  31.248  1.00  0.00     0.074 A 
ATOM     45  C   UNL A   1      38.020  30.914  29.941  1.00  0.00     0.031 C 
ATOM     46  C   UNL A   1      43.049  27.669  33.385  1.00  0.00     0.029 A 
ATOM     47  C   UNL A   1      42.451  28.812  34.066  1.00  0.00     0.049 A 
ATOM     48  H   UNL A   1      40.837  29.965  33.424  1.00  0.00     0.167 HD
ATOM     49  C   UNL A   1      37.668  32.516  31.800  1.00  0.00     0.037 A 
ATOM     50  C   UNL A   1      42.858  29.312  35.249  1.00  0.00     0.037 A 
ATOM     51  C   UNL A   1      37.961  33.050  33.106  1.00  0.00     0.049 A 
ATOM     52  C   UNL A   1      42.149  30.510  35.822  1.00  0.00     0.074 A 
ATOM     53  C   UNL A   1      37.330  34.089  33.771  1.00  0.00     0.029 A 
ATOM     54  N   UNL A   1      38.970  32.597  33.943  1.00  0.00    -0.354 N 
ATOM     55  N   UNL A   1      41.143  31.187  35.323  1.00  0.00    -0.248 NA
ATOM     56  C   UNL A   1      42.629  31.010  37.118  1.00  0.00     0.031 C 
ATOM     57  C   UNL A   1      37.989  34.294  34.987  1.00  0.00     0.029 A 
ATOM     58  C   UNL A   1      38.998  33.352  35.104  1.00  0.00     0.049 A 
ATOM     59  H   UNL A   1      39.578  31.850  33.741  1.00  0.00     0.167 HD
ATOM     60  C   UNL A   1      40.860  32.183  36.251  1.00  0.00     0.074 A 
ATOM     61  C   UNL A   1      41.783  32.005  37.351  1.00  0.00     0.031 C 
ATOM     62  C   UNL A   1      39.923  33.163  36.194  1.00  0.00     0.037 A 
BRANCH  49  63
ATOM     63  C   UNL A   1      36.566  33.161  31.004  1.00  0.00     0.058 A 
ATOM     64  C   UNL A   1      35.217  33.014  31.366  1.00  0.00     0.135 A 
ATOM     65  C   UNL A   1      36.863  33.990  29.910  1.00  0.00     0.135 A 
ATOM     66  F   UNL A   1      34.876  32.221  32.393  1.00  0.00    -0.206 F 
ATOM     67  C   UNL A   1      34.202  33.652  30.662  1.00  0.00     0.059 A 
ATOM     68  C   UNL A   1      35.866  34.659  29.207  1.00  0.00     0.059 A 
ATOM     69  F   UNL A   1      38.136  34.164  29.520  1.00  0.00    -0.206 F 
ATOM     70  C   UNL A   1      34.536  34.477  29.587  1.00  0.00     0.060 A 
BRANCH  70  71
ATOM     71  S   UNL A   1      33.205  35.319  28.703  1.00  0.00     0.124 S 
ATOM     72  O   UNL A   1      33.954  36.249  27.866  1.00  0.00    -0.237 OA
ATOM     73  O   UNL A   1      32.554  34.218  28.001  1.00  0.00    -0.237 OA
ATOM     74  O   UNL A   1      32.420  35.930  29.772  1.00  0.00    -0.744 OA
ENDBRANCH  70  71
ENDBRANCH  49  63
BRANCH  50  75
ATOM     75  C   UNL A   1      44.009  28.696  35.965  1.00  0.00     0.058 A 
ATOM     76  C   UNL A   1      43.824  27.618  36.843  1.00  0.00     0.135 A 
ATOM     77  C   UNL A   1      45.315  29.179  35.791  1.00  0.00     0.135 A 
ATOM     78  F   UNL A   1      42.594  27.123  37.048  1.00  0.00    -0.206 F 
ATOM     79  C   UNL A   1      44.887  27.059  37.545  1.00  0.00     0.059 A 
ATOM     80  C   UNL A   1      46.399  28.618  36.459  1.00  0.00     0.059 A 
ATOM     81  F   UNL A   1      45.551  30.198  34.948  1.00  0.00    -0.206 F 
ATOM     82  C   UNL A   1      46.172  27.568  37.347  1.00  0.00     0.060 A 
BRANCH  82  83
ATOM     83  S   UNL A   1      47.549  26.819  38.243  1.00  0.00     0.124 S 
ATOM     84  O   UNL A   1      48.679  27.597  37.747  1.00  0.00    -0.237 OA
ATOM     85  O   UNL A   1      47.173  27.053  39.634  1.00  0.00    -0.237 OA
ATOM     86  O   UNL A   1      47.507  25.424  37.817  1.00  0.00    -0.744 OA
ENDBRANCH  82  83
ENDBRANCH  50  75
BRANCH  62  87
ATOM     87  C   UNL A   1      39.838  34.107  37.361  1.00  0.00     0.058 A 
ATOM     88  C   UNL A   1      40.506  35.342  37.357  1.00  0.00     0.135 A 
ATOM     89  C   UNL A   1      39.039  33.798  38.474  1.00  0.00     0.135 A 
ATOM     90  F   UNL A   1      41.291  35.683  36.322  1.00  0.00    -0.206 F 
ATOM     91  C   UNL A   1      40.401  36.229  38.424  1.00  0.00     0.059 A 
ATOM     92  C   UNL A   1      38.897  34.682  39.539  1.00  0.00     0.059 A 
ATOM     93  F   UNL A   1      38.372  32.634  38.525  1.00  0.00    -0.206 F 
ATOM     94  C   UNL A   1      39.589  35.891  39.509  1.00  0.00     0.060 A 
BRANCH  94  95
ATOM     95  S   UNL A   1      39.432  37.070  40.867  1.00  0.00     0.124 S 
ATOM     96  O   UNL A   1      38.495  38.040  40.308  1.00  0.00    -0.237 OA
ATOM     97  O   UNL A   1      38.912  36.236  41.946  1.00  0.00    -0.237 OA
ATOM     98  O   UNL A   1      40.796  37.554  41.057  1.00  0.00    -0.744 OA
ENDBRANCH  94  95
ENDBRANCH  62  87
ENDBRANCH  36  37
ENDBRANCH  28  31
ENDBRANCH  26  27
ENDBRANCH   1  26
TORSDOF 16
ENDMDL
MODEL 3
REMARK VINA RESULT:     -12.6      6.659     12.204
REMARK SMILES CC(C)c1noc(C[N@@H+]2[C@@H](C(=O)NCCCNC(=O)c3ccc(-c4c5nc(c(-c6c(F)cc(S(=O)(=O)[O-])cc6F)c6ccc([nH]6)c(-c6c(F)cc(S(=O)(=O)[O-])cc6F)c6nc(c(-c7c(F)cc(S(=O)(=O)[O-])cc7F)c7ccc4[nH]7)C=C6)C=C5)cc3)C[C@H]3CCCC[C@@H]32)n1
REMARK SMILES IDX 15 1 14 2 13 3 11 4 12 5 10 7 9 8 92 9 86 11 87 12 91 13
REMARK SMILES IDX 88 14 90 15 89 16 8 17 7 18 4 19 5 20 93 21 6 22 2 23 1 24
REMARK SMILES IDX 3 25 16 26 17 27 18 28 19 30 20 31 21 32 85 33 22 34 84 35
REMARK SMILES IDX 23 36 24 37 25 38 78 39 26 40 83 41 77 42 79 43 27 44 82 45
REMARK SMILES IDX 76 46 75 47 28 49 62 50 41 51 61 52 42 53 45 54 60 55 80 56
REMARK SMILES IDX 43 57 44 58 59 60 81 61 46 62 29 63 30 64 39 65 31 66 32 67
REMARK SMILES IDX 38 68 40 69 33 70 34 71 35 72 36 73 37 74 63 75 64 76 73 77
REMARK SMILES IDX 65 78 66 79 72 80 74 81 67 82 68 83 69 84 70 85 71 86 47 87
REMARK SMILES IDX 48 88 57 89 49 90 50 91 56 92 58 93 51 94 52 95 53 96 54 97
REMARK SMILES IDX 55 98
REMARK H PARENT 13 6 9 10 17 29 79 48 45 59
REMARK Flexibility Score: inf
ROOT
ATOM      1  C   UNL A   1      39.218  21.859  26.179  1.00  0.00     0.042 C 
ENDROOT
BRANCH   1   2
ATOM      2  C   UNL A   1      37.742  22.037  25.850  1.00  0.00     0.118 C 
BRANCH   2   3
ATOM      3  N   UNL A   1      37.524  22.268  24.432  1.00  0.00    -0.351 N 
ATOM      4  C   UNL A   1      36.398  22.724  23.794  1.00  0.00     0.278 C 
ATOM      5  O   UNL A   1      36.438  22.839  22.569  1.00  0.00    -0.268 OA
ATOM      6  H   UNL A   1      38.291  22.069  23.847  1.00  0.00     0.163 HD
BRANCH   4   7
ATOM      7  C   UNL A   1      35.184  23.112  24.665  1.00  0.00     0.275 C 
ATOM      8  N   UNL A   1      33.900  22.733  24.004  1.00  0.00    -0.314 N 
ATOM      9  C   UNL A   1      33.391  23.969  23.396  1.00  0.00     0.188 C 
ATOM     10  H   UNL A   1      34.023  22.044  23.261  1.00  0.00     0.349 HD
ATOM     11  C   UNL A   1      35.168  24.644  24.830  1.00  0.00     0.085 C 
ATOM     12  C   UNL A   1      33.777  25.054  24.392  1.00  0.00     0.054 C 
ATOM     13  C   UNL A   1      31.926  24.104  22.976  1.00  0.00     0.065 C 
ATOM     14  C   UNL A   1      33.623  26.435  23.781  1.00  0.00     0.010 C 
ATOM     15  C   UNL A   1      31.632  25.525  22.470  1.00  0.00     0.006 C 
ATOM     16  C   UNL A   1      32.155  26.633  23.395  1.00  0.00     0.001 C 
BRANCH   8  17
ATOM     17  C   UNL A   1      32.991  21.966  24.881  1.00  0.00     0.364 C 
BRANCH  17  18
ATOM     18  C   UNL A   1      33.183  20.484  24.933  1.00  0.00     0.281 A 
ATOM     19  C   UNL A   1      33.724  18.483  24.637  1.00  0.00     0.174 A 
ATOM     20  N   UNL A   1      32.460  18.396  25.073  1.00  0.00    -0.062 NA
ATOM     21  N   UNL A   1      34.216  19.760  24.557  1.00  0.00    -0.191 NA
ATOM     22  O   UNL A   1      32.105  19.727  25.299  1.00  0.00    -0.333 OA
BRANCH  19  23
ATOM     23  C   UNL A   1      34.524  17.309  24.175  1.00  0.00     0.055 C 
ATOM     24  C   UNL A   1      34.526  16.160  25.182  1.00  0.00     0.016 C 
ATOM     25  C   UNL A   1      34.048  16.818  22.806  1.00  0.00     0.016 C 
ENDBRANCH  19  23
ENDBRANCH  17  18
ENDBRANCH   8  17
ENDBRANCH   4   7
ENDBRANCH   2   3
ENDBRANCH   1   2
BRANCH   1  26
ATOM     26  C   UNL A   1      39.883  23.114  26.736  1.00  0.00     0.118 C 
BRANCH  26  27
ATOM     27  N   UNL A   1      41.175  23.389  26.119  1.00  0.00    -0.352 N 
ATOM     28  C   UNL A   1      41.978  24.500  26.198  1.00  0.00     0.251 C 
ATOM     29  H   UNL A   1      41.528  22.662  25.556  1.00  0.00     0.163 HD
ATOM     30  O   UNL A   1      42.949  24.598  25.452  1.00  0.00    -0.269 OA
BRANCH  28  31
ATOM     31  C   UNL A   1      41.662  25.587  27.150  1.00  0.00     0.039 A 
ATOM     32  C   UNL A   1      40.676  25.372  28.117  1.00  0.00     0.014 A 
ATOM     33  C   UNL A   1      42.335  26.810  27.098  1.00  0.00     0.014 A 
ATOM     34  C   UNL A   1      40.435  26.345  29.089  1.00  0.00     0.010 A 
ATOM     35  C   UNL A   1      42.146  27.748  28.110  1.00  0.00     0.010 A 
ATOM     36  C   UNL A   1      41.208  27.516  29.128  1.00  0.00    -0.014 A 
BRANCH  36  37
ATOM     37  C   UNL A   1      41.098  28.480  30.254  1.00  0.00     0.031 A 
ATOM     38  C   UNL A   1      41.960  28.329  31.476  1.00  0.00     0.074 A 
ATOM     39  C   UNL A   1      40.154  29.441  30.206  1.00  0.00     0.049 A 
ATOM     40  N   UNL A   1      41.923  29.000  32.600  1.00  0.00    -0.248 NA
ATOM     41  C   UNL A   1      42.987  27.275  31.441  1.00  0.00     0.031 C 
ATOM     42  C   UNL A   1      39.227  29.663  29.092  1.00  0.00     0.029 A 
ATOM     43  N   UNL A   1      39.799  30.400  31.123  1.00  0.00    -0.354 N 
ATOM     44  C   UNL A   1      42.914  28.451  33.404  1.00  0.00     0.074 A 
ATOM     45  C   UNL A   1      43.505  27.360  32.659  1.00  0.00     0.031 C 
ATOM     46  C   UNL A   1      38.417  30.690  29.389  1.00  0.00     0.029 A 
ATOM     47  C   UNL A   1      38.729  31.171  30.729  1.00  0.00     0.049 A 
ATOM     48  H   UNL A   1      40.265  30.524  31.981  1.00  0.00     0.167 HD
ATOM     49  C   UNL A   1      43.308  28.836  34.641  1.00  0.00     0.037 A 
ATOM     50  C   UNL A   1      38.056  32.138  31.384  1.00  0.00     0.037 A 
ATOM     51  C   UNL A   1      42.721  29.929  35.373  1.00  0.00     0.049 A 
ATOM     52  C   UNL A   1      38.488  32.519  32.774  1.00  0.00     0.074 A 
ATOM     53  C   UNL A   1      43.081  30.424  36.616  1.00  0.00     0.029 A 
ATOM     54  N   UNL A   1      41.647  30.692  34.938  1.00  0.00    -0.354 N 
ATOM     55  N   UNL A   1      39.469  32.030  33.494  1.00  0.00    -0.248 NA
ATOM     56  C   UNL A   1      37.725  33.584  33.440  1.00  0.00     0.031 C 
ATOM     57  C   UNL A   1      42.195  31.453  36.951  1.00  0.00     0.029 A 
ATOM     58  C   UNL A   1      41.315  31.635  35.898  1.00  0.00     0.049 A 
ATOM     59  H   UNL A   1      41.188  30.581  34.074  1.00  0.00     0.167 HD
ATOM     60  C   UNL A   1      39.450  32.737  34.692  1.00  0.00     0.074 A 
ATOM     61  C   UNL A   1      38.377  33.704  34.589  1.00  0.00     0.031 C 
ATOM     62  C   UNL A   1      40.244  32.594  35.782  1.00  0.00     0.037 A 
BRANCH  49  63
ATOM     63  C   UNL A   1      44.438  28.081  35.286  1.00  0.00     0.058 A 
ATOM     64  C   UNL A   1      44.203  26.955  36.091  1.00  0.00     0.135 A 
ATOM     65  C   UNL A   1      45.774  28.444  35.045  1.00  0.00     0.135 A 
ATOM     66  F   UNL A   1      42.947  26.572  36.367  1.00  0.00    -0.206 F 
ATOM     67  C   UNL A   1      45.249  26.225  36.645  1.00  0.00     0.059 A 
ATOM     68  C   UNL A   1      46.836  27.714  35.567  1.00  0.00     0.059 A 
ATOM     69  F   UNL A   1      46.056  29.514  34.284  1.00  0.00    -0.206 F 
ATOM     70  C   UNL A   1      46.564  26.609  36.374  1.00  0.00     0.060 A 
BRANCH  70  71
ATOM     71  S   UNL A   1      47.907  25.632  37.080  1.00  0.00     0.124 S 
ATOM     72  O   UNL A   1      49.045  26.084  36.285  1.00  0.00    -0.237 OA
ATOM     73  O   UNL A   1      47.901  26.058  38.476  1.00  0.00    -0.237 OA
ATOM     74  O   UNL A   1      47.487  24.254  36.845  1.00  0.00    -0.744 OA
ENDBRANCH  70  71
ENDBRANCH  49  63
BRANCH  50  75
ATOM     75  C   UNL A   1      36.888  32.801  30.742  1.00  0.00     0.058 A 
ATOM     76  C   UNL A   1      37.056  33.911  29.902  1.00  0.00     0.135 A 
ATOM     77  C   UNL A   1      35.580  32.344  30.966  1.00  0.00     0.135 A 
ATOM     78  F   UNL A   1      38.286  34.392  29.662  1.00  0.00    -0.206 F 
ATOM     79  C   UNL A   1      35.969  34.562  29.328  1.00  0.00     0.059 A 
ATOM     80  C   UNL A   1      34.479  32.959  30.379  1.00  0.00     0.059 A 
ATOM     81  F   UNL A   1      35.365  31.274  31.747  1.00  0.00    -0.206 F 
ATOM     82  C   UNL A   1      34.682  34.078  29.573  1.00  0.00     0.060 A 
BRANCH  82  83
ATOM     83  S   UNL A   1      33.279  34.913  28.803  1.00  0.00     0.124 S 
ATOM     84  O   UNL A   1      32.763  33.868  27.925  1.00  0.00    -0.237 OA
ATOM     85  O   UNL A   1      32.450  35.248  29.956  1.00  0.00    -0.237 OA
ATOM     86  O   UNL A   1      33.896  36.054  28.133  1.00  0.00    -0.744 OA
ENDBRANCH  82  83
ENDBRANCH  50  75
BRANCH  62  87
ATOM     87  C   UNL A   1      39.996  33.514  36.944  1.00  0.00     0.058 A 
ATOM     88  C   UNL A   1      40.674  34.736  37.073  1.00  0.00     0.135 A 
ATOM     89  C   UNL A   1      39.030  33.196  37.914  1.00  0.00     0.135 A 
ATOM     90  F   UNL A   1      41.614  35.085  36.179  1.00  0.00    -0.206 F 
ATOM     91  C   UNL A   1      40.420  35.601  38.132  1.00  0.00     0.059 A 
ATOM     92  C   UNL A   1      38.739  34.060  38.965  1.00  0.00     0.059 A 
ATOM     93  F   UNL A   1      38.345  32.044  37.834  1.00  0.00    -0.206 F 
ATOM     94  C   UNL A   1      39.446  35.256  39.071  1.00  0.00     0.060 A 
BRANCH  94  95
ATOM     95  S   UNL A   1      39.099  36.408  40.417  1.00  0.00     0.124 S 
ATOM     96  O   UNL A   1      40.413  36.537  41.041  1.00  0.00    -0.237 OA
ATOM     97  O   UNL A   1      38.617  37.586  39.703  1.00  0.00    -0.237 OA
ATOM     98  O   UNL A   1      38.093  35.709  41.212  1.00  0.00    -0.744 OA
ENDBRANCH  94  95
ENDBRANCH  62  87
ENDBRANCH  36  37
ENDBRANCH  28  31
ENDBRANCH  26  27
ENDBRANCH   1  26
TORSDOF 16
ENDMDL
