MODEL 1
REMARK VINA RESULT:     -11.1      0.000      0.000
REMARK SMILES C[C@@H]1OCC[C@@H]1C#CC(=O)NCCCNC(=O)c1ccc(-c2c3nc(c(-c4c(F)cc(S(=O)(=O)[O-])cc4F)c4ccc([nH]4)c(-c4c(F)cc(S(=O)(=O)[O-])cc4F)c4nc(c(-c5c(F)cc(S(=O)(=O)[O-])cc5F)c5ccc2[nH]5)C=C4)C=C3)cc1
REMARK SMILES IDX 14 1 13 2 12 3 11 4 9 5 10 6 8 8 7 9 6 10 1 11 2 12 3 13
REMARK SMILES IDX 4 14 5 15 15 16 16 17 17 19 18 20 19 21 83 22 20 23 82 24
REMARK SMILES IDX 21 25 22 26 23 27 76 28 24 29 81 30 75 31 77 32 25 33 80 34
REMARK SMILES IDX 74 35 73 36 26 38 60 39 39 40 59 41 40 42 43 43 58 44 78 45
REMARK SMILES IDX 41 46 42 47 57 49 79 50 44 51 27 52 28 53 37 54 29 55 30 56
REMARK SMILES IDX 36 57 38 58 31 59 32 60 33 61 34 62 35 63 61 64 62 65 71 66
REMARK SMILES IDX 63 67 64 68 70 69 72 70 65 71 66 72 67 73 68 74 69 75 45 76
REMARK SMILES IDX 46 77 55 78 47 79 48 80 54 81 56 82 49 83 50 84 51 85 52 86
REMARK SMILES IDX 53 87
REMARK H PARENT 11 7 15 18 77 37 43 48
REMARK Flexibility Score: inf
ROOT
ATOM      1  C   UNL A   1      36.429  33.005  29.274  1.00  0.00     0.118 C 
ENDROOT
BRANCH   1   2
ATOM      2  C   UNL A   1      35.606  33.083  27.991  1.00  0.00     0.042 C 
BRANCH   2   3
ATOM      3  C   UNL A   1      34.116  33.307  28.214  1.00  0.00     0.118 C 
BRANCH   3   4
ATOM      4  N   UNL A   1      33.717  34.682  27.975  1.00  0.00    -0.345 N 
ATOM      5  C   UNL A   1      33.416  35.632  28.913  1.00  0.00     0.295 C 
ATOM      6  O   UNL A   1      33.124  36.776  28.589  1.00  0.00    -0.260 OA
ATOM      7  H   UNL A   1      33.657  34.962  27.033  1.00  0.00     0.164 HD
BRANCH   5   8
ATOM      8  C   UNL A   1      33.463  35.270  30.308  1.00  0.00    -0.005 C 
ATOM      9  C   UNL A   1      33.560  34.958  31.466  1.00  0.00    -0.087 C 
BRANCH   9  10
ATOM     10  C   UNL A   1      33.729  34.553  32.872  1.00  0.00     0.096 C 
ATOM     11  C   UNL A   1      33.968  37.056  33.525  1.00  0.00     0.040 C 
ATOM     12  C   UNL A   1      34.398  35.616  33.746  1.00  0.00     0.130 C 
ATOM     13  O   UNL A   1      35.816  35.475  33.543  1.00  0.00    -0.377 OA
ATOM     14  C   UNL A   1      36.065  34.159  33.025  1.00  0.00     0.162 C 
ATOM     15  C   UNL A   1      34.736  33.425  32.986  1.00  0.00     0.048 C 
ENDBRANCH   9  10
ENDBRANCH   5   8
ENDBRANCH   3   4
ENDBRANCH   2   3
ENDBRANCH   1   2
BRANCH   1  16
ATOM     16  N   UNL A   1      35.990  31.940  30.162  1.00  0.00    -0.352 N 
ATOM     17  C   UNL A   1      36.560  30.723  30.450  1.00  0.00     0.251 C 
ATOM     18  H   UNL A   1      35.146  32.120  30.635  1.00  0.00     0.163 HD
ATOM     19  O   UNL A   1      35.914  29.907  31.104  1.00  0.00    -0.269 OA
BRANCH  17  20
ATOM     20  C   UNL A   1      37.918  30.378  29.970  1.00  0.00     0.039 A 
ATOM     21  C   UNL A   1      38.965  30.351  30.896  1.00  0.00     0.014 A 
ATOM     22  C   UNL A   1      38.182  30.123  28.622  1.00  0.00     0.014 A 
ATOM     23  C   UNL A   1      40.257  30.017  30.480  1.00  0.00     0.010 A 
ATOM     24  C   UNL A   1      39.450  29.702  28.225  1.00  0.00     0.010 A 
ATOM     25  C   UNL A   1      40.507  29.653  29.146  1.00  0.00    -0.014 A 
BRANCH  25  26
ATOM     26  C   UNL A   1      41.865  29.225  28.713  1.00  0.00     0.031 A 
ATOM     27  C   UNL A   1      42.999  30.215  28.653  1.00  0.00     0.074 A 
ATOM     28  C   UNL A   1      42.072  27.944  28.343  1.00  0.00     0.049 A 
ATOM     29  N   UNL A   1      44.243  30.024  28.291  1.00  0.00    -0.248 NA
ATOM     30  C   UNL A   1      42.693  31.605  29.028  1.00  0.00     0.031 C 
ATOM     31  C   UNL A   1      41.047  26.898  28.313  1.00  0.00     0.029 A 
ATOM     32  N   UNL A   1      43.210  27.301  27.924  1.00  0.00    -0.354 N 
ATOM     33  C   UNL A   1      44.865  31.265  28.391  1.00  0.00     0.074 A 
ATOM     34  C   UNL A   1      43.846  32.213  28.785  1.00  0.00     0.031 C 
ATOM     35  C   UNL A   1      41.609  25.741  27.931  1.00  0.00     0.029 A 
ATOM     36  C   UNL A   1      43.021  25.967  27.643  1.00  0.00     0.049 A 
ATOM     37  H   UNL A   1      44.080  27.752  27.831  1.00  0.00     0.167 HD
ATOM     38  C   UNL A   1      46.167  31.580  28.197  1.00  0.00     0.037 A 
ATOM     39  C   UNL A   1      43.882  25.032  27.196  1.00  0.00     0.037 A 
ATOM     40  C   UNL A   1      47.179  30.628  27.813  1.00  0.00     0.049 A 
ATOM     41  C   UNL A   1      45.319  25.415  26.958  1.00  0.00     0.074 A 
ATOM     42  C   UNL A   1      48.536  30.839  27.641  1.00  0.00     0.029 A 
ATOM     43  N   UNL A   1      46.946  29.289  27.532  1.00  0.00    -0.354 N 
ATOM     44  N   UNL A   1      45.903  26.577  27.131  1.00  0.00    -0.248 NA
ATOM     45  C   UNL A   1      46.217  24.358  26.473  1.00  0.00     0.031 C 
ATOM     46  C   UNL A   1      49.111  29.647  27.191  1.00  0.00     0.029 A 
ATOM     47  C   UNL A   1      48.128  28.671  27.154  1.00  0.00     0.049 A 
ATOM     48  H   UNL A   1      46.070  28.844  27.592  1.00  0.00     0.167 HD
ATOM     49  C   UNL A   1      47.241  26.383  26.802  1.00  0.00     0.074 A 
ATOM     50  C   UNL A   1      47.383  24.988  26.442  1.00  0.00     0.031 C 
ATOM     51  C   UNL A   1      48.259  27.279  26.799  1.00  0.00     0.037 A 
BRANCH  38  52
ATOM     52  C   UNL A   1      46.581  33.016  28.396  1.00  0.00     0.058 A 
ATOM     53  C   UNL A   1      46.520  33.956  27.353  1.00  0.00     0.135 A 
ATOM     54  C   UNL A   1      46.998  33.471  29.659  1.00  0.00     0.135 A 
ATOM     55  F   UNL A   1      46.143  33.577  26.121  1.00  0.00    -0.206 F 
ATOM     56  C   UNL A   1      46.884  35.284  27.547  1.00  0.00     0.059 A 
ATOM     57  C   UNL A   1      47.333  34.803  29.883  1.00  0.00     0.059 A 
ATOM     58  F   UNL A   1      47.075  32.619  30.693  1.00  0.00    -0.206 F 
ATOM     59  C   UNL A   1      47.285  35.699  28.817  1.00  0.00     0.060 A 
BRANCH  59  60
ATOM     60  S   UNL A   1      47.740  37.432  29.051  1.00  0.00     0.124 S 
ATOM     61  O   UNL A   1      48.099  37.824  27.692  1.00  0.00    -0.237 OA
ATOM     62  O   UNL A   1      46.506  38.007  29.572  1.00  0.00    -0.237 OA
ATOM     63  O   UNL A   1      48.849  37.368  29.999  1.00  0.00    -0.744 OA
ENDBRANCH  59  60
ENDBRANCH  38  52
BRANCH  39  64
ATOM     64  C   UNL A   1      43.414  23.639  26.951  1.00  0.00     0.058 A 
ATOM     65  C   UNL A   1      43.197  23.164  25.648  1.00  0.00     0.135 A 
ATOM     66  C   UNL A   1      43.170  22.756  28.015  1.00  0.00     0.135 A 
ATOM     67  F   UNL A   1      43.406  23.970  24.596  1.00  0.00    -0.206 F 
ATOM     68  C   UNL A   1      42.734  21.873  25.409  1.00  0.00     0.059 A 
ATOM     69  C   UNL A   1      42.740  21.450  27.800  1.00  0.00     0.059 A 
ATOM     70  F   UNL A   1      43.375  23.153  29.280  1.00  0.00    -0.206 F 
ATOM     71  C   UNL A   1      42.513  21.023  26.492  1.00  0.00     0.060 A 
BRANCH  71  72
ATOM     72  S   UNL A   1      41.953  19.337  26.168  1.00  0.00     0.124 S 
ATOM     73  O   UNL A   1      42.731  18.990  24.985  1.00  0.00    -0.237 OA
ATOM     74  O   UNL A   1      42.326  18.651  27.401  1.00  0.00    -0.237 OA
ATOM     75  O   UNL A   1      40.517  19.494  25.956  1.00  0.00    -0.744 OA
ENDBRANCH  71  72
ENDBRANCH  39  64
BRANCH  51  76
ATOM     76  C   UNL A   1      49.630  26.774  26.428  1.00  0.00     0.058 A 
ATOM     77  C   UNL A   1      50.454  26.113  27.353  1.00  0.00     0.135 A 
ATOM     78  C   UNL A   1      50.105  26.913  25.113  1.00  0.00     0.135 A 
ATOM     79  F   UNL A   1      50.054  25.956  28.625  1.00  0.00    -0.206 F 
ATOM     80  C   UNL A   1      51.713  25.639  26.997  1.00  0.00     0.059 A 
ATOM     81  C   UNL A   1      51.344  26.413  24.726  1.00  0.00     0.059 A 
ATOM     82  F   UNL A   1      49.356  27.525  24.183  1.00  0.00    -0.206 F 
ATOM     83  C   UNL A   1      52.148  25.791  25.679  1.00  0.00     0.060 A 
BRANCH  83  84
ATOM     84  S   UNL A   1      53.771  25.144  25.226  1.00  0.00     0.124 S 
ATOM     85  O   UNL A   1      53.557  23.705  25.339  1.00  0.00    -0.237 OA
ATOM     86  O   UNL A   1      53.942  25.655  23.870  1.00  0.00    -0.237 OA
ATOM     87  O   UNL A   1      54.662  25.726  26.226  1.00  0.00    -0.744 OA
ENDBRANCH  83  84
ENDBRANCH  51  76
ENDBRANCH  25  26
ENDBRANCH  17  20
ENDBRANCH   1  16
TORSDOF 14
ENDMDL
MODEL 2
REMARK VINA RESULT:     -10.9      2.883      3.613
REMARK SMILES C[C@@H]1OCC[C@@H]1C#CC(=O)NCCCNC(=O)c1ccc(-c2c3nc(c(-c4c(F)cc(S(=O)(=O)[O-])cc4F)c4ccc([nH]4)c(-c4c(F)cc(S(=O)(=O)[O-])cc4F)c4nc(c(-c5c(F)cc(S(=O)(=O)[O-])cc5F)c5ccc2[nH]5)C=C4)C=C3)cc1
REMARK SMILES IDX 14 1 13 2 12 3 11 4 9 5 10 6 8 8 7 9 6 10 1 11 2 12 3 13
REMARK SMILES IDX 4 14 5 15 15 16 16 17 17 19 18 20 19 21 83 22 20 23 82 24
REMARK SMILES IDX 21 25 22 26 23 27 76 28 24 29 81 30 75 31 77 32 25 33 80 34
REMARK SMILES IDX 74 35 73 36 26 38 60 39 39 40 59 41 40 42 43 43 58 44 78 45
REMARK SMILES IDX 41 46 42 47 57 49 79 50 44 51 27 52 28 53 37 54 29 55 30 56
REMARK SMILES IDX 36 57 38 58 31 59 32 60 33 61 34 62 35 63 61 64 62 65 71 66
REMARK SMILES IDX 63 67 64 68 70 69 72 70 65 71 66 72 67 73 68 74 69 75 45 76
REMARK SMILES IDX 46 77 55 78 47 79 48 80 54 81 56 82 49 83 50 84 51 85 52 86
REMARK SMILES IDX 53 87
REMARK H PARENT 11 7 15 18 77 37 43 48
REMARK Flexibility Score: inf
ROOT
ATOM      1  C   UNL A   1      34.786  32.823  28.396  1.00  0.00     0.118 C 
ENDROOT
BRANCH   1   2
ATOM      2  C   UNL A   1      34.045  34.087  27.970  1.00  0.00     0.042 C 
BRANCH   2   3
ATOM      3  C   UNL A   1      34.633  35.377  28.528  1.00  0.00     0.118 C 
BRANCH   3   4
ATOM      4  N   UNL A   1      33.640  36.198  29.197  1.00  0.00    -0.345 N 
ATOM      5  C   UNL A   1      33.199  36.078  30.487  1.00  0.00     0.295 C 
ATOM      6  O   UNL A   1      32.377  36.855  30.954  1.00  0.00    -0.260 OA
ATOM      7  H   UNL A   1      33.240  36.922  28.662  1.00  0.00     0.164 HD
BRANCH   5   8
ATOM      8  C   UNL A   1      33.731  35.018  31.307  1.00  0.00    -0.005 C 
ATOM      9  C   UNL A   1      34.164  34.096  31.947  1.00  0.00    -0.087 C 
BRANCH   9  10
ATOM     10  C   UNL A   1      34.667  32.931  32.696  1.00  0.00     0.096 C 
ATOM     11  C   UNL A   1      35.365  34.522  34.627  1.00  0.00     0.040 C 
ATOM     12  C   UNL A   1      35.670  33.288  33.794  1.00  0.00     0.130 C 
ATOM     13  O   UNL A   1      36.951  33.417  33.150  1.00  0.00    -0.377 OA
ATOM     14  C   UNL A   1      36.893  32.718  31.897  1.00  0.00     0.162 C 
ATOM     15  C   UNL A   1      35.529  32.055  31.807  1.00  0.00     0.048 C 
ENDBRANCH   9  10
ENDBRANCH   5   8
ENDBRANCH   3   4
ENDBRANCH   2   3
ENDBRANCH   1   2
BRANCH   1  16
ATOM     16  N   UNL A   1      34.013  31.612  28.168  1.00  0.00    -0.352 N 
ATOM     17  C   UNL A   1      34.417  30.306  28.027  1.00  0.00     0.251 C 
ATOM     18  H   UNL A   1      33.041  31.750  28.104  1.00  0.00     0.163 HD
ATOM     19  O   UNL A   1      33.595  29.468  27.663  1.00  0.00    -0.269 OA
BRANCH  17  20
ATOM     20  C   UNL A   1      35.819  29.904  28.283  1.00  0.00     0.039 A 
ATOM     21  C   UNL A   1      36.744  30.008  27.239  1.00  0.00     0.014 A 
ATOM     22  C   UNL A   1      36.225  29.387  29.516  1.00  0.00     0.014 A 
ATOM     23  C   UNL A   1      38.078  29.648  27.450  1.00  0.00     0.010 A 
ATOM     24  C   UNL A   1      37.572  29.115  29.751  1.00  0.00     0.010 A 
ATOM     25  C   UNL A   1      38.515  29.231  28.719  1.00  0.00    -0.014 A 
BRANCH  25  26
ATOM     26  C   UNL A   1      39.948  28.918  28.968  1.00  0.00     0.031 A 
ATOM     27  C   UNL A   1      40.869  29.955  29.555  1.00  0.00     0.074 A 
ATOM     28  C   UNL A   1      40.430  27.702  28.639  1.00  0.00     0.049 A 
ATOM     29  N   UNL A   1      42.146  29.865  29.831  1.00  0.00    -0.248 NA
ATOM     30  C   UNL A   1      40.288  31.275  29.851  1.00  0.00     0.031 C 
ATOM     31  C   UNL A   1      39.653  26.624  28.022  1.00  0.00     0.029 A 
ATOM     32  N   UNL A   1      41.686  27.164  28.774  1.00  0.00    -0.354 N 
ATOM     33  C   UNL A   1      42.520  31.109  30.327  1.00  0.00     0.074 A 
ATOM     34  C   UNL A   1      41.350  31.958  30.254  1.00  0.00     0.031 C 
ATOM     35  C   UNL A   1      40.438  25.547  27.866  1.00  0.00     0.029 A 
ATOM     36  C   UNL A   1      41.786  25.868  28.324  1.00  0.00     0.049 A 
ATOM     37  H   UNL A   1      42.446  27.661  29.157  1.00  0.00     0.167 HD
ATOM     38  C   UNL A   1      43.718  31.502  30.822  1.00  0.00     0.037 A 
ATOM     39  C   UNL A   1      42.842  25.032  28.275  1.00  0.00     0.037 A 
ATOM     40  C   UNL A   1      44.877  30.648  30.900  1.00  0.00     0.049 A 
ATOM     41  C   UNL A   1      44.172  25.503  28.803  1.00  0.00     0.074 A 
ATOM     42  C   UNL A   1      46.122  30.937  31.431  1.00  0.00     0.029 A 
ATOM     43  N   UNL A   1      44.939  29.344  30.427  1.00  0.00    -0.354 N 
ATOM     44  N   UNL A   1      44.485  26.660  29.338  1.00  0.00    -0.248 NA
ATOM     45  C   UNL A   1      45.289  24.553  28.729  1.00  0.00     0.031 C 
ATOM     46  C   UNL A   1      46.955  29.834  31.219  1.00  0.00     0.029 A 
ATOM     47  C   UNL A   1      46.210  28.829  30.623  1.00  0.00     0.049 A 
ATOM     48  H   UNL A   1      44.189  28.858  30.014  1.00  0.00     0.167 HD
ATOM     49  C   UNL A   1      45.828  26.564  29.689  1.00  0.00     0.074 A 
ATOM     50  C   UNL A   1      46.260  25.231  29.325  1.00  0.00     0.031 C 
ATOM     51  C   UNL A   1      46.630  27.497  30.260  1.00  0.00     0.037 A 
BRANCH  38  52
ATOM     52  C   UNL A   1      43.844  32.919  31.319  1.00  0.00     0.058 A 
ATOM     53  C   UNL A   1      44.206  33.974  30.465  1.00  0.00     0.135 A 
ATOM     54  C   UNL A   1      43.551  33.235  32.657  1.00  0.00     0.135 A 
ATOM     55  F   UNL A   1      44.511  33.732  29.181  1.00  0.00    -0.206 F 
ATOM     56  C   UNL A   1      44.302  35.284  30.926  1.00  0.00     0.059 A 
ATOM     57  C   UNL A   1      43.606  34.543  33.129  1.00  0.00     0.059 A 
ATOM     58  F   UNL A   1      43.199  32.269  33.519  1.00  0.00    -0.206 F 
ATOM     59  C   UNL A   1      43.995  35.559  32.259  1.00  0.00     0.060 A 
BRANCH  59  60
ATOM     60  S   UNL A   1      44.112  37.268  32.832  1.00  0.00     0.124 S 
ATOM     61  O   UNL A   1      43.951  38.006  31.583  1.00  0.00    -0.237 OA
ATOM     62  O   UNL A   1      42.997  37.356  33.769  1.00  0.00    -0.237 OA
ATOM     63  O   UNL A   1      45.440  37.335  33.434  1.00  0.00    -0.744 OA
ENDBRANCH  59  60
ENDBRANCH  38  52
BRANCH  39  64
ATOM     64  C   UNL A   1      42.686  23.661  27.715  1.00  0.00     0.058 A 
ATOM     65  C   UNL A   1      42.768  23.427  26.333  1.00  0.00     0.135 A 
ATOM     66  C   UNL A   1      42.449  22.557  28.549  1.00  0.00     0.135 A 
ATOM     67  F   UNL A   1      42.985  24.450  25.491  1.00  0.00    -0.206 F 
ATOM     68  C   UNL A   1      42.599  22.154  25.796  1.00  0.00     0.059 A 
ATOM     69  C   UNL A   1      42.309  21.270  28.039  1.00  0.00     0.059 A 
ATOM     70  F   UNL A   1      42.375  22.720  29.879  1.00  0.00    -0.206 F 
ATOM     71  C   UNL A   1      42.373  21.081  26.659  1.00  0.00     0.060 A 
BRANCH  71  72
ATOM     72  S   UNL A   1      42.196  19.428  25.955  1.00  0.00     0.124 S 
ATOM     73  O   UNL A   1      43.012  19.531  24.750  1.00  0.00    -0.237 OA
ATOM     74  O   UNL A   1      42.732  18.586  27.019  1.00  0.00    -0.237 OA
ATOM     75  O   UNL A   1      40.758  19.308  25.735  1.00  0.00    -0.744 OA
ENDBRANCH  71  72
ENDBRANCH  39  64
BRANCH  51  76
ATOM     76  C   UNL A   1      48.052  27.101  30.562  1.00  0.00     0.058 A 
ATOM     77  C   UNL A   1      49.109  27.396  29.687  1.00  0.00     0.135 A 
ATOM     78  C   UNL A   1      48.367  26.455  31.770  1.00  0.00     0.135 A 
ATOM     79  F   UNL A   1      48.867  28.007  28.516  1.00  0.00    -0.206 F 
ATOM     80  C   UNL A   1      50.421  27.037  29.981  1.00  0.00     0.059 A 
ATOM     81  C   UNL A   1      49.676  26.120  32.102  1.00  0.00     0.059 A 
ATOM     82  F   UNL A   1      47.399  26.158  32.651  1.00  0.00    -0.206 F 
ATOM     83  C   UNL A   1      50.695  26.402  31.194  1.00  0.00     0.060 A 
BRANCH  83  84
ATOM     84  S   UNL A   1      52.405  25.969  31.575  1.00  0.00     0.124 S 
ATOM     85  O   UNL A   1      53.038  26.091  30.265  1.00  0.00    -0.237 OA
ATOM     86  O   UNL A   1      52.773  26.986  32.554  1.00  0.00    -0.237 OA
ATOM     87  O   UNL A   1      52.305  24.610  32.098  1.00  0.00    -0.744 OA
ENDBRANCH  83  84
ENDBRANCH  51  76
ENDBRANCH  25  26
ENDBRANCH  17  20
ENDBRANCH   1  16
TORSDOF 14
ENDMDL
MODEL 3
REMARK VINA RESULT:     -10.8      2.798      9.075
REMARK SMILES C[C@@H]1OCC[C@@H]1C#CC(=O)NCCCNC(=O)c1ccc(-c2c3nc(c(-c4c(F)cc(S(=O)(=O)[O-])cc4F)c4ccc([nH]4)c(-c4c(F)cc(S(=O)(=O)[O-])cc4F)c4nc(c(-c5c(F)cc(S(=O)(=O)[O-])cc5F)c5ccc2[nH]5)C=C4)C=C3)cc1
REMARK SMILES IDX 14 1 13 2 12 3 11 4 9 5 10 6 8 8 7 9 6 10 1 11 2 12 3 13
REMARK SMILES IDX 4 14 5 15 15 16 16 17 17 19 18 20 19 21 83 22 20 23 82 24
REMARK SMILES IDX 21 25 22 26 23 27 76 28 24 29 81 30 75 31 77 32 25 33 80 34
REMARK SMILES IDX 74 35 73 36 26 38 60 39 39 40 59 41 40 42 43 43 58 44 78 45
REMARK SMILES IDX 41 46 42 47 57 49 79 50 44 51 27 52 28 53 37 54 29 55 30 56
REMARK SMILES IDX 36 57 38 58 31 59 32 60 33 61 34 62 35 63 61 64 62 65 71 66
REMARK SMILES IDX 63 67 64 68 70 69 72 70 65 71 66 72 67 73 68 74 69 75 45 76
REMARK SMILES IDX 46 77 55 78 47 79 48 80 54 81 56 82 49 83 50 84 51 85 52 86
REMARK SMILES IDX 53 87
REMARK H PARENT 11 7 15 18 77 37 43 48
REMARK Flexibility Score: inf
ROOT
ATOM      1  C   UNL A   1      34.606  32.714  28.206  1.00  0.00     0.118 C 
ENDROOT
BRANCH   1   2
ATOM      2  C   UNL A   1      33.704  33.943  28.125  1.00  0.00     0.042 C 
BRANCH   2   3
ATOM      3  C   UNL A   1      34.412  35.260  28.417  1.00  0.00     0.118 C 
BRANCH   3   4
ATOM      4  N   UNL A   1      33.570  36.194  29.144  1.00  0.00    -0.345 N 
ATOM      5  C   UNL A   1      33.212  36.132  30.463  1.00  0.00     0.295 C 
ATOM      6  O   UNL A   1      32.521  37.002  30.977  1.00  0.00    -0.260 OA
ATOM      7  H   UNL A   1      33.219  36.956  28.629  1.00  0.00     0.164 HD
BRANCH   5   8
ATOM      8  C   UNL A   1      33.677  35.022  31.258  1.00  0.00    -0.005 C 
ATOM      9  C   UNL A   1      34.093  34.076  31.873  1.00  0.00    -0.087 C 
BRANCH   9  10
ATOM     10  C   UNL A   1      34.615  32.892  32.576  1.00  0.00     0.096 C 
ATOM     11  C   UNL A   1      35.331  34.425  34.547  1.00  0.00     0.040 C 
ATOM     12  C   UNL A   1      35.632  33.221  33.671  1.00  0.00     0.130 C 
ATOM     13  O   UNL A   1      36.902  33.380  33.013  1.00  0.00    -0.377 OA
ATOM     14  C   UNL A   1      36.831  32.721  31.739  1.00  0.00     0.162 C 
ATOM     15  C   UNL A   1      35.470  32.051  31.648  1.00  0.00     0.048 C 
ENDBRANCH   9  10
ENDBRANCH   5   8
ENDBRANCH   3   4
ENDBRANCH   2   3
ENDBRANCH   1   2
BRANCH   1  16
ATOM     16  N   UNL A   1      33.877  31.466  28.038  1.00  0.00    -0.352 N 
ATOM     17  C   UNL A   1      34.328  30.171  27.955  1.00  0.00     0.251 C 
ATOM     18  H   UNL A   1      32.900  31.566  27.973  1.00  0.00     0.163 HD
ATOM     19  O   UNL A   1      33.535  29.287  27.635  1.00  0.00    -0.269 OA
BRANCH  17  20
ATOM     20  C   UNL A   1      35.745  29.832  28.222  1.00  0.00     0.039 A 
ATOM     21  C   UNL A   1      36.672  29.982  27.187  1.00  0.00     0.014 A 
ATOM     22  C   UNL A   1      36.163  29.329  29.457  1.00  0.00     0.014 A 
ATOM     23  C   UNL A   1      38.019  29.682  27.408  1.00  0.00     0.010 A 
ATOM     24  C   UNL A   1      37.519  29.117  29.703  1.00  0.00     0.010 A 
ATOM     25  C   UNL A   1      38.464  29.281  28.679  1.00  0.00    -0.014 A 
BRANCH  25  26
ATOM     26  C   UNL A   1      39.908  29.032  28.940  1.00  0.00     0.031 A 
ATOM     27  C   UNL A   1      40.530  27.702  28.606  1.00  0.00     0.074 A 
ATOM     28  C   UNL A   1      40.658  30.000  29.508  1.00  0.00     0.049 A 
ATOM     29  N   UNL A   1      41.765  27.302  28.773  1.00  0.00    -0.248 NA
ATOM     30  C   UNL A   1      39.645  26.676  28.029  1.00  0.00     0.031 C 
ATOM     31  C   UNL A   1      40.165  31.316  29.921  1.00  0.00     0.029 A 
ATOM     32  N   UNL A   1      41.990  30.030  29.836  1.00  0.00    -0.354 N 
ATOM     33  C   UNL A   1      41.806  25.985  28.327  1.00  0.00     0.074 A 
ATOM     34  C   UNL A   1      40.456  25.632  27.943  1.00  0.00     0.031 C 
ATOM     35  C   UNL A   1      41.186  32.035  30.413  1.00  0.00     0.029 A 
ATOM     36  C   UNL A   1      42.396  31.218  30.398  1.00  0.00     0.049 A 
ATOM     37  H   UNL A   1      42.599  29.271  29.685  1.00  0.00     0.167 HD
ATOM     38  C   UNL A   1      42.871  25.156  28.223  1.00  0.00     0.037 A 
ATOM     39  C   UNL A   1      43.601  31.608  30.859  1.00  0.00     0.037 A 
ATOM     40  C   UNL A   1      44.215  25.518  28.599  1.00  0.00     0.049 A 
ATOM     41  C   UNL A   1      44.764  30.655  30.760  1.00  0.00     0.074 A 
ATOM     42  C   UNL A   1      45.371  24.766  28.485  1.00  0.00     0.029 A 
ATOM     43  N   UNL A   1      44.583  26.728  29.170  1.00  0.00    -0.354 N 
ATOM     44  N   UNL A   1      44.796  29.440  30.266  1.00  0.00    -0.248 NA
ATOM     45  C   UNL A   1      46.055  31.129  31.274  1.00  0.00     0.031 C 
ATOM     46  C   UNL A   1      46.424  25.493  29.048  1.00  0.00     0.029 A 
ATOM     47  C   UNL A   1      45.941  26.729  29.446  1.00  0.00     0.049 A 
ATOM     48  H   UNL A   1      43.968  27.476  29.353  1.00  0.00     0.167 HD
ATOM     49  C   UNL A   1      46.117  29.017  30.384  1.00  0.00     0.074 A 
ATOM     50  C   UNL A   1      46.853  30.114  30.977  1.00  0.00     0.031 C 
ATOM     51  C   UNL A   1      46.667  27.828  30.034  1.00  0.00     0.037 A 
BRANCH  38  52
ATOM     52  C   UNL A   1      42.634  23.770  27.681  1.00  0.00     0.058 A 
ATOM     53  C   UNL A   1      42.622  23.505  26.301  1.00  0.00     0.135 A 
ATOM     54  C   UNL A   1      42.466  22.681  28.553  1.00  0.00     0.135 A 
ATOM     55  F   UNL A   1      42.765  24.508  25.419  1.00  0.00    -0.206 F 
ATOM     56  C   UNL A   1      42.423  22.220  25.806  1.00  0.00     0.059 A 
ATOM     57  C   UNL A   1      42.300  21.382  28.080  1.00  0.00     0.059 A 
ATOM     58  F   UNL A   1      42.469  22.871  29.882  1.00  0.00    -0.206 F 
ATOM     59  C   UNL A   1      42.267  21.164  26.705  1.00  0.00     0.060 A 
BRANCH  59  60
ATOM     60  S   UNL A   1      42.023  19.502  26.042  1.00  0.00     0.124 S 
ATOM     61  O   UNL A   1      42.411  18.675  27.181  1.00  0.00    -0.237 OA
ATOM     62  O   UNL A   1      40.602  19.505  25.716  1.00  0.00    -0.237 OA
ATOM     63  O   UNL A   1      42.927  19.455  24.897  1.00  0.00    -0.744 OA
ENDBRANCH  59  60
ENDBRANCH  38  52
BRANCH  39  64
ATOM     64  C   UNL A   1      43.775  32.965  31.447  1.00  0.00     0.058 A 
ATOM     65  C   UNL A   1      44.112  34.067  30.645  1.00  0.00     0.135 A 
ATOM     66  C   UNL A   1      43.610  33.188  32.823  1.00  0.00     0.135 A 
ATOM     67  F   UNL A   1      44.289  33.906  29.325  1.00  0.00    -0.206 F 
ATOM     68  C   UNL A   1      44.302  35.334  31.188  1.00  0.00     0.059 A 
ATOM     69  C   UNL A   1      43.761  34.452  33.384  1.00  0.00     0.059 A 
ATOM     70  F   UNL A   1      43.273  32.174  33.635  1.00  0.00    -0.206 F 
ATOM     71  C   UNL A   1      44.120  35.517  32.559  1.00  0.00     0.060 A 
BRANCH  71  72
ATOM     72  S   UNL A   1      44.329  37.174  33.246  1.00  0.00     0.124 S 
ATOM     73  O   UNL A   1      43.903  38.011  32.130  1.00  0.00    -0.237 OA
ATOM     74  O   UNL A   1      43.434  37.140  34.398  1.00  0.00    -0.237 OA
ATOM     75  O   UNL A   1      45.752  37.228  33.568  1.00  0.00    -0.744 OA
ENDBRANCH  71  72
ENDBRANCH  39  64
BRANCH  51  76
ATOM     76  C   UNL A   1      48.149  27.658  30.248  1.00  0.00     0.058 A 
ATOM     77  C   UNL A   1      48.673  27.127  31.438  1.00  0.00     0.135 A 
ATOM     78  C   UNL A   1      49.056  27.990  29.227  1.00  0.00     0.135 A 
ATOM     79  F   UNL A   1      47.853  26.798  32.450  1.00  0.00    -0.206 F 
ATOM     80  C   UNL A   1      50.042  26.963  31.621  1.00  0.00     0.059 A 
ATOM     81  C   UNL A   1      50.426  27.799  29.374  1.00  0.00     0.059 A 
ATOM     82  F   UNL A   1      48.613  28.491  28.064  1.00  0.00    -0.206 F 
ATOM     83  C   UNL A   1      50.911  27.298  30.581  1.00  0.00     0.060 A 
BRANCH  83  84
ATOM     84  S   UNL A   1      52.683  27.051  30.823  1.00  0.00     0.124 S 
ATOM     85  O   UNL A   1      52.714  25.728  31.439  1.00  0.00    -0.237 OA
ATOM     86  O   UNL A   1      53.197  27.127  29.460  1.00  0.00    -0.237 OA
ATOM     87  O   UNL A   1      53.066  28.157  31.695  1.00  0.00    -0.744 OA
ENDBRANCH  83  84
ENDBRANCH  51  76
ENDBRANCH  25  26
ENDBRANCH  17  20
ENDBRANCH   1  16
TORSDOF 14
ENDMDL
