MODEL 1
REMARK VINA RESULT:     -14.8      0.000      0.000
REMARK SMILES Cc1cccc(N2C(=O)/C(=C/c3ccc(C(=O)NCCCNC(=O)c4ccc(-c5c6nc(c(-c7c(F)cc(S(=O)(=O)[O-])cc7F)c7ccc([nH]7)c(-c7c(F)cc(S(=O)(=O)[O-])cc7F)c7nc(c(-c8c(F)cc(S(=O)(=O)[O-])cc8F)c8ccc5[nH]8)C=C7)C=C6)cc4)cc3)c3ccccc3C2=O)c1
REMARK SMILES IDX 20 1 19 2 18 3 16 4 17 5 15 7 12 8 13 9 92 10 14 11 91 12
REMARK SMILES IDX 11 13 7 14 8 15 99 16 9 17 10 18 98 19 100 20 93 21 97 22
REMARK SMILES IDX 94 23 96 24 95 25 6 26 1 27 2 28 3 29 101 30 4 31 5 32 21 33
REMARK SMILES IDX 22 34 23 35 24 37 25 38 26 39 90 40 27 41 89 42 28 43 29 44
REMARK SMILES IDX 30 45 83 46 31 47 88 48 82 49 84 50 32 51 87 52 81 53 80 54
REMARK SMILES IDX 33 56 67 57 46 58 66 59 47 60 50 61 65 62 85 63 48 64 49 65
REMARK SMILES IDX 64 67 86 68 51 69 34 70 35 71 44 72 36 73 37 74 43 75 45 76
REMARK SMILES IDX 38 77 39 78 40 79 41 80 42 81 68 82 69 83 78 84 70 85 71 86
REMARK SMILES IDX 77 87 79 88 72 89 73 90 74 91 75 92 76 93 52 94 53 95 62 96
REMARK SMILES IDX 54 97 55 98 61 99 63 100 56 101 57 102 58 103 59 104 60 105
REMARK H PARENT 18 6 22 36 84 55 50 66
REMARK Flexibility Score: inf
ROOT
ATOM      1  C   UNL A   1      34.323  32.191  28.095  1.00  0.00     0.042 C 
ENDROOT
BRANCH   1   2
ATOM      2  C   UNL A   1      32.845  32.826  27.835  1.00  0.00     0.118 C 
BRANCH   2   3
ATOM      3  N   UNL A   1      31.998  32.485  26.664  1.00  0.00    -0.352 N 
ATOM      4  C   UNL A   1      31.536  31.278  26.132  1.00  0.00     0.251 C 
ATOM      5  O   UNL A   1      30.733  31.222  25.202  1.00  0.00    -0.269 OA
ATOM      6  H   UNL A   1      31.698  33.274  26.156  1.00  0.00     0.163 HD
BRANCH   4   7
ATOM      7  C   UNL A   1      32.109  29.991  26.598  1.00  0.00     0.039 A 
ATOM      8  C   UNL A   1      32.580  27.272  26.807  1.00  0.00    -0.025 A 
ATOM      9  C   UNL A   1      31.664  27.870  27.677  1.00  0.00     0.009 A 
ATOM     10  C   UNL A   1      33.433  28.076  26.043  1.00  0.00     0.009 A 
ATOM     11  C   UNL A   1      31.423  29.242  27.569  1.00  0.00     0.014 A 
ATOM     12  C   UNL A   1      33.219  29.445  25.967  1.00  0.00     0.014 A 
BRANCH   8  13
ATOM     13  C   UNL A   1      32.603  25.819  26.642  1.00  0.00     0.022 C 
ATOM     14  N   UNL A   1      33.205  23.093  24.436  1.00  0.00    -0.242 N 
ATOM     15  C   UNL A   1      32.626  23.667  25.590  1.00  0.00     0.265 C 
ATOM     16  C   UNL A   1      33.351  23.842  23.246  1.00  0.00     0.265 C 
ATOM     17  O   UNL A   1      32.398  23.116  26.667  1.00  0.00    -0.268 OA
ATOM     18  C   UNL A   1      32.348  25.139  25.499  1.00  0.00     0.049 C 
ATOM     19  C   UNL A   1      32.479  25.028  23.072  1.00  0.00     0.048 A 
ATOM     20  O   UNL A   1      34.111  23.616  22.307  1.00  0.00    -0.268 OA
ATOM     21  C   UNL A   1      31.949  25.666  24.190  1.00  0.00    -0.000 A 
ATOM     22  C   UNL A   1      32.181  25.479  21.774  1.00  0.00     0.014 A 
ATOM     23  C   UNL A   1      31.040  26.715  23.989  1.00  0.00     0.010 A 
ATOM     24  C   UNL A   1      31.307  26.545  21.588  1.00  0.00     0.001 A 
ATOM     25  C   UNL A   1      30.724  27.151  22.697  1.00  0.00     0.001 A 
BRANCH  14  26
ATOM     26  C   UNL A   1      33.725  21.722  24.502  1.00  0.00     0.053 A 
ATOM     27  C   UNL A   1      32.453  18.139  23.968  1.00  0.00     0.044 C 
ATOM     28  C   UNL A   1      33.377  19.279  24.280  1.00  0.00    -0.049 A 
ATOM     29  C   UNL A   1      34.695  19.037  24.650  1.00  0.00     0.003 A 
ATOM     30  C   UNL A   1      32.922  20.608  24.184  1.00  0.00     0.030 A 
ATOM     31  C   UNL A   1      35.530  20.108  24.938  1.00  0.00     0.002 A 
ATOM     32  C   UNL A   1      35.047  21.424  24.872  1.00  0.00     0.027 A 
ENDBRANCH  14  26
ENDBRANCH   8  13
ENDBRANCH   4   7
ENDBRANCH   2   3
ENDBRANCH   1   2
BRANCH   1  33
ATOM     33  C   UNL A   1      35.199  32.827  29.265  1.00  0.00     0.118 C 
BRANCH  33  34
ATOM     34  N   UNL A   1      36.155  32.108  30.337  1.00  0.00    -0.352 N 
ATOM     35  C   UNL A   1      37.215  31.110  30.544  1.00  0.00     0.251 C 
ATOM     36  H   UNL A   1      35.945  32.496  31.219  1.00  0.00     0.163 HD
ATOM     37  O   UNL A   1      38.080  31.526  31.343  1.00  0.00    -0.269 OA
BRANCH  35  38
ATOM     38  C   UNL A   1      37.597  29.671  29.959  1.00  0.00     0.039 A 
ATOM     39  C   UNL A   1      37.746  28.519  30.790  1.00  0.00     0.014 A 
ATOM     40  C   UNL A   1      37.845  29.365  28.637  1.00  0.00     0.014 A 
ATOM     41  C   UNL A   1      38.767  27.546  30.497  1.00  0.00     0.010 A 
ATOM     42  C   UNL A   1      38.804  28.365  28.311  1.00  0.00     0.010 A 
ATOM     43  C   UNL A   1      39.479  27.642  29.301  1.00  0.00    -0.014 A 
BRANCH  43  44
ATOM     44  C   UNL A   1      40.896  27.158  29.081  1.00  0.00     0.031 A 
ATOM     45  C   UNL A   1      41.141  25.819  28.559  1.00  0.00     0.074 A 
ATOM     46  C   UNL A   1      42.068  27.854  29.205  1.00  0.00     0.049 A 
ATOM     47  N   UNL A   1      41.828  24.907  29.167  1.00  0.00    -0.248 NA
ATOM     48  C   UNL A   1      40.687  25.457  27.223  1.00  0.00     0.031 C 
ATOM     49  C   UNL A   1      43.474  27.501  28.931  1.00  0.00     0.029 A 
ATOM     50  N   UNL A   1      42.247  29.158  29.625  1.00  0.00    -0.354 N 
ATOM     51  C   UNL A   1      42.151  23.991  28.189  1.00  0.00     0.074 A 
ATOM     52  C   UNL A   1      41.254  24.256  27.082  1.00  0.00     0.031 C 
ATOM     53  C   UNL A   1      44.292  28.367  29.576  1.00  0.00     0.029 A 
ATOM     54  C   UNL A   1      43.455  29.301  30.299  1.00  0.00     0.049 A 
ATOM     55  H   UNL A   1      41.605  29.887  29.467  1.00  0.00     0.167 HD
ATOM     56  C   UNL A   1      43.334  23.311  28.204  1.00  0.00     0.037 A 
ATOM     57  C   UNL A   1      43.435  29.620  31.631  1.00  0.00     0.037 A 
ATOM     58  C   UNL A   1      44.275  23.896  29.161  1.00  0.00     0.049 A 
ATOM     59  C   UNL A   1      43.901  28.460  32.453  1.00  0.00     0.074 A 
ATOM     60  C   UNL A   1      45.392  24.698  28.970  1.00  0.00     0.029 A 
ATOM     61  N   UNL A   1      43.965  23.985  30.512  1.00  0.00    -0.354 N 
ATOM     62  N   UNL A   1      44.036  27.268  31.954  1.00  0.00    -0.248 NA
ATOM     63  C   UNL A   1      44.250  28.516  33.865  1.00  0.00     0.031 C 
ATOM     64  C   UNL A   1      45.738  25.286  30.207  1.00  0.00     0.029 A 
ATOM     65  C   UNL A   1      44.835  24.844  31.158  1.00  0.00     0.049 A 
ATOM     66  H   UNL A   1      43.227  23.502  30.951  1.00  0.00     0.167 HD
ATOM     67  C   UNL A   1      44.494  26.411  32.904  1.00  0.00     0.074 A 
ATOM     68  C   UNL A   1      44.622  27.240  34.088  1.00  0.00     0.031 C 
ATOM     69  C   UNL A   1      44.730  25.105  32.589  1.00  0.00     0.037 A 
BRANCH  56  70
ATOM     70  C   UNL A   1      43.741  22.370  27.085  1.00  0.00     0.058 A 
ATOM     71  C   UNL A   1      43.130  21.113  26.896  1.00  0.00     0.135 A 
ATOM     72  C   UNL A   1      44.721  22.702  26.125  1.00  0.00     0.135 A 
ATOM     73  F   UNL A   1      42.110  20.697  27.655  1.00  0.00    -0.206 F 
ATOM     74  C   UNL A   1      43.521  20.224  25.895  1.00  0.00     0.059 A 
ATOM     75  C   UNL A   1      45.162  21.810  25.142  1.00  0.00     0.059 A 
ATOM     76  F   UNL A   1      45.265  23.930  26.088  1.00  0.00    -0.206 F 
ATOM     77  C   UNL A   1      44.550  20.570  25.033  1.00  0.00     0.060 A 
BRANCH  77  78
ATOM     78  S   UNL A   1      45.018  19.405  23.741  1.00  0.00     0.124 S 
ATOM     79  O   UNL A   1      46.471  19.369  23.866  1.00  0.00    -0.237 OA
ATOM     80  O   UNL A   1      44.315  18.196  24.157  1.00  0.00    -0.237 OA
ATOM     81  O   UNL A   1      44.516  20.029  22.520  1.00  0.00    -0.744 OA
ENDBRANCH  77  78
ENDBRANCH  56  70
BRANCH  57  82
ATOM     82  C   UNL A   1      42.348  30.600  32.050  1.00  0.00     0.058 A 
ATOM     83  C   UNL A   1      41.323  29.998  32.794  1.00  0.00     0.135 A 
ATOM     84  C   UNL A   1      42.797  31.768  32.637  1.00  0.00     0.135 A 
ATOM     85  F   UNL A   1      40.395  29.259  32.178  1.00  0.00    -0.206 F 
ATOM     86  C   UNL A   1      41.334  30.027  34.188  1.00  0.00     0.059 A 
ATOM     87  C   UNL A   1      42.695  31.897  34.027  1.00  0.00     0.059 A 
ATOM     88  F   UNL A   1      43.417  32.717  31.918  1.00  0.00    -0.206 F 
ATOM     89  C   UNL A   1      42.252  30.849  34.818  1.00  0.00     0.060 A 
BRANCH  89  90
ATOM     90  S   UNL A   1      42.981  30.184  36.572  1.00  0.00     0.124 S 
ATOM     91  O   UNL A   1      42.481  28.821  36.536  1.00  0.00    -0.237 OA
ATOM     92  O   UNL A   1      44.437  30.206  36.470  1.00  0.00    -0.237 OA
ATOM     93  O   UNL A   1      42.428  30.971  37.645  1.00  0.00    -0.744 OA
ENDBRANCH  89  90
ENDBRANCH  57  82
BRANCH  69  94
ATOM     94  C   UNL A   1      45.029  23.990  33.551  1.00  0.00     0.058 A 
ATOM     95  C   UNL A   1      44.148  22.940  33.845  1.00  0.00     0.135 A 
ATOM     96  C   UNL A   1      46.313  23.894  34.148  1.00  0.00     0.135 A 
ATOM     97  F   UNL A   1      42.956  22.829  33.243  1.00  0.00    -0.206 F 
ATOM     98  C   UNL A   1      44.474  21.925  34.742  1.00  0.00     0.059 A 
ATOM     99  C   UNL A   1      46.683  22.852  34.986  1.00  0.00     0.059 A 
ATOM    100  F   UNL A   1      47.270  24.808  33.932  1.00  0.00    -0.206 F 
ATOM    101  C   UNL A   1      45.742  21.892  35.311  1.00  0.00     0.060 A 
BRANCH 101 102
ATOM    102  S   UNL A   1      46.164  20.567  36.448  1.00  0.00     0.124 S 
ATOM    103  O   UNL A   1      45.736  21.136  37.723  1.00  0.00    -0.237 OA
ATOM    104  O   UNL A   1      45.360  19.455  35.950  1.00  0.00    -0.237 OA
ATOM    105  O   UNL A   1      47.605  20.416  36.275  1.00  0.00    -0.744 OA
ENDBRANCH 101 102
ENDBRANCH  69  94
ENDBRANCH  43  44
ENDBRANCH  35  38
ENDBRANCH  33  34
ENDBRANCH   1  33
TORSDOF 15
ENDMDL
MODEL 2
REMARK VINA RESULT:     -14.6      1.739      2.411
REMARK SMILES Cc1cccc(N2C(=O)/C(=C/c3ccc(C(=O)NCCCNC(=O)c4ccc(-c5c6nc(c(-c7c(F)cc(S(=O)(=O)[O-])cc7F)c7ccc([nH]7)c(-c7c(F)cc(S(=O)(=O)[O-])cc7F)c7nc(c(-c8c(F)cc(S(=O)(=O)[O-])cc8F)c8ccc5[nH]8)C=C7)C=C6)cc4)cc3)c3ccccc3C2=O)c1
REMARK SMILES IDX 20 1 19 2 18 3 16 4 17 5 15 7 12 8 13 9 92 10 14 11 91 12
REMARK SMILES IDX 11 13 7 14 8 15 99 16 9 17 10 18 98 19 100 20 93 21 97 22
REMARK SMILES IDX 94 23 96 24 95 25 6 26 1 27 2 28 3 29 101 30 4 31 5 32 21 33
REMARK SMILES IDX 22 34 23 35 24 37 25 38 26 39 90 40 27 41 89 42 28 43 29 44
REMARK SMILES IDX 30 45 83 46 31 47 88 48 82 49 84 50 32 51 87 52 81 53 80 54
REMARK SMILES IDX 33 56 67 57 46 58 66 59 47 60 50 61 65 62 85 63 48 64 49 65
REMARK SMILES IDX 64 67 86 68 51 69 34 70 35 71 44 72 36 73 37 74 43 75 45 76
REMARK SMILES IDX 38 77 39 78 40 79 41 80 42 81 68 82 69 83 78 84 70 85 71 86
REMARK SMILES IDX 77 87 79 88 72 89 73 90 74 91 75 92 76 93 52 94 53 95 62 96
REMARK SMILES IDX 54 97 55 98 61 99 63 100 56 101 57 102 58 103 59 104 60 105
REMARK H PARENT 18 6 22 36 84 55 50 66
REMARK Flexibility Score: inf
ROOT
ATOM      1  C   UNL A   1      33.300  34.280  28.364  1.00  0.00     0.042 C 
ENDROOT
BRANCH   1   2
ATOM      2  C   UNL A   1      33.046  32.759  27.836  1.00  0.00     0.118 C 
BRANCH   2   3
ATOM      3  N   UNL A   1      32.165  32.423  26.688  1.00  0.00    -0.352 N 
ATOM      4  C   UNL A   1      31.657  31.222  26.187  1.00  0.00     0.251 C 
ATOM      5  O   UNL A   1      30.833  31.175  25.275  1.00  0.00    -0.269 OA
ATOM      6  H   UNL A   1      31.879  33.212  26.173  1.00  0.00     0.163 HD
BRANCH   4   7
ATOM      7  C   UNL A   1      32.201  29.926  26.664  1.00  0.00     0.039 A 
ATOM      8  C   UNL A   1      32.650  27.202  26.861  1.00  0.00    -0.025 A 
ATOM      9  C   UNL A   1      31.694  27.793  27.692  1.00  0.00     0.009 A 
ATOM     10  C   UNL A   1      33.543  28.012  26.151  1.00  0.00     0.009 A 
ATOM     11  C   UNL A   1      31.463  29.168  27.590  1.00  0.00     0.014 A 
ATOM     12  C   UNL A   1      33.339  29.384  26.083  1.00  0.00     0.014 A 
BRANCH   8  13
ATOM     13  C   UNL A   1      32.675  25.751  26.678  1.00  0.00     0.022 C 
ATOM     14  N   UNL A   1      33.332  23.053  24.455  1.00  0.00    -0.242 N 
ATOM     15  C   UNL A   1      32.723  23.613  25.601  1.00  0.00     0.265 C 
ATOM     16  C   UNL A   1      33.512  23.817  23.279  1.00  0.00     0.265 C 
ATOM     17  O   UNL A   1      32.465  23.049  26.664  1.00  0.00    -0.268 OA
ATOM     18  C   UNL A   1      32.450  25.086  25.520  1.00  0.00     0.049 C 
ATOM     19  C   UNL A   1      32.646  25.006  23.097  1.00  0.00     0.048 A 
ATOM     20  O   UNL A   1      34.297  23.601  22.358  1.00  0.00    -0.268 OA
ATOM     21  C   UNL A   1      32.087  25.631  24.208  1.00  0.00    -0.000 A 
ATOM     22  C   UNL A   1      32.385  25.474  21.796  1.00  0.00     0.014 A 
ATOM     23  C   UNL A   1      31.186  26.684  23.996  1.00  0.00     0.010 A 
ATOM     24  C   UNL A   1      31.517  26.544  21.601  1.00  0.00     0.001 A 
ATOM     25  C   UNL A   1      30.905  27.136  22.701  1.00  0.00     0.001 A 
BRANCH  14  26
ATOM     26  C   UNL A   1      33.848  21.680  24.518  1.00  0.00     0.053 A 
ATOM     27  C   UNL A   1      37.207  19.895  25.043  1.00  0.00     0.044 C 
ATOM     28  C   UNL A   1      35.741  20.108  24.802  1.00  0.00    -0.049 A 
ATOM     29  C   UNL A   1      34.894  19.022  24.615  1.00  0.00     0.003 A 
ATOM     30  C   UNL A   1      35.207  21.410  24.779  1.00  0.00     0.030 A 
ATOM     31  C   UNL A   1      33.542  19.243  24.389  1.00  0.00     0.002 A 
ATOM     32  C   UNL A   1      33.035  20.549  24.334  1.00  0.00     0.027 A 
ENDBRANCH  14  26
ENDBRANCH   8  13
ENDBRANCH   4   7
ENDBRANCH   2   3
ENDBRANCH   1   2
BRANCH   1  33
ATOM     33  C   UNL A   1      34.147  34.460  29.702  1.00  0.00     0.118 C 
BRANCH  33  34
ATOM     34  N   UNL A   1      34.582  33.367  30.796  1.00  0.00    -0.352 N 
ATOM     35  C   UNL A   1      35.464  32.228  31.092  1.00  0.00     0.251 C 
ATOM     36  H   UNL A   1      34.033  33.526  31.598  1.00  0.00     0.163 HD
ATOM     37  O   UNL A   1      35.930  32.304  32.248  1.00  0.00    -0.269 OA
BRANCH  35  38
ATOM     38  C   UNL A   1      36.048  30.965  30.304  1.00  0.00     0.039 A 
ATOM     39  C   UNL A   1      36.286  29.706  30.938  1.00  0.00     0.014 A 
ATOM     40  C   UNL A   1      36.407  30.925  28.972  1.00  0.00     0.014 A 
ATOM     41  C   UNL A   1      37.430  28.916  30.563  1.00  0.00     0.010 A 
ATOM     42  C   UNL A   1      37.495  30.108  28.558  1.00  0.00     0.010 A 
ATOM     43  C   UNL A   1      38.193  29.298  29.461  1.00  0.00    -0.014 A 
BRANCH  43  44
ATOM     44  C   UNL A   1      39.668  29.015  29.272  1.00  0.00     0.031 A 
ATOM     45  C   UNL A   1      40.112  27.702  28.821  1.00  0.00     0.074 A 
ATOM     46  C   UNL A   1      40.725  29.880  29.366  1.00  0.00     0.049 A 
ATOM     47  N   UNL A   1      40.917  26.932  29.479  1.00  0.00    -0.248 NA
ATOM     48  C   UNL A   1      39.732  27.210  27.504  1.00  0.00     0.031 C 
ATOM     49  C   UNL A   1      42.170  29.723  29.117  1.00  0.00     0.029 A 
ATOM     50  N   UNL A   1      40.707  31.216  29.718  1.00  0.00    -0.354 N 
ATOM     51  C   UNL A   1      41.382  26.025  28.551  1.00  0.00     0.074 A 
ATOM     52  C   UNL A   1      40.470  26.100  27.427  1.00  0.00     0.031 C 
ATOM     53  C   UNL A   1      42.846  30.731  29.720  1.00  0.00     0.029 A 
ATOM     54  C   UNL A   1      41.873  31.568  30.390  1.00  0.00     0.049 A 
ATOM     55  H   UNL A   1      39.968  31.835  29.520  1.00  0.00     0.167 HD
ATOM     56  C   UNL A   1      42.651  25.526  28.607  1.00  0.00     0.037 A 
ATOM     57  C   UNL A   1      41.790  31.947  31.703  1.00  0.00     0.037 A 
ATOM     58  C   UNL A   1      43.485  26.290  29.536  1.00  0.00     0.049 A 
ATOM     59  C   UNL A   1      42.410  30.911  32.586  1.00  0.00     0.074 A 
ATOM     60  C   UNL A   1      44.476  27.236  29.310  1.00  0.00     0.029 A 
ATOM     61  N   UNL A   1      43.148  26.401  30.880  1.00  0.00    -0.354 N 
ATOM     62  N   UNL A   1      42.723  29.728  32.151  1.00  0.00    -0.248 NA
ATOM     63  C   UNL A   1      42.730  31.088  33.995  1.00  0.00     0.031 C 
ATOM     64  C   UNL A   1      44.718  27.930  30.517  1.00  0.00     0.029 A 
ATOM     65  C   UNL A   1      43.876  27.410  31.484  1.00  0.00     0.049 A 
ATOM     66  H   UNL A   1      42.483  25.838  31.339  1.00  0.00     0.167 HD
ATOM     67  C   UNL A   1      43.290  28.996  33.146  1.00  0.00     0.074 A 
ATOM     68  C   UNL A   1      43.281  29.893  34.286  1.00  0.00     0.031 C 
ATOM     69  C   UNL A   1      43.717  27.724  32.899  1.00  0.00     0.037 A 
BRANCH  56  70
ATOM     70  C   UNL A   1      43.204  24.600  27.540  1.00  0.00     0.058 A 
ATOM     71  C   UNL A   1      43.057  23.199  27.606  1.00  0.00     0.135 A 
ATOM     72  C   UNL A   1      43.860  25.072  26.382  1.00  0.00     0.135 A 
ATOM     73  F   UNL A   1      42.366  22.603  28.585  1.00  0.00    -0.206 F 
ATOM     74  C   UNL A   1      43.593  22.335  26.652  1.00  0.00     0.059 A 
ATOM     75  C   UNL A   1      44.446  24.225  25.437  1.00  0.00     0.059 A 
ATOM     76  F   UNL A   1      43.924  26.386  26.111  1.00  0.00    -0.206 F 
ATOM     77  C   UNL A   1      44.303  22.852  25.579  1.00  0.00     0.060 A 
BRANCH  77  78
ATOM     78  S   UNL A   1      44.967  21.708  24.357  1.00  0.00     0.124 S 
ATOM     79  O   UNL A   1      44.566  22.331  23.099  1.00  0.00    -0.237 OA
ATOM     80  O   UNL A   1      46.395  21.744  24.655  1.00  0.00    -0.237 OA
ATOM     81  O   UNL A   1      44.297  20.449  24.666  1.00  0.00    -0.744 OA
ENDBRANCH  77  78
ENDBRANCH  56  70
BRANCH  57  82
ATOM     82  C   UNL A   1      40.568  32.778  32.067  1.00  0.00     0.058 A 
ATOM     83  C   UNL A   1      39.672  32.099  32.905  1.00  0.00     0.135 A 
ATOM     84  C   UNL A   1      40.832  34.057  32.518  1.00  0.00     0.135 A 
ATOM     85  F   UNL A   1      38.864  31.161  32.401  1.00  0.00    -0.206 F 
ATOM     86  C   UNL A   1      39.708  32.272  34.287  1.00  0.00     0.059 A 
ATOM     87  C   UNL A   1      40.741  34.310  33.892  1.00  0.00     0.059 A 
ATOM     88  F   UNL A   1      41.272  35.014  31.686  1.00  0.00    -0.206 F 
ATOM     89  C   UNL A   1      40.493  33.292  34.798  1.00  0.00     0.060 A 
BRANCH  89  90
ATOM     90  S   UNL A   1      41.360  32.936  36.580  1.00  0.00     0.124 S 
ATOM     91  O   UNL A   1      40.670  33.931  37.383  1.00  0.00    -0.237 OA
ATOM     92  O   UNL A   1      40.979  31.586  36.983  1.00  0.00    -0.237 OA
ATOM     93  O   UNL A   1      42.778  33.168  36.472  1.00  0.00    -0.744 OA
ENDBRANCH  89  90
ENDBRANCH  57  82
BRANCH  69  94
ATOM     94  C   UNL A   1      44.164  26.715  33.920  1.00  0.00     0.058 A 
ATOM     95  C   UNL A   1      43.298  26.010  34.767  1.00  0.00     0.135 A 
ATOM     96  C   UNL A   1      45.531  26.342  33.998  1.00  0.00     0.135 A 
ATOM     97  F   UNL A   1      41.968  26.159  34.701  1.00  0.00    -0.206 F 
ATOM     98  C   UNL A   1      43.759  25.079  35.695  1.00  0.00     0.059 A 
ATOM     99  C   UNL A   1      46.001  25.364  34.862  1.00  0.00     0.059 A 
ATOM    100  F   UNL A   1      46.469  26.906  33.224  1.00  0.00    -0.206 F 
ATOM    101  C   UNL A   1      45.114  24.766  35.738  1.00  0.00     0.060 A 
BRANCH 101 102
ATOM    102  S   UNL A   1      45.700  23.547  36.919  1.00  0.00     0.124 S 
ATOM    103  O   UNL A   1      45.030  23.985  38.140  1.00  0.00    -0.237 OA
ATOM    104  O   UNL A   1      45.214  22.294  36.348  1.00  0.00    -0.237 OA
ATOM    105  O   UNL A   1      47.148  23.718  36.896  1.00  0.00    -0.744 OA
ENDBRANCH 101 102
ENDBRANCH  69  94
ENDBRANCH  43  44
ENDBRANCH  35  38
ENDBRANCH  33  34
ENDBRANCH   1  33
TORSDOF 15
ENDMDL
MODEL 3
REMARK VINA RESULT:     -14.6      1.996      2.748
REMARK SMILES Cc1cccc(N2C(=O)/C(=C/c3ccc(C(=O)NCCCNC(=O)c4ccc(-c5c6nc(c(-c7c(F)cc(S(=O)(=O)[O-])cc7F)c7ccc([nH]7)c(-c7c(F)cc(S(=O)(=O)[O-])cc7F)c7nc(c(-c8c(F)cc(S(=O)(=O)[O-])cc8F)c8ccc5[nH]8)C=C7)C=C6)cc4)cc3)c3ccccc3C2=O)c1
REMARK SMILES IDX 20 1 19 2 18 3 16 4 17 5 15 7 12 8 13 9 92 10 14 11 91 12
REMARK SMILES IDX 11 13 7 14 8 15 99 16 9 17 10 18 98 19 100 20 93 21 97 22
REMARK SMILES IDX 94 23 96 24 95 25 6 26 1 27 2 28 3 29 101 30 4 31 5 32 21 33
REMARK SMILES IDX 22 34 23 35 24 37 25 38 26 39 90 40 27 41 89 42 28 43 29 44
REMARK SMILES IDX 30 45 83 46 31 47 88 48 82 49 84 50 32 51 87 52 81 53 80 54
REMARK SMILES IDX 33 56 67 57 46 58 66 59 47 60 50 61 65 62 85 63 48 64 49 65
REMARK SMILES IDX 64 67 86 68 51 69 34 70 35 71 44 72 36 73 37 74 43 75 45 76
REMARK SMILES IDX 38 77 39 78 40 79 41 80 42 81 68 82 69 83 78 84 70 85 71 86
REMARK SMILES IDX 77 87 79 88 72 89 73 90 74 91 75 92 76 93 52 94 53 95 62 96
REMARK SMILES IDX 54 97 55 98 61 99 63 100 56 101 57 102 58 103 59 104 60 105
REMARK H PARENT 18 6 22 36 84 55 50 66
REMARK Flexibility Score: inf
ROOT
ATOM      1  C   UNL A   1      33.135  34.267  28.086  1.00  0.00     0.042 C 
ENDROOT
BRANCH   1   2
ATOM      2  C   UNL A   1      32.791  32.730  27.665  1.00  0.00     0.118 C 
BRANCH   2   3
ATOM      3  N   UNL A   1      31.899  32.367  26.534  1.00  0.00    -0.352 N 
ATOM      4  C   UNL A   1      31.446  31.148  26.022  1.00  0.00     0.251 C 
ATOM      5  O   UNL A   1      30.603  31.072  25.131  1.00  0.00    -0.269 OA
ATOM      6  H   UNL A   1      31.555  33.147  26.043  1.00  0.00     0.163 HD
BRANCH   4   7
ATOM      7  C   UNL A   1      32.075  29.877  26.458  1.00  0.00     0.039 A 
ATOM      8  C   UNL A   1      32.607  27.169  26.663  1.00  0.00    -0.025 A 
ATOM      9  C   UNL A   1      31.750  27.763  27.593  1.00  0.00     0.009 A 
ATOM     10  C   UNL A   1      33.386  27.976  25.826  1.00  0.00     0.009 A 
ATOM     11  C   UNL A   1      31.478  29.130  27.487  1.00  0.00     0.014 A 
ATOM     12  C   UNL A   1      33.143  29.341  25.751  1.00  0.00     0.014 A 
BRANCH   8  13
ATOM     13  C   UNL A   1      32.642  25.714  26.514  1.00  0.00     0.022 C 
ATOM     14  N   UNL A   1      33.339  22.969  24.361  1.00  0.00    -0.242 N 
ATOM     15  C   UNL A   1      32.714  23.552  25.487  1.00  0.00     0.265 C 
ATOM     16  C   UNL A   1      33.527  23.706  23.170  1.00  0.00     0.265 C 
ATOM     17  O   UNL A   1      32.447  23.011  26.559  1.00  0.00    -0.268 OA
ATOM     18  C   UNL A   1      32.434  25.021  25.369  1.00  0.00     0.049 C 
ATOM     19  C   UNL A   1      32.657  24.886  22.951  1.00  0.00     0.048 A 
ATOM     20  O   UNL A   1      34.324  23.474  22.262  1.00  0.00    -0.268 OA
ATOM     21  C   UNL A   1      32.083  25.533  24.041  1.00  0.00    -0.000 A 
ATOM     22  C   UNL A   1      32.407  25.322  21.637  1.00  0.00     0.014 A 
ATOM     23  C   UNL A   1      31.178  26.576  23.795  1.00  0.00     0.010 A 
ATOM     24  C   UNL A   1      31.537  26.383  21.407  1.00  0.00     0.001 A 
ATOM     25  C   UNL A   1      30.909  26.997  22.487  1.00  0.00     0.001 A 
BRANCH  14  26
ATOM     26  C   UNL A   1      33.861  21.601  24.461  1.00  0.00     0.053 A 
ATOM     27  C   UNL A   1      32.583  18.002  24.074  1.00  0.00     0.044 C 
ATOM     28  C   UNL A   1      33.511  19.152  24.327  1.00  0.00    -0.049 A 
ATOM     29  C   UNL A   1      34.837  18.923  24.676  1.00  0.00     0.003 A 
ATOM     30  C   UNL A   1      33.053  20.477  24.197  1.00  0.00     0.030 A 
ATOM     31  C   UNL A   1      35.677  20.003  24.911  1.00  0.00     0.002 A 
ATOM     32  C   UNL A   1      35.192  21.316  24.811  1.00  0.00     0.027 A 
ENDBRANCH  14  26
ENDBRANCH   8  13
ENDBRANCH   4   7
ENDBRANCH   2   3
ENDBRANCH   1   2
BRANCH   1  33
ATOM     33  C   UNL A   1      33.887  34.498  29.471  1.00  0.00     0.118 C 
BRANCH  33  34
ATOM     34  N   UNL A   1      34.313  33.434  30.597  1.00  0.00    -0.352 N 
ATOM     35  C   UNL A   1      35.237  32.346  30.954  1.00  0.00     0.251 C 
ATOM     36  H   UNL A   1      33.707  33.564  31.362  1.00  0.00     0.163 HD
ATOM     37  O   UNL A   1      35.625  32.451  32.137  1.00  0.00    -0.269 OA
BRANCH  35  38
ATOM     38  C   UNL A   1      35.937  31.115  30.212  1.00  0.00     0.039 A 
ATOM     39  C   UNL A   1      36.241  29.888  30.878  1.00  0.00     0.014 A 
ATOM     40  C   UNL A   1      36.345  31.079  28.894  1.00  0.00     0.014 A 
ATOM     41  C   UNL A   1      37.451  29.176  30.560  1.00  0.00     0.010 A 
ATOM     42  C   UNL A   1      37.503  30.335  28.534  1.00  0.00     0.010 A 
ATOM     43  C   UNL A   1      38.224  29.593  29.477  1.00  0.00    -0.014 A 
BRANCH  43  44
ATOM     44  C   UNL A   1      39.722  29.414  29.345  1.00  0.00     0.031 A 
ATOM     45  C   UNL A   1      40.271  28.149  28.870  1.00  0.00     0.074 A 
ATOM     46  C   UNL A   1      40.713  30.341  29.515  1.00  0.00     0.049 A 
ATOM     47  N   UNL A   1      41.097  27.410  29.537  1.00  0.00    -0.248 NA
ATOM     48  C   UNL A   1      39.981  27.683  27.522  1.00  0.00     0.031 C 
ATOM     49  C   UNL A   1      42.175  30.288  29.326  1.00  0.00     0.029 A 
ATOM     50  N   UNL A   1      40.592  31.660  29.911  1.00  0.00    -0.354 N 
ATOM     51  C   UNL A   1      41.660  26.570  28.602  1.00  0.00     0.074 A 
ATOM     52  C   UNL A   1      40.793  26.626  27.441  1.00  0.00     0.031 C 
ATOM     53  C   UNL A   1      42.756  31.315  29.992  1.00  0.00     0.029 A 
ATOM     54  C   UNL A   1      41.702  32.062  30.645  1.00  0.00     0.049 A 
ATOM     55  H   UNL A   1      39.822  32.236  29.701  1.00  0.00     0.167 HD
ATOM     56  C   UNL A   1      42.956  26.153  28.697  1.00  0.00     0.037 A 
ATOM     57  C   UNL A   1      41.538  32.387  31.966  1.00  0.00     0.037 A 
ATOM     58  C   UNL A   1      43.697  26.935  29.688  1.00  0.00     0.049 A 
ATOM     59  C   UNL A   1      42.188  31.362  32.840  1.00  0.00     0.074 A 
ATOM     60  C   UNL A   1      44.631  27.951  29.538  1.00  0.00     0.029 A 
ATOM     61  N   UNL A   1      43.297  26.975  31.018  1.00  0.00    -0.354 N 
ATOM     62  N   UNL A   1      42.598  30.218  32.380  1.00  0.00    -0.248 NA
ATOM     63  C   UNL A   1      42.436  31.507  34.268  1.00  0.00     0.031 C 
ATOM     64  C   UNL A   1      44.775  28.615  30.777  1.00  0.00     0.029 A 
ATOM     65  C   UNL A   1      43.930  28.006  31.688  1.00  0.00     0.049 A 
ATOM     66  H   UNL A   1      42.652  26.353  31.428  1.00  0.00     0.167 HD
ATOM     67  C   UNL A   1      43.169  29.489  33.374  1.00  0.00     0.074 A 
ATOM     68  C   UNL A   1      43.052  30.341  34.543  1.00  0.00     0.031 C 
ATOM     69  C   UNL A   1      43.690  28.257  33.105  1.00  0.00     0.037 A 
BRANCH  56  70
ATOM     70  C   UNL A   1      43.615  25.304  27.626  1.00  0.00     0.058 A 
ATOM     71  C   UNL A   1      43.627  23.895  27.680  1.00  0.00     0.135 A 
ATOM     72  C   UNL A   1      44.217  25.857  26.474  1.00  0.00     0.135 A 
ATOM     73  F   UNL A   1      43.005  23.216  28.651  1.00  0.00    -0.206 F 
ATOM     74  C   UNL A   1      44.261  23.105  26.721  1.00  0.00     0.059 A 
ATOM     75  C   UNL A   1      44.898  25.090  25.525  1.00  0.00     0.059 A 
ATOM     76  F   UNL A   1      44.133  27.172  26.213  1.00  0.00    -0.206 F 
ATOM     77  C   UNL A   1      44.911  23.709  25.656  1.00  0.00     0.060 A 
BRANCH  77  78
ATOM     78  S   UNL A   1      45.705  22.658  24.427  1.00  0.00     0.124 S 
ATOM     79  O   UNL A   1      46.670  23.567  23.817  1.00  0.00    -0.237 OA
ATOM     80  O   UNL A   1      46.269  21.597  25.256  1.00  0.00    -0.237 OA
ATOM     81  O   UNL A   1      44.603  22.252  23.560  1.00  0.00    -0.744 OA
ENDBRANCH  77  78
ENDBRANCH  56  70
BRANCH  57  82
ATOM     82  C   UNL A   1      40.249  33.122  32.302  1.00  0.00     0.058 A 
ATOM     83  C   UNL A   1      39.133  32.276  32.359  1.00  0.00     0.135 A 
ATOM     84  C   UNL A   1      40.315  33.966  33.394  1.00  0.00     0.135 A 
ATOM     85  F   UNL A   1      38.568  31.837  31.229  1.00  0.00    -0.206 F 
ATOM     86  C   UNL A   1      38.685  31.755  33.571  1.00  0.00     0.059 A 
ATOM     87  C   UNL A   1      39.749  33.540  34.601  1.00  0.00     0.059 A 
ATOM     88  F   UNL A   1      40.996  35.122  33.343  1.00  0.00    -0.206 F 
ATOM     89  C   UNL A   1      39.224  32.265  34.740  1.00  0.00     0.060 A 
BRANCH  89  90
ATOM     90  S   UNL A   1      39.428  30.965  36.264  1.00  0.00     0.124 S 
ATOM     91  O   UNL A   1      40.374  31.704  37.082  1.00  0.00    -0.237 OA
ATOM     92  O   UNL A   1      38.131  30.869  36.926  1.00  0.00    -0.237 OA
ATOM     93  O   UNL A   1      39.954  29.722  35.759  1.00  0.00    -0.744 OA
ENDBRANCH  89  90
ENDBRANCH  57  82
BRANCH  69  94
ATOM     94  C   UNL A   1      44.159  27.243  34.109  1.00  0.00     0.058 A 
ATOM     95  C   UNL A   1      43.307  26.448  34.889  1.00  0.00     0.135 A 
ATOM     96  C   UNL A   1      45.544  26.961  34.239  1.00  0.00     0.135 A 
ATOM     97  F   UNL A   1      41.974  26.509  34.764  1.00  0.00    -0.206 F 
ATOM     98  C   UNL A   1      43.790  25.517  35.804  1.00  0.00     0.059 A 
ATOM     99  C   UNL A   1      46.042  25.985  35.091  1.00  0.00     0.059 A 
ATOM    100  F   UNL A   1      46.475  27.617  33.532  1.00  0.00    -0.206 F 
ATOM    101  C   UNL A   1      45.160  25.295  35.902  1.00  0.00     0.060 A 
BRANCH 101 102
ATOM    102  S   UNL A   1      45.775  24.075  37.067  1.00  0.00     0.124 S 
ATOM    103  O   UNL A   1      45.755  22.864  36.251  1.00  0.00    -0.237 OA
ATOM    104  O   UNL A   1      47.100  24.592  37.397  1.00  0.00    -0.237 OA
ATOM    105  O   UNL A   1      44.803  24.120  38.154  1.00  0.00    -0.744 OA
ENDBRANCH 101 102
ENDBRANCH  69  94
ENDBRANCH  43  44
ENDBRANCH  35  38
ENDBRANCH  33  34
ENDBRANCH   1  33
TORSDOF 15
ENDMDL
