MODEL 1
REMARK VINA RESULT:     -10.4      0.000      0.000
REMARK SMILES COCc1cccc(C[NH2+][C@H](C)[C@H](C)C(=O)NCCCNC(=O)c2ccc(-c3c4nc(c(-c5c(F)cc(S(=O)(=O)[O-])cc5F)c5ccc([nH]5)c(-c5c(F)cc(S(=O)(=O)[O-])cc5F)c5nc(c(-c6c(F)cc(S(=O)(=O)[O-])cc6F)c6ccc3[nH]6)C=C5)C=C4)cc2)c1
REMARK SMILES IDX 15 1 16 2 17 3 13 5 14 6 11 7 12 8 10 9 9 12 8 13 4 14 5 15
REMARK SMILES IDX 90 16 6 17 7 18 3 19 2 20 1 21 18 22 19 23 20 24 21 25 22 26
REMARK SMILES IDX 23 28 24 29 25 30 89 31 26 32 88 33 27 34 28 35 29 36 82 37
REMARK SMILES IDX 30 38 87 39 81 40 83 41 31 42 86 43 80 44 79 45 32 47 66 48
REMARK SMILES IDX 45 49 65 50 46 51 49 52 64 53 84 54 47 55 48 56 63 58 85 59
REMARK SMILES IDX 50 60 33 61 34 62 43 63 35 64 36 65 42 66 44 67 37 68 38 69
REMARK SMILES IDX 39 70 40 71 41 72 67 73 68 74 77 75 69 76 70 77 76 78 78 79
REMARK SMILES IDX 71 80 72 81 73 82 74 83 75 84 51 85 52 86 61 87 53 88 54 89
REMARK SMILES IDX 60 90 62 91 55 92 56 93 57 94 58 95 59 96
REMARK H PARENT 17 4 10 10 10 11 21 27 83 46 49 57
REMARK Flexibility Score: inf
ROOT
ATOM      1  C   UNL A   1      33.392  27.699  23.798  1.00  0.00     0.228 C 
ATOM      2  O   UNL A   1      33.973  28.470  23.029  1.00  0.00    -0.275 OA
ATOM      3  N   UNL A   1      32.531  28.244  24.703  1.00  0.00    -0.356 N 
ATOM      4  H   UNL A   1      32.502  29.227  24.700  1.00  0.00     0.163 HD
ENDROOT
BRANCH   1   5
ATOM      5  C   UNL A   1      33.642  26.194  23.721  1.00  0.00     0.133 C 
ATOM      6  C   UNL A   1      34.164  25.672  25.061  1.00  0.00     0.024 C 
BRANCH   5   7
ATOM      7  C   UNL A   1      32.424  25.459  23.079  1.00  0.00     0.191 C 
ATOM      8  C   UNL A   1      32.743  25.112  21.617  1.00  0.00     0.076 C 
BRANCH   7   9
ATOM      9  N   UNL A   1      32.021  24.236  23.796  1.00  0.00    -0.340 N 
ATOM     10  H   UNL A   1      32.599  24.143  24.633  1.00  0.00     0.346 HD
ATOM     11  H   UNL A   1      31.033  24.324  24.030  1.00  0.00     0.346 HD
BRANCH   9  12
ATOM     12  C   UNL A   1      32.179  23.028  22.981  1.00  0.00     0.297 C 
BRANCH  12  13
ATOM     13  C   UNL A   1      33.146  22.059  23.622  1.00  0.00     0.006 A 
ATOM     14  C   UNL A   1      35.389  21.587  24.484  1.00  0.00    -0.022 A 
ATOM     15  C   UNL A   1      34.940  20.324  24.896  1.00  0.00     0.006 A 
ATOM     16  C   UNL A   1      34.486  22.428  23.819  1.00  0.00     0.015 A 
ATOM     17  C   UNL A   1      33.623  19.925  24.664  1.00  0.00     0.001 A 
ATOM     18  C   UNL A   1      32.727  20.792  24.041  1.00  0.00     0.009 A 
BRANCH  14  19
ATOM     19  C   UNL A   1      36.820  22.009  24.726  1.00  0.00     0.195 C 
BRANCH  19  20
ATOM     20  O   UNL A   1      36.980  23.426  24.832  1.00  0.00    -0.380 OA
ATOM     21  C   UNL A   1      37.639  23.853  26.015  1.00  0.00     0.195 C 
ENDBRANCH  19  20
ENDBRANCH  14  19
ENDBRANCH  12  13
ENDBRANCH   9  12
ENDBRANCH   7   9
ENDBRANCH   5   7
ENDBRANCH   1   5
BRANCH   3  22
ATOM     22  C   UNL A   1      31.647  27.616  25.671  1.00  0.00     0.117 C 
BRANCH  22  23
ATOM     23  C   UNL A   1      32.045  27.899  27.111  1.00  0.00     0.042 C 
BRANCH  23  24
ATOM     24  C   UNL A   1      33.441  28.482  27.260  1.00  0.00     0.118 C 
BRANCH  24  25
ATOM     25  N   UNL A   1      33.422  29.910  27.557  1.00  0.00    -0.352 N 
ATOM     26  C   UNL A   1      34.377  30.706  28.146  1.00  0.00     0.251 C 
ATOM     27  H   UNL A   1      32.596  30.377  27.295  1.00  0.00     0.163 HD
ATOM     28  O   UNL A   1      34.075  31.842  28.497  1.00  0.00    -0.269 OA
BRANCH  26  29
ATOM     29  C   UNL A   1      35.746  30.192  28.376  1.00  0.00     0.039 A 
ATOM     30  C   UNL A   1      36.668  30.226  27.327  1.00  0.00     0.014 A 
ATOM     31  C   UNL A   1      36.120  29.666  29.614  1.00  0.00     0.014 A 
ATOM     32  C   UNL A   1      37.983  29.804  27.546  1.00  0.00     0.010 A 
ATOM     33  C   UNL A   1      37.451  29.340  29.858  1.00  0.00     0.010 A 
ATOM     34  C   UNL A   1      38.397  29.399  28.825  1.00  0.00    -0.014 A 
BRANCH  34  35
ATOM     35  C   UNL A   1      39.809  29.026  29.104  1.00  0.00     0.031 A 
ATOM     36  C   UNL A   1      40.749  30.031  29.716  1.00  0.00     0.074 A 
ATOM     37  C   UNL A   1      40.258  27.802  28.756  1.00  0.00     0.049 A 
ATOM     38  N   UNL A   1      42.029  29.924  29.960  1.00  0.00    -0.248 NA
ATOM     39  C   UNL A   1      40.181  31.342  30.074  1.00  0.00     0.031 C 
ATOM     40  C   UNL A   1      39.457  26.755  28.119  1.00  0.00     0.029 A 
ATOM     41  N   UNL A   1      41.502  27.235  28.879  1.00  0.00    -0.354 N 
ATOM     42  C   UNL A   1      42.418  31.145  30.498  1.00  0.00     0.074 A 
ATOM     43  C   UNL A   1      41.255  32.004  30.478  1.00  0.00     0.031 C 
ATOM     44  C   UNL A   1      40.219  25.664  27.937  1.00  0.00     0.029 A 
ATOM     45  C   UNL A   1      41.575  25.949  28.397  1.00  0.00     0.049 A 
ATOM     46  H   UNL A   1      42.271  27.705  29.275  1.00  0.00     0.167 HD
ATOM     47  C   UNL A   1      43.624  31.509  30.995  1.00  0.00     0.037 A 
ATOM     48  C   UNL A   1      42.617  25.098  28.326  1.00  0.00     0.037 A 
ATOM     49  C   UNL A   1      44.776  30.645  31.025  1.00  0.00     0.049 A 
ATOM     50  C   UNL A   1      43.959  25.542  28.847  1.00  0.00     0.074 A 
ATOM     51  C   UNL A   1      46.037  30.908  31.530  1.00  0.00     0.029 A 
ATOM     52  N   UNL A   1      44.806  29.349  30.532  1.00  0.00    -0.354 N 
ATOM     53  N   UNL A   1      44.294  26.685  29.398  1.00  0.00    -0.248 NA
ATOM     54  C   UNL A   1      45.064  24.578  28.743  1.00  0.00     0.031 C 
ATOM     55  C   UNL A   1      46.842  29.788  31.304  1.00  0.00     0.029 A 
ATOM     56  C   UNL A   1      46.069  28.805  30.708  1.00  0.00     0.049 A 
ATOM     57  H   UNL A   1      44.044  28.882  30.119  1.00  0.00     0.167 HD
ATOM     58  C   UNL A   1      45.636  26.563  29.739  1.00  0.00     0.074 A 
ATOM     59  C   UNL A   1      46.048  25.231  29.344  1.00  0.00     0.031 C 
ATOM     60  C   UNL A   1      46.456  27.469  30.327  1.00  0.00     0.037 A 
BRANCH  47  61
ATOM     61  C   UNL A   1      43.757  32.897  31.563  1.00  0.00     0.058 A 
ATOM     62  C   UNL A   1      44.159  33.980  30.764  1.00  0.00     0.135 A 
ATOM     63  C   UNL A   1      43.441  33.159  32.906  1.00  0.00     0.135 A 
ATOM     64  F   UNL A   1      44.490  33.785  29.477  1.00  0.00    -0.206 F 
ATOM     65  C   UNL A   1      44.266  35.266  31.281  1.00  0.00     0.059 A 
ATOM     66  C   UNL A   1      43.511  34.445  33.437  1.00  0.00     0.059 A 
ATOM     67  F   UNL A   1      43.053  32.162  33.716  1.00  0.00    -0.206 F 
ATOM     68  C   UNL A   1      43.938  35.490  32.618  1.00  0.00     0.060 A 
BRANCH  68  69
ATOM     69  S   UNL A   1      44.069  37.169  33.266  1.00  0.00     0.124 S 
ATOM     70  O   UNL A   1      45.372  37.127  33.921  1.00  0.00    -0.237 OA
ATOM     71  O   UNL A   1      43.997  37.976  32.052  1.00  0.00    -0.237 OA
ATOM     72  O   UNL A   1      42.922  37.281  34.160  1.00  0.00    -0.744 OA
ENDBRANCH  68  69
ENDBRANCH  47  61
BRANCH  48  73
ATOM     73  C   UNL A   1      42.440  23.735  27.754  1.00  0.00     0.058 A 
ATOM     74  C   UNL A   1      42.299  22.615  28.589  1.00  0.00     0.135 A 
ATOM     75  C   UNL A   1      42.432  23.517  26.367  1.00  0.00     0.135 A 
ATOM     76  F   UNL A   1      42.305  22.769  29.922  1.00  0.00    -0.206 F 
ATOM     77  C   UNL A   1      42.193  21.328  28.074  1.00  0.00     0.059 A 
ATOM     78  C   UNL A   1      42.295  22.242  25.827  1.00  0.00     0.059 A 
ATOM     79  F   UNL A   1      42.544  24.553  25.522  1.00  0.00    -0.206 F 
ATOM     80  C   UNL A   1      42.194  21.152  26.689  1.00  0.00     0.060 A 
BRANCH  80  81
ATOM     81  S   UNL A   1      42.043  19.477  26.031  1.00  0.00     0.124 S 
ATOM     82  O   UNL A   1      40.612  19.394  25.765  1.00  0.00    -0.237 OA
ATOM     83  O   UNL A   1      42.909  19.530  24.857  1.00  0.00    -0.237 OA
ATOM     84  O   UNL A   1      42.532  18.642  27.124  1.00  0.00    -0.744 OA
ENDBRANCH  80  81
ENDBRANCH  48  73
BRANCH  60  85
ATOM     85  C   UNL A   1      47.867  27.039  30.627  1.00  0.00     0.058 A 
ATOM     86  C   UNL A   1      48.903  27.191  29.694  1.00  0.00     0.135 A 
ATOM     87  C   UNL A   1      48.191  26.514  31.889  1.00  0.00     0.135 A 
ATOM     88  F   UNL A   1      48.646  27.680  28.471  1.00  0.00    -0.206 F 
ATOM     89  C   UNL A   1      50.209  26.812  29.991  1.00  0.00     0.059 A 
ATOM     90  C   UNL A   1      49.495  26.159  32.218  1.00  0.00     0.059 A 
ATOM     91  F   UNL A   1      47.239  26.358  32.823  1.00  0.00    -0.206 F 
ATOM     92  C   UNL A   1      50.495  26.301  31.258  1.00  0.00     0.060 A 
BRANCH  92  93
ATOM     93  S   UNL A   1      52.201  25.849  31.642  1.00  0.00     0.124 S 
ATOM     94  O   UNL A   1      52.875  26.149  30.383  1.00  0.00    -0.237 OA
ATOM     95  O   UNL A   1      52.515  26.737  32.756  1.00  0.00    -0.237 OA
ATOM     96  O   UNL A   1      52.109  24.433  31.982  1.00  0.00    -0.744 OA
ENDBRANCH  92  93
ENDBRANCH  60  85
ENDBRANCH  34  35
ENDBRANCH  26  29
ENDBRANCH  24  25
ENDBRANCH  23  24
ENDBRANCH  22  23
ENDBRANCH   3  22
TORSDOF 19
ENDMDL
MODEL 2
REMARK VINA RESULT:      -9.8      3.385     10.273
REMARK SMILES COCc1cccc(C[NH2+][C@H](C)[C@H](C)C(=O)NCCCNC(=O)c2ccc(-c3c4nc(c(-c5c(F)cc(S(=O)(=O)[O-])cc5F)c5ccc([nH]5)c(-c5c(F)cc(S(=O)(=O)[O-])cc5F)c5nc(c(-c6c(F)cc(S(=O)(=O)[O-])cc6F)c6ccc3[nH]6)C=C5)C=C4)cc2)c1
REMARK SMILES IDX 15 1 16 2 17 3 13 5 14 6 11 7 12 8 10 9 9 12 8 13 4 14 5 15
REMARK SMILES IDX 90 16 6 17 7 18 3 19 2 20 1 21 18 22 19 23 20 24 21 25 22 26
REMARK SMILES IDX 23 28 24 29 25 30 89 31 26 32 88 33 27 34 28 35 29 36 82 37
REMARK SMILES IDX 30 38 87 39 81 40 83 41 31 42 86 43 80 44 79 45 32 47 66 48
REMARK SMILES IDX 45 49 65 50 46 51 49 52 64 53 84 54 47 55 48 56 63 58 85 59
REMARK SMILES IDX 50 60 33 61 34 62 43 63 35 64 36 65 42 66 44 67 37 68 38 69
REMARK SMILES IDX 39 70 40 71 41 72 67 73 68 74 77 75 69 76 70 77 76 78 78 79
REMARK SMILES IDX 71 80 72 81 73 82 74 83 75 84 51 85 52 86 61 87 53 88 54 89
REMARK SMILES IDX 60 90 62 91 55 92 56 93 57 94 58 95 59 96
REMARK H PARENT 17 4 10 10 10 11 21 27 83 46 49 57
REMARK Flexibility Score: inf
ROOT
ATOM      1  C   UNL A   1      35.894  34.842  32.480  1.00  0.00     0.228 C 
ATOM      2  O   UNL A   1      35.903  35.374  33.593  1.00  0.00    -0.275 OA
ATOM      3  N   UNL A   1      34.831  35.102  31.667  1.00  0.00    -0.356 N 
ATOM      4  H   UNL A   1      34.126  35.650  32.079  1.00  0.00     0.163 HD
ENDROOT
BRANCH   1   5
ATOM      5  C   UNL A   1      37.040  33.929  32.047  1.00  0.00     0.133 C 
ATOM      6  C   UNL A   1      38.202  34.758  31.497  1.00  0.00     0.024 C 
BRANCH   5   7
ATOM      7  C   UNL A   1      37.359  32.872  33.150  1.00  0.00     0.191 C 
ATOM      8  C   UNL A   1      36.269  31.789  33.157  1.00  0.00     0.076 C 
BRANCH   7   9
ATOM      9  N   UNL A   1      38.680  32.236  33.001  1.00  0.00    -0.340 N 
ATOM     10  H   UNL A   1      38.686  31.694  32.135  1.00  0.00     0.346 HD
ATOM     11  H   UNL A   1      39.381  32.977  32.984  1.00  0.00     0.346 HD
BRANCH   9  12
ATOM     12  C   UNL A   1      39.003  31.343  34.116  1.00  0.00     0.297 C 
BRANCH  12  13
ATOM     13  C   UNL A   1      39.849  30.177  33.655  1.00  0.00     0.006 A 
ATOM     14  C   UNL A   1      42.013  29.034  33.621  1.00  0.00    -0.022 A 
ATOM     15  C   UNL A   1      41.423  27.984  32.903  1.00  0.00     0.006 A 
ATOM     16  C   UNL A   1      41.218  30.138  33.960  1.00  0.00     0.015 A 
ATOM     17  C   UNL A   1      40.073  28.033  32.552  1.00  0.00     0.001 A 
ATOM     18  C   UNL A   1      39.286  29.118  32.937  1.00  0.00     0.009 A 
BRANCH  14  19
ATOM     19  C   UNL A   1      43.479  28.983  33.988  1.00  0.00     0.195 C 
BRANCH  19  20
ATOM     20  O   UNL A   1      43.711  28.526  35.322  1.00  0.00    -0.380 OA
ATOM     21  C   UNL A   1      43.597  27.120  35.487  1.00  0.00     0.195 C 
ENDBRANCH  19  20
ENDBRANCH  14  19
ENDBRANCH  12  13
ENDBRANCH   9  12
ENDBRANCH   7   9
ENDBRANCH   5   7
ENDBRANCH   1   5
BRANCH   3  22
ATOM     22  C   UNL A   1      34.566  34.708  30.294  1.00  0.00     0.117 C 
BRANCH  22  23
ATOM     23  C   UNL A   1      34.429  33.203  30.123  1.00  0.00     0.042 C 
BRANCH  23  24
ATOM     24  C   UNL A   1      34.807  32.705  28.737  1.00  0.00     0.118 C 
BRANCH  24  25
ATOM     25  N   UNL A   1      34.065  31.511  28.350  1.00  0.00    -0.352 N 
ATOM     26  C   UNL A   1      34.516  30.250  28.036  1.00  0.00     0.251 C 
ATOM     27  H   UNL A   1      33.088  31.625  28.308  1.00  0.00     0.163 HD
ATOM     28  O   UNL A   1      33.739  29.446  27.530  1.00  0.00    -0.269 OA
BRANCH  26  29
ATOM     29  C   UNL A   1      35.926  29.873  28.283  1.00  0.00     0.039 A 
ATOM     30  C   UNL A   1      36.847  29.971  27.237  1.00  0.00     0.014 A 
ATOM     31  C   UNL A   1      36.341  29.412  29.534  1.00  0.00     0.014 A 
ATOM     32  C   UNL A   1      38.194  29.680  27.470  1.00  0.00     0.010 A 
ATOM     33  C   UNL A   1      37.696  29.219  29.790  1.00  0.00     0.010 A 
ATOM     34  C   UNL A   1      38.638  29.345  28.759  1.00  0.00    -0.014 A 
BRANCH  34  35
ATOM     35  C   UNL A   1      40.076  29.113  29.052  1.00  0.00     0.031 A 
ATOM     36  C   UNL A   1      40.705  27.780  28.744  1.00  0.00     0.074 A 
ATOM     37  C   UNL A   1      40.802  30.083  29.646  1.00  0.00     0.049 A 
ATOM     38  N   UNL A   1      41.917  27.358  28.997  1.00  0.00    -0.248 NA
ATOM     39  C   UNL A   1      39.849  26.776  28.089  1.00  0.00     0.031 C 
ATOM     40  C   UNL A   1      40.298  31.403  30.032  1.00  0.00     0.029 A 
ATOM     41  N   UNL A   1      42.118  30.107  30.038  1.00  0.00    -0.354 N 
ATOM     42  C   UNL A   1      41.969  26.049  28.536  1.00  0.00     0.074 A 
ATOM     43  C   UNL A   1      40.646  25.719  28.053  1.00  0.00     0.031 C 
ATOM     44  C   UNL A   1      41.298  32.117  30.575  1.00  0.00     0.029 A 
ATOM     45  C   UNL A   1      42.501  31.292  30.622  1.00  0.00     0.049 A 
ATOM     46  H   UNL A   1      42.730  29.346  29.913  1.00  0.00     0.167 HD
ATOM     47  C   UNL A   1      43.029  25.206  28.488  1.00  0.00     0.037 A 
ATOM     48  C   UNL A   1      43.684  31.668  31.145  1.00  0.00     0.037 A 
ATOM     49  C   UNL A   1      44.347  25.545  28.958  1.00  0.00     0.049 A 
ATOM     50  C   UNL A   1      44.836  30.697  31.118  1.00  0.00     0.074 A 
ATOM     51  C   UNL A   1      45.495  24.773  28.931  1.00  0.00     0.029 A 
ATOM     52  N   UNL A   1      44.694  26.756  29.538  1.00  0.00    -0.354 N 
ATOM     53  N   UNL A   1      44.878  29.479  30.631  1.00  0.00    -0.248 NA
ATOM     54  C   UNL A   1      46.103  31.154  31.703  1.00  0.00     0.031 C 
ATOM     55  C   UNL A   1      46.525  25.500  29.534  1.00  0.00     0.029 A 
ATOM     56  C   UNL A   1      46.035  26.746  29.887  1.00  0.00     0.049 A 
ATOM     57  H   UNL A   1      44.079  27.512  29.681  1.00  0.00     0.167 HD
ATOM     58  C   UNL A   1      46.184  29.040  30.820  1.00  0.00     0.074 A 
ATOM     59  C   UNL A   1      46.902  30.127  31.452  1.00  0.00     0.031 C 
ATOM     60  C   UNL A   1      46.740  27.846  30.498  1.00  0.00     0.037 A 
BRANCH  47  61
ATOM     61  C   UNL A   1      42.811  23.842  27.890  1.00  0.00     0.058 A 
ATOM     62  C   UNL A   1      42.813  23.643  26.499  1.00  0.00     0.135 A 
ATOM     63  C   UNL A   1      42.642  22.714  28.709  1.00  0.00     0.135 A 
ATOM     64  F   UNL A   1      42.953  24.687  25.666  1.00  0.00    -0.206 F 
ATOM     65  C   UNL A   1      42.629  22.382  25.943  1.00  0.00     0.059 A 
ATOM     66  C   UNL A   1      42.488  21.437  28.175  1.00  0.00     0.059 A 
ATOM     67  F   UNL A   1      42.631  22.845  30.045  1.00  0.00    -0.206 F 
ATOM     68  C   UNL A   1      42.470  21.284  26.789  1.00  0.00     0.060 A 
BRANCH  68  69
ATOM     69  S   UNL A   1      42.249  19.654  26.048  1.00  0.00     0.124 S 
ATOM     70  O   UNL A   1      43.144  19.733  24.899  1.00  0.00    -0.237 OA
ATOM     71  O   UNL A   1      42.677  18.764  27.123  1.00  0.00    -0.237 OA
ATOM     72  O   UNL A   1      40.825  19.613  25.733  1.00  0.00    -0.744 OA
ENDBRANCH  68  69
ENDBRANCH  47  61
BRANCH  48  73
ATOM     73  C   UNL A   1      43.853  33.027  31.728  1.00  0.00     0.058 A 
ATOM     74  C   UNL A   1      43.811  33.226  33.117  1.00  0.00     0.135 A 
ATOM     75  C   UNL A   1      44.036  34.156  30.915  1.00  0.00     0.135 A 
ATOM     76  F   UNL A   1      43.634  32.179  33.939  1.00  0.00    -0.206 F 
ATOM     77  C   UNL A   1      43.906  34.495  33.677  1.00  0.00     0.059 A 
ATOM     78  C   UNL A   1      44.167  35.433  31.453  1.00  0.00     0.059 A 
ATOM     79  F   UNL A   1      44.103  34.022  29.582  1.00  0.00    -0.206 F 
ATOM     80  C   UNL A   1      44.082  35.594  32.835  1.00  0.00     0.060 A 
BRANCH  80  81
ATOM     81  S   UNL A   1      44.219  37.236  33.574  1.00  0.00     0.124 S 
ATOM     82  O   UNL A   1      44.649  38.036  32.433  1.00  0.00    -0.237 OA
ATOM     83  O   UNL A   1      42.858  37.474  34.045  1.00  0.00    -0.237 OA
ATOM     84  O   UNL A   1      45.215  37.049  34.625  1.00  0.00    -0.744 OA
ENDBRANCH  80  81
ENDBRANCH  48  73
BRANCH  60  85
ATOM     85  C   UNL A   1      48.208  27.666  30.775  1.00  0.00     0.058 A 
ATOM     86  C   UNL A   1      48.675  27.142  31.991  1.00  0.00     0.135 A 
ATOM     87  C   UNL A   1      49.157  27.976  29.788  1.00  0.00     0.135 A 
ATOM     88  F   UNL A   1      47.810  26.836  32.972  1.00  0.00    -0.206 F 
ATOM     89  C   UNL A   1      50.033  26.956  32.228  1.00  0.00     0.059 A 
ATOM     90  C   UNL A   1      50.517  27.768  29.991  1.00  0.00     0.059 A 
ATOM     91  F   UNL A   1      48.764  28.469  28.602  1.00  0.00    -0.206 F 
ATOM     92  C   UNL A   1      50.947  27.269  31.219  1.00  0.00     0.060 A 
BRANCH  92  93
ATOM     93  S   UNL A   1      52.703  26.988  31.528  1.00  0.00     0.124 S 
ATOM     94  O   UNL A   1      53.278  28.275  31.152  1.00  0.00    -0.237 OA
ATOM     95  O   UNL A   1      52.723  26.676  32.952  1.00  0.00    -0.237 OA
ATOM     96  O   UNL A   1      53.030  25.873  30.643  1.00  0.00    -0.744 OA
ENDBRANCH  92  93
ENDBRANCH  60  85
ENDBRANCH  34  35
ENDBRANCH  26  29
ENDBRANCH  24  25
ENDBRANCH  23  24
ENDBRANCH  22  23
ENDBRANCH   3  22
TORSDOF 19
ENDMDL
MODEL 3
REMARK VINA RESULT:      -9.7      3.035      8.589
REMARK SMILES COCc1cccc(C[NH2+][C@H](C)[C@H](C)C(=O)NCCCNC(=O)c2ccc(-c3c4nc(c(-c5c(F)cc(S(=O)(=O)[O-])cc5F)c5ccc([nH]5)c(-c5c(F)cc(S(=O)(=O)[O-])cc5F)c5nc(c(-c6c(F)cc(S(=O)(=O)[O-])cc6F)c6ccc3[nH]6)C=C5)C=C4)cc2)c1
REMARK SMILES IDX 15 1 16 2 17 3 13 5 14 6 11 7 12 8 10 9 9 12 8 13 4 14 5 15
REMARK SMILES IDX 90 16 6 17 7 18 3 19 2 20 1 21 18 22 19 23 20 24 21 25 22 26
REMARK SMILES IDX 23 28 24 29 25 30 89 31 26 32 88 33 27 34 28 35 29 36 82 37
REMARK SMILES IDX 30 38 87 39 81 40 83 41 31 42 86 43 80 44 79 45 32 47 66 48
REMARK SMILES IDX 45 49 65 50 46 51 49 52 64 53 84 54 47 55 48 56 63 58 85 59
REMARK SMILES IDX 50 60 33 61 34 62 43 63 35 64 36 65 42 66 44 67 37 68 38 69
REMARK SMILES IDX 39 70 40 71 41 72 67 73 68 74 77 75 69 76 70 77 76 78 78 79
REMARK SMILES IDX 71 80 72 81 73 82 74 83 75 84 51 85 52 86 61 87 53 88 54 89
REMARK SMILES IDX 60 90 62 91 55 92 56 93 57 94 58 95 59 96
REMARK H PARENT 17 4 10 10 10 11 21 27 83 46 49 57
REMARK Flexibility Score: inf
ROOT
ATOM      1  C   UNL A   1      33.666  25.052  23.138  1.00  0.00     0.228 C 
ATOM      2  O   UNL A   1      34.062  25.363  22.011  1.00  0.00    -0.275 OA
ATOM      3  N   UNL A   1      33.532  26.051  24.056  1.00  0.00    -0.356 N 
ATOM      4  H   UNL A   1      33.834  26.935  23.745  1.00  0.00     0.163 HD
ENDROOT
BRANCH   1   5
ATOM      5  C   UNL A   1      33.340  23.597  23.471  1.00  0.00     0.133 C 
ATOM      6  C   UNL A   1      32.950  22.834  22.204  1.00  0.00     0.024 C 
BRANCH   5   7
ATOM      7  C   UNL A   1      34.441  22.975  24.385  1.00  0.00     0.191 C 
ATOM      8  C   UNL A   1      34.150  21.482  24.601  1.00  0.00     0.076 C 
BRANCH   7   9
ATOM      9  N   UNL A   1      35.810  23.136  23.862  1.00  0.00    -0.340 N 
ATOM     10  H   UNL A   1      35.767  23.174  22.842  1.00  0.00     0.346 HD
ATOM     11  H   UNL A   1      36.192  23.996  24.254  1.00  0.00     0.346 HD
BRANCH   9  12
ATOM     12  C   UNL A   1      36.695  22.036  24.253  1.00  0.00     0.297 C 
BRANCH  12  13
ATOM     13  C   UNL A   1      37.708  22.488  25.280  1.00  0.00     0.006 A 
ATOM     14  C   UNL A   1      39.690  22.003  26.633  1.00  0.00    -0.022 A 
ATOM     15  C   UNL A   1      39.661  23.322  27.108  1.00  0.00     0.006 A 
ATOM     16  C   UNL A   1      38.685  21.595  25.745  1.00  0.00     0.015 A 
ATOM     17  C   UNL A   1      38.667  24.208  26.691  1.00  0.00     0.001 A 
ATOM     18  C   UNL A   1      37.702  23.797  25.772  1.00  0.00     0.009 A 
BRANCH  14  19
ATOM     19  C   UNL A   1      40.762  21.044  27.098  1.00  0.00     0.195 C 
BRANCH  19  20
ATOM     20  O   UNL A   1      40.869  19.878  26.279  1.00  0.00    -0.380 OA
ATOM     21  C   UNL A   1      42.200  19.532  25.925  1.00  0.00     0.195 C 
ENDBRANCH  19  20
ENDBRANCH  14  19
ENDBRANCH  12  13
ENDBRANCH   9  12
ENDBRANCH   7   9
ENDBRANCH   5   7
ENDBRANCH   1   5
BRANCH   3  22
ATOM     22  C   UNL A   1      33.020  26.031  25.415  1.00  0.00     0.117 C 
BRANCH  22  23
ATOM     23  C   UNL A   1      32.785  27.421  25.984  1.00  0.00     0.042 C 
BRANCH  23  24
ATOM     24  C   UNL A   1      34.042  28.273  26.065  1.00  0.00     0.118 C 
BRANCH  24  25
ATOM     25  N   UNL A   1      33.753  29.670  26.365  1.00  0.00    -0.352 N 
ATOM     26  C   UNL A   1      34.356  30.529  27.254  1.00  0.00     0.251 C 
ATOM     27  H   UNL A   1      33.008  30.059  25.852  1.00  0.00     0.163 HD
ATOM     28  O   UNL A   1      33.819  31.603  27.506  1.00  0.00    -0.269 OA
BRANCH  26  29
ATOM     29  C   UNL A   1      35.625  30.154  27.918  1.00  0.00     0.039 A 
ATOM     30  C   UNL A   1      36.834  30.436  27.278  1.00  0.00     0.014 A 
ATOM     31  C   UNL A   1      35.628  29.516  29.160  1.00  0.00     0.014 A 
ATOM     32  C   UNL A   1      38.042  30.147  27.919  1.00  0.00     0.010 A 
ATOM     33  C   UNL A   1      36.827  29.320  29.838  1.00  0.00     0.010 A 
ATOM     34  C   UNL A   1      38.049  29.627  29.223  1.00  0.00    -0.014 A 
BRANCH  34  35
ATOM     35  C   UNL A   1      39.318  29.390  29.960  1.00  0.00     0.031 A 
ATOM     36  C   UNL A   1      40.327  28.406  29.428  1.00  0.00     0.074 A 
ATOM     37  C   UNL A   1      39.537  30.016  31.135  1.00  0.00     0.049 A 
ATOM     38  N   UNL A   1      41.451  28.003  29.963  1.00  0.00    -0.248 NA
ATOM     39  C   UNL A   1      40.019  27.769  28.136  1.00  0.00     0.031 C 
ATOM     40  C   UNL A   1      38.618  30.960  31.776  1.00  0.00     0.029 A 
ATOM     41  N   UNL A   1      40.596  29.947  32.005  1.00  0.00    -0.354 N 
ATOM     42  C   UNL A   1      41.981  27.071  29.079  1.00  0.00     0.074 A 
ATOM     43  C   UNL A   1      41.022  26.913  28.008  1.00  0.00     0.031 C 
ATOM     44  C   UNL A   1      39.167  31.404  32.918  1.00  0.00     0.029 A 
ATOM     45  C   UNL A   1      40.452  30.742  33.118  1.00  0.00     0.049 A 
ATOM     46  H   UNL A   1      41.386  29.380  31.847  1.00  0.00     0.167 HD
ATOM     47  C   UNL A   1      43.172  26.429  29.135  1.00  0.00     0.037 A 
ATOM     48  C   UNL A   1      41.260  30.912  34.183  1.00  0.00     0.037 A 
ATOM     49  C   UNL A   1      44.129  26.601  30.197  1.00  0.00     0.049 A 
ATOM     50  C   UNL A   1      42.560  30.155  34.242  1.00  0.00     0.074 A 
ATOM     51  C   UNL A   1      45.376  26.017  30.334  1.00  0.00     0.029 A 
ATOM     52  N   UNL A   1      43.948  27.419  31.302  1.00  0.00    -0.354 N 
ATOM     53  N   UNL A   1      43.066  29.314  33.370  1.00  0.00    -0.248 NA
ATOM     54  C   UNL A   1      43.403  30.372  35.425  1.00  0.00     0.031 C 
ATOM     55  C   UNL A   1      45.930  26.447  31.544  1.00  0.00     0.029 A 
ATOM     56  C   UNL A   1      45.053  27.343  32.134  1.00  0.00     0.049 A 
ATOM     57  H   UNL A   1      43.151  27.972  31.472  1.00  0.00     0.167 HD
ATOM     58  C   UNL A   1      44.301  28.933  33.883  1.00  0.00     0.074 A 
ATOM     59  C   UNL A   1      44.471  29.644  35.133  1.00  0.00     0.031 C 
ATOM     60  C   UNL A   1      45.214  28.074  33.366  1.00  0.00     0.037 A 
BRANCH  47  61
ATOM     61  C   UNL A   1      43.516  25.494  28.006  1.00  0.00     0.058 A 
ATOM     62  C   UNL A   1      44.215  25.941  26.872  1.00  0.00     0.135 A 
ATOM     63  C   UNL A   1      43.185  24.131  28.073  1.00  0.00     0.135 A 
ATOM     64  F   UNL A   1      44.543  27.237  26.746  1.00  0.00    -0.206 F 
ATOM     65  C   UNL A   1      44.550  25.077  25.835  1.00  0.00     0.059 A 
ATOM     66  C   UNL A   1      43.538  23.241  27.061  1.00  0.00     0.059 A 
ATOM     67  F   UNL A   1      42.516  23.649  29.132  1.00  0.00    -0.206 F 
ATOM     68  C   UNL A   1      44.209  23.728  25.940  1.00  0.00     0.060 A 
BRANCH  68  69
ATOM     69  S   UNL A   1      44.666  22.620  24.590  1.00  0.00     0.124 S 
ATOM     70  O   UNL A   1      45.127  21.445  25.322  1.00  0.00    -0.237 OA
ATOM     71  O   UNL A   1      43.403  22.465  23.876  1.00  0.00    -0.237 OA
ATOM     72  O   UNL A   1      45.701  23.360  23.876  1.00  0.00    -0.744 OA
ENDBRANCH  68  69
ENDBRANCH  47  61
BRANCH  48  73
ATOM     73  C   UNL A   1      40.878  31.846  35.277  1.00  0.00     0.058 A 
ATOM     74  C   UNL A   1      41.469  33.115  35.381  1.00  0.00     0.135 A 
ATOM     75  C   UNL A   1      39.936  31.486  36.254  1.00  0.00     0.135 A 
ATOM     76  F   UNL A   1      42.379  33.507  34.475  1.00  0.00    -0.206 F 
ATOM     77  C   UNL A   1      41.169  33.978  36.430  1.00  0.00     0.059 A 
ATOM     78  C   UNL A   1      39.595  32.344  37.295  1.00  0.00     0.059 A 
ATOM     79  F   UNL A   1      39.326  30.292  36.192  1.00  0.00    -0.206 F 
ATOM     80  C   UNL A   1      40.231  33.581  37.384  1.00  0.00     0.060 A 
BRANCH  80  81
ATOM     81  S   UNL A   1      39.840  34.714  38.735  1.00  0.00     0.124 S 
ATOM     82  O   UNL A   1      39.268  33.806  39.723  1.00  0.00    -0.237 OA
ATOM     83  O   UNL A   1      41.150  35.269  39.060  1.00  0.00    -0.237 OA
ATOM     84  O   UNL A   1      38.904  35.653  38.124  1.00  0.00    -0.744 OA
ENDBRANCH  80  81
ENDBRANCH  48  73
BRANCH  60  85
ATOM     85  C   UNL A   1      46.503  27.890  34.123  1.00  0.00     0.058 A 
ATOM     86  C   UNL A   1      47.623  28.702  33.887  1.00  0.00     0.135 A 
ATOM     87  C   UNL A   1      46.597  26.920  35.133  1.00  0.00     0.135 A 
ATOM     88  F   UNL A   1      47.589  29.640  32.927  1.00  0.00    -0.206 F 
ATOM     89  C   UNL A   1      48.801  28.541  34.610  1.00  0.00     0.059 A 
ATOM     90  C   UNL A   1      47.753  26.763  35.890  1.00  0.00     0.059 A 
ATOM     91  F   UNL A   1      45.550  26.124  35.407  1.00  0.00    -0.206 F 
ATOM     92  C   UNL A   1      48.855  27.570  35.612  1.00  0.00     0.060 A 
BRANCH  92  93
ATOM     93  S   UNL A   1      50.378  27.398  36.566  1.00  0.00     0.124 S 
ATOM     94  O   UNL A   1      49.866  26.969  37.864  1.00  0.00    -0.237 OA
ATOM     95  O   UNL A   1      51.107  26.388  35.808  1.00  0.00    -0.237 OA
ATOM     96  O   UNL A   1      50.955  28.738  36.531  1.00  0.00    -0.744 OA
ENDBRANCH  92  93
ENDBRANCH  60  85
ENDBRANCH  34  35
ENDBRANCH  26  29
ENDBRANCH  24  25
ENDBRANCH  23  24
ENDBRANCH  22  23
ENDBRANCH   3  22
TORSDOF 19
ENDMDL
