MODEL 1
REMARK VINA RESULT:     -12.2      0.000      0.000
REMARK SMILES CCCc1c(C(=O)NCCCNC(=O)c2ccc(-c3c4nc(c(-c5c(F)cc(S(=O)(=O)[O-])cc5F)c5ccc([nH]5)c(-c5c(F)cc(S(=O)(=O)[O-])cc5F)c5nc(c(-c6c(F)cc(S(=O)(=O)[O-])cc6F)c6ccc3[nH]6)C=C5)C=C4)cc2)nnn1-c1ccccc1[N+](=O)[O-]
REMARK SMILES IDX 10 1 9 2 8 3 6 4 7 5 5 7 4 8 83 9 81 10 82 11 3 12 2 13 1 14
REMARK SMILES IDX 84 15 85 16 89 17 86 18 88 19 87 20 90 21 91 22 92 23 11 24
REMARK SMILES IDX 12 25 13 26 14 28 15 29 16 30 80 31 17 32 79 33 18 34 19 35
REMARK SMILES IDX 20 36 73 37 21 38 78 39 72 40 74 41 22 42 77 43 71 44 70 45
REMARK SMILES IDX 23 47 57 48 36 49 56 50 37 51 40 52 55 53 75 54 38 55 39 56
REMARK SMILES IDX 54 58 76 59 41 60 24 61 25 62 34 63 26 64 27 65 33 66 35 67
REMARK SMILES IDX 28 68 29 69 30 70 31 71 32 72 58 73 59 74 68 75 60 76 61 77
REMARK SMILES IDX 67 78 69 79 62 80 63 81 64 82 65 83 66 84 42 85 43 86 52 87
REMARK SMILES IDX 44 88 45 89 51 90 53 91 46 92 47 93 48 94 49 95 50 96
REMARK H PARENT 8 6 12 27 74 46 40 57
REMARK Flexibility Score: inf
ROOT
ATOM      1  C   UNL A   1      33.261  29.665  26.223  1.00  0.00     0.042 C 
ENDROOT
BRANCH   1   2
ATOM      2  C   UNL A   1      31.764  29.817  25.964  1.00  0.00     0.118 C 
BRANCH   2   3
ATOM      3  N   UNL A   1      31.393  29.850  24.583  1.00  0.00    -0.351 N 
ATOM      4  C   UNL A   1      30.848  28.901  23.763  1.00  0.00     0.273 C 
ATOM      5  O   UNL A   1      30.344  29.366  22.734  1.00  0.00    -0.267 OA
ATOM      6  H   UNL A   1      31.560  30.715  24.143  1.00  0.00     0.163 HD
BRANCH   4   7
ATOM      7  C   UNL A   1      30.858  27.442  23.982  1.00  0.00     0.174 A 
ATOM      8  C   UNL A   1      31.780  26.402  24.215  1.00  0.00     0.078 A 
ATOM      9  N   UNL A   1      30.964  25.260  24.227  1.00  0.00    -0.210 N 
ATOM     10  N   UNL A   1      29.604  26.865  23.840  1.00  0.00    -0.124 NA
ATOM     11  N   UNL A   1      29.709  25.558  23.875  1.00  0.00    -0.061 NA
BRANCH   8  12
ATOM     12  C   UNL A   1      33.273  26.241  24.203  1.00  0.00     0.059 C 
BRANCH  12  13
ATOM     13  C   UNL A   1      34.070  25.871  25.467  1.00  0.00     0.003 C 
ATOM     14  C   UNL A   1      34.877  24.577  25.516  1.00  0.00     0.004 C 
ENDBRANCH  12  13
ENDBRANCH   8  12
BRANCH   9  15
ATOM     15  C   UNL A   1      31.333  23.898  24.304  1.00  0.00     0.144 A 
ATOM     16  C   UNL A   1      31.649  23.241  23.102  1.00  0.00     0.036 A 
ATOM     17  C   UNL A   1      31.437  23.203  25.513  1.00  0.00     0.294 A 
ATOM     18  C   UNL A   1      32.124  21.929  23.126  1.00  0.00     0.003 A 
ATOM     19  C   UNL A   1      31.916  21.885  25.535  1.00  0.00     0.088 A 
ATOM     20  C   UNL A   1      32.268  21.257  24.339  1.00  0.00     0.007 A 
BRANCH  17  21
ATOM     21  N   UNL A   1      30.951  23.756  26.770  1.00  0.00     0.065 N 
ATOM     22  O   UNL A   1      29.759  23.563  27.044  1.00  0.00    -0.258 OA
ATOM     23  O   UNL A   1      31.749  24.392  27.466  1.00  0.00    -0.258 OA
ENDBRANCH  17  21
ENDBRANCH   9  15
ENDBRANCH   4   7
ENDBRANCH   2   3
ENDBRANCH   1   2
BRANCH   1  24
ATOM     24  C   UNL A   1      33.669  30.399  27.480  1.00  0.00     0.118 C 
BRANCH  24  25
ATOM     25  N   UNL A   1      34.332  31.697  27.224  1.00  0.00    -0.352 N 
ATOM     26  C   UNL A   1      35.521  32.185  27.776  1.00  0.00     0.251 C 
ATOM     27  H   UNL A   1      33.879  32.292  26.583  1.00  0.00     0.163 HD
ATOM     28  O   UNL A   1      35.805  33.364  27.752  1.00  0.00    -0.269 OA
BRANCH  26  29
ATOM     29  C   UNL A   1      36.437  31.181  28.351  1.00  0.00     0.039 A 
ATOM     30  C   UNL A   1      36.547  29.859  27.910  1.00  0.00     0.014 A 
ATOM     31  C   UNL A   1      37.376  31.732  29.194  1.00  0.00     0.014 A 
ATOM     32  C   UNL A   1      37.704  29.152  28.249  1.00  0.00     0.010 A 
ATOM     33  C   UNL A   1      38.621  31.207  29.107  1.00  0.00     0.010 A 
ATOM     34  C   UNL A   1      38.762  29.863  28.828  1.00  0.00    -0.014 A 
BRANCH  34  35
ATOM     35  C   UNL A   1      40.089  29.346  29.115  1.00  0.00     0.031 A 
ATOM     36  C   UNL A   1      40.350  29.069  30.548  1.00  0.00     0.074 A 
ATOM     37  C   UNL A   1      40.876  28.854  28.126  1.00  0.00     0.049 A 
ATOM     38  N   UNL A   1      41.057  29.776  31.363  1.00  0.00    -0.248 NA
ATOM     39  C   UNL A   1      39.587  27.995  31.207  1.00  0.00     0.031 C 
ATOM     40  C   UNL A   1      40.594  28.708  26.684  1.00  0.00     0.029 A 
ATOM     41  N   UNL A   1      42.090  28.258  28.233  1.00  0.00    -0.354 N 
ATOM     42  C   UNL A   1      41.059  29.074  32.564  1.00  0.00     0.074 A 
ATOM     43  C   UNL A   1      39.951  28.160  32.482  1.00  0.00     0.031 C 
ATOM     44  C   UNL A   1      41.482  27.866  26.118  1.00  0.00     0.029 A 
ATOM     45  C   UNL A   1      42.513  27.579  27.091  1.00  0.00     0.049 A 
ATOM     46  H   UNL A   1      42.632  28.304  29.053  1.00  0.00     0.167 HD
ATOM     47  C   UNL A   1      42.136  29.117  33.401  1.00  0.00     0.037 A 
ATOM     48  C   UNL A   1      43.636  26.827  26.976  1.00  0.00     0.037 A 
ATOM     49  C   UNL A   1      43.062  30.145  32.978  1.00  0.00     0.049 A 
ATOM     50  C   UNL A   1      44.543  27.269  28.075  1.00  0.00     0.074 A 
ATOM     51  C   UNL A   1      42.972  31.511  32.789  1.00  0.00     0.029 A 
ATOM     52  N   UNL A   1      44.169  29.745  32.262  1.00  0.00    -0.354 N 
ATOM     53  N   UNL A   1      45.041  28.478  28.151  1.00  0.00    -0.248 NA
ATOM     54  C   UNL A   1      44.451  26.557  29.341  1.00  0.00     0.031 C 
ATOM     55  C   UNL A   1      43.695  31.762  31.585  1.00  0.00     0.029 A 
ATOM     56  C   UNL A   1      44.270  30.561  31.161  1.00  0.00     0.049 A 
ATOM     57  H   UNL A   1      44.778  29.008  32.496  1.00  0.00     0.167 HD
ATOM     58  C   UNL A   1      44.935  28.833  29.492  1.00  0.00     0.074 A 
ATOM     59  C   UNL A   1      44.617  27.582  30.184  1.00  0.00     0.031 C 
ATOM     60  C   UNL A   1      44.806  30.139  29.881  1.00  0.00     0.037 A 
BRANCH  47  61
ATOM     61  C   UNL A   1      42.553  28.021  34.356  1.00  0.00     0.058 A 
ATOM     62  C   UNL A   1      42.597  28.307  35.737  1.00  0.00     0.135 A 
ATOM     63  C   UNL A   1      43.156  26.804  33.971  1.00  0.00     0.135 A 
ATOM     64  F   UNL A   1      42.043  29.430  36.223  1.00  0.00    -0.206 F 
ATOM     65  C   UNL A   1      43.271  27.496  36.650  1.00  0.00     0.059 A 
ATOM     66  C   UNL A   1      43.786  25.953  34.874  1.00  0.00     0.059 A 
ATOM     67  F   UNL A   1      43.254  26.420  32.694  1.00  0.00    -0.206 F 
ATOM     68  C   UNL A   1      43.879  26.328  36.202  1.00  0.00     0.060 A 
BRANCH  68  69
ATOM     69  S   UNL A   1      44.846  25.339  37.354  1.00  0.00     0.124 S 
ATOM     70  O   UNL A   1      44.186  25.639  38.619  1.00  0.00    -0.237 OA
ATOM     71  O   UNL A   1      44.648  23.990  36.832  1.00  0.00    -0.237 OA
ATOM     72  O   UNL A   1      46.196  25.872  37.203  1.00  0.00    -0.744 OA
ENDBRANCH  68  69
ENDBRANCH  47  61
BRANCH  48  73
ATOM     73  C   UNL A   1      43.767  25.527  26.261  1.00  0.00     0.058 A 
ATOM     74  C   UNL A   1      44.799  25.291  25.338  1.00  0.00     0.135 A 
ATOM     75  C   UNL A   1      43.030  24.392  26.666  1.00  0.00     0.135 A 
ATOM     76  F   UNL A   1      45.566  26.307  24.913  1.00  0.00    -0.206 F 
ATOM     77  C   UNL A   1      45.111  24.003  24.876  1.00  0.00     0.059 A 
ATOM     78  C   UNL A   1      43.317  23.103  26.216  1.00  0.00     0.059 A 
ATOM     79  F   UNL A   1      42.060  24.492  27.588  1.00  0.00    -0.206 F 
ATOM     80  C   UNL A   1      44.375  22.911  25.338  1.00  0.00     0.060 A 
BRANCH  80  81
ATOM     81  S   UNL A   1      44.877  21.233  24.878  1.00  0.00     0.124 S 
ATOM     82  O   UNL A   1      46.278  21.215  25.281  1.00  0.00    -0.237 OA
ATOM     83  O   UNL A   1      43.973  20.412  25.677  1.00  0.00    -0.237 OA
ATOM     84  O   UNL A   1      44.640  21.193  23.437  1.00  0.00    -0.744 OA
ENDBRANCH  80  81
ENDBRANCH  48  73
BRANCH  60  85
ATOM     85  C   UNL A   1      45.031  31.230  28.857  1.00  0.00     0.058 A 
ATOM     86  C   UNL A   1      44.039  31.743  27.999  1.00  0.00     0.135 A 
ATOM     87  C   UNL A   1      46.259  31.908  28.874  1.00  0.00     0.135 A 
ATOM     88  F   UNL A   1      42.804  31.229  27.990  1.00  0.00    -0.206 F 
ATOM     89  C   UNL A   1      44.268  32.849  27.175  1.00  0.00     0.059 A 
ATOM     90  C   UNL A   1      46.500  33.030  28.084  1.00  0.00     0.059 A 
ATOM     91  F   UNL A   1      47.229  31.515  29.716  1.00  0.00    -0.206 F 
ATOM     92  C   UNL A   1      45.504  33.487  27.225  1.00  0.00     0.060 A 
BRANCH  92  93
ATOM     93  S   UNL A   1      45.783  34.954  26.207  1.00  0.00     0.124 S 
ATOM     94  O   UNL A   1      46.183  34.368  24.931  1.00  0.00    -0.237 OA
ATOM     95  O   UNL A   1      44.477  35.606  26.223  1.00  0.00    -0.237 OA
ATOM     96  O   UNL A   1      46.837  35.670  26.921  1.00  0.00    -0.744 OA
ENDBRANCH  92  93
ENDBRANCH  60  85
ENDBRANCH  34  35
ENDBRANCH  26  29
ENDBRANCH  24  25
ENDBRANCH   1  24
TORSDOF 17
ENDMDL
MODEL 2
REMARK VINA RESULT:     -12.2      2.950      9.431
REMARK SMILES CCCc1c(C(=O)NCCCNC(=O)c2ccc(-c3c4nc(c(-c5c(F)cc(S(=O)(=O)[O-])cc5F)c5ccc([nH]5)c(-c5c(F)cc(S(=O)(=O)[O-])cc5F)c5nc(c(-c6c(F)cc(S(=O)(=O)[O-])cc6F)c6ccc3[nH]6)C=C5)C=C4)cc2)nnn1-c1ccccc1[N+](=O)[O-]
REMARK SMILES IDX 10 1 9 2 8 3 6 4 7 5 5 7 4 8 83 9 81 10 82 11 3 12 2 13 1 14
REMARK SMILES IDX 84 15 85 16 89 17 86 18 88 19 87 20 90 21 91 22 92 23 11 24
REMARK SMILES IDX 12 25 13 26 14 28 15 29 16 30 80 31 17 32 79 33 18 34 19 35
REMARK SMILES IDX 20 36 73 37 21 38 78 39 72 40 74 41 22 42 77 43 71 44 70 45
REMARK SMILES IDX 23 47 57 48 36 49 56 50 37 51 40 52 55 53 75 54 38 55 39 56
REMARK SMILES IDX 54 58 76 59 41 60 24 61 25 62 34 63 26 64 27 65 33 66 35 67
REMARK SMILES IDX 28 68 29 69 30 70 31 71 32 72 58 73 59 74 68 75 60 76 61 77
REMARK SMILES IDX 67 78 69 79 62 80 63 81 64 82 65 83 66 84 42 85 43 86 52 87
REMARK SMILES IDX 44 88 45 89 51 90 53 91 46 92 47 93 48 94 49 95 50 96
REMARK H PARENT 8 6 12 27 74 46 40 57
REMARK Flexibility Score: inf
ROOT
ATOM      1  C   UNL A   1      36.977  21.775  25.670  1.00  0.00     0.042 C 
ENDROOT
BRANCH   1   2
ATOM      2  C   UNL A   1      35.808  22.735  25.881  1.00  0.00     0.118 C 
BRANCH   2   3
ATOM      3  N   UNL A   1      34.899  22.355  26.918  1.00  0.00    -0.351 N 
ATOM      4  C   UNL A   1      33.579  22.649  27.125  1.00  0.00     0.273 C 
ATOM      5  O   UNL A   1      33.021  21.885  27.921  1.00  0.00    -0.267 OA
ATOM      6  H   UNL A   1      35.295  21.775  27.609  1.00  0.00     0.163 HD
BRANCH   4   7
ATOM      7  C   UNL A   1      32.828  23.773  26.535  1.00  0.00     0.174 A 
ATOM      8  C   UNL A   1      32.947  24.705  25.484  1.00  0.00     0.078 A 
ATOM      9  N   UNL A   1      31.814  25.514  25.656  1.00  0.00    -0.210 N 
ATOM     10  N   UNL A   1      31.690  24.103  27.258  1.00  0.00    -0.124 NA
ATOM     11  N   UNL A   1      31.168  25.209  26.785  1.00  0.00    -0.061 NA
BRANCH   8  12
ATOM     12  C   UNL A   1      34.010  25.120  24.507  1.00  0.00     0.059 C 
BRANCH  12  13
ATOM     13  C   UNL A   1      34.169  24.448  23.131  1.00  0.00     0.003 C 
ATOM     14  C   UNL A   1      33.643  23.035  22.900  1.00  0.00     0.004 C 
ENDBRANCH  12  13
ENDBRANCH   8  12
BRANCH   9  15
ATOM     15  C   UNL A   1      31.446  26.694  24.971  1.00  0.00     0.144 A 
ATOM     16  C   UNL A   1      30.730  26.551  23.769  1.00  0.00     0.036 A 
ATOM     17  C   UNL A   1      31.726  27.976  25.454  1.00  0.00     0.294 A 
ATOM     18  C   UNL A   1      30.246  27.681  23.105  1.00  0.00     0.003 A 
ATOM     19  C   UNL A   1      31.237  29.109  24.786  1.00  0.00     0.088 A 
ATOM     20  C   UNL A   1      30.489  28.954  23.618  1.00  0.00     0.007 A 
BRANCH  17  21
ATOM     21  N   UNL A   1      32.617  28.201  26.584  1.00  0.00     0.065 N 
ATOM     22  O   UNL A   1      32.092  28.518  27.659  1.00  0.00    -0.258 OA
ATOM     23  O   UNL A   1      33.832  28.082  26.391  1.00  0.00    -0.258 OA
ENDBRANCH  17  21
ENDBRANCH   9  15
ENDBRANCH   4   7
ENDBRANCH   2   3
ENDBRANCH   1   2
BRANCH   1  24
ATOM     24  C   UNL A   1      38.299  22.495  25.808  1.00  0.00     0.118 C 
BRANCH  24  25
ATOM     25  N   UNL A   1      39.216  21.873  26.789  1.00  0.00    -0.352 N 
ATOM     26  C   UNL A   1      40.311  22.453  27.438  1.00  0.00     0.251 C 
ATOM     27  H   UNL A   1      39.031  20.932  27.014  1.00  0.00     0.163 HD
ATOM     28  O   UNL A   1      41.175  21.783  27.964  1.00  0.00    -0.269 OA
BRANCH  26  29
ATOM     29  C   UNL A   1      40.338  23.927  27.489  1.00  0.00     0.039 A 
ATOM     30  C   UNL A   1      39.202  24.743  27.493  1.00  0.00     0.014 A 
ATOM     31  C   UNL A   1      41.580  24.431  27.801  1.00  0.00     0.014 A 
ATOM     32  C   UNL A   1      39.346  26.058  27.947  1.00  0.00     0.010 A 
ATOM     33  C   UNL A   1      41.585  25.499  28.634  1.00  0.00     0.010 A 
ATOM     34  C   UNL A   1      40.556  26.414  28.555  1.00  0.00    -0.014 A 
BRANCH  34  35
ATOM     35  C   UNL A   1      40.846  27.675  29.217  1.00  0.00     0.031 A 
ATOM     36  C   UNL A   1      41.877  28.503  28.548  1.00  0.00     0.074 A 
ATOM     37  C   UNL A   1      40.010  28.178  30.159  1.00  0.00     0.049 A 
ATOM     38  N   UNL A   1      43.103  28.669  28.913  1.00  0.00    -0.248 NA
ATOM     39  C   UNL A   1      41.577  29.059  27.217  1.00  0.00     0.031 C 
ATOM     40  C   UNL A   1      38.728  27.643  30.660  1.00  0.00     0.029 A 
ATOM     41  N   UNL A   1      40.085  29.369  30.803  1.00  0.00    -0.354 N 
ATOM     42  C   UNL A   1      43.643  29.582  28.012  1.00  0.00     0.074 A 
ATOM     43  C   UNL A   1      42.762  29.572  26.875  1.00  0.00     0.031 C 
ATOM     44  C   UNL A   1      38.050  28.603  31.323  1.00  0.00     0.029 A 
ATOM     45  C   UNL A   1      38.925  29.744  31.479  1.00  0.00     0.049 A 
ATOM     46  H   UNL A   1      40.896  29.926  30.793  1.00  0.00     0.167 HD
ATOM     47  C   UNL A   1      44.610  30.463  28.399  1.00  0.00     0.037 A 
ATOM     48  C   UNL A   1      38.714  30.925  32.113  1.00  0.00     0.037 A 
ATOM     49  C   UNL A   1      45.113  30.115  29.711  1.00  0.00     0.049 A 
ATOM     50  C   UNL A   1      40.065  31.498  32.381  1.00  0.00     0.074 A 
ATOM     51  C   UNL A   1      45.712  28.994  30.252  1.00  0.00     0.029 A 
ATOM     52  N   UNL A   1      44.627  30.829  30.785  1.00  0.00    -0.354 N 
ATOM     53  N   UNL A   1      40.943  30.927  33.169  1.00  0.00    -0.248 NA
ATOM     54  C   UNL A   1      40.625  32.383  31.370  1.00  0.00     0.031 C 
ATOM     55  C   UNL A   1      45.111  28.842  31.537  1.00  0.00     0.029 A 
ATOM     56  C   UNL A   1      44.258  29.927  31.752  1.00  0.00     0.049 A 
ATOM     57  H   UNL A   1      44.557  31.809  30.848  1.00  0.00     0.167 HD
ATOM     58  C   UNL A   1      42.159  31.044  32.505  1.00  0.00     0.074 A 
ATOM     59  C   UNL A   1      41.906  32.004  31.428  1.00  0.00     0.031 C 
ATOM     60  C   UNL A   1      43.167  30.134  32.686  1.00  0.00     0.037 A 
BRANCH  47  61
ATOM     61  C   UNL A   1      44.848  31.830  27.799  1.00  0.00     0.058 A 
ATOM     62  C   UNL A   1      46.066  32.073  27.129  1.00  0.00     0.135 A 
ATOM     63  C   UNL A   1      44.068  32.975  28.070  1.00  0.00     0.135 A 
ATOM     64  F   UNL A   1      46.885  31.059  26.805  1.00  0.00    -0.206 F 
ATOM     65  C   UNL A   1      46.518  33.360  26.838  1.00  0.00     0.059 A 
ATOM     66  C   UNL A   1      44.475  34.264  27.738  1.00  0.00     0.059 A 
ATOM     67  F   UNL A   1      42.920  32.920  28.753  1.00  0.00    -0.206 F 
ATOM     68  C   UNL A   1      45.720  34.451  27.166  1.00  0.00     0.060 A 
BRANCH  68  69
ATOM     69  S   UNL A   1      46.349  36.116  26.897  1.00  0.00     0.124 S 
ATOM     70  O   UNL A   1      46.999  35.975  25.599  1.00  0.00    -0.237 OA
ATOM     71  O   UNL A   1      45.123  36.908  26.917  1.00  0.00    -0.237 OA
ATOM     72  O   UNL A   1      47.243  36.325  28.032  1.00  0.00    -0.744 OA
ENDBRANCH  68  69
ENDBRANCH  47  61
BRANCH  48  73
ATOM     73  C   UNL A   1      37.457  31.724  32.110  1.00  0.00     0.058 A 
ATOM     74  C   UNL A   1      36.817  32.101  33.303  1.00  0.00     0.135 A 
ATOM     75  C   UNL A   1      36.998  32.361  30.936  1.00  0.00     0.135 A 
ATOM     76  F   UNL A   1      37.202  31.565  34.471  1.00  0.00    -0.206 F 
ATOM     77  C   UNL A   1      35.812  33.080  33.337  1.00  0.00     0.059 A 
ATOM     78  C   UNL A   1      35.996  33.331  30.943  1.00  0.00     0.059 A 
ATOM     79  F   UNL A   1      37.577  32.119  29.750  1.00  0.00    -0.206 F 
ATOM     80  C   UNL A   1      35.423  33.704  32.151  1.00  0.00     0.060 A 
BRANCH  80  81
ATOM     81  S   UNL A   1      34.250  35.083  32.208  1.00  0.00     0.124 S 
ATOM     82  O   UNL A   1      34.983  36.072  32.989  1.00  0.00    -0.237 OA
ATOM     83  O   UNL A   1      34.069  35.392  30.793  1.00  0.00    -0.237 OA
ATOM     84  O   UNL A   1      33.082  34.505  32.869  1.00  0.00    -0.744 OA
ENDBRANCH  80  81
ENDBRANCH  48  73
BRANCH  60  85
ATOM     85  C   UNL A   1      43.046  29.127  33.809  1.00  0.00     0.058 A 
ATOM     86  C   UNL A   1      43.311  29.402  35.165  1.00  0.00     0.135 A 
ATOM     87  C   UNL A   1      42.464  27.884  33.522  1.00  0.00     0.135 A 
ATOM     88  F   UNL A   1      43.769  30.598  35.549  1.00  0.00    -0.206 F 
ATOM     89  C   UNL A   1      43.045  28.474  36.177  1.00  0.00     0.059 A 
ATOM     90  C   UNL A   1      42.161  26.957  34.516  1.00  0.00     0.059 A 
ATOM     91  F   UNL A   1      42.123  27.582  32.258  1.00  0.00    -0.206 F 
ATOM     92  C   UNL A   1      42.468  27.252  35.841  1.00  0.00     0.060 A 
BRANCH  92  93
ATOM     93  S   UNL A   1      42.065  26.076  37.153  1.00  0.00     0.124 S 
ATOM     94  O   UNL A   1      40.674  26.407  37.444  1.00  0.00    -0.237 OA
ATOM     95  O   UNL A   1      42.287  24.788  36.503  1.00  0.00    -0.237 OA
ATOM     96  O   UNL A   1      43.019  26.403  38.210  1.00  0.00    -0.744 OA
ENDBRANCH  92  93
ENDBRANCH  60  85
ENDBRANCH  34  35
ENDBRANCH  26  29
ENDBRANCH  24  25
ENDBRANCH   1  24
TORSDOF 17
ENDMDL
MODEL 3
REMARK VINA RESULT:     -12.1      3.335      8.063
REMARK SMILES CCCc1c(C(=O)NCCCNC(=O)c2ccc(-c3c4nc(c(-c5c(F)cc(S(=O)(=O)[O-])cc5F)c5ccc([nH]5)c(-c5c(F)cc(S(=O)(=O)[O-])cc5F)c5nc(c(-c6c(F)cc(S(=O)(=O)[O-])cc6F)c6ccc3[nH]6)C=C5)C=C4)cc2)nnn1-c1ccccc1[N+](=O)[O-]
REMARK SMILES IDX 10 1 9 2 8 3 6 4 7 5 5 7 4 8 83 9 81 10 82 11 3 12 2 13 1 14
REMARK SMILES IDX 84 15 85 16 89 17 86 18 88 19 87 20 90 21 91 22 92 23 11 24
REMARK SMILES IDX 12 25 13 26 14 28 15 29 16 30 80 31 17 32 79 33 18 34 19 35
REMARK SMILES IDX 20 36 73 37 21 38 78 39 72 40 74 41 22 42 77 43 71 44 70 45
REMARK SMILES IDX 23 47 57 48 36 49 56 50 37 51 40 52 55 53 75 54 38 55 39 56
REMARK SMILES IDX 54 58 76 59 41 60 24 61 25 62 34 63 26 64 27 65 33 66 35 67
REMARK SMILES IDX 28 68 29 69 30 70 31 71 32 72 58 73 59 74 68 75 60 76 61 77
REMARK SMILES IDX 67 78 69 79 62 80 63 81 64 82 65 83 66 84 42 85 43 86 52 87
REMARK SMILES IDX 44 88 45 89 51 90 53 91 46 92 47 93 48 94 49 95 50 96
REMARK H PARENT 8 6 12 27 74 46 40 57
REMARK Flexibility Score: inf
ROOT
ATOM      1  C   UNL A   1      37.488  21.350  24.760  1.00  0.00     0.042 C 
ENDROOT
BRANCH   1   2
ATOM      2  C   UNL A   1      36.254  21.667  25.601  1.00  0.00     0.118 C 
BRANCH   2   3
ATOM      3  N   UNL A   1      35.222  20.677  25.551  1.00  0.00    -0.351 N 
ATOM      4  C   UNL A   1      34.044  20.623  24.857  1.00  0.00     0.273 C 
ATOM      5  O   UNL A   1      33.566  19.486  24.781  1.00  0.00    -0.267 OA
ATOM      6  H   UNL A   1      35.391  19.890  26.118  1.00  0.00     0.163 HD
BRANCH   4   7
ATOM      7  C   UNL A   1      33.322  21.766  24.266  1.00  0.00     0.174 A 
ATOM      8  C   UNL A   1      33.090  23.132  24.522  1.00  0.00     0.078 A 
ATOM      9  N   UNL A   1      32.202  23.494  23.497  1.00  0.00    -0.210 N 
ATOM     10  N   UNL A   1      32.554  21.411  23.166  1.00  0.00    -0.124 NA
ATOM     11  N   UNL A   1      31.810  22.425  22.797  1.00  0.00    -0.061 NA
BRANCH   8  12
ATOM     12  C   UNL A   1      33.350  24.093  25.646  1.00  0.00     0.059 C 
BRANCH  12  13
ATOM     13  C   UNL A   1      34.206  25.360  25.464  1.00  0.00     0.003 C 
ATOM     14  C   UNL A   1      33.641  26.729  25.832  1.00  0.00     0.004 C 
ENDBRANCH  12  13
ENDBRANCH   8  12
BRANCH   9  15
ATOM     15  C   UNL A   1      31.520  24.715  23.295  1.00  0.00     0.144 A 
ATOM     16  C   UNL A   1      30.313  24.908  23.990  1.00  0.00     0.036 A 
ATOM     17  C   UNL A   1      32.012  25.738  22.479  1.00  0.00     0.294 A 
ATOM     18  C   UNL A   1      29.651  26.135  23.915  1.00  0.00     0.003 A 
ATOM     19  C   UNL A   1      31.346  26.970  22.406  1.00  0.00     0.088 A 
ATOM     20  C   UNL A   1      30.173  27.167  23.134  1.00  0.00     0.007 A 
BRANCH  17  21
ATOM     21  N   UNL A   1      33.149  25.541  21.589  1.00  0.00     0.065 N 
ATOM     22  O   UNL A   1      34.276  25.598  22.099  1.00  0.00    -0.258 OA
ATOM     23  O   UNL A   1      32.916  25.351  20.391  1.00  0.00    -0.258 OA
ENDBRANCH  17  21
ENDBRANCH   9  15
ENDBRANCH   4   7
ENDBRANCH   2   3
ENDBRANCH   1   2
BRANCH   1  24
ATOM     24  C   UNL A   1      38.741  21.375  25.607  1.00  0.00     0.118 C 
BRANCH  24  25
ATOM     25  N   UNL A   1      39.389  20.052  25.749  1.00  0.00    -0.352 N 
ATOM     26  C   UNL A   1      40.745  19.771  25.944  1.00  0.00     0.251 C 
ATOM     27  H   UNL A   1      38.790  19.272  25.700  1.00  0.00     0.163 HD
ATOM     28  O   UNL A   1      41.212  18.671  25.728  1.00  0.00    -0.269 OA
BRANCH  26  29
ATOM     29  C   UNL A   1      41.573  20.871  26.473  1.00  0.00     0.039 A 
ATOM     30  C   UNL A   1      42.212  21.835  25.687  1.00  0.00     0.014 A 
ATOM     31  C   UNL A   1      41.450  21.030  27.835  1.00  0.00     0.014 A 
ATOM     32  C   UNL A   1      42.610  23.023  26.306  1.00  0.00     0.010 A 
ATOM     33  C   UNL A   1      41.420  22.310  28.275  1.00  0.00     0.010 A 
ATOM     34  C   UNL A   1      42.169  23.262  27.614  1.00  0.00    -0.014 A 
BRANCH  34  35
ATOM     35  C   UNL A   1      42.349  24.489  28.370  1.00  0.00     0.031 A 
ATOM     36  C   UNL A   1      41.234  25.458  28.255  1.00  0.00     0.074 A 
ATOM     37  C   UNL A   1      43.290  24.578  29.344  1.00  0.00     0.049 A 
ATOM     38  N   UNL A   1      41.213  26.546  27.561  1.00  0.00    -0.248 NA
ATOM     39  C   UNL A   1      39.922  25.089  28.813  1.00  0.00     0.031 C 
ATOM     40  C   UNL A   1      44.229  23.553  29.840  1.00  0.00     0.029 A 
ATOM     41  N   UNL A   1      43.527  25.607  30.195  1.00  0.00    -0.354 N 
ATOM     42  C   UNL A   1      39.984  27.140  27.830  1.00  0.00     0.074 A 
ATOM     43  C   UNL A   1      39.159  26.094  28.374  1.00  0.00     0.031 C 
ATOM     44  C   UNL A   1      44.742  23.927  31.030  1.00  0.00     0.029 A 
ATOM     45  C   UNL A   1      44.341  25.294  31.282  1.00  0.00     0.049 A 
ATOM     46  H   UNL A   1      43.155  26.507  30.054  1.00  0.00     0.167 HD
ATOM     47  C   UNL A   1      39.847  28.497  27.838  1.00  0.00     0.037 A 
ATOM     48  C   UNL A   1      44.645  26.115  32.318  1.00  0.00     0.037 A 
ATOM     49  C   UNL A   1      41.031  29.127  27.295  1.00  0.00     0.049 A 
ATOM     50  C   UNL A   1      44.387  27.502  31.835  1.00  0.00     0.074 A 
ATOM     51  C   UNL A   1      41.698  29.055  26.087  1.00  0.00     0.029 A 
ATOM     52  N   UNL A   1      41.945  29.638  28.191  1.00  0.00    -0.354 N 
ATOM     53  N   UNL A   1      45.055  28.056  30.853  1.00  0.00    -0.248 NA
ATOM     54  C   UNL A   1      43.059  28.052  32.066  1.00  0.00     0.031 C 
ATOM     55  C   UNL A   1      43.081  29.033  26.433  1.00  0.00     0.029 A 
ATOM     56  C   UNL A   1      43.189  29.193  27.816  1.00  0.00     0.049 A 
ATOM     57  H   UNL A   1      41.742  30.217  28.961  1.00  0.00     0.167 HD
ATOM     58  C   UNL A   1      44.100  28.717  30.088  1.00  0.00     0.074 A 
ATOM     59  C   UNL A   1      42.896  28.725  30.922  1.00  0.00     0.031 C 
ATOM     60  C   UNL A   1      44.270  28.921  28.745  1.00  0.00     0.037 A 
BRANCH  47  61
ATOM     61  C   UNL A   1      38.843  29.276  28.657  1.00  0.00     0.058 A 
ATOM     62  C   UNL A   1      37.933  30.122  27.989  1.00  0.00     0.135 A 
ATOM     63  C   UNL A   1      38.899  29.436  30.059  1.00  0.00     0.135 A 
ATOM     64  F   UNL A   1      37.782  30.049  26.656  1.00  0.00    -0.206 F 
ATOM     65  C   UNL A   1      37.207  31.114  28.648  1.00  0.00     0.059 A 
ATOM     66  C   UNL A   1      38.142  30.382  30.743  1.00  0.00     0.059 A 
ATOM     67  F   UNL A   1      39.755  28.756  30.829  1.00  0.00    -0.206 F 
ATOM     68  C   UNL A   1      37.335  31.247  30.026  1.00  0.00     0.060 A 
BRANCH  68  69
ATOM     69  S   UNL A   1      36.490  32.597  30.864  1.00  0.00     0.124 S 
ATOM     70  O   UNL A   1      35.768  31.882  31.911  1.00  0.00    -0.237 OA
ATOM     71  O   UNL A   1      37.607  33.424  31.307  1.00  0.00    -0.237 OA
ATOM     72  O   UNL A   1      35.663  33.181  29.812  1.00  0.00    -0.744 OA
ENDBRANCH  68  69
ENDBRANCH  47  61
BRANCH  48  73
ATOM     73  C   UNL A   1      44.734  25.738  33.757  1.00  0.00     0.058 A 
ATOM     74  C   UNL A   1      45.964  25.689  34.434  1.00  0.00     0.135 A 
ATOM     75  C   UNL A   1      43.580  25.671  34.568  1.00  0.00     0.135 A 
ATOM     76  F   UNL A   1      47.114  25.769  33.747  1.00  0.00    -0.206 F 
ATOM     77  C   UNL A   1      46.046  25.622  35.833  1.00  0.00     0.059 A 
ATOM     78  C   UNL A   1      43.636  25.596  35.959  1.00  0.00     0.059 A 
ATOM     79  F   UNL A   1      42.354  25.766  34.031  1.00  0.00    -0.206 F 
ATOM     80  C   UNL A   1      44.873  25.595  36.589  1.00  0.00     0.060 A 
BRANCH  80  81
ATOM     81  S   UNL A   1      44.969  25.677  38.396  1.00  0.00     0.124 S 
ATOM     82  O   UNL A   1      46.250  26.343  38.601  1.00  0.00    -0.237 OA
ATOM     83  O   UNL A   1      43.783  26.458  38.732  1.00  0.00    -0.237 OA
ATOM     84  O   UNL A   1      44.923  24.274  38.800  1.00  0.00    -0.744 OA
ENDBRANCH  80  81
ENDBRANCH  48  73
BRANCH  60  85
ATOM     85  C   UNL A   1      45.625  28.643  28.132  1.00  0.00     0.058 A 
ATOM     86  C   UNL A   1      46.009  27.416  27.555  1.00  0.00     0.135 A 
ATOM     87  C   UNL A   1      46.505  29.721  27.960  1.00  0.00     0.135 A 
ATOM     88  F   UNL A   1      45.190  26.359  27.576  1.00  0.00    -0.206 F 
ATOM     89  C   UNL A   1      47.221  27.262  26.876  1.00  0.00     0.059 A 
ATOM     90  C   UNL A   1      47.704  29.599  27.261  1.00  0.00     0.059 A 
ATOM     91  F   UNL A   1      46.173  30.937  28.425  1.00  0.00    -0.206 F 
ATOM     92  C   UNL A   1      48.063  28.361  26.733  1.00  0.00     0.060 A 
BRANCH  92  93
ATOM     93  S   UNL A   1      49.602  28.181  25.802  1.00  0.00     0.124 S 
ATOM     94  O   UNL A   1      49.115  27.985  24.441  1.00  0.00    -0.237 OA
ATOM     95  O   UNL A   1      50.278  29.449  26.057  1.00  0.00    -0.237 OA
ATOM     96  O   UNL A   1      50.235  27.014  26.412  1.00  0.00    -0.744 OA
ENDBRANCH  92  93
ENDBRANCH  60  85
ENDBRANCH  34  35
ENDBRANCH  26  29
ENDBRANCH  24  25
ENDBRANCH   1  24
TORSDOF 17
ENDMDL
