MODEL 1
REMARK VINA RESULT:     -10.0      0.000      0.000
REMARK SMILES CC(C)OCCS(=O)(=O)N[C@@H]1COC[C@@H]1C(=O)NCCCNC(=O)c1ccc(-c2c3nc(c(-c4c(F)cc(S(=O)(=O)[O-])cc4F)c4ccc([nH]4)c(-c4c(F)cc(S(=O)(=O)[O-])cc4F)c4nc(c(-c5c(F)cc(S(=O)(=O)[O-])cc5F)c5ccc2[nH]5)C=C4)C=C3)cc1
REMARK SMILES IDX 16 1 17 2 18 3 15 5 11 6 12 7 13 8 14 9 10 10 7 12 8 13 9 14
REMARK SMILES IDX 6 15 5 16 4 17 2 18 1 19 3 20 19 21 20 22 21 23 22 24 23 25
REMARK SMILES IDX 24 27 25 28 26 29 90 30 27 31 89 32 28 33 29 34 30 35 83 36
REMARK SMILES IDX 31 37 88 38 82 39 84 40 32 41 87 42 81 43 80 44 33 46 67 47
REMARK SMILES IDX 46 48 66 49 47 50 50 51 65 52 85 53 48 54 49 55 64 57 86 58
REMARK SMILES IDX 51 59 34 60 35 61 44 62 36 63 37 64 43 65 45 66 38 67 39 68
REMARK SMILES IDX 40 69 41 70 42 71 68 72 69 73 78 74 70 75 71 76 77 77 79 78
REMARK SMILES IDX 72 79 73 80 74 81 75 82 76 83 52 84 53 85 62 86 54 87 55 88
REMARK SMILES IDX 61 89 63 90 56 91 57 92 58 93 59 94 60 95
REMARK H PARENT 18 4 10 11 22 26 84 45 50 56
REMARK Flexibility Score: inf
ROOT
ATOM      1  C   UNL A   1      33.489  25.459  24.744  1.00  0.00     0.227 C 
ATOM      2  O   UNL A   1      34.665  25.207  24.488  1.00  0.00    -0.275 OA
ATOM      3  N   UNL A   1      33.174  26.128  25.891  1.00  0.00    -0.356 N 
ATOM      4  H   UNL A   1      33.934  26.340  26.480  1.00  0.00     0.163 HD
ENDROOT
BRANCH   1   5
ATOM      5  C   UNL A   1      32.353  25.080  23.831  1.00  0.00     0.124 C 
ATOM      6  C   UNL A   1      32.413  23.689  23.245  1.00  0.00     0.110 C 
ATOM      7  C   UNL A   1      33.343  23.889  22.054  1.00  0.00     0.181 C 
ATOM      8  O   UNL A   1      33.077  25.206  21.549  1.00  0.00    -0.379 OA
ATOM      9  C   UNL A   1      32.407  25.951  22.579  1.00  0.00     0.175 C 
BRANCH   6  10
ATOM     10  N   UNL A   1      32.820  22.551  24.101  1.00  0.00    -0.209 NA
ATOM     11  H   UNL A   1      32.934  21.756  23.471  1.00  0.00     0.141 HD
BRANCH  10  12
ATOM     12  S   UNL A   1      31.907  21.983  25.394  1.00  0.00     0.214 S 
ATOM     13  O   UNL A   1      31.791  20.544  25.277  1.00  0.00    -0.212 OA
ATOM     14  O   UNL A   1      30.727  22.815  25.361  1.00  0.00    -0.212 OA
BRANCH  12  15
ATOM     15  C   UNL A   1      32.806  22.437  26.890  1.00  0.00     0.182 C 
BRANCH  15  16
ATOM     16  C   UNL A   1      34.222  21.884  26.988  1.00  0.00     0.178 C 
BRANCH  16  17
ATOM     17  O   UNL A   1      35.153  22.427  26.044  1.00  0.00    -0.378 OA
BRANCH  17  18
ATOM     18  C   UNL A   1      36.037  21.552  25.343  1.00  0.00     0.112 C 
ATOM     19  C   UNL A   1      35.437  20.202  24.969  1.00  0.00     0.038 C 
ATOM     20  C   UNL A   1      36.688  22.308  24.190  1.00  0.00     0.038 C 
ENDBRANCH  17  18
ENDBRANCH  16  17
ENDBRANCH  15  16
ENDBRANCH  12  15
ENDBRANCH  10  12
ENDBRANCH   6  10
ENDBRANCH   1   5
BRANCH   3  21
ATOM     21  C   UNL A   1      31.870  26.575  26.365  1.00  0.00     0.117 C 
BRANCH  21  22
ATOM     22  C   UNL A   1      31.947  27.858  27.180  1.00  0.00     0.042 C 
BRANCH  22  23
ATOM     23  C   UNL A   1      33.352  28.439  27.284  1.00  0.00     0.118 C 
BRANCH  23  24
ATOM     24  N   UNL A   1      33.350  29.865  27.596  1.00  0.00    -0.352 N 
ATOM     25  C   UNL A   1      34.311  30.650  28.177  1.00  0.00     0.251 C 
ATOM     26  H   UNL A   1      32.524  30.340  27.349  1.00  0.00     0.163 HD
ATOM     27  O   UNL A   1      34.030  31.790  28.535  1.00  0.00    -0.269 OA
BRANCH  25  28
ATOM     28  C   UNL A   1      35.664  30.109  28.394  1.00  0.00     0.039 A 
ATOM     29  C   UNL A   1      36.566  30.100  27.329  1.00  0.00     0.014 A 
ATOM     30  C   UNL A   1      36.047  29.638  29.651  1.00  0.00     0.014 A 
ATOM     31  C   UNL A   1      37.883  29.700  27.551  1.00  0.00     0.010 A 
ATOM     32  C   UNL A   1      37.379  29.325  29.891  1.00  0.00     0.010 A 
ATOM     33  C   UNL A   1      38.311  29.361  28.844  1.00  0.00    -0.014 A 
BRANCH  33  34
ATOM     34  C   UNL A   1      39.738  29.076  29.131  1.00  0.00     0.031 A 
ATOM     35  C   UNL A   1      40.632  30.158  29.667  1.00  0.00     0.074 A 
ATOM     36  C   UNL A   1      40.239  27.862  28.823  1.00  0.00     0.049 A 
ATOM     37  N   UNL A   1      41.917  30.120  29.903  1.00  0.00    -0.248 NA
ATOM     38  C   UNL A   1      40.009  31.462  29.948  1.00  0.00     0.031 C 
ATOM     39  C   UNL A   1      39.479  26.757  28.231  1.00  0.00     0.029 A 
ATOM     40  N   UNL A   1      41.509  27.357  28.946  1.00  0.00    -0.354 N 
ATOM     41  C   UNL A   1      42.260  31.394  30.338  1.00  0.00     0.074 A 
ATOM     42  C   UNL A   1      41.059  32.197  30.292  1.00  0.00     0.031 C 
ATOM     43  C   UNL A   1      40.291  25.703  28.058  1.00  0.00     0.029 A 
ATOM     44  C   UNL A   1      41.639  26.068  28.485  1.00  0.00     0.049 A 
ATOM     45  H   UNL A   1      42.257  27.869  29.329  1.00  0.00     0.167 HD
ATOM     46  C   UNL A   1      43.466  31.845  30.758  1.00  0.00     0.037 A 
ATOM     47  C   UNL A   1      42.724  25.274  28.398  1.00  0.00     0.037 A 
ATOM     48  C   UNL A   1      44.647  31.026  30.832  1.00  0.00     0.049 A 
ATOM     49  C   UNL A   1      44.047  25.797  28.884  1.00  0.00     0.074 A 
ATOM     50  C   UNL A   1      45.892  31.359  31.335  1.00  0.00     0.029 A 
ATOM     51  N   UNL A   1      44.733  29.716  30.386  1.00  0.00    -0.354 N 
ATOM     52  N   UNL A   1      44.331  26.975  29.389  1.00  0.00    -0.248 NA
ATOM     53  C   UNL A   1      45.196  24.887  28.795  1.00  0.00     0.031 C 
ATOM     54  C   UNL A   1      46.746  30.270  31.142  1.00  0.00     0.029 A 
ATOM     55  C   UNL A   1      46.021  29.239  30.568  1.00  0.00     0.049 A 
ATOM     56  H   UNL A   1      43.989  29.201  29.997  1.00  0.00     0.167 HD
ATOM     57  C   UNL A   1      45.687  26.942  29.688  1.00  0.00     0.074 A 
ATOM     58  C   UNL A   1      46.161  25.620  29.333  1.00  0.00     0.031 C 
ATOM     59  C   UNL A   1      46.474  27.920  30.204  1.00  0.00     0.037 A 
BRANCH  46  60
ATOM     60  C   UNL A   1      43.575  33.285  31.177  1.00  0.00     0.058 A 
ATOM     61  C   UNL A   1      43.327  33.691  32.498  1.00  0.00     0.135 A 
ATOM     62  C   UNL A   1      44.004  34.260  30.262  1.00  0.00     0.135 A 
ATOM     63  F   UNL A   1      42.899  32.803  33.409  1.00  0.00    -0.206 F 
ATOM     64  C   UNL A   1      43.486  35.014  32.894  1.00  0.00     0.059 A 
ATOM     65  C   UNL A   1      44.195  35.586  30.643  1.00  0.00     0.059 A 
ATOM     66  F   UNL A   1      44.250  33.928  28.985  1.00  0.00    -0.206 F 
ATOM     67  C   UNL A   1      43.927  35.954  31.961  1.00  0.00     0.060 A 
BRANCH  67  68
ATOM     68  S   UNL A   1      44.166  37.659  32.504  1.00  0.00     0.124 S 
ATOM     69  O   UNL A   1      45.559  37.632  32.941  1.00  0.00    -0.237 OA
ATOM     70  O   UNL A   1      43.899  38.413  31.283  1.00  0.00    -0.237 OA
ATOM     71  O   UNL A   1      43.178  37.820  33.565  1.00  0.00    -0.744 OA
ENDBRANCH  67  68
ENDBRANCH  46  60
BRANCH  47  72
ATOM     72  C   UNL A   1      42.604  23.908  27.821  1.00  0.00     0.058 A 
ATOM     73  C   UNL A   1      42.628  23.700  26.435  1.00  0.00     0.135 A 
ATOM     74  C   UNL A   1      42.464  22.781  28.647  1.00  0.00     0.135 A 
ATOM     75  F   UNL A   1      42.756  24.744  25.603  1.00  0.00    -0.206 F 
ATOM     76  C   UNL A   1      42.493  22.428  25.885  1.00  0.00     0.059 A 
ATOM     77  C   UNL A   1      42.356  21.497  28.123  1.00  0.00     0.059 A 
ATOM     78  F   UNL A   1      42.454  22.922  29.982  1.00  0.00    -0.206 F 
ATOM     79  C   UNL A   1      42.358  21.333  26.739  1.00  0.00     0.060 A 
BRANCH  79  80
ATOM     80  S   UNL A   1      42.217  19.683  26.018  1.00  0.00     0.124 S 
ATOM     81  O   UNL A   1      40.806  19.641  25.654  1.00  0.00    -0.237 OA
ATOM     82  O   UNL A   1      43.163  19.752  24.909  1.00  0.00    -0.237 OA
ATOM     83  O   UNL A   1      42.614  18.804  27.114  1.00  0.00    -0.744 OA
ENDBRANCH  79  80
ENDBRANCH  47  72
BRANCH  59  84
ATOM     84  C   UNL A   1      47.925  27.594  30.424  1.00  0.00     0.058 A 
ATOM     85  C   UNL A   1      48.352  26.872  31.549  1.00  0.00     0.135 A 
ATOM     86  C   UNL A   1      48.891  27.960  29.472  1.00  0.00     0.135 A 
ATOM     87  F   UNL A   1      47.470  26.505  32.492  1.00  0.00    -0.206 F 
ATOM     88  C   UNL A   1      49.690  26.541  31.733  1.00  0.00     0.059 A 
ATOM     89  C   UNL A   1      50.230  27.614  29.622  1.00  0.00     0.059 A 
ATOM     90  F   UNL A   1      48.533  28.644  28.374  1.00  0.00    -0.206 F 
ATOM     91  C   UNL A   1      50.621  26.913  30.761  1.00  0.00     0.060 A 
BRANCH  91  92
ATOM     92  S   UNL A   1      52.348  26.444  30.997  1.00  0.00     0.124 S 
ATOM     93  O   UNL A   1      52.736  26.064  29.642  1.00  0.00    -0.237 OA
ATOM     94  O   UNL A   1      52.940  27.678  31.503  1.00  0.00    -0.237 OA
ATOM     95  O   UNL A   1      52.275  25.349  31.959  1.00  0.00    -0.744 OA
ENDBRANCH  91  92
ENDBRANCH  59  84
ENDBRANCH  33  34
ENDBRANCH  25  28
ENDBRANCH  23  24
ENDBRANCH  22  23
ENDBRANCH  21  22
ENDBRANCH   3  21
TORSDOF 19
ENDMDL
MODEL 2
REMARK VINA RESULT:     -10.0      5.022     10.416
REMARK SMILES CC(C)OCCS(=O)(=O)N[C@@H]1COC[C@@H]1C(=O)NCCCNC(=O)c1ccc(-c2c3nc(c(-c4c(F)cc(S(=O)(=O)[O-])cc4F)c4ccc([nH]4)c(-c4c(F)cc(S(=O)(=O)[O-])cc4F)c4nc(c(-c5c(F)cc(S(=O)(=O)[O-])cc5F)c5ccc2[nH]5)C=C4)C=C3)cc1
REMARK SMILES IDX 16 1 17 2 18 3 15 5 11 6 12 7 13 8 14 9 10 10 7 12 8 13 9 14
REMARK SMILES IDX 6 15 5 16 4 17 2 18 1 19 3 20 19 21 20 22 21 23 22 24 23 25
REMARK SMILES IDX 24 27 25 28 26 29 90 30 27 31 89 32 28 33 29 34 30 35 83 36
REMARK SMILES IDX 31 37 88 38 82 39 84 40 32 41 87 42 81 43 80 44 33 46 67 47
REMARK SMILES IDX 46 48 66 49 47 50 50 51 65 52 85 53 48 54 49 55 64 57 86 58
REMARK SMILES IDX 51 59 34 60 35 61 44 62 36 63 37 64 43 65 45 66 38 67 39 68
REMARK SMILES IDX 40 69 41 70 42 71 68 72 69 73 78 74 70 75 71 76 77 77 79 78
REMARK SMILES IDX 72 79 73 80 74 81 75 82 76 83 52 84 53 85 62 86 54 87 55 88
REMARK SMILES IDX 61 89 63 90 56 91 57 92 58 93 59 94 60 95
REMARK H PARENT 18 4 10 11 22 26 84 45 50 56
REMARK Flexibility Score: inf
ROOT
ATOM      1  C   UNL A   1      34.414  22.169  26.741  1.00  0.00     0.227 C 
ATOM      2  O   UNL A   1      33.990  21.432  27.629  1.00  0.00    -0.275 OA
ATOM      3  N   UNL A   1      35.525  22.930  26.964  1.00  0.00    -0.356 N 
ATOM      4  H   UNL A   1      35.907  22.866  27.870  1.00  0.00     0.163 HD
ENDROOT
BRANCH   1   5
ATOM      5  C   UNL A   1      33.772  22.266  25.382  1.00  0.00     0.124 C 
ATOM      6  C   UNL A   1      32.347  21.777  25.289  1.00  0.00     0.110 C 
ATOM      7  C   UNL A   1      32.539  20.274  25.124  1.00  0.00     0.181 C 
ATOM      8  O   UNL A   1      33.737  20.102  24.351  1.00  0.00    -0.379 OA
ATOM      9  C   UNL A   1      34.492  21.323  24.422  1.00  0.00     0.175 C 
BRANCH   6  10
ATOM     10  N   UNL A   1      31.385  22.113  26.365  1.00  0.00    -0.209 NA
ATOM     11  H   UNL A   1      30.533  21.596  26.147  1.00  0.00     0.141 HD
BRANCH  10  12
ATOM     12  S   UNL A   1      30.893  23.681  26.719  1.00  0.00     0.214 S 
ATOM     13  O   UNL A   1      31.922  24.317  27.515  1.00  0.00    -0.212 OA
ATOM     14  O   UNL A   1      29.563  23.501  27.254  1.00  0.00    -0.212 OA
BRANCH  12  15
ATOM     15  C   UNL A   1      30.693  24.521  25.136  1.00  0.00     0.182 C 
BRANCH  15  16
ATOM     16  C   UNL A   1      29.953  25.851  25.197  1.00  0.00     0.178 C 
BRANCH  16  17
ATOM     17  O   UNL A   1      30.781  26.996  25.433  1.00  0.00    -0.378 OA
BRANCH  17  18
ATOM     18  C   UNL A   1      31.049  27.905  24.364  1.00  0.00     0.112 C 
ATOM     19  C   UNL A   1      29.934  28.023  23.332  1.00  0.00     0.038 C 
ATOM     20  C   UNL A   1      31.539  29.230  24.937  1.00  0.00     0.038 C 
ENDBRANCH  17  18
ENDBRANCH  16  17
ENDBRANCH  15  16
ENDBRANCH  12  15
ENDBRANCH  10  12
ENDBRANCH   6  10
ENDBRANCH   1   5
BRANCH   3  21
ATOM     21  C   UNL A   1      36.226  23.823  26.050  1.00  0.00     0.117 C 
BRANCH  21  22
ATOM     22  C   UNL A   1      37.691  23.453  25.872  1.00  0.00     0.042 C 
BRANCH  22  23
ATOM     23  C   UNL A   1      38.654  24.382  26.601  1.00  0.00     0.118 C 
BRANCH  23  24
ATOM     24  N   UNL A   1      39.979  24.412  25.990  1.00  0.00    -0.352 N 
ATOM     25  C   UNL A   1      41.079  25.173  26.287  1.00  0.00     0.251 C 
ATOM     26  H   UNL A   1      40.103  23.783  25.243  1.00  0.00     0.163 HD
ATOM     27  O   UNL A   1      42.035  25.186  25.517  1.00  0.00    -0.269 OA
BRANCH  25  28
ATOM     28  C   UNL A   1      41.093  25.992  27.512  1.00  0.00     0.039 A 
ATOM     29  C   UNL A   1      42.099  26.947  27.673  1.00  0.00     0.014 A 
ATOM     30  C   UNL A   1      40.103  25.834  28.483  1.00  0.00     0.014 A 
ATOM     31  C   UNL A   1      42.058  27.805  28.771  1.00  0.00     0.010 A 
ATOM     32  C   UNL A   1      40.013  26.747  29.526  1.00  0.00     0.010 A 
ATOM     33  C   UNL A   1      40.985  27.746  29.675  1.00  0.00    -0.014 A 
BRANCH  33  34
ATOM     34  C   UNL A   1      40.841  28.744  30.762  1.00  0.00     0.031 A 
ATOM     35  C   UNL A   1      41.663  28.622  32.015  1.00  0.00     0.074 A 
ATOM     36  C   UNL A   1      39.903  29.706  30.649  1.00  0.00     0.049 A 
ATOM     37  N   UNL A   1      41.619  29.349  33.100  1.00  0.00    -0.248 NA
ATOM     38  C   UNL A   1      42.643  27.524  32.067  1.00  0.00     0.031 C 
ATOM     39  C   UNL A   1      38.998  29.877  29.508  1.00  0.00     0.029 A 
ATOM     40  N   UNL A   1      39.540  30.713  31.508  1.00  0.00    -0.354 N 
ATOM     41  C   UNL A   1      42.545  28.786  33.970  1.00  0.00     0.074 A 
ATOM     42  C   UNL A   1      43.105  27.631  33.306  1.00  0.00     0.031 C 
ATOM     43  C   UNL A   1      38.197  30.930  29.732  1.00  0.00     0.029 A 
ATOM     44  C   UNL A   1      38.500  31.486  31.047  1.00  0.00     0.049 A 
ATOM     45  H   UNL A   1      39.982  30.867  32.374  1.00  0.00     0.167 HD
ATOM     46  C   UNL A   1      42.908  29.211  35.203  1.00  0.00     0.037 A 
ATOM     47  C   UNL A   1      37.850  32.514  31.625  1.00  0.00     0.037 A 
ATOM     48  C   UNL A   1      42.367  30.383  35.840  1.00  0.00     0.049 A 
ATOM     49  C   UNL A   1      38.284  32.972  32.990  1.00  0.00     0.074 A 
ATOM     50  C   UNL A   1      42.738  30.953  37.044  1.00  0.00     0.029 A 
ATOM     51  N   UNL A   1      41.338  31.160  35.329  1.00  0.00    -0.354 N 
ATOM     52  N   UNL A   1      39.234  32.490  33.756  1.00  0.00    -0.248 NA
ATOM     53  C   UNL A   1      37.565  34.114  33.570  1.00  0.00     0.031 C 
ATOM     54  C   UNL A   1      41.896  32.041  37.289  1.00  0.00     0.029 A 
ATOM     55  C   UNL A   1      41.035  32.183  36.213  1.00  0.00     0.049 A 
ATOM     56  H   UNL A   1      40.889  31.006  34.467  1.00  0.00     0.167 HD
ATOM     57  C   UNL A   1      39.233  33.276  34.902  1.00  0.00     0.074 A 
ATOM     58  C   UNL A   1      38.208  34.282  34.717  1.00  0.00     0.031 C 
ATOM     59  C   UNL A   1      40.007  33.173  36.012  1.00  0.00     0.037 A 
BRANCH  46  60
ATOM     60  C   UNL A   1      43.941  28.413  35.950  1.00  0.00     0.058 A 
ATOM     61  C   UNL A   1      45.313  28.694  35.839  1.00  0.00     0.135 A 
ATOM     62  C   UNL A   1      43.550  27.402  36.842  1.00  0.00     0.135 A 
ATOM     63  F   UNL A   1      45.742  29.639  34.988  1.00  0.00    -0.206 F 
ATOM     64  C   UNL A   1      46.260  27.991  36.575  1.00  0.00     0.059 A 
ATOM     65  C   UNL A   1      44.479  26.704  37.608  1.00  0.00     0.059 A 
ATOM     66  F   UNL A   1      42.252  27.088  36.983  1.00  0.00    -0.206 F 
ATOM     67  C   UNL A   1      45.834  27.002  37.463  1.00  0.00     0.060 A 
BRANCH  67  68
ATOM     68  S   UNL A   1      47.076  26.130  38.440  1.00  0.00     0.124 S 
ATOM     69  O   UNL A   1      47.646  25.227  37.445  1.00  0.00    -0.237 OA
ATOM     70  O   UNL A   1      47.943  27.217  38.882  1.00  0.00    -0.237 OA
ATOM     71  O   UNL A   1      46.293  25.490  39.492  1.00  0.00    -0.744 OA
ENDBRANCH  67  68
ENDBRANCH  46  60
BRANCH  47  72
ATOM     72  C   UNL A   1      36.718  33.174  30.919  1.00  0.00     0.058 A 
ATOM     73  C   UNL A   1      35.387  32.876  31.244  1.00  0.00     0.135 A 
ATOM     74  C   UNL A   1      36.947  34.116  29.904  1.00  0.00     0.135 A 
ATOM     75  F   UNL A   1      35.116  31.980  32.205  1.00  0.00    -0.206 F 
ATOM     76  C   UNL A   1      34.322  33.470  30.574  1.00  0.00     0.059 A 
ATOM     77  C   UNL A   1      35.899  34.744  29.238  1.00  0.00     0.059 A 
ATOM     78  F   UNL A   1      38.202  34.451  29.566  1.00  0.00    -0.206 F 
ATOM     79  C   UNL A   1      34.589  34.403  29.571  1.00  0.00     0.060 A 
BRANCH  79  80
ATOM     80  S   UNL A   1      33.200  35.194  28.729  1.00  0.00     0.124 S 
ATOM     81  O   UNL A   1      32.487  35.801  29.846  1.00  0.00    -0.237 OA
ATOM     82  O   UNL A   1      33.877  36.117  27.824  1.00  0.00    -0.237 OA
ATOM     83  O   UNL A   1      32.523  34.076  28.079  1.00  0.00    -0.744 OA
ENDBRANCH  79  80
ENDBRANCH  47  72
BRANCH  59  84
ATOM     84  C   UNL A   1      39.781  34.177  37.107  1.00  0.00     0.058 A 
ATOM     85  C   UNL A   1      38.982  33.878  38.222  1.00  0.00     0.135 A 
ATOM     86  C   UNL A   1      40.414  35.430  37.069  1.00  0.00     0.135 A 
ATOM     87  F   UNL A   1      38.349  32.697  38.303  1.00  0.00    -0.206 F 
ATOM     88  C   UNL A   1      38.802  34.795  39.252  1.00  0.00     0.059 A 
ATOM     89  C   UNL A   1      40.271  36.350  38.102  1.00  0.00     0.059 A 
ATOM     90  F   UNL A   1      41.195  35.761  36.029  1.00  0.00    -0.206 F 
ATOM     91  C   UNL A   1      39.454  36.028  39.184  1.00  0.00     0.060 A 
BRANCH  91  92
ATOM     92  S   UNL A   1      39.241  37.192  40.546  1.00  0.00     0.124 S 
ATOM     93  O   UNL A   1      38.666  36.335  41.579  1.00  0.00    -0.237 OA
ATOM     94  O   UNL A   1      40.607  37.645  40.786  1.00  0.00    -0.237 OA
ATOM     95  O   UNL A   1      38.340  38.200  39.994  1.00  0.00    -0.744 OA
ENDBRANCH  91  92
ENDBRANCH  59  84
ENDBRANCH  33  34
ENDBRANCH  25  28
ENDBRANCH  23  24
ENDBRANCH  22  23
ENDBRANCH  21  22
ENDBRANCH   3  21
TORSDOF 19
ENDMDL
MODEL 3
REMARK VINA RESULT:      -9.8      0.679      8.430
REMARK SMILES CC(C)OCCS(=O)(=O)N[C@@H]1COC[C@@H]1C(=O)NCCCNC(=O)c1ccc(-c2c3nc(c(-c4c(F)cc(S(=O)(=O)[O-])cc4F)c4ccc([nH]4)c(-c4c(F)cc(S(=O)(=O)[O-])cc4F)c4nc(c(-c5c(F)cc(S(=O)(=O)[O-])cc5F)c5ccc2[nH]5)C=C4)C=C3)cc1
REMARK SMILES IDX 16 1 17 2 18 3 15 5 11 6 12 7 13 8 14 9 10 10 7 12 8 13 9 14
REMARK SMILES IDX 6 15 5 16 4 17 2 18 1 19 3 20 19 21 20 22 21 23 22 24 23 25
REMARK SMILES IDX 24 27 25 28 26 29 90 30 27 31 89 32 28 33 29 34 30 35 83 36
REMARK SMILES IDX 31 37 88 38 82 39 84 40 32 41 87 42 81 43 80 44 33 46 67 47
REMARK SMILES IDX 46 48 66 49 47 50 50 51 65 52 85 53 48 54 49 55 64 57 86 58
REMARK SMILES IDX 51 59 34 60 35 61 44 62 36 63 37 64 43 65 45 66 38 67 39 68
REMARK SMILES IDX 40 69 41 70 42 71 68 72 69 73 78 74 70 75 71 76 77 77 79 78
REMARK SMILES IDX 72 79 73 80 74 81 75 82 76 83 52 84 53 85 62 86 54 87 55 88
REMARK SMILES IDX 61 89 63 90 56 91 57 92 58 93 59 94 60 95
REMARK H PARENT 18 4 10 11 22 26 84 45 50 56
REMARK Flexibility Score: inf
ROOT
ATOM      1  C   UNL A   1      33.514  25.327  24.767  1.00  0.00     0.227 C 
ATOM      2  O   UNL A   1      34.665  25.104  24.401  1.00  0.00    -0.275 OA
ATOM      3  N   UNL A   1      33.288  26.132  25.846  1.00  0.00    -0.356 N 
ATOM      4  H   UNL A   1      34.096  26.463  26.302  1.00  0.00     0.163 HD
ENDROOT
BRANCH   1   5
ATOM      5  C   UNL A   1      32.307  24.765  24.060  1.00  0.00     0.124 C 
ATOM      6  C   UNL A   1      32.498  23.423  23.395  1.00  0.00     0.110 C 
ATOM      7  C   UNL A   1      33.130  23.818  22.065  1.00  0.00     0.181 C 
ATOM      8  O   UNL A   1      32.541  25.074  21.695  1.00  0.00    -0.379 OA
ATOM      9  C   UNL A   1      31.963  25.659  22.873  1.00  0.00     0.175 C 
BRANCH   6  10
ATOM     10  N   UNL A   1      33.259  22.361  24.093  1.00  0.00    -0.209 NA
ATOM     11  H   UNL A   1      33.567  21.715  23.365  1.00  0.00     0.141 HD
BRANCH  10  12
ATOM     12  S   UNL A   1      32.614  21.401  25.314  1.00  0.00     0.214 S 
ATOM     13  O   UNL A   1      32.450  20.056  24.801  1.00  0.00    -0.212 OA
ATOM     14  O   UNL A   1      31.467  22.156  25.762  1.00  0.00    -0.212 OA
BRANCH  12  15
ATOM     15  C   UNL A   1      33.804  21.433  26.668  1.00  0.00     0.182 C 
BRANCH  15  16
ATOM     16  C   UNL A   1      35.237  21.751  26.264  1.00  0.00     0.178 C 
BRANCH  16  17
ATOM     17  O   UNL A   1      35.684  21.116  25.060  1.00  0.00    -0.378 OA
BRANCH  17  18
ATOM     18  C   UNL A   1      36.905  21.539  24.451  1.00  0.00     0.112 C 
ATOM     19  C   UNL A   1      36.749  22.624  23.393  1.00  0.00     0.038 C 
ATOM     20  C   UNL A   1      37.933  21.840  25.535  1.00  0.00     0.038 C 
ENDBRANCH  17  18
ENDBRANCH  16  17
ENDBRANCH  15  16
ENDBRANCH  12  15
ENDBRANCH  10  12
ENDBRANCH   6  10
ENDBRANCH   1   5
BRANCH   3  21
ATOM     21  C   UNL A   1      32.021  26.570  26.416  1.00  0.00     0.117 C 
BRANCH  21  22
ATOM     22  C   UNL A   1      32.160  27.821  27.270  1.00  0.00     0.042 C 
BRANCH  22  23
ATOM     23  C   UNL A   1      33.548  28.451  27.220  1.00  0.00     0.118 C 
BRANCH  23  24
ATOM     24  N   UNL A   1      33.540  29.862  27.591  1.00  0.00    -0.352 N 
ATOM     25  C   UNL A   1      34.506  30.633  28.183  1.00  0.00     0.251 C 
ATOM     26  H   UNL A   1      32.704  30.339  27.383  1.00  0.00     0.163 HD
ATOM     27  O   UNL A   1      34.223  31.754  28.594  1.00  0.00    -0.269 OA
BRANCH  25  28
ATOM     28  C   UNL A   1      35.869  30.097  28.347  1.00  0.00     0.039 A 
ATOM     29  C   UNL A   1      36.737  30.116  27.254  1.00  0.00     0.014 A 
ATOM     30  C   UNL A   1      36.294  29.604  29.582  1.00  0.00     0.014 A 
ATOM     31  C   UNL A   1      38.063  29.720  27.426  1.00  0.00     0.010 A 
ATOM     32  C   UNL A   1      37.635  29.296  29.773  1.00  0.00     0.010 A 
ATOM     33  C   UNL A   1      38.534  29.359  28.698  1.00  0.00    -0.014 A 
BRANCH  33  34
ATOM     34  C   UNL A   1      39.971  29.078  28.935  1.00  0.00     0.031 A 
ATOM     35  C   UNL A   1      40.548  27.737  28.581  1.00  0.00     0.074 A 
ATOM     36  C   UNL A   1      40.727  30.010  29.551  1.00  0.00     0.049 A 
ATOM     37  N   UNL A   1      41.756  27.283  28.787  1.00  0.00    -0.248 NA
ATOM     38  C   UNL A   1      39.644  26.768  27.939  1.00  0.00     0.031 C 
ATOM     39  C   UNL A   1      40.254  31.321  30.005  1.00  0.00     0.029 A 
ATOM     40  N   UNL A   1      42.049  29.993  29.919  1.00  0.00    -0.354 N 
ATOM     41  C   UNL A   1      41.753  25.974  28.321  1.00  0.00     0.074 A 
ATOM     42  C   UNL A   1      40.412  25.689  27.862  1.00  0.00     0.031 C 
ATOM     43  C   UNL A   1      41.270  31.986  30.575  1.00  0.00     0.029 A 
ATOM     44  C   UNL A   1      42.457  31.136  30.567  1.00  0.00     0.049 A 
ATOM     45  H   UNL A   1      42.649  29.235  29.737  1.00  0.00     0.167 HD
ATOM     46  C   UNL A   1      42.784  25.098  28.262  1.00  0.00     0.037 A 
ATOM     47  C   UNL A   1      43.647  31.456  31.111  1.00  0.00     0.037 A 
ATOM     48  C   UNL A   1      44.123  25.405  28.690  1.00  0.00     0.049 A 
ATOM     49  C   UNL A   1      44.777  30.469  31.019  1.00  0.00     0.074 A 
ATOM     50  C   UNL A   1      45.259  24.623  28.582  1.00  0.00     0.029 A 
ATOM     51  N   UNL A   1      44.507  26.584  29.311  1.00  0.00    -0.354 N 
ATOM     52  N   UNL A   1      44.782  29.272  30.481  1.00  0.00    -0.248 NA
ATOM     53  C   UNL A   1      46.063  30.872  31.602  1.00  0.00     0.031 C 
ATOM     54  C   UNL A   1      46.317  25.304  29.189  1.00  0.00     0.029 A 
ATOM     55  C   UNL A   1      45.854  26.535  29.628  1.00  0.00     0.049 A 
ATOM     56  H   UNL A   1      43.909  27.343  29.501  1.00  0.00     0.167 HD
ATOM     57  C   UNL A   1      46.073  28.785  30.651  1.00  0.00     0.074 A 
ATOM     58  C   UNL A   1      46.827  29.827  31.316  1.00  0.00     0.031 C 
ATOM     59  C   UNL A   1      46.587  27.582  30.294  1.00  0.00     0.037 A 
BRANCH  46  60
ATOM     60  C   UNL A   1      42.514  23.724  27.712  1.00  0.00     0.058 A 
ATOM     61  C   UNL A   1      42.462  23.479  26.330  1.00  0.00     0.135 A 
ATOM     62  C   UNL A   1      42.376  22.627  28.577  1.00  0.00     0.135 A 
ATOM     63  F   UNL A   1      42.571  24.494  25.459  1.00  0.00    -0.206 F 
ATOM     64  C   UNL A   1      42.271  22.197  25.827  1.00  0.00     0.059 A 
ATOM     65  C   UNL A   1      42.209  21.332  28.095  1.00  0.00     0.059 A 
ATOM     66  F   UNL A   1      42.412  22.806  29.908  1.00  0.00    -0.206 F 
ATOM     67  C   UNL A   1      42.152  21.128  26.716  1.00  0.00     0.060 A 
BRANCH  67  68
ATOM     68  S   UNL A   1      41.944  19.467  26.043  1.00  0.00     0.124 S 
ATOM     69  O   UNL A   1      42.791  19.526  24.855  1.00  0.00    -0.237 OA
ATOM     70  O   UNL A   1      42.434  18.627  27.131  1.00  0.00    -0.237 OA
ATOM     71  O   UNL A   1      40.510  19.380  25.786  1.00  0.00    -0.744 OA
ENDBRANCH  67  68
ENDBRANCH  46  60
BRANCH  47  72
ATOM     72  C   UNL A   1      43.826  32.766  31.795  1.00  0.00     0.058 A 
ATOM     73  C   UNL A   1      43.620  32.898  33.175  1.00  0.00     0.135 A 
ATOM     74  C   UNL A   1      44.209  33.912  31.080  1.00  0.00     0.135 A 
ATOM     75  F   UNL A   1      43.250  31.833  33.903  1.00  0.00    -0.206 F 
ATOM     76  C   UNL A   1      43.762  34.123  33.821  1.00  0.00     0.059 A 
ATOM     77  C   UNL A   1      44.385  35.142  31.707  1.00  0.00     0.059 A 
ATOM     78  F   UNL A   1      44.438  33.837  29.759  1.00  0.00    -0.206 F 
ATOM     79  C   UNL A   1      44.145  35.239  33.076  1.00  0.00     0.060 A 
BRANCH  79  80
ATOM     80  S   UNL A   1      44.360  36.818  33.927  1.00  0.00     0.124 S 
ATOM     81  O   UNL A   1      45.072  36.408  35.132  1.00  0.00    -0.237 OA
ATOM     82  O   UNL A   1      45.133  37.586  32.957  1.00  0.00    -0.237 OA
ATOM     83  O   UNL A   1      42.989  37.279  34.129  1.00  0.00    -0.744 OA
ENDBRANCH  79  80
ENDBRANCH  47  72
BRANCH  59  84
ATOM     84  C   UNL A   1      48.035  27.330  30.607  1.00  0.00     0.058 A 
ATOM     85  C   UNL A   1      49.052  27.679  29.705  1.00  0.00     0.135 A 
ATOM     86  C   UNL A   1      48.414  26.785  31.845  1.00  0.00     0.135 A 
ATOM     87  F   UNL A   1      48.744  28.197  28.506  1.00  0.00    -0.206 F 
ATOM     88  C   UNL A   1      50.394  27.478  30.011  1.00  0.00     0.059 A 
ATOM     89  C   UNL A   1      49.751  26.603  32.183  1.00  0.00     0.059 A 
ATOM     90  F   UNL A   1      47.480  26.442  32.746  1.00  0.00    -0.206 F 
ATOM     91  C   UNL A   1      50.733  26.943  31.255  1.00  0.00     0.060 A 
BRANCH  91  92
ATOM     92  S   UNL A   1      52.480  26.722  31.653  1.00  0.00     0.124 S 
ATOM     93  O   UNL A   1      52.409  25.831  32.806  1.00  0.00    -0.237 OA
ATOM     94  O   UNL A   1      53.006  26.131  30.426  1.00  0.00    -0.237 OA
ATOM     95  O   UNL A   1      52.938  28.079  31.935  1.00  0.00    -0.744 OA
ENDBRANCH  91  92
ENDBRANCH  59  84
ENDBRANCH  33  34
ENDBRANCH  25  28
ENDBRANCH  23  24
ENDBRANCH  22  23
ENDBRANCH  21  22
ENDBRANCH   3  21
TORSDOF 19
ENDMDL
