MODEL 1
REMARK VINA RESULT:     -14.3      0.000      0.000
REMARK SMILES O=C(NCCCNC(=O)[C@H]1Cc2c([nH]c3ccccc23)[C@H](c2c[nH]c3ccccc23)[NH2+]1)c1ccc(-c2c3nc(c(-c4c(F)cc(S(=O)(=O)[O-])cc4F)c4ccc([nH]4)c(-c4c(F)cc(S(=O)(=O)[O-])cc4F)c4nc(c(-c5c(F)cc(S(=O)(=O)[O-])cc5F)c5ccc2[nH]5)C=C4)C=C3)cc1
REMARK SMILES IDX 4 1 3 2 1 3 2 4 32 6 33 7 97 8 34 9 96 10 35 11 36 12 37 13
REMARK SMILES IDX 90 14 38 15 95 16 89 17 91 18 39 19 94 20 88 21 87 22 40 24
REMARK SMILES IDX 74 25 53 26 73 27 54 28 57 29 72 30 92 31 55 32 56 33 71 35
REMARK SMILES IDX 93 36 58 37 41 38 42 39 51 40 43 41 44 42 50 43 52 44 45 45
REMARK SMILES IDX 46 46 47 47 48 48 49 49 75 50 76 51 85 52 77 53 78 54 84 55
REMARK SMILES IDX 86 56 79 57 80 58 81 59 82 60 83 61 59 62 60 63 69 64 61 65
REMARK SMILES IDX 62 66 68 67 70 68 63 69 64 70 65 71 66 72 67 73 5 74 6 75
REMARK SMILES IDX 7 76 8 77 9 79 10 80 11 81 31 82 12 83 21 84 13 87 20 88
REMARK SMILES IDX 14 89 15 90 19 91 16 93 18 94 17 95 22 96 23 97 30 98 24 99
REMARK SMILES IDX 25 100 29 101 26 103 28 104 27 105
REMARK H PARENT 3 5 91 23 57 34 7 78 31 85 31 86 14 92 24 102
REMARK Flexibility Score: inf
ROOT
ATOM      1  C   UNL A   1      40.109  23.303  27.147  1.00  0.00     0.118 C 
ENDROOT
BRANCH   1   2
ATOM      2  N   UNL A   1      40.864  24.058  26.145  1.00  0.00    -0.352 N 
ATOM      3  O   UNL A   1      41.507  25.890  25.004  1.00  0.00    -0.269 OA
ATOM      4  C   UNL A   1      41.134  25.402  26.070  1.00  0.00     0.251 C 
ATOM      5  H   UNL A   1      41.238  23.518  25.413  1.00  0.00     0.163 HD
BRANCH   4   6
ATOM      6  C   UNL A   1      40.975  26.248  27.268  1.00  0.00     0.039 A 
ATOM      7  C   UNL A   1      41.850  27.313  27.478  1.00  0.00     0.014 A 
ATOM      8  C   UNL A   1      39.937  26.004  28.171  1.00  0.00     0.014 A 
ATOM      9  C   UNL A   1      41.816  28.007  28.673  1.00  0.00     0.010 A 
ATOM     10  C   UNL A   1      39.814  26.804  29.310  1.00  0.00     0.010 A 
ATOM     11  C   UNL A   1      40.769  27.795  29.581  1.00  0.00    -0.014 A 
BRANCH  11  12
ATOM     12  C   UNL A   1      40.657  28.706  30.744  1.00  0.00     0.031 A 
ATOM     13  C   UNL A   1      41.555  28.566  31.936  1.00  0.00     0.074 A 
ATOM     14  C   UNL A   1      39.741  29.695  30.682  1.00  0.00     0.049 A 
ATOM     15  N   UNL A   1      41.586  29.286  33.027  1.00  0.00    -0.248 NA
ATOM     16  C   UNL A   1      42.539  27.472  31.912  1.00  0.00     0.031 C 
ATOM     17  C   UNL A   1      38.808  29.908  29.569  1.00  0.00     0.029 A 
ATOM     18  N   UNL A   1      39.454  30.714  31.550  1.00  0.00    -0.354 N 
ATOM     19  C   UNL A   1      42.569  28.721  33.830  1.00  0.00     0.074 A 
ATOM     20  C   UNL A   1      43.097  27.582  33.109  1.00  0.00     0.031 C 
ATOM     21  C   UNL A   1      38.092  31.016  29.798  1.00  0.00     0.029 A 
ATOM     22  C   UNL A   1      38.449  31.541  31.108  1.00  0.00     0.049 A 
ATOM     23  H   UNL A   1      39.920  30.841  32.407  1.00  0.00     0.167 HD
ATOM     24  C   UNL A   1      42.987  29.124  35.054  1.00  0.00     0.037 A 
ATOM     25  C   UNL A   1      37.851  32.588  31.704  1.00  0.00     0.037 A 
ATOM     26  C   UNL A   1      42.452  30.270  35.747  1.00  0.00     0.049 A 
ATOM     27  C   UNL A   1      38.321  33.000  33.066  1.00  0.00     0.074 A 
ATOM     28  C   UNL A   1      42.830  30.788  36.973  1.00  0.00     0.029 A 
ATOM     29  N   UNL A   1      41.419  31.071  35.279  1.00  0.00    -0.354 N 
ATOM     30  N   UNL A   1      39.274  32.473  33.798  1.00  0.00    -0.248 NA
ATOM     31  C   UNL A   1      37.637  34.140  33.686  1.00  0.00     0.031 C 
ATOM     32  C   UNL A   1      41.990  31.866  37.270  1.00  0.00     0.029 A 
ATOM     33  C   UNL A   1      41.126  32.061  36.204  1.00  0.00     0.049 A 
ATOM     34  H   UNL A   1      40.960  30.953  34.415  1.00  0.00     0.167 HD
ATOM     35  C   UNL A   1      39.313  33.226  34.964  1.00  0.00     0.074 A 
ATOM     36  C   UNL A   1      38.303  34.257  34.827  1.00  0.00     0.031 C 
ATOM     37  C   UNL A   1      40.112  33.076  36.049  1.00  0.00     0.037 A 
BRANCH  24  38
ATOM     38  C   UNL A   1      44.049  28.304  35.737  1.00  0.00     0.058 A 
ATOM     39  C   UNL A   1      45.418  28.538  35.535  1.00  0.00     0.135 A 
ATOM     40  C   UNL A   1      43.689  27.282  36.632  1.00  0.00     0.135 A 
ATOM     41  F   UNL A   1      45.822  29.492  34.681  1.00  0.00    -0.206 F 
ATOM     42  C   UNL A   1      46.392  27.771  36.168  1.00  0.00     0.059 A 
ATOM     43  C   UNL A   1      44.645  26.519  37.299  1.00  0.00     0.059 A 
ATOM     44  F   UNL A   1      42.395  27.013  36.865  1.00  0.00    -0.206 F 
ATOM     45  C   UNL A   1      45.994  26.760  37.047  1.00  0.00     0.060 A 
BRANCH  45  46
ATOM     46  S   UNL A   1      47.267  25.764  37.851  1.00  0.00     0.124 S 
ATOM     47  O   UNL A   1      48.259  25.646  36.787  1.00  0.00    -0.237 OA
ATOM     48  O   UNL A   1      47.651  26.603  38.983  1.00  0.00    -0.237 OA
ATOM     49  O   UNL A   1      46.569  24.531  38.198  1.00  0.00    -0.744 OA
ENDBRANCH  45  46
ENDBRANCH  24  38
BRANCH  25  50
ATOM     50  C   UNL A   1      36.730  33.279  31.014  1.00  0.00     0.058 A 
ATOM     51  C   UNL A   1      36.962  34.145  29.938  1.00  0.00     0.135 A 
ATOM     52  C   UNL A   1      35.397  33.040  31.388  1.00  0.00     0.135 A 
ATOM     53  F   UNL A   1      38.218  34.405  29.543  1.00  0.00    -0.206 F 
ATOM     54  C   UNL A   1      35.912  34.757  29.259  1.00  0.00     0.059 A 
ATOM     55  C   UNL A   1      34.332  33.614  30.706  1.00  0.00     0.059 A 
ATOM     56  F   UNL A   1      35.122  32.201  32.398  1.00  0.00    -0.206 F 
ATOM     57  C   UNL A   1      34.600  34.480  29.647  1.00  0.00     0.060 A 
BRANCH  57  58
ATOM     58  S   UNL A   1      33.245  35.232  28.722  1.00  0.00     0.124 S 
ATOM     59  O   UNL A   1      33.961  36.159  27.855  1.00  0.00    -0.237 OA
ATOM     60  O   UNL A   1      32.644  34.075  28.065  1.00  0.00    -0.237 OA
ATOM     61  O   UNL A   1      32.426  35.845  29.764  1.00  0.00    -0.744 OA
ENDBRANCH  57  58
ENDBRANCH  25  50
BRANCH  37  62
ATOM     62  C   UNL A   1      39.938  34.067  37.165  1.00  0.00     0.058 A 
ATOM     63  C   UNL A   1      40.609  35.300  37.166  1.00  0.00     0.135 A 
ATOM     64  C   UNL A   1      39.057  33.796  38.224  1.00  0.00     0.135 A 
ATOM     65  F   UNL A   1      41.472  35.602  36.183  1.00  0.00    -0.206 F 
ATOM     66  C   UNL A   1      40.430  36.221  38.193  1.00  0.00     0.059 A 
ATOM     67  C   UNL A   1      38.840  34.715  39.245  1.00  0.00     0.059 A 
ATOM     68  F   UNL A   1      38.386  32.635  38.265  1.00  0.00    -0.206 F 
ATOM     69  C   UNL A   1      39.540  35.920  39.226  1.00  0.00     0.060 A 
BRANCH  69  70
ATOM     70  S   UNL A   1      39.289  37.139  40.533  1.00  0.00     0.124 S 
ATOM     71  O   UNL A   1      38.588  36.350  41.541  1.00  0.00    -0.237 OA
ATOM     72  O   UNL A   1      40.657  37.524  40.868  1.00  0.00    -0.237 OA
ATOM     73  O   UNL A   1      38.494  38.177  39.882  1.00  0.00    -0.744 OA
ENDBRANCH  69  70
ENDBRANCH  37  62
ENDBRANCH  11  12
ENDBRANCH   4   6
ENDBRANCH   1   2
BRANCH   1  74
ATOM     74  C   UNL A   1      38.915  22.600  26.529  1.00  0.00     0.042 C 
BRANCH  74  75
ATOM     75  C   UNL A   1      37.793  23.581  26.243  1.00  0.00     0.118 C 
BRANCH  75  76
ATOM     76  N   UNL A   1      37.528  23.694  24.811  1.00  0.00    -0.351 N 
ATOM     77  C   UNL A   1      36.629  23.126  23.959  1.00  0.00     0.278 C 
ATOM     78  H   UNL A   1      38.136  24.323  24.360  1.00  0.00     0.163 HD
ATOM     79  O   UNL A   1      36.823  23.338  22.755  1.00  0.00    -0.268 OA
BRANCH  77  80
ATOM     80  C   UNL A   1      35.384  22.332  24.403  1.00  0.00     0.277 C 
ATOM     81  C   UNL A   1      35.643  20.817  24.229  1.00  0.00     0.114 C 
ATOM     82  N   UNL A   1      34.928  22.722  25.750  1.00  0.00    -0.324 N 
ATOM     83  C   UNL A   1      34.530  20.049  24.857  1.00  0.00    -0.006 A 
ATOM     84  C   UNL A   1      33.732  22.059  26.249  1.00  0.00     0.264 C 
ATOM     85  H   UNL A   1      34.743  23.725  25.738  1.00  0.00     0.347 HD
ATOM     86  H   UNL A   1      35.677  22.439  26.383  1.00  0.00     0.347 HD
ATOM     87  C   UNL A   1      33.686  20.647  25.774  1.00  0.00     0.083 A 
ATOM     88  C   UNL A   1      34.134  18.692  24.721  1.00  0.00     0.003 A 
ATOM     89  N   UNL A   1      32.867  19.677  26.279  1.00  0.00    -0.353 N 
ATOM     90  C   UNL A   1      33.103  18.480  25.641  1.00  0.00     0.046 A 
ATOM     91  C   UNL A   1      34.561  17.611  23.927  1.00  0.00     0.010 A 
ATOM     92  H   UNL A   1      32.205  19.814  26.995  1.00  0.00     0.166 HD
ATOM     93  C   UNL A   1      32.493  17.235  25.821  1.00  0.00     0.026 A 
ATOM     94  C   UNL A   1      33.944  16.364  24.078  1.00  0.00     0.001 A 
ATOM     95  C   UNL A   1      32.931  16.179  25.016  1.00  0.00     0.002 A 
BRANCH  84  96
ATOM     96  C   UNL A   1      32.479  22.886  26.001  1.00  0.00     0.041 A 
ATOM     97  C   UNL A   1      31.226  22.308  25.839  1.00  0.00     0.093 A 
ATOM     98  C   UNL A   1      32.242  24.325  26.012  1.00  0.00     0.009 A 
ATOM     99  N   UNL A   1      30.286  23.288  25.727  1.00  0.00    -0.361 N 
ATOM    100  C   UNL A   1      30.868  24.523  25.847  1.00  0.00     0.046 A 
ATOM    101  C   UNL A   1      33.029  25.494  26.184  1.00  0.00     0.011 A 
ATOM    102  H   UNL A   1      29.326  23.131  25.578  1.00  0.00     0.166 HD
ATOM    103  C   UNL A   1      30.263  25.789  25.841  1.00  0.00     0.026 A 
ATOM    104  C   UNL A   1      32.442  26.767  26.185  1.00  0.00     0.001 A 
ATOM    105  C   UNL A   1      31.075  26.910  26.015  1.00  0.00     0.002 A 
ENDBRANCH  84  96
ENDBRANCH  77  80
ENDBRANCH  75  76
ENDBRANCH  74  75
ENDBRANCH   1  74
TORSDOF 14
ENDMDL
MODEL 2
REMARK VINA RESULT:     -14.2      4.301     11.453
REMARK SMILES O=C(NCCCNC(=O)[C@H]1Cc2c([nH]c3ccccc23)[C@H](c2c[nH]c3ccccc23)[NH2+]1)c1ccc(-c2c3nc(c(-c4c(F)cc(S(=O)(=O)[O-])cc4F)c4ccc([nH]4)c(-c4c(F)cc(S(=O)(=O)[O-])cc4F)c4nc(c(-c5c(F)cc(S(=O)(=O)[O-])cc5F)c5ccc2[nH]5)C=C4)C=C3)cc1
REMARK SMILES IDX 4 1 3 2 1 3 2 4 32 6 33 7 97 8 34 9 96 10 35 11 36 12 37 13
REMARK SMILES IDX 90 14 38 15 95 16 89 17 91 18 39 19 94 20 88 21 87 22 40 24
REMARK SMILES IDX 74 25 53 26 73 27 54 28 57 29 72 30 92 31 55 32 56 33 71 35
REMARK SMILES IDX 93 36 58 37 41 38 42 39 51 40 43 41 44 42 50 43 52 44 45 45
REMARK SMILES IDX 46 46 47 47 48 48 49 49 75 50 76 51 85 52 77 53 78 54 84 55
REMARK SMILES IDX 86 56 79 57 80 58 81 59 82 60 83 61 59 62 60 63 69 64 61 65
REMARK SMILES IDX 62 66 68 67 70 68 63 69 64 70 65 71 66 72 67 73 5 74 6 75
REMARK SMILES IDX 7 76 8 77 9 79 10 80 11 81 31 82 12 83 21 84 13 87 20 88
REMARK SMILES IDX 14 89 15 90 19 91 16 93 18 94 17 95 22 96 23 97 30 98 24 99
REMARK SMILES IDX 25 100 29 101 26 103 28 104 27 105
REMARK H PARENT 3 5 91 23 57 34 7 78 31 85 31 86 14 92 24 102
REMARK Flexibility Score: inf
ROOT
ATOM      1  C   UNL A   1      40.412  21.486  27.045  1.00  0.00     0.118 C 
ENDROOT
BRANCH   1   2
ATOM      2  N   UNL A   1      39.423  21.947  26.069  1.00  0.00    -0.352 N 
ATOM      3  O   UNL A   1      37.720  23.208  25.304  1.00  0.00    -0.269 OA
ATOM      4  C   UNL A   1      38.728  23.130  26.006  1.00  0.00     0.251 C 
ATOM      5  H   UNL A   1      39.225  21.311  25.345  1.00  0.00     0.163 HD
BRANCH   4   6
ATOM      6  C   UNL A   1      39.196  24.295  26.779  1.00  0.00     0.039 A 
ATOM      7  C   UNL A   1      38.837  24.420  28.120  1.00  0.00     0.014 A 
ATOM      8  C   UNL A   1      40.020  25.253  26.181  1.00  0.00     0.014 A 
ATOM      9  C   UNL A   1      39.128  25.584  28.806  1.00  0.00     0.010 A 
ATOM     10  C   UNL A   1      40.438  26.360  26.923  1.00  0.00     0.010 A 
ATOM     11  C   UNL A   1      39.973  26.546  28.234  1.00  0.00    -0.014 A 
BRANCH  11  12
ATOM     12  C   UNL A   1      40.427  27.672  29.083  1.00  0.00     0.031 A 
ATOM     13  C   UNL A   1      39.555  28.867  29.327  1.00  0.00     0.074 A 
ATOM     14  C   UNL A   1      41.640  27.572  29.664  1.00  0.00     0.049 A 
ATOM     15  N   UNL A   1      39.805  29.929  30.048  1.00  0.00    -0.248 NA
ATOM     16  C   UNL A   1      38.238  28.884  28.671  1.00  0.00     0.031 C 
ATOM     17  C   UNL A   1      42.572  26.454  29.478  1.00  0.00     0.029 A 
ATOM     18  N   UNL A   1      42.293  28.400  30.538  1.00  0.00    -0.354 N 
ATOM     19  C   UNL A   1      38.694  30.752  29.915  1.00  0.00     0.074 A 
ATOM     20  C   UNL A   1      37.775  30.076  29.023  1.00  0.00     0.031 C 
ATOM     21  C   UNL A   1      43.648  26.639  30.253  1.00  0.00     0.029 A 
ATOM     22  C   UNL A   1      43.525  27.927  30.921  1.00  0.00     0.049 A 
ATOM     23  H   UNL A   1      41.916  29.251  30.859  1.00  0.00     0.167 HD
ATOM     24  C   UNL A   1      38.469  31.958  30.488  1.00  0.00     0.037 A 
ATOM     25  C   UNL A   1      44.473  28.482  31.697  1.00  0.00     0.037 A 
ATOM     26  C   UNL A   1      39.396  32.606  31.383  1.00  0.00     0.049 A 
ATOM     27  C   UNL A   1      44.205  29.826  32.303  1.00  0.00     0.074 A 
ATOM     28  C   UNL A   1      39.250  33.810  32.049  1.00  0.00     0.029 A 
ATOM     29  N   UNL A   1      40.644  32.108  31.731  1.00  0.00    -0.354 N 
ATOM     30  N   UNL A   1      43.135  30.577  32.191  1.00  0.00    -0.248 NA
ATOM     31  C   UNL A   1      45.267  30.401  33.135  1.00  0.00     0.031 C 
ATOM     32  C   UNL A   1      40.430  34.066  32.754  1.00  0.00     0.029 A 
ATOM     33  C   UNL A   1      41.292  32.994  32.578  1.00  0.00     0.049 A 
ATOM     34  H   UNL A   1      41.017  31.251  31.421  1.00  0.00     0.167 HD
ATOM     35  C   UNL A   1      43.390  31.712  32.949  1.00  0.00     0.074 A 
ATOM     36  C   UNL A   1      44.705  31.536  33.531  1.00  0.00     0.031 C 
ATOM     37  C   UNL A   1      42.606  32.801  33.143  1.00  0.00     0.037 A 
BRANCH  24  38
ATOM     38  C   UNL A   1      37.188  32.671  30.141  1.00  0.00     0.058 A 
ATOM     39  C   UNL A   1      35.986  32.420  30.822  1.00  0.00     0.135 A 
ATOM     40  C   UNL A   1      37.172  33.644  29.128  1.00  0.00     0.135 A 
ATOM     41  F   UNL A   1      35.939  31.492  31.790  1.00  0.00    -0.206 F 
ATOM     42  C   UNL A   1      34.808  33.082  30.489  1.00  0.00     0.059 A 
ATOM     43  C   UNL A   1      36.011  34.339  28.796  1.00  0.00     0.059 A 
ATOM     44  F   UNL A   1      38.291  33.927  28.444  1.00  0.00    -0.206 F 
ATOM     45  C   UNL A   1      34.830  34.039  29.471  1.00  0.00     0.060 A 
BRANCH  45  46
ATOM     46  S   UNL A   1      33.291  34.880  29.043  1.00  0.00     0.124 S 
ATOM     47  O   UNL A   1      32.727  33.969  28.053  1.00  0.00    -0.237 OA
ATOM     48  O   UNL A   1      32.595  34.931  30.325  1.00  0.00    -0.237 OA
ATOM     49  O   UNL A   1      33.739  36.169  28.525  1.00  0.00    -0.744 OA
ENDBRANCH  45  46
ENDBRANCH  24  38
BRANCH  25  50
ATOM     50  C   UNL A   1      45.760  27.768  31.902  1.00  0.00     0.058 A 
ATOM     51  C   UNL A   1      45.925  26.853  32.951  1.00  0.00     0.135 A 
ATOM     52  C   UNL A   1      46.834  27.948  31.015  1.00  0.00     0.135 A 
ATOM     53  F   UNL A   1      44.929  26.647  33.825  1.00  0.00    -0.206 F 
ATOM     54  C   UNL A   1      47.113  26.147  33.118  1.00  0.00     0.059 A 
ATOM     55  C   UNL A   1      48.017  27.231  31.142  1.00  0.00     0.059 A 
ATOM     56  F   UNL A   1      46.717  28.796  29.981  1.00  0.00    -0.206 F 
ATOM     57  C   UNL A   1      48.151  26.338  32.204  1.00  0.00     0.060 A 
BRANCH  57  58
ATOM     58  S   UNL A   1      49.664  25.373  32.395  1.00  0.00     0.124 S 
ATOM     59  O   UNL A   1      49.224  24.313  33.293  1.00  0.00    -0.237 OA
ATOM     60  O   UNL A   1      49.946  24.972  31.021  1.00  0.00    -0.237 OA
ATOM     61  O   UNL A   1      50.605  26.333  32.965  1.00  0.00    -0.744 OA
ENDBRANCH  57  58
ENDBRANCH  25  50
BRANCH  37  62
ATOM     62  C   UNL A   1      43.145  33.876  34.043  1.00  0.00     0.058 A 
ATOM     63  C   UNL A   1      43.861  34.972  33.535  1.00  0.00     0.135 A 
ATOM     64  C   UNL A   1      42.906  33.830  35.426  1.00  0.00     0.135 A 
ATOM     65  F   UNL A   1      44.126  35.058  32.222  1.00  0.00    -0.206 F 
ATOM     66  C   UNL A   1      44.342  35.974  34.372  1.00  0.00     0.059 A 
ATOM     67  C   UNL A   1      43.352  34.835  36.277  1.00  0.00     0.059 A 
ATOM     68  F   UNL A   1      42.221  32.807  35.960  1.00  0.00    -0.206 F 
ATOM     69  C   UNL A   1      44.079  35.898  35.741  1.00  0.00     0.060 A 
BRANCH  69  70
ATOM     70  S   UNL A   1      44.676  37.222  36.811  1.00  0.00     0.124 S 
ATOM     71  O   UNL A   1      43.471  37.559  37.563  1.00  0.00    -0.237 OA
ATOM     72  O   UNL A   1      45.732  36.558  37.571  1.00  0.00    -0.237 OA
ATOM     73  O   UNL A   1      45.135  38.239  35.870  1.00  0.00    -0.744 OA
ENDBRANCH  69  70
ENDBRANCH  37  62
ENDBRANCH  11  12
ENDBRANCH   4   6
ENDBRANCH   1   2
BRANCH   1  74
ATOM     74  C   UNL A   1      41.721  21.114  26.375  1.00  0.00     0.042 C 
BRANCH  74  75
ATOM     75  C   UNL A   1      42.577  22.343  26.131  1.00  0.00     0.118 C 
BRANCH  75  76
ATOM     76  N   UNL A   1      43.355  22.222  24.901  1.00  0.00    -0.351 N 
ATOM     77  C   UNL A   1      44.212  23.041  24.229  1.00  0.00     0.278 C 
ATOM     78  H   UNL A   1      43.233  21.351  24.457  1.00  0.00     0.163 HD
ATOM     79  O   UNL A   1      44.553  22.654  23.103  1.00  0.00    -0.268 OA
BRANCH  77  80
ATOM     80  C   UNL A   1      44.818  24.336  24.806  1.00  0.00     0.277 C 
ATOM     81  C   UNL A   1      43.685  25.297  25.232  1.00  0.00     0.114 C 
ATOM     82  N   UNL A   1      45.813  24.060  25.860  1.00  0.00    -0.324 N 
ATOM     83  C   UNL A   1      44.267  26.447  25.983  1.00  0.00    -0.006 A 
ATOM     84  C   UNL A   1      46.477  25.216  26.444  1.00  0.00     0.264 C 
ATOM     85  H   UNL A   1      46.533  23.460  25.459  1.00  0.00     0.347 HD
ATOM     86  H   UNL A   1      45.288  23.636  26.624  1.00  0.00     0.347 HD
ATOM     87  C   UNL A   1      45.537  26.369  26.524  1.00  0.00     0.083 A 
ATOM     88  C   UNL A   1      43.728  27.717  26.319  1.00  0.00     0.003 A 
ATOM     89  N   UNL A   1      45.742  27.498  27.266  1.00  0.00    -0.353 N 
ATOM     90  C   UNL A   1      44.665  28.347  27.142  1.00  0.00     0.046 A 
ATOM     91  C   UNL A   1      42.525  28.390  26.029  1.00  0.00     0.010 A 
ATOM     92  H   UNL A   1      46.543  27.678  27.809  1.00  0.00     0.166 HD
ATOM     93  C   UNL A   1      44.449  29.608  27.707  1.00  0.00     0.026 A 
ATOM     94  C   UNL A   1      42.306  29.663  26.567  1.00  0.00     0.001 A 
ATOM     95  C   UNL A   1      43.252  30.258  27.399  1.00  0.00     0.002 A 
BRANCH  84  96
ATOM     96  C   UNL A   1      47.819  25.495  25.782  1.00  0.00     0.041 A 
ATOM     97  C   UNL A   1      47.922  25.950  24.473  1.00  0.00     0.093 A 
ATOM     98  C   UNL A   1      49.180  25.510  26.305  1.00  0.00     0.009 A 
ATOM     99  N   UNL A   1      49.230  26.199  24.183  1.00  0.00    -0.361 N 
ATOM    100  C   UNL A   1      50.016  25.962  25.280  1.00  0.00     0.046 A 
ATOM    101  C   UNL A   1      49.805  25.231  27.548  1.00  0.00     0.011 A 
ATOM    102  H   UNL A   1      49.562  26.505  23.308  1.00  0.00     0.166 HD
ATOM    103  C   UNL A   1      51.400  26.136  25.429  1.00  0.00     0.026 A 
ATOM    104  C   UNL A   1      51.186  25.404  27.719  1.00  0.00     0.001 A 
ATOM    105  C   UNL A   1      51.972  25.852  26.669  1.00  0.00     0.002 A 
ENDBRANCH  84  96
ENDBRANCH  77  80
ENDBRANCH  75  76
ENDBRANCH  74  75
ENDBRANCH   1  74
TORSDOF 14
ENDMDL
MODEL 3
REMARK VINA RESULT:     -14.1      5.540     12.518
REMARK SMILES O=C(NCCCNC(=O)[C@H]1Cc2c([nH]c3ccccc23)[C@H](c2c[nH]c3ccccc23)[NH2+]1)c1ccc(-c2c3nc(c(-c4c(F)cc(S(=O)(=O)[O-])cc4F)c4ccc([nH]4)c(-c4c(F)cc(S(=O)(=O)[O-])cc4F)c4nc(c(-c5c(F)cc(S(=O)(=O)[O-])cc5F)c5ccc2[nH]5)C=C4)C=C3)cc1
REMARK SMILES IDX 4 1 3 2 1 3 2 4 32 6 33 7 97 8 34 9 96 10 35 11 36 12 37 13
REMARK SMILES IDX 90 14 38 15 95 16 89 17 91 18 39 19 94 20 88 21 87 22 40 24
REMARK SMILES IDX 74 25 53 26 73 27 54 28 57 29 72 30 92 31 55 32 56 33 71 35
REMARK SMILES IDX 93 36 58 37 41 38 42 39 51 40 43 41 44 42 50 43 52 44 45 45
REMARK SMILES IDX 46 46 47 47 48 48 49 49 75 50 76 51 85 52 77 53 78 54 84 55
REMARK SMILES IDX 86 56 79 57 80 58 81 59 82 60 83 61 59 62 60 63 69 64 61 65
REMARK SMILES IDX 62 66 68 67 70 68 63 69 64 70 65 71 66 72 67 73 5 74 6 75
REMARK SMILES IDX 7 76 8 77 9 79 10 80 11 81 31 82 12 83 21 84 13 87 20 88
REMARK SMILES IDX 14 89 15 90 19 91 16 93 18 94 17 95 22 96 23 97 30 98 24 99
REMARK SMILES IDX 25 100 29 101 26 103 28 104 27 105
REMARK H PARENT 3 5 91 23 57 34 7 78 31 85 31 86 14 92 24 102
REMARK Flexibility Score: inf
ROOT
ATOM      1  C   UNL A   1      34.644  32.710  28.256  1.00  0.00     0.118 C 
ENDROOT
BRANCH   1   2
ATOM      2  N   UNL A   1      33.936  31.464  27.959  1.00  0.00    -0.352 N 
ATOM      3  O   UNL A   1      33.702  29.370  27.164  1.00  0.00    -0.269 OA
ATOM      4  C   UNL A   1      34.427  30.209  27.697  1.00  0.00     0.251 C 
ATOM      5  H   UNL A   1      32.955  31.537  27.945  1.00  0.00     0.163 HD
BRANCH   4   6
ATOM      6  C   UNL A   1      35.818  29.878  28.058  1.00  0.00     0.039 A 
ATOM      7  C   UNL A   1      36.845  30.150  27.156  1.00  0.00     0.014 A 
ATOM      8  C   UNL A   1      36.109  29.324  29.306  1.00  0.00     0.014 A 
ATOM      9  C   UNL A   1      38.126  29.695  27.411  1.00  0.00     0.010 A 
ATOM     10  C   UNL A   1      37.431  28.999  29.624  1.00  0.00     0.010 A 
ATOM     11  C   UNL A   1      38.444  29.159  28.667  1.00  0.00    -0.014 A 
BRANCH  11  12
ATOM     12  C   UNL A   1      39.869  28.882  28.968  1.00  0.00     0.031 A 
ATOM     13  C   UNL A   1      40.735  29.899  29.649  1.00  0.00     0.074 A 
ATOM     14  C   UNL A   1      40.355  27.667  28.643  1.00  0.00     0.049 A 
ATOM     15  N   UNL A   1      41.995  29.806  29.986  1.00  0.00    -0.248 NA
ATOM     16  C   UNL A   1      40.118  31.191  29.986  1.00  0.00     0.031 C 
ATOM     17  C   UNL A   1      39.595  26.610  27.965  1.00  0.00     0.029 A 
ATOM     18  N   UNL A   1      41.585  27.102  28.853  1.00  0.00    -0.354 N 
ATOM     19  C   UNL A   1      42.331  31.031  30.550  1.00  0.00     0.074 A 
ATOM     20  C   UNL A   1      41.146  31.860  30.488  1.00  0.00     0.031 C 
ATOM     21  C   UNL A   1      40.355  25.513  27.862  1.00  0.00     0.029 A 
ATOM     22  C   UNL A   1      41.680  25.813  28.385  1.00  0.00     0.049 A 
ATOM     23  H   UNL A   1      42.327  27.573  29.295  1.00  0.00     0.167 HD
ATOM     24  C   UNL A   1      43.520  31.418  31.069  1.00  0.00     0.037 A 
ATOM     25  C   UNL A   1      42.729  24.972  28.345  1.00  0.00     0.037 A 
ATOM     26  C   UNL A   1      44.684  30.568  31.129  1.00  0.00     0.049 A 
ATOM     27  C   UNL A   1      44.038  25.434  28.910  1.00  0.00     0.074 A 
ATOM     28  C   UNL A   1      45.926  30.847  31.670  1.00  0.00     0.029 A 
ATOM     29  N   UNL A   1      44.751  29.276  30.625  1.00  0.00    -0.354 N 
ATOM     30  N   UNL A   1      44.330  26.584  29.468  1.00  0.00    -0.248 NA
ATOM     31  C   UNL A   1      45.159  24.490  28.839  1.00  0.00     0.031 C 
ATOM     32  C   UNL A   1      46.759  29.747  31.443  1.00  0.00     0.029 A 
ATOM     33  C   UNL A   1      46.022  28.756  30.814  1.00  0.00     0.049 A 
ATOM     34  H   UNL A   1      44.005  28.798  30.194  1.00  0.00     0.167 HD
ATOM     35  C   UNL A   1      45.668  26.502  29.826  1.00  0.00     0.074 A 
ATOM     36  C   UNL A   1      46.120  25.179  29.441  1.00  0.00     0.031 C 
ATOM     37  C   UNL A   1      46.452  27.436  30.418  1.00  0.00     0.037 A 
BRANCH  24  38
ATOM     38  C   UNL A   1      43.634  32.829  31.584  1.00  0.00     0.058 A 
ATOM     39  C   UNL A   1      43.904  33.913  30.734  1.00  0.00     0.135 A 
ATOM     40  C   UNL A   1      43.441  33.103  32.948  1.00  0.00     0.135 A 
ATOM     41  F   UNL A   1      44.111  33.711  29.424  1.00  0.00    -0.206 F 
ATOM     42  C   UNL A   1      44.011  35.213  31.222  1.00  0.00     0.059 A 
ATOM     43  C   UNL A   1      43.516  34.398  33.455  1.00  0.00     0.059 A 
ATOM     44  F   UNL A   1      43.180  32.106  33.808  1.00  0.00    -0.206 F 
ATOM     45  C   UNL A   1      43.819  35.445  32.586  1.00  0.00     0.060 A 
BRANCH  45  46
ATOM     46  S   UNL A   1      43.973  37.133  33.206  1.00  0.00     0.124 S 
ATOM     47  O   UNL A   1      44.246  37.870  31.976  1.00  0.00    -0.237 OA
ATOM     48  O   UNL A   1      42.662  37.366  33.805  1.00  0.00    -0.237 OA
ATOM     49  O   UNL A   1      45.084  37.052  34.148  1.00  0.00    -0.744 OA
ENDBRANCH  45  46
ENDBRANCH  24  38
BRANCH  25  50
ATOM     50  C   UNL A   1      42.569  23.634  27.718  1.00  0.00     0.058 A 
ATOM     51  C   UNL A   1      42.678  23.462  26.332  1.00  0.00     0.135 A 
ATOM     52  C   UNL A   1      42.358  22.490  28.506  1.00  0.00     0.135 A 
ATOM     53  F   UNL A   1      42.879  24.524  25.537  1.00  0.00    -0.206 F 
ATOM     54  C   UNL A   1      42.577  22.203  25.746  1.00  0.00     0.059 A 
ATOM     55  C   UNL A   1      42.285  21.220  27.948  1.00  0.00     0.059 A 
ATOM     56  F   UNL A   1      42.270  22.600  29.841  1.00  0.00    -0.206 F 
ATOM     57  C   UNL A   1      42.387  21.088  26.564  1.00  0.00     0.060 A 
BRANCH  57  58
ATOM     58  S   UNL A   1      42.317  19.454  25.800  1.00  0.00     0.124 S 
ATOM     59  O   UNL A   1      40.920  19.382  25.389  1.00  0.00    -0.237 OA
ATOM     60  O   UNL A   1      43.295  19.577  24.724  1.00  0.00    -0.237 OA
ATOM     61  O   UNL A   1      42.702  18.558  26.887  1.00  0.00    -0.744 OA
ENDBRANCH  57  58
ENDBRANCH  25  50
BRANCH  37  62
ATOM     62  C   UNL A   1      47.874  27.048  30.707  1.00  0.00     0.058 A 
ATOM     63  C   UNL A   1      48.907  27.292  29.787  1.00  0.00     0.135 A 
ATOM     64  C   UNL A   1      48.214  26.463  31.937  1.00  0.00     0.135 A 
ATOM     65  F   UNL A   1      48.633  27.839  28.592  1.00  0.00    -0.206 F 
ATOM     66  C   UNL A   1      50.224  26.947  30.068  1.00  0.00     0.059 A 
ATOM     67  C   UNL A   1      49.529  26.137  32.251  1.00  0.00     0.059 A 
ATOM     68  F   UNL A   1      47.266  26.215  32.853  1.00  0.00    -0.206 F 
ATOM     69  C   UNL A   1      50.526  26.373  31.305  1.00  0.00     0.060 A 
BRANCH  69  70
ATOM     70  S   UNL A   1      52.244  25.964  31.672  1.00  0.00     0.124 S 
ATOM     71  O   UNL A   1      52.563  26.939  32.711  1.00  0.00    -0.237 OA
ATOM     72  O   UNL A   1      52.147  24.575  32.114  1.00  0.00    -0.237 OA
ATOM     73  O   UNL A   1      52.922  26.162  30.394  1.00  0.00    -0.744 OA
ENDBRANCH  69  70
ENDBRANCH  37  62
ENDBRANCH  11  12
ENDBRANCH   4   6
ENDBRANCH   1   2
BRANCH   1  74
ATOM     74  C   UNL A   1      35.325  32.654  29.610  1.00  0.00     0.042 C 
BRANCH  74  75
ATOM     75  C   UNL A   1      35.137  33.953  30.370  1.00  0.00     0.118 C 
BRANCH  75  76
ATOM     76  N   UNL A   1      34.269  33.778  31.532  1.00  0.00    -0.351 N 
ATOM     77  C   UNL A   1      34.411  33.177  32.746  1.00  0.00     0.278 C 
ATOM     78  H   UNL A   1      33.382  34.187  31.410  1.00  0.00     0.163 HD
ATOM     79  O   UNL A   1      33.377  33.077  33.420  1.00  0.00    -0.268 OA
BRANCH  77  80
ATOM     80  C   UNL A   1      35.754  32.706  33.338  1.00  0.00     0.277 C 
ATOM     81  C   UNL A   1      36.208  31.407  32.632  1.00  0.00     0.114 C 
ATOM     82  N   UNL A   1      36.765  33.780  33.345  1.00  0.00    -0.324 N 
ATOM     83  C   UNL A   1      37.601  31.075  33.050  1.00  0.00    -0.006 A 
ATOM     84  C   UNL A   1      38.060  33.450  33.922  1.00  0.00     0.264 C 
ATOM     85  H   UNL A   1      36.382  34.564  33.874  1.00  0.00     0.347 HD
ATOM     86  H   UNL A   1      36.951  33.985  32.363  1.00  0.00     0.347 HD
ATOM     87  C   UNL A   1      38.413  32.033  33.628  1.00  0.00     0.083 A 
ATOM     88  C   UNL A   1      38.351  29.875  32.942  1.00  0.00     0.003 A 
ATOM     89  N   UNL A   1      39.658  31.490  33.771  1.00  0.00    -0.353 N 
ATOM     90  C   UNL A   1      39.645  30.169  33.381  1.00  0.00     0.046 A 
ATOM     91  C   UNL A   1      38.073  28.570  32.492  1.00  0.00     0.010 A 
ATOM     92  H   UNL A   1      40.449  31.971  34.105  1.00  0.00     0.166 HD
ATOM     93  C   UNL A   1      40.680  29.228  33.372  1.00  0.00     0.026 A 
ATOM     94  C   UNL A   1      39.092  27.611  32.500  1.00  0.00     0.001 A 
ATOM     95  C   UNL A   1      40.377  27.939  32.927  1.00  0.00     0.002 A 
BRANCH  84  96
ATOM     96  C   UNL A   1      38.155  33.872  35.382  1.00  0.00     0.041 A 
ATOM     97  C   UNL A   1      37.420  33.252  36.384  1.00  0.00     0.093 A 
ATOM     98  C   UNL A   1      39.034  34.809  36.070  1.00  0.00     0.009 A 
ATOM     99  N   UNL A   1      37.775  33.771  37.593  1.00  0.00    -0.361 N 
ATOM    100  C   UNL A   1      38.767  34.704  37.439  1.00  0.00     0.046 A 
ATOM    101  C   UNL A   1      40.062  35.715  35.700  1.00  0.00     0.011 A 
ATOM    102  H   UNL A   1      37.375  33.512  38.455  1.00  0.00     0.166 HD
ATOM    103  C   UNL A   1      39.450  35.438  38.420  1.00  0.00     0.026 A 
ATOM    104  C   UNL A   1      40.759  36.454  36.666  1.00  0.00     0.001 A 
ATOM    105  C   UNL A   1      40.454  36.315  38.010  1.00  0.00     0.002 A 
ENDBRANCH  84  96
ENDBRANCH  77  80
ENDBRANCH  75  76
ENDBRANCH  74  75
ENDBRANCH   1  74
TORSDOF 14
ENDMDL
