MODEL 1
REMARK VINA RESULT:     -11.5      0.000      0.000
REMARK SMILES O=C(Cc1ccccc1Nc1c(Cl)cccc1Cl)NCCCNC(=O)c1ccc(-c2c3nc(c(-c4c(F)cc(S(=O)(=O)[O-])cc4F)c4ccc([nH]4)c(-c4c(F)cc(S(=O)(=O)[O-])cc4F)c4nc(c(-c5c(F)cc(S(=O)(=O)[O-])cc5F)c5ccc2[nH]5)C=C4)C=C3)cc1
REMARK SMILES IDX 21 1 20 2 19 3 1 4 2 5 3 7 4 8 5 9 9 10 6 11 8 12 7 13 10 14
REMARK SMILES IDX 11 16 12 17 17 18 13 19 14 20 16 21 18 22 15 23 22 24 23 25
REMARK SMILES IDX 24 26 25 28 26 29 27 30 91 31 28 32 90 33 29 34 30 35 31 36
REMARK SMILES IDX 84 37 32 38 89 39 83 40 85 41 33 42 88 43 82 44 81 45 34 47
REMARK SMILES IDX 68 48 47 49 67 50 48 51 51 52 66 53 86 54 49 55 50 56 65 58
REMARK SMILES IDX 87 59 52 60 35 61 36 62 45 63 37 64 38 65 44 66 46 67 39 68
REMARK SMILES IDX 40 69 41 70 42 71 43 72 69 73 70 74 79 75 71 76 72 77 78 78
REMARK SMILES IDX 80 79 73 80 74 81 75 82 76 83 77 84 53 85 54 86 63 87 55 88
REMARK SMILES IDX 56 89 62 90 64 91 57 92 58 93 59 94 60 95 61 96
REMARK H PARENT 19 6 10 15 23 27 85 46 51 57
REMARK Flexibility Score: inf
ROOT
ATOM      1  C   UNL A   1      37.883  23.145  25.967  1.00  0.00     0.042 C 
ENDROOT
BRANCH   1   2
ATOM      2  C   UNL A   1      38.378  21.742  25.626  1.00  0.00     0.117 C 
BRANCH   2   3
ATOM      3  N   UNL A   1      39.602  21.408  26.324  1.00  0.00    -0.356 N 
ATOM      4  O   UNL A   1      39.837  19.251  25.549  1.00  0.00    -0.275 OA
ATOM      5  C   UNL A   1      40.244  20.191  26.223  1.00  0.00     0.224 C 
ATOM      6  H   UNL A   1      40.002  22.093  26.907  1.00  0.00     0.163 HD
BRANCH   5   7
ATOM      7  C   UNL A   1      41.523  20.097  27.047  1.00  0.00     0.137 C 
BRANCH   7   8
ATOM      8  C   UNL A   1      42.755  20.096  26.167  1.00  0.00    -0.015 A 
ATOM      9  C   UNL A   1      43.285  18.850  25.770  1.00  0.00     0.006 A 
ATOM     10  C   UNL A   1      43.425  21.286  25.810  1.00  0.00     0.042 A 
ATOM     11  C   UNL A   1      44.483  18.770  25.068  1.00  0.00     0.000 A 
ATOM     12  C   UNL A   1      44.630  21.175  25.095  1.00  0.00     0.026 A 
ATOM     13  C   UNL A   1      45.162  19.935  24.738  1.00  0.00     0.002 A 
BRANCH  10  14
ATOM     14  N   UNL A   1      42.872  22.548  26.119  1.00  0.00    -0.353 N 
ATOM     15  H   UNL A   1      42.004  22.737  25.696  1.00  0.00     0.167 HD
BRANCH  14  16
ATOM     16  C   UNL A   1      43.375  23.587  26.946  1.00  0.00     0.076 A 
ATOM     17  C   UNL A   1      42.913  23.687  28.275  1.00  0.00     0.066 A 
ATOM     18  C   UNL A   1      44.390  24.485  26.552  1.00  0.00     0.066 A 
ATOM     19  Cl  UNL A   1      41.641  22.662  28.851  1.00  0.00    -0.082 Cl
ATOM     20  C   UNL A   1      43.466  24.600  29.181  1.00  0.00     0.023 A 
ATOM     21  C   UNL A   1      44.948  25.393  27.464  1.00  0.00     0.023 A 
ATOM     22  Cl  UNL A   1      44.944  24.608  24.914  1.00  0.00    -0.082 Cl
ATOM     23  C   UNL A   1      44.496  25.443  28.780  1.00  0.00     0.003 A 
ENDBRANCH  14  16
ENDBRANCH  10  14
ENDBRANCH   7   8
ENDBRANCH   5   7
ENDBRANCH   2   3
ENDBRANCH   1   2
BRANCH   1  24
ATOM     24  C   UNL A   1      38.902  24.040  26.668  1.00  0.00     0.118 C 
BRANCH  24  25
ATOM     25  N   UNL A   1      39.957  24.527  25.790  1.00  0.00    -0.352 N 
ATOM     26  C   UNL A   1      40.801  25.603  25.942  1.00  0.00     0.251 C 
ATOM     27  H   UNL A   1      40.085  24.009  24.963  1.00  0.00     0.163 HD
ATOM     28  O   UNL A   1      41.554  25.914  25.019  1.00  0.00    -0.269 OA
BRANCH  26  29
ATOM     29  C   UNL A   1      40.791  26.407  27.186  1.00  0.00     0.039 A 
ATOM     30  C   UNL A   1      41.676  27.484  27.297  1.00  0.00     0.014 A 
ATOM     31  C   UNL A   1      39.926  26.108  28.241  1.00  0.00     0.014 A 
ATOM     32  C   UNL A   1      41.635  28.307  28.428  1.00  0.00     0.010 A 
ATOM     33  C   UNL A   1      39.836  26.971  29.334  1.00  0.00     0.010 A 
ATOM     34  C   UNL A   1      40.684  28.085  29.438  1.00  0.00    -0.014 A 
BRANCH  34  35
ATOM     35  C   UNL A   1      40.547  29.016  30.591  1.00  0.00     0.031 A 
ATOM     36  C   UNL A   1      41.408  28.848  31.816  1.00  0.00     0.074 A 
ATOM     37  C   UNL A   1      39.599  29.975  30.565  1.00  0.00     0.049 A 
ATOM     38  N   UNL A   1      41.380  29.512  32.944  1.00  0.00    -0.248 NA
ATOM     39  C   UNL A   1      42.416  27.776  31.778  1.00  0.00     0.031 C 
ATOM     40  C   UNL A   1      38.671  30.217  29.459  1.00  0.00     0.029 A 
ATOM     41  N   UNL A   1      39.248  30.919  31.501  1.00  0.00    -0.354 N 
ATOM     42  C   UNL A   1      42.352  28.934  33.751  1.00  0.00     0.074 A 
ATOM     43  C   UNL A   1      42.919  27.831  33.003  1.00  0.00     0.031 C 
ATOM     44  C   UNL A   1      37.873  31.251  29.769  1.00  0.00     0.029 A 
ATOM     45  C   UNL A   1      38.198  31.719  31.113  1.00  0.00     0.049 A 
ATOM     46  H   UNL A   1      39.705  31.013  32.367  1.00  0.00     0.167 HD
ATOM     47  C   UNL A   1      42.754  29.301  34.993  1.00  0.00     0.037 A 
ATOM     48  C   UNL A   1      37.558  32.709  31.767  1.00  0.00     0.037 A 
ATOM     49  C   UNL A   1      42.200  30.411  35.725  1.00  0.00     0.049 A 
ATOM     50  C   UNL A   1      38.011  33.089  33.151  1.00  0.00     0.074 A 
ATOM     51  C   UNL A   1      42.578  30.895  36.966  1.00  0.00     0.029 A 
ATOM     52  N   UNL A   1      41.149  31.207  35.290  1.00  0.00    -0.354 N 
ATOM     53  N   UNL A   1      38.976  32.571  33.873  1.00  0.00    -0.248 NA
ATOM     54  C   UNL A   1      37.293  34.189  33.809  1.00  0.00     0.031 C 
ATOM     55  C   UNL A   1      41.720  31.947  37.306  1.00  0.00     0.029 A 
ATOM     56  C   UNL A   1      40.850  32.161  36.249  1.00  0.00     0.049 A 
ATOM     57  H   UNL A   1      40.686  31.108  34.427  1.00  0.00     0.167 HD
ATOM     58  C   UNL A   1      39.004  33.306  35.054  1.00  0.00     0.074 A 
ATOM     59  C   UNL A   1      37.964  34.308  34.948  1.00  0.00     0.031 C 
ATOM     60  C   UNL A   1      39.821  33.165  36.127  1.00  0.00     0.037 A 
BRANCH  47  61
ATOM     61  C   UNL A   1      43.848  28.496  35.643  1.00  0.00     0.058 A 
ATOM     62  C   UNL A   1      43.564  27.395  36.468  1.00  0.00     0.135 A 
ATOM     63  C   UNL A   1      45.197  28.800  35.404  1.00  0.00     0.135 A 
ATOM     64  F   UNL A   1      42.292  27.065  36.742  1.00  0.00    -0.206 F 
ATOM     65  C   UNL A   1      44.577  26.646  37.057  1.00  0.00     0.059 A 
ATOM     66  C   UNL A   1      46.228  28.045  35.957  1.00  0.00     0.059 A 
ATOM     67  F   UNL A   1      45.529  29.839  34.621  1.00  0.00    -0.206 F 
ATOM     68  C   UNL A   1      45.907  26.978  36.795  1.00  0.00     0.060 A 
BRANCH  68  69
ATOM     69  S   UNL A   1      47.209  25.992  37.565  1.00  0.00     0.124 S 
ATOM     70  O   UNL A   1      47.332  26.641  38.867  1.00  0.00    -0.237 OA
ATOM     71  O   UNL A   1      46.621  24.656  37.576  1.00  0.00    -0.237 OA
ATOM     72  O   UNL A   1      48.346  26.168  36.668  1.00  0.00    -0.744 OA
ENDBRANCH  68  69
ENDBRANCH  47  61
BRANCH  48  73
ATOM     73  C   UNL A   1      36.429  33.425  31.112  1.00  0.00     0.058 A 
ATOM     74  C   UNL A   1      36.648  34.273  30.016  1.00  0.00     0.135 A 
ATOM     75  C   UNL A   1      35.108  33.270  31.561  1.00  0.00     0.135 A 
ATOM     76  F   UNL A   1      37.893  34.461  29.552  1.00  0.00    -0.206 F 
ATOM     77  C   UNL A   1      35.604  34.955  29.400  1.00  0.00     0.059 A 
ATOM     78  C   UNL A   1      34.043  33.918  30.943  1.00  0.00     0.059 A 
ATOM     79  F   UNL A   1      34.840  32.458  32.595  1.00  0.00    -0.206 F 
ATOM     80  C   UNL A   1      34.302  34.768  29.869  1.00  0.00     0.060 A 
BRANCH  80  81
ATOM     81  S   UNL A   1      32.950  35.623  29.033  1.00  0.00     0.124 S 
ATOM     82  O   UNL A   1      32.398  34.559  28.202  1.00  0.00    -0.237 OA
ATOM     83  O   UNL A   1      32.121  36.054  30.154  1.00  0.00    -0.237 OA
ATOM     84  O   UNL A   1      33.627  36.698  28.314  1.00  0.00    -0.744 OA
ENDBRANCH  80  81
ENDBRANCH  48  73
BRANCH  60  85
ATOM     85  C   UNL A   1      39.665  34.144  37.261  1.00  0.00     0.058 A 
ATOM     86  C   UNL A   1      38.910  33.842  38.404  1.00  0.00     0.135 A 
ATOM     87  C   UNL A   1      40.336  35.377  37.225  1.00  0.00     0.135 A 
ATOM     88  F   UNL A   1      38.241  32.682  38.487  1.00  0.00    -0.206 F 
ATOM     89  C   UNL A   1      38.813  34.736  39.467  1.00  0.00     0.059 A 
ATOM     90  C   UNL A   1      40.279  36.272  38.289  1.00  0.00     0.059 A 
ATOM     91  F   UNL A   1      41.079  35.713  36.159  1.00  0.00    -0.206 F 
ATOM     92  C   UNL A   1      39.507  35.947  39.402  1.00  0.00     0.060 A 
BRANCH  92  93
ATOM     93  S   UNL A   1      39.411  37.075  40.809  1.00  0.00     0.124 S 
ATOM     94  O   UNL A   1      38.878  36.203  41.850  1.00  0.00    -0.237 OA
ATOM     95  O   UNL A   1      40.802  37.485  40.976  1.00  0.00    -0.237 OA
ATOM     96  O   UNL A   1      38.507  38.123  40.344  1.00  0.00    -0.744 OA
ENDBRANCH  92  93
ENDBRANCH  60  85
ENDBRANCH  34  35
ENDBRANCH  26  29
ENDBRANCH  24  25
ENDBRANCH   1  24
TORSDOF 16
ENDMDL
MODEL 2
REMARK VINA RESULT:     -11.5      5.309     11.216
REMARK SMILES O=C(Cc1ccccc1Nc1c(Cl)cccc1Cl)NCCCNC(=O)c1ccc(-c2c3nc(c(-c4c(F)cc(S(=O)(=O)[O-])cc4F)c4ccc([nH]4)c(-c4c(F)cc(S(=O)(=O)[O-])cc4F)c4nc(c(-c5c(F)cc(S(=O)(=O)[O-])cc5F)c5ccc2[nH]5)C=C4)C=C3)cc1
REMARK SMILES IDX 21 1 20 2 19 3 1 4 2 5 3 7 4 8 5 9 9 10 6 11 8 12 7 13 10 14
REMARK SMILES IDX 11 16 12 17 17 18 13 19 14 20 16 21 18 22 15 23 22 24 23 25
REMARK SMILES IDX 24 26 25 28 26 29 27 30 91 31 28 32 90 33 29 34 30 35 31 36
REMARK SMILES IDX 84 37 32 38 89 39 83 40 85 41 33 42 88 43 82 44 81 45 34 47
REMARK SMILES IDX 68 48 47 49 67 50 48 51 51 52 66 53 86 54 49 55 50 56 65 58
REMARK SMILES IDX 87 59 52 60 35 61 36 62 45 63 37 64 38 65 44 66 46 67 39 68
REMARK SMILES IDX 40 69 41 70 42 71 43 72 69 73 70 74 79 75 71 76 72 77 78 78
REMARK SMILES IDX 80 79 73 80 74 81 75 82 76 83 77 84 53 85 54 86 63 87 55 88
REMARK SMILES IDX 56 89 62 90 64 91 57 92 58 93 59 94 60 95 61 96
REMARK H PARENT 19 6 10 15 23 27 85 46 51 57
REMARK Flexibility Score: inf
ROOT
ATOM      1  C   UNL A   1      32.350  27.592  27.169  1.00  0.00     0.042 C 
ENDROOT
BRANCH   1   2
ATOM      2  C   UNL A   1      32.076  26.485  26.156  1.00  0.00     0.117 C 
BRANCH   2   3
ATOM      3  N   UNL A   1      32.612  25.208  26.580  1.00  0.00    -0.356 N 
ATOM      4  O   UNL A   1      33.221  24.408  24.507  1.00  0.00    -0.275 OA
ATOM      5  C   UNL A   1      33.153  24.272  25.725  1.00  0.00     0.224 C 
ATOM      6  H   UNL A   1      32.588  24.995  27.541  1.00  0.00     0.163 HD
BRANCH   5   7
ATOM      7  C   UNL A   1      33.661  23.016  26.423  1.00  0.00     0.137 C 
BRANCH   7   8
ATOM      8  C   UNL A   1      35.070  22.667  25.989  1.00  0.00    -0.015 A 
ATOM      9  C   UNL A   1      36.028  23.702  25.958  1.00  0.00     0.006 A 
ATOM     10  C   UNL A   1      35.420  21.376  25.541  1.00  0.00     0.042 A 
ATOM     11  C   UNL A   1      37.305  23.482  25.451  1.00  0.00     0.000 A 
ATOM     12  C   UNL A   1      36.718  21.181  25.041  1.00  0.00     0.026 A 
ATOM     13  C   UNL A   1      37.648  22.221  24.983  1.00  0.00     0.002 A 
BRANCH  10  14
ATOM     14  N   UNL A   1      34.507  20.303  25.643  1.00  0.00    -0.353 N 
ATOM     15  H   UNL A   1      34.198  20.104  26.556  1.00  0.00     0.167 HD
BRANCH  14  16
ATOM     16  C   UNL A   1      33.966  19.467  24.631  1.00  0.00     0.076 A 
ATOM     17  C   UNL A   1      34.581  18.224  24.370  1.00  0.00     0.066 A 
ATOM     18  C   UNL A   1      32.782  19.757  23.919  1.00  0.00     0.066 A 
ATOM     19  Cl  UNL A   1      36.060  17.784  25.156  1.00  0.00    -0.082 Cl
ATOM     20  C   UNL A   1      34.021  17.296  23.483  1.00  0.00     0.023 A 
ATOM     21  C   UNL A   1      32.218  18.822  23.038  1.00  0.00     0.023 A 
ATOM     22  Cl  UNL A   1      32.002  21.303  23.996  1.00  0.00    -0.082 Cl
ATOM     23  C   UNL A   1      32.830  17.588  22.829  1.00  0.00     0.003 A 
ENDBRANCH  14  16
ENDBRANCH  10  14
ENDBRANCH   7   8
ENDBRANCH   5   7
ENDBRANCH   2   3
ENDBRANCH   1   2
BRANCH   1  24
ATOM     24  C   UNL A   1      33.586  28.443  26.883  1.00  0.00     0.118 C 
BRANCH  24  25
ATOM     25  N   UNL A   1      33.494  29.803  27.396  1.00  0.00    -0.352 N 
ATOM     26  C   UNL A   1      34.421  30.547  28.087  1.00  0.00     0.251 C 
ATOM     27  H   UNL A   1      32.638  30.257  27.223  1.00  0.00     0.163 HD
ATOM     28  O   UNL A   1      34.100  31.647  28.536  1.00  0.00    -0.269 OA
BRANCH  26  29
ATOM     29  C   UNL A   1      35.788  30.027  28.324  1.00  0.00     0.039 A 
ATOM     30  C   UNL A   1      36.711  30.059  27.274  1.00  0.00     0.014 A 
ATOM     31  C   UNL A   1      36.166  29.507  29.565  1.00  0.00     0.014 A 
ATOM     32  C   UNL A   1      38.031  29.646  27.491  1.00  0.00     0.010 A 
ATOM     33  C   UNL A   1      37.498  29.164  29.800  1.00  0.00     0.010 A 
ATOM     34  C   UNL A   1      38.448  29.236  28.769  1.00  0.00    -0.014 A 
BRANCH  34  35
ATOM     35  C   UNL A   1      39.872  28.905  29.048  1.00  0.00     0.031 A 
ATOM     36  C   UNL A   1      40.802  29.945  29.615  1.00  0.00     0.074 A 
ATOM     37  C   UNL A   1      40.349  27.684  28.727  1.00  0.00     0.049 A 
ATOM     38  N   UNL A   1      42.087  29.864  29.852  1.00  0.00    -0.248 NA
ATOM     39  C   UNL A   1      40.217  31.257  29.934  1.00  0.00     0.031 C 
ATOM     40  C   UNL A   1      39.565  26.600  28.131  1.00  0.00     0.029 A 
ATOM     41  N   UNL A   1      41.610  27.151  28.844  1.00  0.00    -0.354 N 
ATOM     42  C   UNL A   1      42.465  31.112  30.334  1.00  0.00     0.074 A 
ATOM     43  C   UNL A   1      41.284  31.948  30.308  1.00  0.00     0.031 C 
ATOM     44  C   UNL A   1      40.354  25.529  27.955  1.00  0.00     0.029 A 
ATOM     45  C   UNL A   1      41.711  25.859  28.379  1.00  0.00     0.049 A 
ATOM     46  H   UNL A   1      42.370  27.647  29.224  1.00  0.00     0.167 HD
ATOM     47  C   UNL A   1      43.679  31.518  30.781  1.00  0.00     0.037 A 
ATOM     48  C   UNL A   1      42.775  25.036  28.292  1.00  0.00     0.037 A 
ATOM     49  C   UNL A   1      44.847  30.676  30.823  1.00  0.00     0.049 A 
ATOM     50  C   UNL A   1      44.117  25.515  28.779  1.00  0.00     0.074 A 
ATOM     51  C   UNL A   1      46.108  30.979  31.308  1.00  0.00     0.029 A 
ATOM     52  N   UNL A   1      44.903  29.368  30.359  1.00  0.00    -0.354 N 
ATOM     53  N   UNL A   1      44.440  26.678  29.291  1.00  0.00    -0.248 NA
ATOM     54  C   UNL A   1      45.237  24.569  28.680  1.00  0.00     0.031 C 
ATOM     55  C   UNL A   1      46.940  29.876  31.088  1.00  0.00     0.029 A 
ATOM     56  C   UNL A   1      46.182  28.862  30.524  1.00  0.00     0.049 A 
ATOM     57  H   UNL A   1      44.145  28.874  29.970  1.00  0.00     0.167 HD
ATOM     58  C   UNL A   1      45.792  26.591  29.609  1.00  0.00     0.074 A 
ATOM     59  C   UNL A   1      46.224  25.260  29.237  1.00  0.00     0.031 C 
ATOM     60  C   UNL A   1      46.599  27.529  30.163  1.00  0.00     0.037 A 
BRANCH  47  61
ATOM     61  C   UNL A   1      43.811  32.939  31.262  1.00  0.00     0.058 A 
ATOM     62  C   UNL A   1      43.628  33.282  32.611  1.00  0.00     0.135 A 
ATOM     63  C   UNL A   1      44.168  33.964  30.372  1.00  0.00     0.135 A 
ATOM     64  F   UNL A   1      43.273  32.345  33.506  1.00  0.00    -0.206 F 
ATOM     65  C   UNL A   1      43.764  34.594  33.054  1.00  0.00     0.059 A 
ATOM     66  C   UNL A   1      44.341  35.278  30.798  1.00  0.00     0.059 A 
ATOM     67  F   UNL A   1      44.359  33.695  29.070  1.00  0.00    -0.206 F 
ATOM     68  C   UNL A   1      44.122  35.585  32.139  1.00  0.00     0.060 A 
BRANCH  68  69
ATOM     69  S   UNL A   1      44.296  37.281  32.733  1.00  0.00     0.124 S 
ATOM     70  O   UNL A   1      43.137  37.401  33.613  1.00  0.00    -0.237 OA
ATOM     71  O   UNL A   1      45.595  37.245  33.398  1.00  0.00    -0.237 OA
ATOM     72  O   UNL A   1      44.242  38.078  31.511  1.00  0.00    -0.744 OA
ENDBRANCH  68  69
ENDBRANCH  47  61
BRANCH  48  73
ATOM     73  C   UNL A   1      42.611  23.665  27.735  1.00  0.00     0.058 A 
ATOM     74  C   UNL A   1      42.647  23.438  26.351  1.00  0.00     0.135 A 
ATOM     75  C   UNL A   1      42.425  22.554  28.572  1.00  0.00     0.135 A 
ATOM     76  F   UNL A   1      42.815  24.468  25.506  1.00  0.00    -0.206 F 
ATOM     77  C   UNL A   1      42.486  22.165  25.815  1.00  0.00     0.059 A 
ATOM     78  C   UNL A   1      42.292  21.266  28.062  1.00  0.00     0.059 A 
ATOM     79  F   UNL A   1      42.400  22.713  29.905  1.00  0.00    -0.206 F 
ATOM     80  C   UNL A   1      42.313  21.083  26.681  1.00  0.00     0.060 A 
BRANCH  80  81
ATOM     81  S   UNL A   1      42.151  19.429  25.976  1.00  0.00     0.124 S 
ATOM     82  O   UNL A   1      40.714  19.345  25.749  1.00  0.00    -0.237 OA
ATOM     83  O   UNL A   1      42.983  19.523  24.780  1.00  0.00    -0.237 OA
ATOM     84  O   UNL A   1      42.676  18.563  27.028  1.00  0.00    -0.744 OA
ENDBRANCH  80  81
ENDBRANCH  48  73
BRANCH  60  85
ATOM     85  C   UNL A   1      48.026  27.143  30.451  1.00  0.00     0.058 A 
ATOM     86  C   UNL A   1      49.036  27.256  29.484  1.00  0.00     0.135 A 
ATOM     87  C   UNL A   1      48.395  26.715  31.738  1.00  0.00     0.135 A 
ATOM     88  F   UNL A   1      48.737  27.652  28.237  1.00  0.00    -0.206 F 
ATOM     89  C   UNL A   1      50.360  26.943  29.777  1.00  0.00     0.059 A 
ATOM     90  C   UNL A   1      49.717  26.427  32.061  1.00  0.00     0.059 A 
ATOM     91  F   UNL A   1      47.471  26.598  32.703  1.00  0.00    -0.206 F 
ATOM     92  C   UNL A   1      50.692  26.535  31.071  1.00  0.00     0.060 A 
BRANCH  92  93
ATOM     93  S   UNL A   1      52.421  26.179  31.450  1.00  0.00     0.124 S 
ATOM     94  O   UNL A   1      52.683  27.114  32.538  1.00  0.00    -0.237 OA
ATOM     95  O   UNL A   1      52.376  24.769  31.822  1.00  0.00    -0.237 OA
ATOM     96  O   UNL A   1      53.110  26.467  30.195  1.00  0.00    -0.744 OA
ENDBRANCH  92  93
ENDBRANCH  60  85
ENDBRANCH  34  35
ENDBRANCH  26  29
ENDBRANCH  24  25
ENDBRANCH   1  24
TORSDOF 16
ENDMDL
MODEL 3
REMARK VINA RESULT:     -11.3      3.017      5.297
REMARK SMILES O=C(Cc1ccccc1Nc1c(Cl)cccc1Cl)NCCCNC(=O)c1ccc(-c2c3nc(c(-c4c(F)cc(S(=O)(=O)[O-])cc4F)c4ccc([nH]4)c(-c4c(F)cc(S(=O)(=O)[O-])cc4F)c4nc(c(-c5c(F)cc(S(=O)(=O)[O-])cc5F)c5ccc2[nH]5)C=C4)C=C3)cc1
REMARK SMILES IDX 21 1 20 2 19 3 1 4 2 5 3 7 4 8 5 9 9 10 6 11 8 12 7 13 10 14
REMARK SMILES IDX 11 16 12 17 17 18 13 19 14 20 16 21 18 22 15 23 22 24 23 25
REMARK SMILES IDX 24 26 25 28 26 29 27 30 91 31 28 32 90 33 29 34 30 35 31 36
REMARK SMILES IDX 84 37 32 38 89 39 83 40 85 41 33 42 88 43 82 44 81 45 34 47
REMARK SMILES IDX 68 48 47 49 67 50 48 51 51 52 66 53 86 54 49 55 50 56 65 58
REMARK SMILES IDX 87 59 52 60 35 61 36 62 45 63 37 64 38 65 44 66 46 67 39 68
REMARK SMILES IDX 40 69 41 70 42 71 43 72 69 73 70 74 79 75 71 76 72 77 78 78
REMARK SMILES IDX 80 79 73 80 74 81 75 82 76 83 77 84 53 85 54 86 63 87 55 88
REMARK SMILES IDX 56 89 62 90 64 91 57 92 58 93 59 94 60 95 61 96
REMARK H PARENT 19 6 10 15 23 27 85 46 51 57
REMARK Flexibility Score: inf
ROOT
ATOM      1  C   UNL A   1      40.192  21.724  27.191  1.00  0.00     0.042 C 
ENDROOT
BRANCH   1   2
ATOM      2  C   UNL A   1      39.371  21.784  25.907  1.00  0.00     0.117 C 
BRANCH   2   3
ATOM      3  N   UNL A   1      38.009  22.215  26.147  1.00  0.00    -0.356 N 
ATOM      4  O   UNL A   1      37.280  22.218  23.961  1.00  0.00    -0.275 OA
ATOM      5  C   UNL A   1      37.065  22.389  25.157  1.00  0.00     0.224 C 
ATOM      6  H   UNL A   1      37.740  22.396  27.077  1.00  0.00     0.163 HD
BRANCH   5   7
ATOM      7  C   UNL A   1      35.702  22.834  25.673  1.00  0.00     0.137 C 
BRANCH   7   8
ATOM      8  C   UNL A   1      34.583  21.994  25.093  1.00  0.00    -0.015 A 
ATOM      9  C   UNL A   1      34.616  20.601  25.318  1.00  0.00     0.006 A 
ATOM     10  C   UNL A   1      33.574  22.546  24.276  1.00  0.00     0.042 A 
ATOM     11  C   UNL A   1      33.694  19.755  24.711  1.00  0.00     0.000 A 
ATOM     12  C   UNL A   1      32.652  21.668  23.682  1.00  0.00     0.026 A 
ATOM     13  C   UNL A   1      32.716  20.288  23.885  1.00  0.00     0.002 A 
BRANCH  10  14
ATOM     14  N   UNL A   1      33.466  23.944  24.105  1.00  0.00    -0.353 N 
ATOM     15  H   UNL A   1      34.300  24.398  23.846  1.00  0.00     0.167 HD
BRANCH  14  16
ATOM     16  C   UNL A   1      32.340  24.795  24.249  1.00  0.00     0.076 A 
ATOM     17  C   UNL A   1      31.942  25.594  23.155  1.00  0.00     0.066 A 
ATOM     18  C   UNL A   1      31.521  24.832  25.398  1.00  0.00     0.066 A 
ATOM     19  Cl  UNL A   1      32.896  25.658  21.711  1.00  0.00    -0.082 Cl
ATOM     20  C   UNL A   1      30.765  26.352  23.185  1.00  0.00     0.023 A 
ATOM     21  C   UNL A   1      30.337  25.584  25.422  1.00  0.00     0.023 A 
ATOM     22  Cl  UNL A   1      31.959  24.047  26.881  1.00  0.00    -0.082 Cl
ATOM     23  C   UNL A   1      29.953  26.334  24.313  1.00  0.00     0.003 A 
ENDBRANCH  14  16
ENDBRANCH  10  14
ENDBRANCH   7   8
ENDBRANCH   5   7
ENDBRANCH   2   3
ENDBRANCH   1   2
BRANCH   1  24
ATOM     24  C   UNL A   1      41.242  22.822  27.343  1.00  0.00     0.118 C 
BRANCH  24  25
ATOM     25  N   UNL A   1      41.352  23.694  26.181  1.00  0.00    -0.352 N 
ATOM     26  C   UNL A   1      41.313  25.067  26.104  1.00  0.00     0.251 C 
ATOM     27  H   UNL A   1      41.471  23.230  25.321  1.00  0.00     0.163 HD
ATOM     28  O   UNL A   1      41.308  25.609  25.000  1.00  0.00    -0.269 OA
BRANCH  26  29
ATOM     29  C   UNL A   1      41.245  25.894  27.331  1.00  0.00     0.039 A 
ATOM     30  C   UNL A   1      42.279  26.801  27.589  1.00  0.00     0.014 A 
ATOM     31  C   UNL A   1      40.180  25.784  28.228  1.00  0.00     0.014 A 
ATOM     32  C   UNL A   1      42.203  27.649  28.699  1.00  0.00     0.010 A 
ATOM     33  C   UNL A   1      40.070  26.679  29.293  1.00  0.00     0.010 A 
ATOM     34  C   UNL A   1      41.076  27.627  29.537  1.00  0.00    -0.014 A 
BRANCH  34  35
ATOM     35  C   UNL A   1      40.923  28.600  30.653  1.00  0.00     0.031 A 
ATOM     36  C   UNL A   1      41.767  28.478  31.894  1.00  0.00     0.074 A 
ATOM     37  C   UNL A   1      39.974  29.557  30.579  1.00  0.00     0.049 A 
ATOM     38  N   UNL A   1      41.723  29.183  32.997  1.00  0.00    -0.248 NA
ATOM     39  C   UNL A   1      42.777  27.408  31.910  1.00  0.00     0.031 C 
ATOM     40  C   UNL A   1      39.061  29.756  29.453  1.00  0.00     0.029 A 
ATOM     41  N   UNL A   1      39.610  30.534  31.475  1.00  0.00    -0.354 N 
ATOM     42  C   UNL A   1      42.686  28.637  33.838  1.00  0.00     0.074 A 
ATOM     43  C   UNL A   1      43.263  27.509  33.139  1.00  0.00     0.031 C 
ATOM     44  C   UNL A   1      38.258  30.800  29.714  1.00  0.00     0.029 A 
ATOM     45  C   UNL A   1      38.564  31.317  31.044  1.00  0.00     0.049 A 
ATOM     46  H   UNL A   1      40.055  30.660  32.343  1.00  0.00     0.167 HD
ATOM     47  C   UNL A   1      43.070  29.050  35.070  1.00  0.00     0.037 A 
ATOM     48  C   UNL A   1      37.915  32.330  31.652  1.00  0.00     0.037 A 
ATOM     49  C   UNL A   1      42.505  30.185  35.754  1.00  0.00     0.049 A 
ATOM     50  C   UNL A   1      38.349  32.762  33.027  1.00  0.00     0.074 A 
ATOM     51  C   UNL A   1      42.866  30.716  36.981  1.00  0.00     0.029 A 
ATOM     52  N   UNL A   1      41.460  30.964  35.276  1.00  0.00    -0.354 N 
ATOM     53  N   UNL A   1      39.304  32.272  33.780  1.00  0.00    -0.248 NA
ATOM     54  C   UNL A   1      37.621  33.884  33.634  1.00  0.00     0.031 C 
ATOM     55  C   UNL A   1      42.003  31.779  37.270  1.00  0.00     0.029 A 
ATOM     56  C   UNL A   1      41.147  31.952  36.195  1.00  0.00     0.049 A 
ATOM     57  H   UNL A   1      41.008  30.832  34.411  1.00  0.00     0.167 HD
ATOM     58  C   UNL A   1      39.316  33.049  34.934  1.00  0.00     0.074 A 
ATOM     59  C   UNL A   1      38.276  34.046  34.777  1.00  0.00     0.031 C 
ATOM     60  C   UNL A   1      40.118  32.949  36.022  1.00  0.00     0.037 A 
BRANCH  47  61
ATOM     61  C   UNL A   1      44.156  28.271  35.765  1.00  0.00     0.058 A 
ATOM     62  C   UNL A   1      45.513  28.595  35.608  1.00  0.00     0.135 A 
ATOM     63  C   UNL A   1      43.834  27.216  36.633  1.00  0.00     0.135 A 
ATOM     64  F   UNL A   1      45.882  29.587  34.781  1.00  0.00    -0.206 F 
ATOM     65  C   UNL A   1      46.513  27.882  36.262  1.00  0.00     0.059 A 
ATOM     66  C   UNL A   1      44.814  26.509  37.323  1.00  0.00     0.059 A 
ATOM     67  F   UNL A   1      42.552  26.863  36.824  1.00  0.00    -0.206 F 
ATOM     68  C   UNL A   1      46.153  26.840  37.119  1.00  0.00     0.060 A 
BRANCH  68  69
ATOM     69  S   UNL A   1      47.464  25.927  37.961  1.00  0.00     0.124 S 
ATOM     70  O   UNL A   1      48.077  25.208  36.849  1.00  0.00    -0.237 OA
ATOM     71  O   UNL A   1      48.265  27.000  38.541  1.00  0.00    -0.237 OA
ATOM     72  O   UNL A   1      46.740  25.099  38.920  1.00  0.00    -0.744 OA
ENDBRANCH  68  69
ENDBRANCH  47  61
BRANCH  48  73
ATOM     73  C   UNL A   1      36.794  33.020  30.956  1.00  0.00     0.058 A 
ATOM     74  C   UNL A   1      35.462  32.804  31.341  1.00  0.00     0.135 A 
ATOM     75  C   UNL A   1      37.029  33.913  29.899  1.00  0.00     0.135 A 
ATOM     76  F   UNL A   1      35.182  31.954  32.341  1.00  0.00    -0.206 F 
ATOM     77  C   UNL A   1      34.404  33.434  30.695  1.00  0.00     0.059 A 
ATOM     78  C   UNL A   1      35.989  34.578  29.256  1.00  0.00     0.059 A 
ATOM     79  F   UNL A   1      38.285  34.167  29.501  1.00  0.00    -0.206 F 
ATOM     80  C   UNL A   1      34.678  34.323  29.654  1.00  0.00     0.060 A 
BRANCH  80  81
ATOM     81  S   UNL A   1      33.299  35.169  28.852  1.00  0.00     0.124 S 
ATOM     82  O   UNL A   1      32.492  35.567  29.999  1.00  0.00    -0.237 OA
ATOM     83  O   UNL A   1      33.976  36.249  28.140  1.00  0.00    -0.237 OA
ATOM     84  O   UNL A   1      32.720  34.134  28.001  1.00  0.00    -0.744 OA
ENDBRANCH  80  81
ENDBRANCH  48  73
BRANCH  60  85
ATOM     85  C   UNL A   1      39.946  33.969  37.116  1.00  0.00     0.058 A 
ATOM     86  C   UNL A   1      40.514  35.250  37.035  1.00  0.00     0.135 A 
ATOM     87  C   UNL A   1      39.145  33.678  38.233  1.00  0.00     0.135 A 
ATOM     88  F   UNL A   1      41.295  35.578  35.994  1.00  0.00    -0.206 F 
ATOM     89  C   UNL A   1      40.307  36.200  38.030  1.00  0.00     0.059 A 
ATOM     90  C   UNL A   1      38.899  34.623  39.224  1.00  0.00     0.059 A 
ATOM     91  F   UNL A   1      38.570  32.471  38.358  1.00  0.00    -0.206 F 
ATOM     92  C   UNL A   1      39.493  35.879  39.118  1.00  0.00     0.060 A 
BRANCH  92  93
ATOM     93  S   UNL A   1      39.194  37.139  40.377  1.00  0.00     0.124 S 
ATOM     94  O   UNL A   1      40.551  37.442  40.819  1.00  0.00    -0.237 OA
ATOM     95  O   UNL A   1      38.526  38.189  39.614  1.00  0.00    -0.237 OA
ATOM     96  O   UNL A   1      38.354  36.453  41.354  1.00  0.00    -0.744 OA
ENDBRANCH  92  93
ENDBRANCH  60  85
ENDBRANCH  34  35
ENDBRANCH  26  29
ENDBRANCH  24  25
ENDBRANCH   1  24
TORSDOF 16
ENDMDL
