MODEL 1
REMARK VINA RESULT:     -10.5      0.000      0.000
REMARK SMILES N#Cc1nccnc1N(CC(=O)NCCCNC(=O)c1ccc(-c2c3nc(c(-c4c(F)cc(S(=O)(=O)[O-])cc4F)c4ccc([nH]4)c(-c4c(F)cc(S(=O)(=O)[O-])cc4F)c4nc(c(-c5c(F)cc(S(=O)(=O)[O-])cc5F)c5ccc2[nH]5)C=C4)C=C3)cc1)CC(F)(F)F
REMARK SMILES IDX 15 1 14 2 13 3 11 4 12 5 10 7 9 8 8 9 3 10 4 11 5 12 7 13
REMARK SMILES IDX 6 14 2 15 1 16 86 17 87 18 88 19 89 20 90 21 16 22 17 23
REMARK SMILES IDX 18 24 19 26 20 27 21 28 85 29 22 30 84 31 23 32 24 33 25 34
REMARK SMILES IDX 78 35 26 36 83 37 77 38 79 39 27 40 82 41 76 42 75 43 28 45
REMARK SMILES IDX 62 46 41 47 61 48 42 49 45 50 60 51 80 52 43 53 44 54 59 56
REMARK SMILES IDX 81 57 46 58 29 59 30 60 39 61 31 62 32 63 38 64 40 65 33 66
REMARK SMILES IDX 34 67 35 68 36 69 37 70 63 71 64 72 73 73 65 74 66 75 72 76
REMARK SMILES IDX 74 77 67 78 68 79 69 80 70 81 71 82 47 83 48 84 57 85 49 86
REMARK SMILES IDX 50 87 56 88 58 89 51 90 52 91 53 92 54 93 55 94
REMARK H PARENT 13 6 17 25 79 44 45 55
REMARK Flexibility Score: inf
ROOT
ATOM      1  C   UNL A   1      32.178  27.920  27.473  1.00  0.00     0.042 C 
ENDROOT
BRANCH   1   2
ATOM      2  C   UNL A   1      31.774  26.961  26.360  1.00  0.00     0.117 C 
BRANCH   2   3
ATOM      3  N   UNL A   1      31.230  25.715  26.870  1.00  0.00    -0.354 N 
ATOM      4  C   UNL A   1      31.720  24.449  26.738  1.00  0.00     0.239 C 
ATOM      5  O   UNL A   1      31.074  23.513  27.218  1.00  0.00    -0.273 OA
ATOM      6  H   UNL A   1      30.392  25.796  27.382  1.00  0.00     0.163 HD
BRANCH   4   7
ATOM      7  C   UNL A   1      33.043  24.201  26.007  1.00  0.00     0.218 C 
BRANCH   7   8
ATOM      8  N   UNL A   1      32.879  23.413  24.758  1.00  0.00    -0.336 N 
BRANCH   8   9
ATOM      9  C   UNL A   1      33.212  22.068  24.790  1.00  0.00     0.166 A 
ATOM     10  C   UNL A   1      34.491  21.474  24.705  1.00  0.00     0.183 A 
ATOM     11  N   UNL A   1      34.711  20.122  24.766  1.00  0.00    -0.240 NA
ATOM     12  C   UNL A   1      33.631  19.341  24.920  1.00  0.00     0.133 A 
ATOM     13  N   UNL A   1      32.155  21.215  24.920  1.00  0.00    -0.235 NA
ATOM     14  C   UNL A   1      32.372  19.880  24.987  1.00  0.00     0.133 A 
BRANCH  10  15
ATOM     15  C   UNL A   1      35.704  22.201  24.475  1.00  0.00     0.123 C 
ATOM     16  N   UNL A   1      36.657  22.824  24.250  1.00  0.00    -0.191 NA
ENDBRANCH  10  15
ENDBRANCH   8   9
BRANCH   8  17
ATOM     17  C   UNL A   1      32.220  24.136  23.630  1.00  0.00     0.234 C 
BRANCH  17  18
ATOM     18  C   UNL A   1      33.092  25.144  22.855  1.00  0.00     0.405 C 
ATOM     19  F   UNL A   1      34.408  24.863  22.959  1.00  0.00    -0.169 F 
ATOM     20  F   UNL A   1      32.769  25.144  21.542  1.00  0.00    -0.169 F 
ATOM     21  F   UNL A   1      32.915  26.405  23.311  1.00  0.00    -0.169 F 
ENDBRANCH  17  18
ENDBRANCH   8  17
ENDBRANCH   7   8
ENDBRANCH   4   7
ENDBRANCH   2   3
ENDBRANCH   1   2
BRANCH   1  22
ATOM     22  C   UNL A   1      33.543  28.562  27.254  1.00  0.00     0.118 C 
BRANCH  22  23
ATOM     23  N   UNL A   1      33.553  29.974  27.625  1.00  0.00    -0.352 N 
ATOM     24  C   UNL A   1      34.539  30.716  28.231  1.00  0.00     0.251 C 
ATOM     25  H   UNL A   1      32.731  30.469  27.408  1.00  0.00     0.163 HD
ATOM     26  O   UNL A   1      34.278  31.837  28.660  1.00  0.00    -0.269 OA
BRANCH  24  27
ATOM     27  C   UNL A   1      35.898  30.154  28.390  1.00  0.00     0.039 A 
ATOM     28  C   UNL A   1      36.320  29.652  29.621  1.00  0.00     0.014 A 
ATOM     29  C   UNL A   1      36.767  30.141  27.295  1.00  0.00     0.014 A 
ATOM     30  C   UNL A   1      37.656  29.322  29.810  1.00  0.00     0.010 A 
ATOM     31  C   UNL A   1      38.086  29.707  27.462  1.00  0.00     0.010 A 
ATOM     32  C   UNL A   1      38.558  29.346  28.733  1.00  0.00    -0.014 A 
BRANCH  32  33
ATOM     33  C   UNL A   1      39.987  29.001  28.962  1.00  0.00     0.031 A 
ATOM     34  C   UNL A   1      40.912  29.969  29.656  1.00  0.00     0.074 A 
ATOM     35  C   UNL A   1      40.442  27.788  28.592  1.00  0.00     0.049 A 
ATOM     36  N   UNL A   1      42.182  29.837  29.941  1.00  0.00    -0.248 NA
ATOM     37  C   UNL A   1      40.336  31.256  30.078  1.00  0.00     0.031 C 
ATOM     38  C   UNL A   1      39.639  26.751  27.939  1.00  0.00     0.029 A 
ATOM     39  N   UNL A   1      41.677  27.208  28.734  1.00  0.00    -0.354 N 
ATOM     40  C   UNL A   1      42.557  31.017  30.576  1.00  0.00     0.074 A 
ATOM     41  C   UNL A   1      41.395  31.879  30.575  1.00  0.00     0.031 C 
ATOM     42  C   UNL A   1      40.381  25.645  27.795  1.00  0.00     0.029 A 
ATOM     43  C   UNL A   1      41.733  25.913  28.275  1.00  0.00     0.049 A 
ATOM     44  H   UNL A   1      42.449  27.674  29.127  1.00  0.00     0.167 HD
ATOM     45  C   UNL A   1      43.750  31.342  31.132  1.00  0.00     0.037 A 
ATOM     46  C   UNL A   1      42.757  25.040  28.230  1.00  0.00     0.037 A 
ATOM     47  C   UNL A   1      44.904  30.478  31.126  1.00  0.00     0.049 A 
ATOM     48  C   UNL A   1      44.099  25.462  28.758  1.00  0.00     0.074 A 
ATOM     49  C   UNL A   1      46.163  30.721  31.647  1.00  0.00     0.029 A 
ATOM     50  N   UNL A   1      44.942  29.205  30.573  1.00  0.00    -0.354 N 
ATOM     51  N   UNL A   1      44.438  26.584  29.346  1.00  0.00    -0.248 NA
ATOM     52  C   UNL A   1      45.200  24.500  28.611  1.00  0.00     0.031 C 
ATOM     53  C   UNL A   1      46.976  29.620  31.360  1.00  0.00     0.029 A 
ATOM     54  C   UNL A   1      46.208  28.662  30.717  1.00  0.00     0.049 A 
ATOM     55  H   UNL A   1      44.180  28.755  30.142  1.00  0.00     0.167 HD
ATOM     56  C   UNL A   1      45.787  26.456  29.660  1.00  0.00     0.074 A 
ATOM     57  C   UNL A   1      46.195  25.141  29.211  1.00  0.00     0.031 C 
ATOM     58  C   UNL A   1      46.608  27.349  30.266  1.00  0.00     0.037 A 
BRANCH  45  59
ATOM     59  C   UNL A   1      43.868  32.695  31.789  1.00  0.00     0.058 A 
ATOM     60  C   UNL A   1      43.563  32.883  33.147  1.00  0.00     0.135 A 
ATOM     61  C   UNL A   1      44.313  33.813  31.063  1.00  0.00     0.135 A 
ATOM     62  F   UNL A   1      43.123  31.855  33.890  1.00  0.00    -0.206 F 
ATOM     63  C   UNL A   1      43.650  34.134  33.749  1.00  0.00     0.059 A 
ATOM     64  C   UNL A   1      44.442  35.067  31.654  1.00  0.00     0.059 A 
ATOM     65  F   UNL A   1      44.626  33.695  29.763  1.00  0.00    -0.206 F 
ATOM     66  C   UNL A   1      44.088  35.222  32.993  1.00  0.00     0.060 A 
BRANCH  66  67
ATOM     67  S   UNL A   1      44.163  36.843  33.784  1.00  0.00     0.124 S 
ATOM     68  O   UNL A   1      43.513  37.687  32.784  1.00  0.00    -0.237 OA
ATOM     69  O   UNL A   1      43.409  36.624  35.013  1.00  0.00    -0.237 OA
ATOM     70  O   UNL A   1      45.594  37.073  33.960  1.00  0.00    -0.744 OA
ENDBRANCH  66  67
ENDBRANCH  45  59
BRANCH  46  71
ATOM     71  C   UNL A   1      42.533  23.672  27.691  1.00  0.00     0.058 A 
ATOM     72  C   UNL A   1      42.634  23.421  26.315  1.00  0.00     0.135 A 
ATOM     73  C   UNL A   1      42.271  22.582  28.537  1.00  0.00     0.135 A 
ATOM     74  F   UNL A   1      42.873  24.431  25.466  1.00  0.00    -0.206 F 
ATOM     75  C   UNL A   1      42.489  22.139  25.796  1.00  0.00     0.059 A 
ATOM     76  C   UNL A   1      42.152  21.286  28.044  1.00  0.00     0.059 A 
ATOM     77  F   UNL A   1      42.177  22.766  29.863  1.00  0.00    -0.206 F 
ATOM     78  C   UNL A   1      42.261  21.076  26.672  1.00  0.00     0.060 A 
BRANCH  78  79
ATOM     79  S   UNL A   1      42.152  19.409  25.987  1.00  0.00     0.124 S 
ATOM     80  O   UNL A   1      42.991  19.521  24.800  1.00  0.00    -0.237 OA
ATOM     81  O   UNL A   1      42.690  18.600  27.077  1.00  0.00    -0.237 OA
ATOM     82  O   UNL A   1      40.723  19.239  25.737  1.00  0.00    -0.744 OA
ENDBRANCH  78  79
ENDBRANCH  46  71
BRANCH  58  83
ATOM     83  C   UNL A   1      48.036  26.936  30.502  1.00  0.00     0.058 A 
ATOM     84  C   UNL A   1      49.067  27.311  29.625  1.00  0.00     0.135 A 
ATOM     85  C   UNL A   1      48.391  26.220  31.658  1.00  0.00     0.135 A 
ATOM     86  F   UNL A   1      48.785  27.988  28.500  1.00  0.00    -0.206 F 
ATOM     87  C   UNL A   1      50.394  26.977  29.877  1.00  0.00     0.059 A 
ATOM     88  C   UNL A   1      49.715  25.905  31.947  1.00  0.00     0.059 A 
ATOM     89  F   UNL A   1      47.447  25.843  32.536  1.00  0.00    -0.206 F 
ATOM     90  C   UNL A   1      50.709  26.282  31.046  1.00  0.00     0.060 A 
BRANCH  90  91
ATOM     91  S   UNL A   1      52.442  25.902  31.378  1.00  0.00     0.124 S 
ATOM     92  O   UNL A   1      52.817  26.993  32.271  1.00  0.00    -0.237 OA
ATOM     93  O   UNL A   1      52.357  24.581  31.993  1.00  0.00    -0.237 OA
ATOM     94  O   UNL A   1      53.059  25.934  30.056  1.00  0.00    -0.744 OA
ENDBRANCH  90  91
ENDBRANCH  58  83
ENDBRANCH  32  33
ENDBRANCH  24  27
ENDBRANCH  22  23
ENDBRANCH   1  22
TORSDOF 18
ENDMDL
MODEL 2
REMARK VINA RESULT:     -10.3      4.438      5.845
REMARK SMILES N#Cc1nccnc1N(CC(=O)NCCCNC(=O)c1ccc(-c2c3nc(c(-c4c(F)cc(S(=O)(=O)[O-])cc4F)c4ccc([nH]4)c(-c4c(F)cc(S(=O)(=O)[O-])cc4F)c4nc(c(-c5c(F)cc(S(=O)(=O)[O-])cc5F)c5ccc2[nH]5)C=C4)C=C3)cc1)CC(F)(F)F
REMARK SMILES IDX 15 1 14 2 13 3 11 4 12 5 10 7 9 8 8 9 3 10 4 11 5 12 7 13
REMARK SMILES IDX 6 14 2 15 1 16 86 17 87 18 88 19 89 20 90 21 16 22 17 23
REMARK SMILES IDX 18 24 19 26 20 27 21 28 85 29 22 30 84 31 23 32 24 33 25 34
REMARK SMILES IDX 78 35 26 36 83 37 77 38 79 39 27 40 82 41 76 42 75 43 28 45
REMARK SMILES IDX 62 46 41 47 61 48 42 49 45 50 60 51 80 52 43 53 44 54 59 56
REMARK SMILES IDX 81 57 46 58 29 59 30 60 39 61 31 62 32 63 38 64 40 65 33 66
REMARK SMILES IDX 34 67 35 68 36 69 37 70 63 71 64 72 73 73 65 74 66 75 72 76
REMARK SMILES IDX 74 77 67 78 68 79 69 80 70 81 71 82 47 83 48 84 57 85 49 86
REMARK SMILES IDX 50 87 56 88 58 89 51 90 52 91 53 92 54 93 55 94
REMARK H PARENT 13 6 17 25 79 44 45 55
REMARK Flexibility Score: inf
ROOT
ATOM      1  C   UNL A   1      31.683  32.106  26.740  1.00  0.00     0.042 C 
ENDROOT
BRANCH   1   2
ATOM      2  C   UNL A   1      32.002  30.701  26.244  1.00  0.00     0.117 C 
BRANCH   2   3
ATOM      3  N   UNL A   1      31.568  29.672  27.172  1.00  0.00    -0.354 N 
ATOM      4  C   UNL A   1      31.910  28.352  27.209  1.00  0.00     0.239 C 
ATOM      5  O   UNL A   1      31.390  27.630  28.064  1.00  0.00    -0.273 OA
ATOM      6  H   UNL A   1      30.939  29.968  27.870  1.00  0.00     0.163 HD
BRANCH   4   7
ATOM      7  C   UNL A   1      32.919  27.784  26.206  1.00  0.00     0.218 C 
BRANCH   7   8
ATOM      8  N   UNL A   1      32.317  26.802  25.268  1.00  0.00    -0.336 N 
BRANCH   8   9
ATOM      9  C   UNL A   1      32.928  25.564  25.142  1.00  0.00     0.166 A 
ATOM     10  C   UNL A   1      33.554  25.001  24.008  1.00  0.00     0.183 A 
ATOM     11  N   UNL A   1      34.148  23.765  23.998  1.00  0.00    -0.240 NA
ATOM     12  C   UNL A   1      34.123  23.074  25.148  1.00  0.00     0.133 A 
ATOM     13  N   UNL A   1      32.915  24.797  26.271  1.00  0.00    -0.235 NA
ATOM     14  C   UNL A   1      33.508  23.580  26.264  1.00  0.00     0.133 A 
BRANCH  10  15
ATOM     15  C   UNL A   1      33.585  25.616  22.714  1.00  0.00     0.123 C 
ATOM     16  N   UNL A   1      33.609  26.059  21.642  1.00  0.00    -0.191 NA
ENDBRANCH  10  15
ENDBRANCH   8   9
BRANCH   8  17
ATOM     17  C   UNL A   1      31.012  27.210  24.667  1.00  0.00     0.234 C 
BRANCH  17  18
ATOM     18  C   UNL A   1      29.869  26.178  24.734  1.00  0.00     0.405 C 
ATOM     19  F   UNL A   1      28.707  26.676  24.261  1.00  0.00    -0.169 F 
ATOM     20  F   UNL A   1      30.176  25.078  24.012  1.00  0.00    -0.169 F 
ATOM     21  F   UNL A   1      29.642  25.773  26.005  1.00  0.00    -0.169 F 
ENDBRANCH  17  18
ENDBRANCH   8  17
ENDBRANCH   7   8
ENDBRANCH   4   7
ENDBRANCH   2   3
ENDBRANCH   1   2
BRANCH   1  22
ATOM     22  C   UNL A   1      32.854  32.780  27.444  1.00  0.00     0.118 C 
BRANCH  22  23
ATOM     23  N   UNL A   1      32.584  34.184  27.741  1.00  0.00    -0.352 N 
ATOM     24  C   UNL A   1      33.128  35.000  28.705  1.00  0.00     0.251 C 
ATOM     25  H   UNL A   1      31.912  34.611  27.163  1.00  0.00     0.163 HD
ATOM     26  O   UNL A   1      32.614  36.090  28.939  1.00  0.00    -0.269 OA
BRANCH  24  27
ATOM     27  C   UNL A   1      34.310  34.551  29.474  1.00  0.00     0.039 A 
ATOM     28  C   UNL A   1      35.585  34.604  28.911  1.00  0.00     0.014 A 
ATOM     29  C   UNL A   1      34.138  34.058  30.770  1.00  0.00     0.014 A 
ATOM     30  C   UNL A   1      36.650  33.990  29.559  1.00  0.00     0.010 A 
ATOM     31  C   UNL A   1      35.234  33.536  31.464  1.00  0.00     0.010 A 
ATOM     32  C   UNL A   1      36.489  33.447  30.844  1.00  0.00    -0.014 A 
BRANCH  32  33
ATOM     33  C   UNL A   1      37.641  32.783  31.513  1.00  0.00     0.031 A 
ATOM     34  C   UNL A   1      38.152  33.280  32.841  1.00  0.00     0.074 A 
ATOM     35  C   UNL A   1      38.195  31.693  30.947  1.00  0.00     0.049 A 
ATOM     36  N   UNL A   1      39.141  32.826  33.568  1.00  0.00    -0.248 NA
ATOM     37  C   UNL A   1      37.469  34.445  33.426  1.00  0.00     0.031 C 
ATOM     38  C   UNL A   1      37.770  31.096  29.678  1.00  0.00     0.029 A 
ATOM     39  N   UNL A   1      39.211  30.875  31.373  1.00  0.00    -0.354 N 
ATOM     40  C   UNL A   1      39.197  33.642  34.692  1.00  0.00     0.074 A 
ATOM     41  C   UNL A   1      38.184  34.661  34.519  1.00  0.00     0.031 C 
ATOM     42  C   UNL A   1      38.475  29.976  29.461  1.00  0.00     0.029 A 
ATOM     43  C   UNL A   1      39.452  29.814  30.533  1.00  0.00     0.049 A 
ATOM     44  H   UNL A   1      39.719  31.034  32.200  1.00  0.00     0.167 HD
ATOM     45  C   UNL A   1      39.999  33.538  35.781  1.00  0.00     0.037 A 
ATOM     46  C   UNL A   1      40.363  28.825  30.606  1.00  0.00     0.037 A 
ATOM     47  C   UNL A   1      41.007  32.521  35.944  1.00  0.00     0.049 A 
ATOM     48  C   UNL A   1      41.311  28.791  31.771  1.00  0.00     0.074 A 
ATOM     49  C   UNL A   1      41.881  32.338  37.001  1.00  0.00     0.029 A 
ATOM     50  N   UNL A   1      41.276  31.513  35.028  1.00  0.00    -0.354 N 
ATOM     51  N   UNL A   1      41.357  29.577  32.820  1.00  0.00    -0.248 NA
ATOM     52  C   UNL A   1      42.337  27.739  31.759  1.00  0.00     0.031 C 
ATOM     53  C   UNL A   1      42.716  31.257  36.698  1.00  0.00     0.029 A 
ATOM     54  C   UNL A   1      42.320  30.723  35.482  1.00  0.00     0.049 A 
ATOM     55  H   UNL A   1      40.795  31.379  34.179  1.00  0.00     0.167 HD
ATOM     56  C   UNL A   1      42.401  29.101  33.606  1.00  0.00     0.074 A 
ATOM     57  C   UNL A   1      42.949  27.951  32.917  1.00  0.00     0.031 C 
ATOM     58  C   UNL A   1      42.860  29.577  34.790  1.00  0.00     0.037 A 
BRANCH  45  59
ATOM     59  C   UNL A   1      39.820  34.556  36.879  1.00  0.00     0.058 A 
ATOM     60  C   UNL A   1      38.997  34.306  37.989  1.00  0.00     0.135 A 
ATOM     61  C   UNL A   1      40.496  35.787  36.838  1.00  0.00     0.135 A 
ATOM     62  F   UNL A   1      38.318  33.151  38.080  1.00  0.00    -0.206 F 
ATOM     63  C   UNL A   1      38.813  35.252  38.992  1.00  0.00     0.059 A 
ATOM     64  C   UNL A   1      40.355  36.736  37.848  1.00  0.00     0.059 A 
ATOM     65  F   UNL A   1      41.302  36.083  35.806  1.00  0.00    -0.206 F 
ATOM     66  C   UNL A   1      39.495  36.467  38.912  1.00  0.00     0.060 A 
BRANCH  66  67
ATOM     67  S   UNL A   1      39.219  37.695  40.206  1.00  0.00     0.124 S 
ATOM     68  O   UNL A   1      40.537  38.317  40.304  1.00  0.00    -0.237 OA
ATOM     69  O   UNL A   1      38.169  38.524  39.628  1.00  0.00    -0.237 OA
ATOM     70  O   UNL A   1      38.820  36.894  41.359  1.00  0.00    -0.744 OA
ENDBRANCH  66  67
ENDBRANCH  45  59
BRANCH  46  71
ATOM     71  C   UNL A   1      40.392  27.775  29.554  1.00  0.00     0.058 A 
ATOM     72  C   UNL A   1      41.356  27.810  28.535  1.00  0.00     0.135 A 
ATOM     73  C   UNL A   1      39.502  26.688  29.573  1.00  0.00     0.135 A 
ATOM     74  F   UNL A   1      42.222  28.831  28.468  1.00  0.00    -0.206 F 
ATOM     75  C   UNL A   1      41.440  26.806  27.577  1.00  0.00     0.059 A 
ATOM     76  C   UNL A   1      39.586  25.657  28.644  1.00  0.00     0.059 A 
ATOM     77  F   UNL A   1      38.568  26.601  30.534  1.00  0.00    -0.206 F 
ATOM     78  C   UNL A   1      40.558  25.726  27.648  1.00  0.00     0.060 A 
BRANCH  78  79
ATOM     79  S   UNL A   1      40.732  24.394  26.442  1.00  0.00     0.124 S 
ATOM     80  O   UNL A   1      41.344  23.344  27.247  1.00  0.00    -0.237 OA
ATOM     81  O   UNL A   1      39.346  24.167  26.042  1.00  0.00    -0.237 OA
ATOM     82  O   UNL A   1      41.587  24.980  25.413  1.00  0.00    -0.744 OA
ENDBRANCH  78  79
ENDBRANCH  46  71
BRANCH  58  83
ATOM     83  C   UNL A   1      44.007  28.848  35.438  1.00  0.00     0.058 A 
ATOM     84  C   UNL A   1      45.342  29.213  35.201  1.00  0.00     0.135 A 
ATOM     85  C   UNL A   1      43.766  27.819  36.365  1.00  0.00     0.135 A 
ATOM     86  F   UNL A   1      45.631  30.183  34.319  1.00  0.00    -0.206 F 
ATOM     87  C   UNL A   1      46.395  28.575  35.848  1.00  0.00     0.059 A 
ATOM     88  C   UNL A   1      44.802  27.190  37.048  1.00  0.00     0.059 A 
ATOM     89  F   UNL A   1      42.508  27.434  36.637  1.00  0.00    -0.206 F 
ATOM     90  C   UNL A   1      46.115  27.570  36.776  1.00  0.00     0.060 A 
BRANCH  90  91
ATOM     91  S   UNL A   1      47.495  26.789  37.639  1.00  0.00     0.124 S 
ATOM     92  O   UNL A   1      46.816  26.150  38.762  1.00  0.00    -0.237 OA
ATOM     93  O   UNL A   1      48.025  25.887  36.622  1.00  0.00    -0.237 OA
ATOM     94  O   UNL A   1      48.360  27.912  37.988  1.00  0.00    -0.744 OA
ENDBRANCH  90  91
ENDBRANCH  58  83
ENDBRANCH  32  33
ENDBRANCH  24  27
ENDBRANCH  22  23
ENDBRANCH   1  22
TORSDOF 18
ENDMDL
MODEL 3
REMARK VINA RESULT:     -10.1      4.765     10.434
REMARK SMILES N#Cc1nccnc1N(CC(=O)NCCCNC(=O)c1ccc(-c2c3nc(c(-c4c(F)cc(S(=O)(=O)[O-])cc4F)c4ccc([nH]4)c(-c4c(F)cc(S(=O)(=O)[O-])cc4F)c4nc(c(-c5c(F)cc(S(=O)(=O)[O-])cc5F)c5ccc2[nH]5)C=C4)C=C3)cc1)CC(F)(F)F
REMARK SMILES IDX 15 1 14 2 13 3 11 4 12 5 10 7 9 8 8 9 3 10 4 11 5 12 7 13
REMARK SMILES IDX 6 14 2 15 1 16 86 17 87 18 88 19 89 20 90 21 16 22 17 23
REMARK SMILES IDX 18 24 19 26 20 27 21 28 85 29 22 30 84 31 23 32 24 33 25 34
REMARK SMILES IDX 78 35 26 36 83 37 77 38 79 39 27 40 82 41 76 42 75 43 28 45
REMARK SMILES IDX 62 46 41 47 61 48 42 49 45 50 60 51 80 52 43 53 44 54 59 56
REMARK SMILES IDX 81 57 46 58 29 59 30 60 39 61 31 62 32 63 38 64 40 65 33 66
REMARK SMILES IDX 34 67 35 68 36 69 37 70 63 71 64 72 73 73 65 74 66 75 72 76
REMARK SMILES IDX 74 77 67 78 68 79 69 80 70 81 71 82 47 83 48 84 57 85 49 86
REMARK SMILES IDX 50 87 56 88 58 89 51 90 52 91 53 92 54 93 55 94
REMARK H PARENT 13 6 17 25 79 44 45 55
REMARK Flexibility Score: inf
ROOT
ATOM      1  C   UNL A   1      38.469  23.745  26.183  1.00  0.00     0.042 C 
ENDROOT
BRANCH   1   2
ATOM      2  C   UNL A   1      37.657  22.522  25.777  1.00  0.00     0.117 C 
BRANCH   2   3
ATOM      3  N   UNL A   1      37.366  22.496  24.354  1.00  0.00    -0.354 N 
ATOM      4  C   UNL A   1      36.413  23.183  23.661  1.00  0.00     0.239 C 
ATOM      5  O   UNL A   1      36.305  22.982  22.448  1.00  0.00    -0.273 OA
ATOM      6  H   UNL A   1      37.936  21.899  23.816  1.00  0.00     0.163 HD
BRANCH   4   7
ATOM      7  C   UNL A   1      35.499  24.180  24.380  1.00  0.00     0.218 C 
BRANCH   7   8
ATOM      8  N   UNL A   1      34.060  23.823  24.283  1.00  0.00    -0.336 N 
BRANCH   8   9
ATOM      9  C   UNL A   1      33.211  24.717  23.649  1.00  0.00     0.166 A 
ATOM     10  C   UNL A   1      32.098  25.405  24.181  1.00  0.00     0.183 A 
ATOM     11  N   UNL A   1      31.331  26.288  23.464  1.00  0.00    -0.240 NA
ATOM     12  C   UNL A   1      31.684  26.494  22.187  1.00  0.00     0.133 A 
ATOM     13  N   UNL A   1      33.499  24.954  22.336  1.00  0.00    -0.235 NA
ATOM     14  C   UNL A   1      32.747  25.831  21.630  1.00  0.00     0.133 A 
BRANCH  10  15
ATOM     15  C   UNL A   1      31.590  25.215  25.507  1.00  0.00     0.123 C 
ATOM     16  N   UNL A   1      31.124  25.070  26.560  1.00  0.00    -0.191 NA
ENDBRANCH  10  15
ENDBRANCH   8   9
BRANCH   8  17
ATOM     17  C   UNL A   1      33.708  22.451  24.755  1.00  0.00     0.234 C 
BRANCH  17  18
ATOM     18  C   UNL A   1      32.905  21.571  23.777  1.00  0.00     0.405 C 
ATOM     19  F   UNL A   1      33.200  21.843  22.489  1.00  0.00    -0.169 F 
ATOM     20  F   UNL A   1      33.158  20.261  23.996  1.00  0.00    -0.169 F 
ATOM     21  F   UNL A   1      31.573  21.751  23.929  1.00  0.00    -0.169 F 
ENDBRANCH  17  18
ENDBRANCH   8  17
ENDBRANCH   7   8
ENDBRANCH   4   7
ENDBRANCH   2   3
ENDBRANCH   1   2
BRANCH   1  22
ATOM     22  C   UNL A   1      39.748  23.401  26.937  1.00  0.00     0.118 C 
BRANCH  22  23
ATOM     23  N   UNL A   1      40.942  23.864  26.237  1.00  0.00    -0.352 N 
ATOM     24  C   UNL A   1      41.577  25.082  26.291  1.00  0.00     0.251 C 
ATOM     25  H   UNL A   1      41.357  23.203  25.637  1.00  0.00     0.163 HD
ATOM     26  O   UNL A   1      42.441  25.354  25.463  1.00  0.00    -0.269 OA
BRANCH  24  27
ATOM     27  C   UNL A   1      41.196  26.070  27.326  1.00  0.00     0.039 A 
ATOM     28  C   UNL A   1      41.725  27.361  27.303  1.00  0.00     0.014 A 
ATOM     29  C   UNL A   1      40.311  25.694  28.339  1.00  0.00     0.014 A 
ATOM     30  C   UNL A   1      41.526  28.206  28.388  1.00  0.00     0.010 A 
ATOM     31  C   UNL A   1      40.028  26.588  29.377  1.00  0.00     0.010 A 
ATOM     32  C   UNL A   1      40.675  27.831  29.440  1.00  0.00    -0.014 A 
BRANCH  32  33
ATOM     33  C   UNL A   1      40.488  28.747  30.598  1.00  0.00     0.031 A 
ATOM     34  C   UNL A   1      41.407  28.679  31.791  1.00  0.00     0.074 A 
ATOM     35  C   UNL A   1      39.518  29.681  30.551  1.00  0.00     0.049 A 
ATOM     36  N   UNL A   1      41.394  29.397  32.885  1.00  0.00    -0.248 NA
ATOM     37  C   UNL A   1      42.476  27.668  31.754  1.00  0.00     0.031 C 
ATOM     38  C   UNL A   1      38.583  29.868  29.439  1.00  0.00     0.029 A 
ATOM     39  N   UNL A   1      39.173  30.666  31.442  1.00  0.00    -0.354 N 
ATOM     40  C   UNL A   1      42.449  28.930  33.662  1.00  0.00     0.074 A 
ATOM     41  C   UNL A   1      43.039  27.822  32.942  1.00  0.00     0.031 C 
ATOM     42  C   UNL A   1      37.815  30.939  29.685  1.00  0.00     0.029 A 
ATOM     43  C   UNL A   1      38.149  31.471  31.002  1.00  0.00     0.049 A 
ATOM     44  H   UNL A   1      39.617  30.785  32.312  1.00  0.00     0.167 HD
ATOM     45  C   UNL A   1      42.901  29.397  34.852  1.00  0.00     0.037 A 
ATOM     46  C   UNL A   1      37.536  32.514  31.593  1.00  0.00     0.037 A 
ATOM     47  C   UNL A   1      42.305  30.500  35.564  1.00  0.00     0.049 A 
ATOM     48  C   UNL A   1      37.987  32.947  32.960  1.00  0.00     0.074 A 
ATOM     49  C   UNL A   1      42.677  31.038  36.783  1.00  0.00     0.029 A 
ATOM     50  N   UNL A   1      41.213  31.234  35.122  1.00  0.00    -0.354 N 
ATOM     51  N   UNL A   1      38.978  32.487  33.685  1.00  0.00    -0.248 NA
ATOM     52  C   UNL A   1      37.230  34.036  33.592  1.00  0.00     0.031 C 
ATOM     53  C   UNL A   1      41.778  32.060  37.104  1.00  0.00     0.029 A 
ATOM     54  C   UNL A   1      40.882  32.203  36.056  1.00  0.00     0.049 A 
ATOM     55  H   UNL A   1      40.743  31.089  34.269  1.00  0.00     0.167 HD
ATOM     56  C   UNL A   1      38.981  33.246  34.850  1.00  0.00     0.074 A 
ATOM     57  C   UNL A   1      37.901  34.204  34.724  1.00  0.00     0.031 C 
ATOM     58  C   UNL A   1      39.805  33.155  35.923  1.00  0.00     0.037 A 
BRANCH  45  59
ATOM     59  C   UNL A   1      44.097  28.709  35.463  1.00  0.00     0.058 A 
ATOM     60  C   UNL A   1      43.953  27.622  36.340  1.00  0.00     0.135 A 
ATOM     61  C   UNL A   1      45.403  29.124  35.152  1.00  0.00     0.135 A 
ATOM     62  F   UNL A   1      42.730  27.187  36.683  1.00  0.00    -0.206 F 
ATOM     63  C   UNL A   1      45.054  27.001  36.922  1.00  0.00     0.059 A 
ATOM     64  C   UNL A   1      46.521  28.495  35.693  1.00  0.00     0.059 A 
ATOM     65  F   UNL A   1      45.605  30.154  34.314  1.00  0.00    -0.206 F 
ATOM     66  C   UNL A   1      46.336  27.447  36.594  1.00  0.00     0.060 A 
BRANCH  66  67
ATOM     67  S   UNL A   1      47.750  26.650  37.383  1.00  0.00     0.124 S 
ATOM     68  O   UNL A   1      48.016  27.560  38.494  1.00  0.00    -0.237 OA
ATOM     69  O   UNL A   1      47.208  25.346  37.749  1.00  0.00    -0.237 OA
ATOM     70  O   UNL A   1      48.764  26.633  36.333  1.00  0.00    -0.744 OA
ENDBRANCH  66  67
ENDBRANCH  45  59
BRANCH  46  71
ATOM     71  C   UNL A   1      36.452  33.232  30.873  1.00  0.00     0.058 A 
ATOM     72  C   UNL A   1      35.117  33.112  31.287  1.00  0.00     0.135 A 
ATOM     73  C   UNL A   1      36.727  34.095  29.799  1.00  0.00     0.135 A 
ATOM     74  F   UNL A   1      34.801  32.293  32.301  1.00  0.00    -0.206 F 
ATOM     75  C   UNL A   1      34.095  33.822  30.666  1.00  0.00     0.059 A 
ATOM     76  C   UNL A   1      35.726  34.839  29.183  1.00  0.00     0.059 A 
ATOM     77  F   UNL A   1      37.989  34.256  29.372  1.00  0.00    -0.206 F 
ATOM     78  C   UNL A   1      34.412  34.694  29.623  1.00  0.00     0.060 A 
BRANCH  78  79
ATOM     79  S   UNL A   1      33.083  35.665  28.881  1.00  0.00     0.124 S 
ATOM     80  O   UNL A   1      33.830  36.715  28.200  1.00  0.00    -0.237 OA
ATOM     81  O   UNL A   1      32.435  34.680  28.020  1.00  0.00    -0.237 OA
ATOM     82  O   UNL A   1      32.296  36.095  30.033  1.00  0.00    -0.744 OA
ENDBRANCH  78  79
ENDBRANCH  46  71
BRANCH  58  83
ATOM     83  C   UNL A   1      39.590  34.128  37.052  1.00  0.00     0.058 A 
ATOM     84  C   UNL A   1      38.882  33.769  38.211  1.00  0.00     0.135 A 
ATOM     85  C   UNL A   1      40.164  35.410  37.009  1.00  0.00     0.135 A 
ATOM     86  F   UNL A   1      38.306  32.560  38.304  1.00  0.00    -0.206 F 
ATOM     87  C   UNL A   1      38.738  34.652  39.276  1.00  0.00     0.059 A 
ATOM     88  C   UNL A   1      40.060  36.296  38.076  1.00  0.00     0.059 A 
ATOM     89  F   UNL A   1      40.859  35.803  35.929  1.00  0.00    -0.206 F 
ATOM     90  C   UNL A   1      39.338  35.910  39.203  1.00  0.00     0.060 A 
BRANCH  90  91
ATOM     91  S   UNL A   1      39.178  37.021  40.617  1.00  0.00     0.124 S 
ATOM     92  O   UNL A   1      38.342  38.082  40.066  1.00  0.00    -0.237 OA
ATOM     93  O   UNL A   1      38.542  36.165  41.613  1.00  0.00    -0.237 OA
ATOM     94  O   UNL A   1      40.557  37.400  40.912  1.00  0.00    -0.744 OA
ENDBRANCH  90  91
ENDBRANCH  58  83
ENDBRANCH  32  33
ENDBRANCH  24  27
ENDBRANCH  22  23
ENDBRANCH   1  22
TORSDOF 18
ENDMDL
