MODEL 1
REMARK VINA RESULT:     -12.2      0.000      0.000
REMARK SMILES O=C(NCCCNC(=O)[C@H]1CC[C@@H](C[NH2+][C@H]2CCC[C@H](C3CC3)C2)CC1)c1ccc(-c2c3nc(c(-c4c(F)cc(S(=O)(=O)[O-])cc4F)c4ccc([nH]4)c(-c4c(F)cc(S(=O)(=O)[O-])cc4F)c4nc(c(-c5c(F)cc(S(=O)(=O)[O-])cc5F)c5ccc2[nH]5)C=C4)C=C3)cc1
REMARK SMILES IDX 5 1 4 2 3 3 1 4 2 5 27 7 28 8 92 9 29 10 91 11 30 12 31 13
REMARK SMILES IDX 32 14 85 15 33 16 90 17 84 18 86 19 34 20 89 21 83 22 82 23
REMARK SMILES IDX 35 25 69 26 48 27 68 28 49 29 52 30 67 31 87 32 50 33 51 34
REMARK SMILES IDX 66 36 88 37 53 38 36 39 37 40 46 41 38 42 39 43 45 44 47 45
REMARK SMILES IDX 40 46 41 47 42 48 43 49 44 50 70 51 71 52 80 53 72 54 73 55
REMARK SMILES IDX 79 56 81 57 74 58 75 59 76 60 77 61 78 62 54 63 55 64 64 65
REMARK SMILES IDX 56 66 57 67 63 68 65 69 58 70 59 71 60 72 61 73 62 74 6 75
REMARK SMILES IDX 7 76 8 77 9 79 10 80 26 81 11 82 25 83 12 84 13 85 14 86
REMARK SMILES IDX 15 87 16 90 17 91 24 92 18 93 20 94 19 95 21 96 22 97 23 98
REMARK H PARENT 3 6 86 24 52 35 7 78 15 88 15 89
REMARK Flexibility Score: inf
ROOT
ATOM      1  C   UNL A   1      37.761  23.664  25.434  1.00  0.00     0.042 C 
ENDROOT
BRANCH   1   2
ATOM      2  C   UNL A   1      38.635  23.958  26.655  1.00  0.00     0.118 C 
BRANCH   2   3
ATOM      3  N   UNL A   1      40.049  23.921  26.316  1.00  0.00    -0.352 N 
ATOM      4  O   UNL A   1      42.086  24.775  25.930  1.00  0.00    -0.269 OA
ATOM      5  C   UNL A   1      41.038  24.840  26.565  1.00  0.00     0.251 C 
ATOM      6  H   UNL A   1      40.343  23.115  25.833  1.00  0.00     0.163 HD
BRANCH   5   7
ATOM      7  C   UNL A   1      40.854  25.890  27.590  1.00  0.00     0.039 A 
ATOM      8  C   UNL A   1      39.849  25.786  28.557  1.00  0.00     0.014 A 
ATOM      9  C   UNL A   1      41.763  26.951  27.640  1.00  0.00     0.014 A 
ATOM     10  C   UNL A   1      39.695  26.786  29.514  1.00  0.00     0.010 A 
ATOM     11  C   UNL A   1      41.646  27.920  28.639  1.00  0.00     0.010 A 
ATOM     12  C   UNL A   1      40.604  27.852  29.576  1.00  0.00    -0.014 A 
BRANCH  12  13
ATOM     13  C   UNL A   1      40.501  28.864  30.657  1.00  0.00     0.031 A 
ATOM     14  C   UNL A   1      41.373  28.771  31.876  1.00  0.00     0.074 A 
ATOM     15  C   UNL A   1      39.588  29.849  30.548  1.00  0.00     0.049 A 
ATOM     16  N   UNL A   1      41.360  29.507  32.957  1.00  0.00    -0.248 NA
ATOM     17  C   UNL A   1      42.382  27.703  31.886  1.00  0.00     0.031 C 
ATOM     18  C   UNL A   1      38.683  30.034  29.411  1.00  0.00     0.029 A 
ATOM     19  N   UNL A   1      39.260  30.869  31.403  1.00  0.00    -0.354 N 
ATOM     20  C   UNL A   1      42.340  28.978  33.788  1.00  0.00     0.074 A 
ATOM     21  C   UNL A   1      42.914  27.845  33.092  1.00  0.00     0.031 C 
ATOM     22  C   UNL A   1      37.909  31.105  29.636  1.00  0.00     0.029 A 
ATOM     23  C   UNL A   1      38.219  31.646  30.955  1.00  0.00     0.049 A 
ATOM     24  H   UNL A   1      39.723  31.027  32.257  1.00  0.00     0.167 HD
ATOM     25  C   UNL A   1      42.724  29.402  35.017  1.00  0.00     0.037 A 
ATOM     26  C   UNL A   1      37.563  32.662  31.549  1.00  0.00     0.037 A 
ATOM     27  C   UNL A   1      42.147  30.534  35.694  1.00  0.00     0.049 A 
ATOM     28  C   UNL A   1      37.988  33.104  32.919  1.00  0.00     0.074 A 
ATOM     29  C   UNL A   1      42.484  31.065  36.927  1.00  0.00     0.029 A 
ATOM     30  N   UNL A   1      41.103  31.305  35.200  1.00  0.00    -0.354 N 
ATOM     31  N   UNL A   1      38.937  32.612  33.680  1.00  0.00    -0.248 NA
ATOM     32  C   UNL A   1      37.263  34.234  33.512  1.00  0.00     0.031 C 
ATOM     33  C   UNL A   1      41.617  32.129  37.196  1.00  0.00     0.029 A 
ATOM     34  C   UNL A   1      40.771  32.295  36.110  1.00  0.00     0.049 A 
ATOM     35  H   UNL A   1      40.663  31.168  34.329  1.00  0.00     0.167 HD
ATOM     36  C   UNL A   1      38.939  33.387  34.834  1.00  0.00     0.074 A 
ATOM     37  C   UNL A   1      37.898  34.381  34.668  1.00  0.00     0.031 C 
ATOM     38  C   UNL A   1      39.738  33.286  35.925  1.00  0.00     0.037 A 
BRANCH  25  39
ATOM     39  C   UNL A   1      43.795  28.609  35.718  1.00  0.00     0.058 A 
ATOM     40  C   UNL A   1      45.160  28.898  35.554  1.00  0.00     0.135 A 
ATOM     41  C   UNL A   1      43.450  27.541  36.562  1.00  0.00     0.135 A 
ATOM     42  F   UNL A   1      45.546  29.900  34.750  1.00  0.00    -0.206 F 
ATOM     43  C   UNL A   1      46.145  28.126  36.163  1.00  0.00     0.059 A 
ATOM     44  C   UNL A   1      44.418  26.773  37.203  1.00  0.00     0.059 A 
ATOM     45  F   UNL A   1      42.161  27.224  36.760  1.00  0.00    -0.206 F 
ATOM     46  C   UNL A   1      45.763  27.058  36.977  1.00  0.00     0.060 A 
BRANCH  46  47
ATOM     47  S   UNL A   1      47.050  26.033  37.720  1.00  0.00     0.124 S 
ATOM     48  O   UNL A   1      46.549  24.690  37.439  1.00  0.00    -0.237 OA
ATOM     49  O   UNL A   1      48.240  26.431  36.973  1.00  0.00    -0.237 OA
ATOM     50  O   UNL A   1      47.033  26.429  39.124  1.00  0.00    -0.744 OA
ENDBRANCH  46  47
ENDBRANCH  25  39
BRANCH  26  51
ATOM     51  C   UNL A   1      36.435  33.311  30.831  1.00  0.00     0.058 A 
ATOM     52  C   UNL A   1      35.114  33.154  31.269  1.00  0.00     0.135 A 
ATOM     53  C   UNL A   1      36.670  34.173  29.747  1.00  0.00     0.135 A 
ATOM     54  F   UNL A   1      34.841  32.336  32.297  1.00  0.00    -0.206 F 
ATOM     55  C   UNL A   1      34.063  33.839  30.667  1.00  0.00     0.059 A 
ATOM     56  C   UNL A   1      35.639  34.886  29.144  1.00  0.00     0.059 A 
ATOM     57  F   UNL A   1      37.921  34.369  29.303  1.00  0.00    -0.206 F 
ATOM     58  C   UNL A   1      34.338  34.712  29.613  1.00  0.00     0.060 A 
BRANCH  58  59
ATOM     59  S   UNL A   1      32.981  35.675  28.909  1.00  0.00     0.124 S 
ATOM     60  O   UNL A   1      32.340  34.692  28.045  1.00  0.00    -0.237 OA
ATOM     61  O   UNL A   1      32.231  36.064  30.101  1.00  0.00    -0.237 OA
ATOM     62  O   UNL A   1      33.665  36.769  28.225  1.00  0.00    -0.744 OA
ENDBRANCH  58  59
ENDBRANCH  26  51
BRANCH  38  63
ATOM     63  C   UNL A   1      39.554  34.300  37.017  1.00  0.00     0.058 A 
ATOM     64  C   UNL A   1      38.775  34.031  38.152  1.00  0.00     0.135 A 
ATOM     65  C   UNL A   1      40.247  35.521  36.968  1.00  0.00     0.135 A 
ATOM     66  F   UNL A   1      38.086  32.882  38.242  1.00  0.00    -0.206 F 
ATOM     67  C   UNL A   1      38.688  34.939  39.203  1.00  0.00     0.059 A 
ATOM     68  C   UNL A   1      40.191  36.433  38.016  1.00  0.00     0.059 A 
ATOM     69  F   UNL A   1      41.010  35.822  35.905  1.00  0.00    -0.206 F 
ATOM     70  C   UNL A   1      39.407  36.133  39.129  1.00  0.00     0.060 A 
BRANCH  70  71
ATOM     71  S   UNL A   1      39.348  37.269  40.532  1.00  0.00     0.124 S 
ATOM     72  O   UNL A   1      38.917  36.385  41.608  1.00  0.00    -0.237 OA
ATOM     73  O   UNL A   1      40.727  37.740  40.612  1.00  0.00    -0.237 OA
ATOM     74  O   UNL A   1      38.373  38.273  40.115  1.00  0.00    -0.744 OA
ENDBRANCH  70  71
ENDBRANCH  38  63
ENDBRANCH  12  13
ENDBRANCH   5   7
ENDBRANCH   2   3
ENDBRANCH   1   2
BRANCH   1  75
ATOM     75  C   UNL A   1      37.435  22.177  25.282  1.00  0.00     0.117 C 
BRANCH  75  76
ATOM     76  N   UNL A   1      36.357  21.792  26.173  1.00  0.00    -0.356 N 
ATOM     77  C   UNL A   1      35.016  21.700  25.996  1.00  0.00     0.223 C 
ATOM     78  H   UNL A   1      36.657  21.549  27.079  1.00  0.00     0.163 HD
ATOM     79  O   UNL A   1      34.345  21.467  27.008  1.00  0.00    -0.275 OA
BRANCH  77  80
ATOM     80  C   UNL A   1      34.333  21.723  24.628  1.00  0.00     0.078 C 
ATOM     81  C   UNL A   1      33.082  20.855  24.434  1.00  0.00     0.014 C 
ATOM     82  C   UNL A   1      34.163  23.187  24.201  1.00  0.00     0.014 C 
ATOM     83  C   UNL A   1      32.344  21.117  23.113  1.00  0.00     0.010 C 
ATOM     84  C   UNL A   1      33.511  23.293  22.828  1.00  0.00     0.010 C 
ATOM     85  C   UNL A   1      32.134  22.613  22.808  1.00  0.00     0.044 C 
BRANCH  85  86
ATOM     86  C   UNL A   1      31.094  23.259  23.764  1.00  0.00     0.264 C 
BRANCH  86  87
ATOM     87  N   UNL A   1      31.053  24.716  23.608  1.00  0.00    -0.344 N 
ATOM     88  H   UNL A   1      30.595  24.933  22.722  1.00  0.00     0.346 HD
ATOM     89  H   UNL A   1      32.017  25.047  23.636  1.00  0.00     0.346 HD
BRANCH  87  90
ATOM     90  C   UNL A   1      30.328  25.405  24.688  1.00  0.00     0.182 C 
ATOM     91  C   UNL A   1      31.297  25.632  25.862  1.00  0.00     0.065 C 
ATOM     92  C   UNL A   1      29.754  26.756  24.235  1.00  0.00     0.069 C 
ATOM     93  C   UNL A   1      32.415  26.608  25.505  1.00  0.00     0.006 C 
ATOM     94  C   UNL A   1      30.838  27.797  23.881  1.00  0.00    -0.002 C 
ATOM     95  C   UNL A   1      31.847  27.944  25.034  1.00  0.00     0.004 C 
BRANCH  94  96
ATOM     96  C   UNL A   1      30.179  29.107  23.478  1.00  0.00    -0.008 C 
ATOM     97  C   UNL A   1      30.142  29.647  22.065  1.00  0.00     0.004 C 
ATOM     98  C   UNL A   1      28.896  29.084  22.684  1.00  0.00     0.004 C 
ENDBRANCH  94  96
ENDBRANCH  87  90
ENDBRANCH  86  87
ENDBRANCH  85  86
ENDBRANCH  77  80
ENDBRANCH  75  76
ENDBRANCH   1  75
TORSDOF 17
ENDMDL
MODEL 2
REMARK VINA RESULT:     -12.1      1.181      2.109
REMARK SMILES O=C(NCCCNC(=O)[C@H]1CC[C@@H](C[NH2+][C@H]2CCC[C@H](C3CC3)C2)CC1)c1ccc(-c2c3nc(c(-c4c(F)cc(S(=O)(=O)[O-])cc4F)c4ccc([nH]4)c(-c4c(F)cc(S(=O)(=O)[O-])cc4F)c4nc(c(-c5c(F)cc(S(=O)(=O)[O-])cc5F)c5ccc2[nH]5)C=C4)C=C3)cc1
REMARK SMILES IDX 5 1 4 2 3 3 1 4 2 5 27 7 28 8 92 9 29 10 91 11 30 12 31 13
REMARK SMILES IDX 32 14 85 15 33 16 90 17 84 18 86 19 34 20 89 21 83 22 82 23
REMARK SMILES IDX 35 25 69 26 48 27 68 28 49 29 52 30 67 31 87 32 50 33 51 34
REMARK SMILES IDX 66 36 88 37 53 38 36 39 37 40 46 41 38 42 39 43 45 44 47 45
REMARK SMILES IDX 40 46 41 47 42 48 43 49 44 50 70 51 71 52 80 53 72 54 73 55
REMARK SMILES IDX 79 56 81 57 74 58 75 59 76 60 77 61 78 62 54 63 55 64 64 65
REMARK SMILES IDX 56 66 57 67 63 68 65 69 58 70 59 71 60 72 61 73 62 74 6 75
REMARK SMILES IDX 7 76 8 77 9 79 10 80 26 81 11 82 25 83 12 84 13 85 14 86
REMARK SMILES IDX 15 87 16 90 17 91 24 92 18 93 20 94 19 95 21 96 22 97 23 98
REMARK H PARENT 3 6 86 24 52 35 7 78 15 88 15 89
REMARK Flexibility Score: inf
ROOT
ATOM      1  C   UNL A   1      38.565  23.521  26.408  1.00  0.00     0.042 C 
ENDROOT
BRANCH   1   2
ATOM      2  C   UNL A   1      39.873  23.128  27.095  1.00  0.00     0.118 C 
BRANCH   2   3
ATOM      3  N   UNL A   1      41.028  23.531  26.306  1.00  0.00    -0.352 N 
ATOM      4  O   UNL A   1      42.412  24.971  25.287  1.00  0.00    -0.269 OA
ATOM      5  C   UNL A   1      41.665  24.744  26.234  1.00  0.00     0.251 C 
ATOM      6  H   UNL A   1      41.411  22.825  25.736  1.00  0.00     0.163 HD
BRANCH   5   7
ATOM      7  C   UNL A   1      41.468  25.765  27.286  1.00  0.00     0.039 A 
ATOM      8  C   UNL A   1      40.518  25.586  28.296  1.00  0.00     0.014 A 
ATOM      9  C   UNL A   1      42.313  26.879  27.312  1.00  0.00     0.014 A 
ATOM     10  C   UNL A   1      40.350  26.561  29.278  1.00  0.00     0.010 A 
ATOM     11  C   UNL A   1      42.186  27.824  28.333  1.00  0.00     0.010 A 
ATOM     12  C   UNL A   1      41.195  27.679  29.316  1.00  0.00    -0.014 A 
BRANCH  12  13
ATOM     13  C   UNL A   1      41.083  28.666  30.418  1.00  0.00     0.031 A 
ATOM     14  C   UNL A   1      41.997  28.592  31.607  1.00  0.00     0.074 A 
ATOM     15  C   UNL A   1      40.124  29.612  30.356  1.00  0.00     0.049 A 
ATOM     16  N   UNL A   1      41.987  29.307  32.702  1.00  0.00    -0.248 NA
ATOM     17  C   UNL A   1      43.053  27.569  31.565  1.00  0.00     0.031 C 
ATOM     18  C   UNL A   1      39.176  29.776  29.253  1.00  0.00     0.029 A 
ATOM     19  N   UNL A   1      39.780  30.601  31.241  1.00  0.00    -0.354 N 
ATOM     20  C   UNL A   1      43.016  28.808  33.491  1.00  0.00     0.074 A 
ATOM     21  C   UNL A   1      43.616  27.714  32.756  1.00  0.00     0.031 C 
ATOM     22  C   UNL A   1      38.363  30.807  29.522  1.00  0.00     0.029 A 
ATOM     23  C   UNL A   1      38.692  31.339  30.841  1.00  0.00     0.049 A 
ATOM     24  H   UNL A   1      40.264  30.765  32.083  1.00  0.00     0.167 HD
ATOM     25  C   UNL A   1      43.421  29.227  34.715  1.00  0.00     0.037 A 
ATOM     26  C   UNL A   1      38.012  32.315  31.474  1.00  0.00     0.037 A 
ATOM     27  C   UNL A   1      42.817  30.321  35.431  1.00  0.00     0.049 A 
ATOM     28  C   UNL A   1      38.462  32.751  32.838  1.00  0.00     0.074 A 
ATOM     29  C   UNL A   1      43.170  30.845  36.662  1.00  0.00     0.029 A 
ATOM     30  N   UNL A   1      41.725  31.053  34.984  1.00  0.00    -0.354 N 
ATOM     31  N   UNL A   1      39.455  32.289  33.559  1.00  0.00    -0.248 NA
ATOM     32  C   UNL A   1      37.707  33.838  33.474  1.00  0.00     0.031 C 
ATOM     33  C   UNL A   1      42.267  31.864  36.978  1.00  0.00     0.029 A 
ATOM     34  C   UNL A   1      41.380  32.012  35.923  1.00  0.00     0.049 A 
ATOM     35  H   UNL A   1      41.263  30.912  34.126  1.00  0.00     0.167 HD
ATOM     36  C   UNL A   1      39.461  33.043  34.726  1.00  0.00     0.074 A 
ATOM     37  C   UNL A   1      38.372  33.992  34.613  1.00  0.00     0.031 C 
ATOM     38  C   UNL A   1      40.299  32.959  35.789  1.00  0.00     0.037 A 
BRANCH  25  39
ATOM     39  C   UNL A   1      44.548  28.471  35.366  1.00  0.00     0.058 A 
ATOM     40  C   UNL A   1      45.891  28.843  35.192  1.00  0.00     0.135 A 
ATOM     41  C   UNL A   1      44.280  27.353  36.174  1.00  0.00     0.135 A 
ATOM     42  F   UNL A   1      46.205  29.897  34.421  1.00  0.00    -0.206 F 
ATOM     43  C   UNL A   1      46.929  28.107  35.753  1.00  0.00     0.059 A 
ATOM     44  C   UNL A   1      45.302  26.618  36.768  1.00  0.00     0.059 A 
ATOM     45  F   UNL A   1      43.015  26.956  36.380  1.00  0.00    -0.206 F 
ATOM     46  C   UNL A   1      46.624  26.988  36.531  1.00  0.00     0.060 A 
BRANCH  46  47
ATOM     47  S   UNL A   1      47.981  26.011  37.212  1.00  0.00     0.124 S 
ATOM     48  O   UNL A   1      48.419  26.856  38.319  1.00  0.00    -0.237 OA
ATOM     49  O   UNL A   1      47.316  24.768  37.591  1.00  0.00    -0.237 OA
ATOM     50  O   UNL A   1      48.915  25.903  36.096  1.00  0.00    -0.744 OA
ENDBRANCH  46  47
ENDBRANCH  25  39
BRANCH  26  51
ATOM     51  C   UNL A   1      36.834  32.924  30.804  1.00  0.00     0.058 A 
ATOM     52  C   UNL A   1      35.530  32.607  31.206  1.00  0.00     0.135 A 
ATOM     53  C   UNL A   1      36.996  33.905  29.811  1.00  0.00     0.135 A 
ATOM     54  F   UNL A   1      35.326  31.673  32.147  1.00  0.00    -0.206 F 
ATOM     55  C   UNL A   1      34.424  33.249  30.657  1.00  0.00     0.059 A 
ATOM     56  C   UNL A   1      35.907  34.577  29.264  1.00  0.00     0.059 A 
ATOM     57  F   UNL A   1      38.226  34.255  29.406  1.00  0.00    -0.206 F 
ATOM     58  C   UNL A   1      34.624  34.241  29.694  1.00  0.00     0.060 A 
BRANCH  58  59
ATOM     59  S   UNL A   1      33.190  35.141  29.066  1.00  0.00     0.124 S 
ATOM     60  O   UNL A   1      32.393  35.306  30.276  1.00  0.00    -0.237 OA
ATOM     61  O   UNL A   1      33.799  36.356  28.532  1.00  0.00    -0.237 OA
ATOM     62  O   UNL A   1      32.637  34.235  28.064  1.00  0.00    -0.744 OA
ENDBRANCH  58  59
ENDBRANCH  26  51
BRANCH  38  63
ATOM     63  C   UNL A   1      40.106  33.944  36.906  1.00  0.00     0.058 A 
ATOM     64  C   UNL A   1      40.725  35.203  36.895  1.00  0.00     0.135 A 
ATOM     65  C   UNL A   1      39.215  33.658  37.953  1.00  0.00     0.135 A 
ATOM     66  F   UNL A   1      41.593  35.522  35.921  1.00  0.00    -0.206 F 
ATOM     67  C   UNL A   1      40.467  36.146  37.885  1.00  0.00     0.059 A 
ATOM     68  C   UNL A   1      38.926  34.593  38.940  1.00  0.00     0.059 A 
ATOM     69  F   UNL A   1      38.595  32.468  38.004  1.00  0.00    -0.206 F 
ATOM     70  C   UNL A   1      39.559  35.835  38.899  1.00  0.00     0.060 A 
BRANCH  70  71
ATOM     71  S   UNL A   1      39.172  37.093  40.134  1.00  0.00     0.124 S 
ATOM     72  O   UNL A   1      38.382  36.330  41.093  1.00  0.00    -0.237 OA
ATOM     73  O   UNL A   1      40.498  37.503  40.589  1.00  0.00    -0.237 OA
ATOM     74  O   UNL A   1      38.438  38.101  39.375  1.00  0.00    -0.744 OA
ENDBRANCH  70  71
ENDBRANCH  38  63
ENDBRANCH  12  13
ENDBRANCH   5   7
ENDBRANCH   2   3
ENDBRANCH   1   2
BRANCH   1  75
ATOM     75  C   UNL A   1      37.860  22.333  25.749  1.00  0.00     0.117 C 
BRANCH  75  76
ATOM     76  N   UNL A   1      37.567  22.614  24.357  1.00  0.00    -0.356 N 
ATOM     77  C   UNL A   1      36.409  22.879  23.704  1.00  0.00     0.223 C 
ATOM     78  H   UNL A   1      38.361  22.612  23.775  1.00  0.00     0.163 HD
ATOM     79  O   UNL A   1      36.477  22.943  22.472  1.00  0.00    -0.275 OA
BRANCH  77  80
ATOM     80  C   UNL A   1      35.097  23.236  24.406  1.00  0.00     0.078 C 
ATOM     81  C   UNL A   1      34.875  24.700  24.811  1.00  0.00     0.014 C 
ATOM     82  C   UNL A   1      33.943  22.614  23.611  1.00  0.00     0.014 C 
ATOM     83  C   UNL A   1      33.450  24.998  25.300  1.00  0.00     0.010 C 
ATOM     84  C   UNL A   1      32.598  22.904  24.266  1.00  0.00     0.010 C 
ATOM     85  C   UNL A   1      32.350  24.416  24.391  1.00  0.00     0.044 C 
BRANCH  85  86
ATOM     86  C   UNL A   1      32.268  25.159  23.030  1.00  0.00     0.264 C 
BRANCH  86  87
ATOM     87  N   UNL A   1      31.294  26.255  23.074  1.00  0.00    -0.344 N 
ATOM     88  H   UNL A   1      31.010  26.394  24.044  1.00  0.00     0.346 HD
ATOM     89  H   UNL A   1      30.514  25.986  22.476  1.00  0.00     0.346 HD
BRANCH  87  90
ATOM     90  C   UNL A   1      31.817  27.530  22.556  1.00  0.00     0.182 C 
ATOM     91  C   UNL A   1      30.634  28.488  22.326  1.00  0.00     0.065 C 
ATOM     92  C   UNL A   1      32.820  28.183  23.519  1.00  0.00     0.069 C 
ATOM     93  C   UNL A   1      29.955  28.886  23.634  1.00  0.00     0.006 C 
ATOM     94  C   UNL A   1      32.187  28.632  24.854  1.00  0.00    -0.002 C 
ATOM     95  C   UNL A   1      30.954  29.516  24.601  1.00  0.00     0.004 C 
BRANCH  94  96
ATOM     96  C   UNL A   1      33.244  29.294  25.725  1.00  0.00    -0.008 C 
ATOM     97  C   UNL A   1      33.285  29.207  27.235  1.00  0.00     0.004 C 
ATOM     98  C   UNL A   1      34.284  28.445  26.413  1.00  0.00     0.004 C 
ENDBRANCH  94  96
ENDBRANCH  87  90
ENDBRANCH  86  87
ENDBRANCH  85  86
ENDBRANCH  77  80
ENDBRANCH  75  76
ENDBRANCH   1  75
TORSDOF 17
ENDMDL
MODEL 3
REMARK VINA RESULT:     -12.1      1.110      8.404
REMARK SMILES O=C(NCCCNC(=O)[C@H]1CC[C@@H](C[NH2+][C@H]2CCC[C@H](C3CC3)C2)CC1)c1ccc(-c2c3nc(c(-c4c(F)cc(S(=O)(=O)[O-])cc4F)c4ccc([nH]4)c(-c4c(F)cc(S(=O)(=O)[O-])cc4F)c4nc(c(-c5c(F)cc(S(=O)(=O)[O-])cc5F)c5ccc2[nH]5)C=C4)C=C3)cc1
REMARK SMILES IDX 5 1 4 2 3 3 1 4 2 5 27 7 28 8 92 9 29 10 91 11 30 12 31 13
REMARK SMILES IDX 32 14 85 15 33 16 90 17 84 18 86 19 34 20 89 21 83 22 82 23
REMARK SMILES IDX 35 25 69 26 48 27 68 28 49 29 52 30 67 31 87 32 50 33 51 34
REMARK SMILES IDX 66 36 88 37 53 38 36 39 37 40 46 41 38 42 39 43 45 44 47 45
REMARK SMILES IDX 40 46 41 47 42 48 43 49 44 50 70 51 71 52 80 53 72 54 73 55
REMARK SMILES IDX 79 56 81 57 74 58 75 59 76 60 77 61 78 62 54 63 55 64 64 65
REMARK SMILES IDX 56 66 57 67 63 68 65 69 58 70 59 71 60 72 61 73 62 74 6 75
REMARK SMILES IDX 7 76 8 77 9 79 10 80 26 81 11 82 25 83 12 84 13 85 14 86
REMARK SMILES IDX 15 87 16 90 17 91 24 92 18 93 20 94 19 95 21 96 22 97 23 98
REMARK H PARENT 3 6 86 24 52 35 7 78 15 88 15 89
REMARK Flexibility Score: inf
ROOT
ATOM      1  C   UNL A   1      39.225  22.546  26.489  1.00  0.00     0.042 C 
ENDROOT
BRANCH   1   2
ATOM      2  C   UNL A   1      40.377  23.318  27.133  1.00  0.00     0.118 C 
BRANCH   2   3
ATOM      3  N   UNL A   1      41.097  24.115  26.151  1.00  0.00    -0.352 N 
ATOM      4  O   UNL A   1      41.622  25.968  25.004  1.00  0.00    -0.269 OA
ATOM      5  C   UNL A   1      41.254  25.475  26.066  1.00  0.00     0.251 C 
ATOM      6  H   UNL A   1      41.538  23.599  25.438  1.00  0.00     0.163 HD
BRANCH   5   7
ATOM      7  C   UNL A   1      40.996  26.342  27.237  1.00  0.00     0.039 A 
ATOM      8  C   UNL A   1      40.029  26.000  28.187  1.00  0.00     0.014 A 
ATOM      9  C   UNL A   1      41.799  27.469  27.433  1.00  0.00     0.014 A 
ATOM     10  C   UNL A   1      39.803  26.830  29.283  1.00  0.00     0.010 A 
ATOM     11  C   UNL A   1      41.615  28.266  28.565  1.00  0.00     0.010 A 
ATOM     12  C   UNL A   1      40.607  27.960  29.492  1.00  0.00    -0.014 A 
BRANCH  12  13
ATOM     13  C   UNL A   1      40.433  28.789  30.711  1.00  0.00     0.031 A 
ATOM     14  C   UNL A   1      39.390  29.868  30.759  1.00  0.00     0.074 A 
ATOM     15  C   UNL A   1      41.249  28.585  31.764  1.00  0.00     0.049 A 
ATOM     16  N   UNL A   1      39.155  30.747  31.698  1.00  0.00    -0.248 NA
ATOM     17  C   UNL A   1      38.504  29.982  29.591  1.00  0.00     0.031 C 
ATOM     18  C   UNL A   1      42.302  27.569  31.827  1.00  0.00     0.029 A 
ATOM     19  N   UNL A   1      41.332  29.225  32.973  1.00  0.00    -0.354 N 
ATOM     20  C   UNL A   1      38.112  31.535  31.228  1.00  0.00     0.074 A 
ATOM     21  C   UNL A   1      37.774  31.042  29.909  1.00  0.00     0.031 C 
ATOM     22  C   UNL A   1      42.920  27.650  33.014  1.00  0.00     0.029 A 
ATOM     23  C   UNL A   1      42.348  28.759  33.772  1.00  0.00     0.049 A 
ATOM     24  H   UNL A   1      40.723  29.951  33.243  1.00  0.00     0.167 HD
ATOM     25  C   UNL A   1      37.495  32.574  31.843  1.00  0.00     0.037 A 
ATOM     26  C   UNL A   1      42.795  29.191  34.967  1.00  0.00     0.037 A 
ATOM     27  C   UNL A   1      37.839  33.050  33.157  1.00  0.00     0.049 A 
ATOM     28  C   UNL A   1      42.113  30.357  35.623  1.00  0.00     0.074 A 
ATOM     29  C   UNL A   1      37.257  34.074  33.883  1.00  0.00     0.029 A 
ATOM     30  N   UNL A   1      38.867  32.540  33.940  1.00  0.00    -0.354 N 
ATOM     31  N   UNL A   1      41.108  31.073  35.178  1.00  0.00    -0.248 NA
ATOM     32  C   UNL A   1      42.617  30.772  36.938  1.00  0.00     0.031 C 
ATOM     33  C   UNL A   1      37.959  34.212  35.085  1.00  0.00     0.029 A 
ATOM     34  C   UNL A   1      38.947  33.241  35.133  1.00  0.00     0.049 A 
ATOM     35  H   UNL A   1      39.453  31.791  33.685  1.00  0.00     0.167 HD
ATOM     36  C   UNL A   1      40.843  32.011  36.169  1.00  0.00     0.074 A 
ATOM     37  C   UNL A   1      41.793  31.769  37.236  1.00  0.00     0.031 C 
ATOM     38  C   UNL A   1      39.893  32.979  36.192  1.00  0.00     0.037 A 
BRANCH  25  39
ATOM     39  C   UNL A   1      36.409  33.283  31.078  1.00  0.00     0.058 A 
ATOM     40  C   UNL A   1      36.689  34.080  29.957  1.00  0.00     0.135 A 
ATOM     41  C   UNL A   1      35.067  33.168  31.480  1.00  0.00     0.135 A 
ATOM     42  F   UNL A   1      37.955  34.233  29.537  1.00  0.00    -0.206 F 
ATOM     43  C   UNL A   1      35.686  34.776  29.289  1.00  0.00     0.059 A 
ATOM     44  C   UNL A   1      34.044  33.834  30.810  1.00  0.00     0.059 A 
ATOM     45  F   UNL A   1      34.741  32.416  32.541  1.00  0.00    -0.206 F 
ATOM     46  C   UNL A   1      34.367  34.654  29.732  1.00  0.00     0.060 A 
BRANCH  46  47
ATOM     47  S   UNL A   1      33.082  35.603  28.889  1.00  0.00     0.124 S 
ATOM     48  O   UNL A   1      32.499  34.588  28.015  1.00  0.00    -0.237 OA
ATOM     49  O   UNL A   1      32.237  36.042  29.996  1.00  0.00    -0.237 OA
ATOM     50  O   UNL A   1      33.827  36.660  28.214  1.00  0.00    -0.744 OA
ENDBRANCH  46  47
ENDBRANCH  25  39
BRANCH  26  51
ATOM     51  C   UNL A   1      43.954  28.505  35.595  1.00  0.00     0.058 A 
ATOM     52  C   UNL A   1      43.767  27.436  36.480  1.00  0.00     0.135 A 
ATOM     53  C   UNL A   1      45.271  28.850  35.249  1.00  0.00     0.135 A 
ATOM     54  F   UNL A   1      42.527  27.075  36.844  1.00  0.00    -0.206 F 
ATOM     55  C   UNL A   1      44.844  26.720  36.994  1.00  0.00     0.059 A 
ATOM     56  C   UNL A   1      46.363  28.135  35.731  1.00  0.00     0.059 A 
ATOM     57  F   UNL A   1      45.500  29.856  34.392  1.00  0.00    -0.206 F 
ATOM     58  C   UNL A   1      46.139  27.071  36.603  1.00  0.00     0.060 A 
BRANCH  58  59
ATOM     59  S   UNL A   1      47.522  26.069  37.191  1.00  0.00     0.124 S 
ATOM     60  O   UNL A   1      48.100  25.600  35.937  1.00  0.00    -0.237 OA
ATOM     61  O   UNL A   1      48.314  27.046  37.933  1.00  0.00    -0.237 OA
ATOM     62  O   UNL A   1      46.874  25.049  38.009  1.00  0.00    -0.744 OA
ENDBRANCH  58  59
ENDBRANCH  26  51
BRANCH  38  63
ATOM     63  C   UNL A   1      39.796  33.829  37.426  1.00  0.00     0.058 A 
ATOM     64  C   UNL A   1      40.461  35.059  37.529  1.00  0.00     0.135 A 
ATOM     65  C   UNL A   1      38.949  33.447  38.479  1.00  0.00     0.135 A 
ATOM     66  F   UNL A   1      41.290  35.465  36.554  1.00  0.00    -0.206 F 
ATOM     67  C   UNL A   1      40.290  35.885  38.636  1.00  0.00     0.059 A 
ATOM     68  C   UNL A   1      38.746  34.266  39.584  1.00  0.00     0.059 A 
ATOM     69  F   UNL A   1      38.286  32.281  38.424  1.00  0.00    -0.206 F 
ATOM     70  C   UNL A   1      39.423  35.483  39.655  1.00  0.00     0.060 A 
BRANCH  70  71
ATOM     71  S   UNL A   1      39.149  36.596  41.050  1.00  0.00     0.124 S 
ATOM     72  O   UNL A   1      40.486  36.681  41.625  1.00  0.00    -0.237 OA
ATOM     73  O   UNL A   1      38.662  37.807  40.394  1.00  0.00    -0.237 OA
ATOM     74  O   UNL A   1      38.160  35.890  41.859  1.00  0.00    -0.744 OA
ENDBRANCH  70  71
ENDBRANCH  38  63
ENDBRANCH  12  13
ENDBRANCH   5   7
ENDBRANCH   2   3
ENDBRANCH   1   2
BRANCH   1  75
ATOM     75  C   UNL A   1      38.046  23.446  26.112  1.00  0.00     0.117 C 
BRANCH  75  76
ATOM     76  N   UNL A   1      37.752  23.346  24.696  1.00  0.00    -0.356 N 
ATOM     77  C   UNL A   1      36.592  23.180  24.014  1.00  0.00     0.223 C 
ATOM     78  H   UNL A   1      38.547  23.413  24.119  1.00  0.00     0.163 HD
ATOM     79  O   UNL A   1      36.693  22.996  22.796  1.00  0.00    -0.275 OA
BRANCH  77  80
ATOM     80  C   UNL A   1      35.205  23.350  24.637  1.00  0.00     0.078 C 
ATOM     81  C   UNL A   1      34.763  24.767  25.030  1.00  0.00     0.014 C 
ATOM     82  C   UNL A   1      34.194  22.585  23.774  1.00  0.00     0.014 C 
ATOM     83  C   UNL A   1      33.285  24.865  25.434  1.00  0.00     0.010 C 
ATOM     84  C   UNL A   1      32.786  22.684  24.349  1.00  0.00     0.010 C 
ATOM     85  C   UNL A   1      32.329  24.147  24.461  1.00  0.00     0.044 C 
BRANCH  85  86
ATOM     86  C   UNL A   1      32.227  24.885  23.098  1.00  0.00     0.264 C 
BRANCH  86  87
ATOM     87  N   UNL A   1      31.350  26.058  23.187  1.00  0.00    -0.344 N 
ATOM     88  H   UNL A   1      31.067  26.175  24.160  1.00  0.00     0.346 HD
ATOM     89  H   UNL A   1      30.557  25.885  22.570  1.00  0.00     0.346 HD
BRANCH  87  90
ATOM     90  C   UNL A   1      31.987  27.306  22.734  1.00  0.00     0.182 C 
ATOM     91  C   UNL A   1      30.885  28.279  22.276  1.00  0.00     0.065 C 
ATOM     92  C   UNL A   1      32.823  27.968  23.838  1.00  0.00     0.069 C 
ATOM     93  C   UNL A   1      29.999  28.731  23.434  1.00  0.00     0.006 C 
ATOM     94  C   UNL A   1      31.979  28.469  25.031  1.00  0.00    -0.002 C 
ATOM     95  C   UNL A   1      30.831  29.370  24.543  1.00  0.00     0.004 C 
BRANCH  94  96
ATOM     96  C   UNL A   1      32.884  29.137  26.054  1.00  0.00    -0.008 C 
ATOM     97  C   UNL A   1      33.247  28.538  27.395  1.00  0.00     0.004 C 
ATOM     98  C   UNL A   1      34.269  28.589  26.297  1.00  0.00     0.004 C 
ENDBRANCH  94  96
ENDBRANCH  87  90
ENDBRANCH  86  87
ENDBRANCH  85  86
ENDBRANCH  77  80
ENDBRANCH  75  76
ENDBRANCH   1  75
TORSDOF 17
ENDMDL
