MODEL 1
REMARK VINA RESULT:     -11.6      0.000      0.000
REMARK SMILES O=C(CCCCC(=O)c1ccc(-c2ccccc2)cc1)NCCCNC(=O)c1ccc(-c2c3nc(c(-c4c(F)cc(S(=O)(=O)[O-])cc4F)c4ccc([nH]4)c(-c4c(F)cc(S(=O)(=O)[O-])cc4F)c4nc(c(-c5c(F)cc(S(=O)(=O)[O-])cc5F)c5ccc2[nH]5)C=C4)C=C3)cc1
REMARK SMILES IDX 1 1 2 2 21 3 3 5 4 6 5 7 6 8 7 9 8 10 9 11 10 12 20 13 11 14
REMARK SMILES IDX 19 15 12 16 13 17 14 18 18 19 15 20 17 21 16 22 22 23 23 24
REMARK SMILES IDX 24 25 25 26 26 27 27 29 28 30 29 31 93 32 30 33 92 34 31 35
REMARK SMILES IDX 32 36 33 37 86 38 34 39 91 40 85 41 87 42 35 43 90 44 84 45
REMARK SMILES IDX 83 46 36 48 70 49 49 50 69 51 50 52 53 53 68 54 88 55 51 56
REMARK SMILES IDX 52 57 67 59 89 60 54 61 37 62 38 63 47 64 39 65 40 66 46 67
REMARK SMILES IDX 48 68 41 69 42 70 43 71 44 72 45 73 71 74 72 75 81 76 73 77
REMARK SMILES IDX 74 78 80 79 82 80 75 81 76 82 77 83 78 84 79 85 55 86 56 87
REMARK SMILES IDX 65 88 57 89 58 90 64 91 66 92 59 93 60 94 61 95 62 96 63 97
REMARK H PARENT 21 4 25 28 87 47 53 58
REMARK Flexibility Score: inf
ROOT
ATOM      1  O   UNL A   1      35.009  29.368  27.891  1.00  0.00    -0.275 OA
ATOM      2  C   UNL A   1      34.078  29.818  27.230  1.00  0.00     0.219 C 
ATOM      3  N   UNL A   1      33.665  31.126  27.266  1.00  0.00    -0.356 N 
ATOM      4  H   UNL A   1      32.978  31.417  26.624  1.00  0.00     0.163 HD
ENDROOT
BRANCH   2   5
ATOM      5  C   UNL A   1      33.250  28.956  26.306  1.00  0.00     0.100 C 
BRANCH   5   6
ATOM      6  C   UNL A   1      33.919  27.601  26.062  1.00  0.00     0.010 C 
BRANCH   6   7
ATOM      7  C   UNL A   1      33.553  26.823  24.781  1.00  0.00     0.009 C 
BRANCH   7   8
ATOM      8  C   UNL A   1      33.324  25.310  24.862  1.00  0.00     0.081 C 
BRANCH   8   9
ATOM      9  C   UNL A   1      33.582  24.480  23.609  1.00  0.00     0.162 C 
ATOM     10  O   UNL A   1      33.820  24.988  22.517  1.00  0.00    -0.294 OA
BRANCH   9  11
ATOM     11  C   UNL A   1      33.708  23.021  23.748  1.00  0.00     0.018 A 
ATOM     12  C   UNL A   1      34.800  22.487  24.427  1.00  0.00     0.012 A 
ATOM     13  C   UNL A   1      32.719  22.188  23.241  1.00  0.00     0.012 A 
ATOM     14  C   UNL A   1      34.834  21.115  24.698  1.00  0.00     0.009 A 
ATOM     15  C   UNL A   1      32.732  20.833  23.566  1.00  0.00     0.009 A 
ATOM     16  C   UNL A   1      33.775  20.265  24.322  1.00  0.00    -0.018 A 
BRANCH  16  17
ATOM     17  C   UNL A   1      33.730  18.841  24.725  1.00  0.00    -0.018 A 
ATOM     18  C   UNL A   1      32.656  18.323  25.473  1.00  0.00     0.009 A 
ATOM     19  C   UNL A   1      34.737  17.937  24.338  1.00  0.00     0.009 A 
ATOM     20  C   UNL A   1      32.594  16.969  25.819  1.00  0.00     0.001 A 
ATOM     21  C   UNL A   1      34.670  16.581  24.668  1.00  0.00     0.001 A 
ATOM     22  C   UNL A   1      33.600  16.098  25.412  1.00  0.00     0.000 A 
ENDBRANCH  16  17
ENDBRANCH   9  11
ENDBRANCH   8   9
ENDBRANCH   7   8
ENDBRANCH   6   7
ENDBRANCH   5   6
ENDBRANCH   2   5
BRANCH   3  23
ATOM     23  C   UNL A   1      34.188  32.096  28.202  1.00  0.00     0.117 C 
BRANCH  23  24
ATOM     24  C   UNL A   1      35.633  32.457  27.895  1.00  0.00     0.042 C 
BRANCH  24  25
ATOM     25  C   UNL A   1      36.568  32.409  29.100  1.00  0.00     0.118 C 
BRANCH  25  26
ATOM     26  N   UNL A   1      36.080  31.557  30.175  1.00  0.00    -0.352 N 
ATOM     27  C   UNL A   1      36.601  30.384  30.667  1.00  0.00     0.251 C 
ATOM     28  H   UNL A   1      35.255  31.868  30.615  1.00  0.00     0.163 HD
ATOM     29  O   UNL A   1      35.951  29.732  31.479  1.00  0.00    -0.269 OA
BRANCH  27  30
ATOM     30  C   UNL A   1      37.918  29.893  30.200  1.00  0.00     0.039 A 
ATOM     31  C   UNL A   1      38.147  29.799  28.826  1.00  0.00     0.014 A 
ATOM     32  C   UNL A   1      38.919  29.520  31.100  1.00  0.00     0.014 A 
ATOM     33  C   UNL A   1      39.399  29.390  28.359  1.00  0.00     0.010 A 
ATOM     34  C   UNL A   1      40.192  29.198  30.634  1.00  0.00     0.010 A 
ATOM     35  C   UNL A   1      40.446  29.122  29.257  1.00  0.00    -0.014 A 
BRANCH  35  36
ATOM     36  C   UNL A   1      41.803  28.767  28.759  1.00  0.00     0.031 A 
ATOM     37  C   UNL A   1      42.890  29.807  28.684  1.00  0.00     0.074 A 
ATOM     38  C   UNL A   1      42.048  27.507  28.344  1.00  0.00     0.049 A 
ATOM     39  N   UNL A   1      44.132  29.675  28.291  1.00  0.00    -0.248 NA
ATOM     40  C   UNL A   1      42.532  31.180  29.077  1.00  0.00     0.031 C 
ATOM     41  C   UNL A   1      41.064  26.424  28.305  1.00  0.00     0.029 A 
ATOM     42  N   UNL A   1      43.199  26.923  27.877  1.00  0.00    -0.354 N 
ATOM     43  C   UNL A   1      44.699  30.941  28.385  1.00  0.00     0.074 A 
ATOM     44  C   UNL A   1      43.649  31.840  28.811  1.00  0.00     0.031 C 
ATOM     45  C   UNL A   1      41.661  25.299  27.881  1.00  0.00     0.029 A 
ATOM     46  C   UNL A   1      43.059  25.586  27.580  1.00  0.00     0.049 A 
ATOM     47  H   UNL A   1      44.046  27.413  27.767  1.00  0.00     0.167 HD
ATOM     48  C   UNL A   1      45.982  31.316  28.167  1.00  0.00     0.037 A 
ATOM     49  C   UNL A   1      43.956  24.692  27.118  1.00  0.00     0.037 A 
ATOM     50  C   UNL A   1      47.029  30.413  27.760  1.00  0.00     0.049 A 
ATOM     51  C   UNL A   1      45.377  25.132  26.888  1.00  0.00     0.074 A 
ATOM     52  C   UNL A   1      48.372  30.684  27.565  1.00  0.00     0.029 A 
ATOM     53  N   UNL A   1      46.850  29.066  27.478  1.00  0.00    -0.354 N 
ATOM     54  N   UNL A   1      45.912  26.318  27.057  1.00  0.00    -0.248 NA
ATOM     55  C   UNL A   1      46.319  24.108  26.417  1.00  0.00     0.031 C 
ATOM     56  C   UNL A   1      48.995  29.515  27.116  1.00  0.00     0.029 A 
ATOM     57  C   UNL A   1      48.053  28.499  27.090  1.00  0.00     0.049 A 
ATOM     58  H   UNL A   1      45.994  28.584  27.545  1.00  0.00     0.167 HD
ATOM     59  C   UNL A   1      47.259  26.176  26.739  1.00  0.00     0.074 A 
ATOM     60  C   UNL A   1      47.458  24.784  26.388  1.00  0.00     0.031 C 
ATOM     61  C   UNL A   1      48.241  27.112  26.741  1.00  0.00     0.037 A 
BRANCH  48  62
ATOM     62  C   UNL A   1      46.332  32.768  28.369  1.00  0.00     0.058 A 
ATOM     63  C   UNL A   1      46.190  33.712  27.339  1.00  0.00     0.135 A 
ATOM     64  C   UNL A   1      46.775  33.230  29.619  1.00  0.00     0.135 A 
ATOM     65  F   UNL A   1      45.784  33.326  26.118  1.00  0.00    -0.206 F 
ATOM     66  C   UNL A   1      46.502  35.054  27.531  1.00  0.00     0.059 A 
ATOM     67  C   UNL A   1      47.063  34.574  29.844  1.00  0.00     0.059 A 
ATOM     68  F   UNL A   1      46.929  32.374  30.641  1.00  0.00    -0.206 F 
ATOM     69  C   UNL A   1      46.937  35.476  28.788  1.00  0.00     0.060 A 
BRANCH  69  70
ATOM     70  S   UNL A   1      47.327  37.223  29.022  1.00  0.00     0.124 S 
ATOM     71  O   UNL A   1      46.009  37.836  28.893  1.00  0.00    -0.237 OA
ATOM     72  O   UNL A   1      47.904  37.238  30.362  1.00  0.00    -0.237 OA
ATOM     73  O   UNL A   1      48.261  37.511  27.938  1.00  0.00    -0.744 OA
ENDBRANCH  69  70
ENDBRANCH  48  62
BRANCH  49  74
ATOM     74  C   UNL A   1      43.543  23.282  26.874  1.00  0.00     0.058 A 
ATOM     75  C   UNL A   1      43.230  22.424  27.937  1.00  0.00     0.135 A 
ATOM     76  C   UNL A   1      43.446  22.769  25.571  1.00  0.00     0.135 A 
ATOM     77  F   UNL A   1      43.312  22.865  29.202  1.00  0.00    -0.206 F 
ATOM     78  C   UNL A   1      42.857  21.101  27.722  1.00  0.00     0.059 A 
ATOM     79  C   UNL A   1      43.047  21.458  25.328  1.00  0.00     0.059 A 
ATOM     80  F   UNL A   1      43.717  23.554  24.516  1.00  0.00    -0.206 F 
ATOM     81  C   UNL A   1      42.765  20.628  26.412  1.00  0.00     0.060 A 
BRANCH  81  82
ATOM     82  S   UNL A   1      42.237  18.923  26.142  1.00  0.00     0.124 S 
ATOM     83  O   UNL A   1      40.827  19.101  25.813  1.00  0.00    -0.237 OA
ATOM     84  O   UNL A   1      43.101  18.505  25.042  1.00  0.00    -0.237 OA
ATOM     85  O   UNL A   1      42.511  18.280  27.424  1.00  0.00    -0.744 OA
ENDBRANCH  81  82
ENDBRANCH  49  74
BRANCH  61  86
ATOM     86  C   UNL A   1      49.630  26.654  26.384  1.00  0.00     0.058 A 
ATOM     87  C   UNL A   1      50.475  26.044  27.325  1.00  0.00     0.135 A 
ATOM     88  C   UNL A   1      50.113  26.809  25.075  1.00  0.00     0.135 A 
ATOM     89  F   UNL A   1      50.066  25.873  28.593  1.00  0.00    -0.206 F 
ATOM     90  C   UNL A   1      51.765  25.641  26.990  1.00  0.00     0.059 A 
ATOM     91  C   UNL A   1      51.387  26.382  24.710  1.00  0.00     0.059 A 
ATOM     92  F   UNL A   1      49.344  27.373  24.131  1.00  0.00    -0.206 F 
ATOM     93  C   UNL A   1      52.213  25.817  25.680  1.00  0.00     0.060 A 
BRANCH  93  94
ATOM     94  S   UNL A   1      53.885  25.287  25.258  1.00  0.00     0.124 S 
ATOM     95  O   UNL A   1      53.746  23.834  25.272  1.00  0.00    -0.237 OA
ATOM     96  O   UNL A   1      54.083  25.893  23.945  1.00  0.00    -0.237 OA
ATOM     97  O   UNL A   1      54.702  25.848  26.330  1.00  0.00    -0.744 OA
ENDBRANCH  93  94
ENDBRANCH  61  86
ENDBRANCH  35  36
ENDBRANCH  27  30
ENDBRANCH  25  26
ENDBRANCH  24  25
ENDBRANCH  23  24
ENDBRANCH   3  23
TORSDOF 19
ENDMDL
MODEL 2
REMARK VINA RESULT:     -11.5      6.735     12.655
REMARK SMILES O=C(CCCCC(=O)c1ccc(-c2ccccc2)cc1)NCCCNC(=O)c1ccc(-c2c3nc(c(-c4c(F)cc(S(=O)(=O)[O-])cc4F)c4ccc([nH]4)c(-c4c(F)cc(S(=O)(=O)[O-])cc4F)c4nc(c(-c5c(F)cc(S(=O)(=O)[O-])cc5F)c5ccc2[nH]5)C=C4)C=C3)cc1
REMARK SMILES IDX 1 1 2 2 21 3 3 5 4 6 5 7 6 8 7 9 8 10 9 11 10 12 20 13 11 14
REMARK SMILES IDX 19 15 12 16 13 17 14 18 18 19 15 20 17 21 16 22 22 23 23 24
REMARK SMILES IDX 24 25 25 26 26 27 27 29 28 30 29 31 93 32 30 33 92 34 31 35
REMARK SMILES IDX 32 36 33 37 86 38 34 39 91 40 85 41 87 42 35 43 90 44 84 45
REMARK SMILES IDX 83 46 36 48 70 49 49 50 69 51 50 52 53 53 68 54 88 55 51 56
REMARK SMILES IDX 52 57 67 59 89 60 54 61 37 62 38 63 47 64 39 65 40 66 46 67
REMARK SMILES IDX 48 68 41 69 42 70 43 71 44 72 45 73 71 74 72 75 81 76 73 77
REMARK SMILES IDX 74 78 80 79 82 80 75 81 76 82 77 83 78 84 79 85 55 86 56 87
REMARK SMILES IDX 65 88 57 89 58 90 64 91 66 92 59 93 60 94 61 95 62 96 63 97
REMARK H PARENT 21 4 25 28 87 47 53 58
REMARK Flexibility Score: inf
ROOT
ATOM      1  O   UNL A   1      35.851  22.577  25.821  1.00  0.00    -0.275 OA
ATOM      2  C   UNL A   1      36.522  22.629  24.795  1.00  0.00     0.219 C 
ATOM      3  N   UNL A   1      37.830  22.226  24.704  1.00  0.00    -0.356 N 
ATOM      4  H   UNL A   1      38.253  22.207  23.815  1.00  0.00     0.163 HD
ENDROOT
BRANCH   2   5
ATOM      5  C   UNL A   1      35.975  23.179  23.498  1.00  0.00     0.100 C 
BRANCH   5   6
ATOM      6  C   UNL A   1      34.451  23.306  23.546  1.00  0.00     0.010 C 
BRANCH   6   7
ATOM      7  C   UNL A   1      33.840  24.521  24.275  1.00  0.00     0.009 C 
BRANCH   7   8
ATOM      8  C   UNL A   1      32.460  25.034  23.850  1.00  0.00     0.081 C 
BRANCH   8   9
ATOM      9  C   UNL A   1      31.603  25.735  24.899  1.00  0.00     0.162 C 
ATOM     10  O   UNL A   1      31.606  25.407  26.082  1.00  0.00    -0.294 OA
BRANCH   9  11
ATOM     11  C   UNL A   1      30.871  26.949  24.509  1.00  0.00     0.018 A 
ATOM     12  C   UNL A   1      31.434  28.200  24.750  1.00  0.00     0.012 A 
ATOM     13  C   UNL A   1      29.645  26.842  23.864  1.00  0.00     0.012 A 
ATOM     14  C   UNL A   1      30.813  29.342  24.234  1.00  0.00     0.009 A 
ATOM     15  C   UNL A   1      29.065  27.979  23.304  1.00  0.00     0.009 A 
ATOM     16  C   UNL A   1      29.644  29.253  23.453  1.00  0.00    -0.018 A 
BRANCH  16  17
ATOM     17  C   UNL A   1      29.056  30.436  22.782  1.00  0.00    -0.018 A 
ATOM     18  C   UNL A   1      29.031  31.697  23.405  1.00  0.00     0.009 A 
ATOM     19  C   UNL A   1      28.539  30.355  21.476  1.00  0.00     0.009 A 
ATOM     20  C   UNL A   1      28.512  32.822  22.754  1.00  0.00     0.001 A 
ATOM     21  C   UNL A   1      28.034  31.479  20.817  1.00  0.00     0.001 A 
ATOM     22  C   UNL A   1      28.018  32.712  21.458  1.00  0.00     0.000 A 
ENDBRANCH  16  17
ENDBRANCH   9  11
ENDBRANCH   8   9
ENDBRANCH   7   8
ENDBRANCH   6   7
ENDBRANCH   5   6
ENDBRANCH   2   5
BRANCH   3  23
ATOM     23  C   UNL A   1      38.617  21.829  25.849  1.00  0.00     0.117 C 
BRANCH  23  24
ATOM     24  C   UNL A   1      38.952  23.010  26.746  1.00  0.00     0.042 C 
BRANCH  24  25
ATOM     25  C   UNL A   1      40.433  23.152  27.082  1.00  0.00     0.118 C 
BRANCH  25  26
ATOM     26  N   UNL A   1      41.181  23.906  26.087  1.00  0.00    -0.352 N 
ATOM     27  C   UNL A   1      41.598  25.215  26.112  1.00  0.00     0.251 C 
ATOM     28  H   UNL A   1      41.424  23.404  25.274  1.00  0.00     0.163 HD
ATOM     29  O   UNL A   1      42.085  25.711  25.100  1.00  0.00    -0.269 OA
BRANCH  27  30
ATOM     30  C   UNL A   1      41.435  26.031  27.337  1.00  0.00     0.039 A 
ATOM     31  C   UNL A   1      42.388  27.011  27.620  1.00  0.00     0.014 A 
ATOM     32  C   UNL A   1      40.360  25.834  28.208  1.00  0.00     0.014 A 
ATOM     33  C   UNL A   1      42.229  27.831  28.740  1.00  0.00     0.010 A 
ATOM     34  C   UNL A   1      40.156  26.708  29.273  1.00  0.00     0.010 A 
ATOM     35  C   UNL A   1      41.092  27.713  29.558  1.00  0.00    -0.014 A 
BRANCH  35  36
ATOM     36  C   UNL A   1      40.880  28.640  30.703  1.00  0.00     0.031 A 
ATOM     37  C   UNL A   1      41.722  28.527  31.947  1.00  0.00     0.074 A 
ATOM     38  C   UNL A   1      39.904  29.568  30.633  1.00  0.00     0.049 A 
ATOM     39  N   UNL A   1      41.689  29.256  33.034  1.00  0.00    -0.248 NA
ATOM     40  C   UNL A   1      42.715  27.441  31.988  1.00  0.00     0.031 C 
ATOM     41  C   UNL A   1      38.978  29.738  29.512  1.00  0.00     0.029 A 
ATOM     42  N   UNL A   1      39.528  30.545  31.521  1.00  0.00    -0.354 N 
ATOM     43  C   UNL A   1      42.646  28.717  33.886  1.00  0.00     0.074 A 
ATOM     44  C   UNL A   1      43.199  27.561  33.215  1.00  0.00     0.031 C 
ATOM     45  C   UNL A   1      38.171  30.781  29.760  1.00  0.00     0.029 A 
ATOM     46  C   UNL A   1      38.492  31.332  31.072  1.00  0.00     0.049 A 
ATOM     47  H   UNL A   1      39.960  30.673  32.397  1.00  0.00     0.167 HD
ATOM     48  C   UNL A   1      43.050  29.160  35.101  1.00  0.00     0.037 A 
ATOM     49  C   UNL A   1      37.871  32.379  31.650  1.00  0.00     0.037 A 
ATOM     50  C   UNL A   1      42.507  30.323  35.756  1.00  0.00     0.049 A 
ATOM     51  C   UNL A   1      38.341  32.855  32.998  1.00  0.00     0.074 A 
ATOM     52  C   UNL A   1      42.886  30.886  36.963  1.00  0.00     0.029 A 
ATOM     53  N   UNL A   1      41.465  31.098  35.265  1.00  0.00    -0.354 N 
ATOM     54  N   UNL A   1      39.301  32.378  33.754  1.00  0.00    -0.248 NA
ATOM     55  C   UNL A   1      37.650  34.021  33.566  1.00  0.00     0.031 C 
ATOM     56  C   UNL A   1      42.040  31.969  37.227  1.00  0.00     0.029 A 
ATOM     57  C   UNL A   1      41.175  32.120  36.155  1.00  0.00     0.049 A 
ATOM     58  H   UNL A   1      41.003  30.946  34.410  1.00  0.00     0.167 HD
ATOM     59  C   UNL A   1      39.349  33.202  34.874  1.00  0.00     0.074 A 
ATOM     60  C   UNL A   1      38.333  34.219  34.684  1.00  0.00     0.031 C 
ATOM     61  C   UNL A   1      40.161  33.126  35.957  1.00  0.00     0.037 A 
BRANCH  48  62
ATOM     62  C   UNL A   1      44.137  28.388  35.802  1.00  0.00     0.058 A 
ATOM     63  C   UNL A   1      43.844  27.341  36.692  1.00  0.00     0.135 A 
ATOM     64  C   UNL A   1      45.490  28.670  35.553  1.00  0.00     0.135 A 
ATOM     65  F   UNL A   1      42.568  27.036  36.980  1.00  0.00    -0.206 F 
ATOM     66  C   UNL A   1      44.849  26.622  37.329  1.00  0.00     0.059 A 
ATOM     67  C   UNL A   1      46.514  27.942  36.154  1.00  0.00     0.059 A 
ATOM     68  F   UNL A   1      45.831  29.659  34.711  1.00  0.00    -0.206 F 
ATOM     69  C   UNL A   1      46.183  26.929  37.053  1.00  0.00     0.060 A 
BRANCH  69  70
ATOM     70  S   UNL A   1      47.474  25.979  37.881  1.00  0.00     0.124 S 
ATOM     71  O   UNL A   1      48.022  26.970  38.800  1.00  0.00    -0.237 OA
ATOM     72  O   UNL A   1      46.716  24.894  38.497  1.00  0.00    -0.237 OA
ATOM     73  O   UNL A   1      48.357  25.580  36.789  1.00  0.00    -0.744 OA
ENDBRANCH  69  70
ENDBRANCH  48  62
BRANCH  49  74
ATOM     74  C   UNL A   1      36.757  33.068  30.941  1.00  0.00     0.058 A 
ATOM     75  C   UNL A   1      35.424  32.886  31.335  1.00  0.00     0.135 A 
ATOM     76  C   UNL A   1      37.006  33.928  29.860  1.00  0.00     0.135 A 
ATOM     77  F   UNL A   1      35.133  32.069  32.360  1.00  0.00    -0.206 F 
ATOM     78  C   UNL A   1      34.374  33.512  30.671  1.00  0.00     0.059 A 
ATOM     79  C   UNL A   1      35.976  34.589  29.199  1.00  0.00     0.059 A 
ATOM     80  F   UNL A   1      38.266  34.151  29.453  1.00  0.00    -0.206 F 
ATOM     81  C   UNL A   1      34.661  34.366  29.605  1.00  0.00     0.060 A 
BRANCH  81  82
ATOM     82  S   UNL A   1      33.295  35.209  28.779  1.00  0.00     0.124 S 
ATOM     83  O   UNL A   1      32.485  35.637  29.914  1.00  0.00    -0.237 OA
ATOM     84  O   UNL A   1      33.986  36.269  28.051  1.00  0.00    -0.237 OA
ATOM     85  O   UNL A   1      32.711  34.163  27.944  1.00  0.00    -0.744 OA
ENDBRANCH  81  82
ENDBRANCH  49  74
BRANCH  61  86
ATOM     86  C   UNL A   1      40.008  34.193  37.010  1.00  0.00     0.058 A 
ATOM     87  C   UNL A   1      40.782  35.364  36.997  1.00  0.00     0.135 A 
ATOM     88  C   UNL A   1      39.057  34.048  38.033  1.00  0.00     0.135 A 
ATOM     89  F   UNL A   1      41.709  35.553  36.044  1.00  0.00    -0.206 F 
ATOM     90  C   UNL A   1      40.647  36.336  37.985  1.00  0.00     0.059 A 
ATOM     91  C   UNL A   1      38.881  35.023  39.011  1.00  0.00     0.059 A 
ATOM     92  F   UNL A   1      38.280  32.955  38.086  1.00  0.00    -0.206 F 
ATOM     93  C   UNL A   1      39.694  36.154  38.989  1.00  0.00     0.060 A 
BRANCH  93  94
ATOM     94  S   UNL A   1      39.526  37.423  40.262  1.00  0.00     0.124 S 
ATOM     95  O   UNL A   1      39.728  36.645  41.480  1.00  0.00    -0.237 OA
ATOM     96  O   UNL A   1      40.596  38.354  39.918  1.00  0.00    -0.237 OA
ATOM     97  O   UNL A   1      38.172  37.931  40.060  1.00  0.00    -0.744 OA
ENDBRANCH  93  94
ENDBRANCH  61  86
ENDBRANCH  35  36
ENDBRANCH  27  30
ENDBRANCH  25  26
ENDBRANCH  24  25
ENDBRANCH  23  24
ENDBRANCH   3  23
TORSDOF 19
ENDMDL
MODEL 3
REMARK VINA RESULT:     -11.1      0.965      8.222
REMARK SMILES O=C(CCCCC(=O)c1ccc(-c2ccccc2)cc1)NCCCNC(=O)c1ccc(-c2c3nc(c(-c4c(F)cc(S(=O)(=O)[O-])cc4F)c4ccc([nH]4)c(-c4c(F)cc(S(=O)(=O)[O-])cc4F)c4nc(c(-c5c(F)cc(S(=O)(=O)[O-])cc5F)c5ccc2[nH]5)C=C4)C=C3)cc1
REMARK SMILES IDX 1 1 2 2 21 3 3 5 4 6 5 7 6 8 7 9 8 10 9 11 10 12 20 13 11 14
REMARK SMILES IDX 19 15 12 16 13 17 14 18 18 19 15 20 17 21 16 22 22 23 23 24
REMARK SMILES IDX 24 25 25 26 26 27 27 29 28 30 29 31 93 32 30 33 92 34 31 35
REMARK SMILES IDX 32 36 33 37 86 38 34 39 91 40 85 41 87 42 35 43 90 44 84 45
REMARK SMILES IDX 83 46 36 48 70 49 49 50 69 51 50 52 53 53 68 54 88 55 51 56
REMARK SMILES IDX 52 57 67 59 89 60 54 61 37 62 38 63 47 64 39 65 40 66 46 67
REMARK SMILES IDX 48 68 41 69 42 70 43 71 44 72 45 73 71 74 72 75 81 76 73 77
REMARK SMILES IDX 74 78 80 79 82 80 75 81 76 82 77 83 78 84 79 85 55 86 56 87
REMARK SMILES IDX 65 88 57 89 58 90 64 91 66 92 59 93 60 94 61 95 62 96 63 97
REMARK H PARENT 21 4 25 28 87 47 53 58
REMARK Flexibility Score: inf
ROOT
ATOM      1  O   UNL A   1      34.890  30.297  28.141  1.00  0.00    -0.275 OA
ATOM      2  C   UNL A   1      34.002  30.885  27.532  1.00  0.00     0.219 C 
ATOM      3  N   UNL A   1      33.688  32.208  27.708  1.00  0.00    -0.356 N 
ATOM      4  H   UNL A   1      33.032  32.619  27.100  1.00  0.00     0.163 HD
ENDROOT
BRANCH   2   5
ATOM      5  C   UNL A   1      33.122  30.193  26.517  1.00  0.00     0.100 C 
BRANCH   5   6
ATOM      6  C   UNL A   1      33.628  28.782  26.212  1.00  0.00     0.010 C 
BRANCH   6   7
ATOM      7  C   UNL A   1      33.513  28.258  24.765  1.00  0.00     0.009 C 
BRANCH   7   8
ATOM      8  C   UNL A   1      32.818  26.917  24.506  1.00  0.00     0.081 C 
BRANCH   8   9
ATOM      9  C   UNL A   1      33.254  26.110  23.288  1.00  0.00     0.162 C 
ATOM     10  O   UNL A   1      33.702  26.634  22.273  1.00  0.00    -0.294 OA
BRANCH   9  11
ATOM     11  C   UNL A   1      33.291  24.643  23.396  1.00  0.00     0.018 A 
ATOM     12  C   UNL A   1      33.939  24.049  24.475  1.00  0.00     0.012 A 
ATOM     13  C   UNL A   1      32.643  23.863  22.447  1.00  0.00     0.012 A 
ATOM     14  C   UNL A   1      33.832  22.666  24.661  1.00  0.00     0.009 A 
ATOM     15  C   UNL A   1      32.493  22.495  22.672  1.00  0.00     0.009 A 
ATOM     16  C   UNL A   1      33.063  21.865  23.795  1.00  0.00    -0.018 A 
BRANCH  16  17
ATOM     17  C   UNL A   1      32.824  20.427  24.058  1.00  0.00    -0.018 A 
ATOM     18  C   UNL A   1      32.526  19.529  23.017  1.00  0.00     0.009 A 
ATOM     19  C   UNL A   1      32.930  19.893  25.356  1.00  0.00     0.009 A 
ATOM     20  C   UNL A   1      32.340  18.164  23.262  1.00  0.00     0.001 A 
ATOM     21  C   UNL A   1      32.761  18.528  25.602  1.00  0.00     0.001 A 
ATOM     22  C   UNL A   1      32.463  17.664  24.555  1.00  0.00     0.000 A 
ENDBRANCH  16  17
ENDBRANCH   9  11
ENDBRANCH   8   9
ENDBRANCH   7   8
ENDBRANCH   6   7
ENDBRANCH   5   6
ENDBRANCH   2   5
BRANCH   3  23
ATOM     23  C   UNL A   1      34.275  33.030  28.744  1.00  0.00     0.117 C 
BRANCH  23  24
ATOM     24  C   UNL A   1      35.768  33.228  28.535  1.00  0.00     0.042 C 
BRANCH  24  25
ATOM     25  C   UNL A   1      36.620  32.980  29.775  1.00  0.00     0.118 C 
BRANCH  25  26
ATOM     26  N   UNL A   1      36.167  31.847  30.569  1.00  0.00    -0.352 N 
ATOM     27  C   UNL A   1      36.763  30.624  30.770  1.00  0.00     0.251 C 
ATOM     28  H   UNL A   1      35.307  31.976  31.031  1.00  0.00     0.163 HD
ATOM     29  O   UNL A   1      36.141  29.741  31.353  1.00  0.00    -0.269 OA
BRANCH  27  30
ATOM     30  C   UNL A   1      38.129  30.363  30.261  1.00  0.00     0.039 A 
ATOM     31  C   UNL A   1      39.185  30.319  31.172  1.00  0.00     0.014 A 
ATOM     32  C   UNL A   1      38.376  30.168  28.899  1.00  0.00     0.014 A 
ATOM     33  C   UNL A   1      40.475  30.021  30.726  1.00  0.00     0.010 A 
ATOM     34  C   UNL A   1      39.644  29.784  28.468  1.00  0.00     0.010 A 
ATOM     35  C   UNL A   1      40.711  29.713  29.375  1.00  0.00    -0.014 A 
BRANCH  35  36
ATOM     36  C   UNL A   1      42.069  29.315  28.913  1.00  0.00     0.031 A 
ATOM     37  C   UNL A   1      42.339  27.908  28.444  1.00  0.00     0.074 A 
ATOM     38  C   UNL A   1      43.071  30.216  28.943  1.00  0.00     0.049 A 
ATOM     39  N   UNL A   1      43.452  27.388  27.993  1.00  0.00    -0.248 NA
ATOM     40  C   UNL A   1      41.220  26.954  28.512  1.00  0.00     0.031 C 
ATOM     41  C   UNL A   1      42.956  31.591  29.435  1.00  0.00     0.029 A 
ATOM     42  N   UNL A   1      44.383  30.116  28.551  1.00  0.00    -0.354 N 
ATOM     43  C   UNL A   1      43.172  26.052  27.730  1.00  0.00     0.074 A 
ATOM     44  C   UNL A   1      41.801  25.825  28.132  1.00  0.00     0.031 C 
ATOM     45  C   UNL A   1      44.133  32.217  29.277  1.00  0.00     0.029 A 
ATOM     46  C   UNL A   1      45.099  31.281  28.711  1.00  0.00     0.049 A 
ATOM     47  H   UNL A   1      44.776  29.289  28.189  1.00  0.00     0.167 HD
ATOM     48  C   UNL A   1      43.971  25.109  27.178  1.00  0.00     0.037 A 
ATOM     49  C   UNL A   1      46.386  31.565  28.431  1.00  0.00     0.037 A 
ATOM     50  C   UNL A   1      45.331  25.344  26.764  1.00  0.00     0.049 A 
ATOM     51  C   UNL A   1      47.252  30.501  27.813  1.00  0.00     0.074 A 
ATOM     52  C   UNL A   1      46.206  24.469  26.144  1.00  0.00     0.029 A 
ATOM     53  N   UNL A   1      46.017  26.539  26.933  1.00  0.00    -0.354 N 
ATOM     54  N   UNL A   1      46.946  29.264  27.501  1.00  0.00    -0.248 NA
ATOM     55  C   UNL A   1      48.638  30.875  27.498  1.00  0.00     0.031 C 
ATOM     56  C   UNL A   1      47.436  25.117  25.986  1.00  0.00     0.029 A 
ATOM     57  C   UNL A   1      47.310  26.417  26.450  1.00  0.00     0.049 A 
ATOM     58  H   UNL A   1      45.639  27.355  27.336  1.00  0.00     0.167 HD
ATOM     59  C   UNL A   1      48.091  28.721  26.926  1.00  0.00     0.074 A 
ATOM     60  C   UNL A   1      49.089  29.772  26.918  1.00  0.00     0.031 C 
ATOM     61  C   UNL A   1      48.296  27.469  26.448  1.00  0.00     0.037 A 
BRANCH  48  62
ATOM     62  C   UNL A   1      43.395  23.730  26.982  1.00  0.00     0.058 A 
ATOM     63  C   UNL A   1      42.995  23.270  25.717  1.00  0.00     0.135 A 
ATOM     64  C   UNL A   1      43.279  22.842  28.064  1.00  0.00     0.135 A 
ATOM     65  F   UNL A   1      43.070  24.079  24.647  1.00  0.00    -0.206 F 
ATOM     66  C   UNL A   1      42.475  21.992  25.536  1.00  0.00     0.059 A 
ATOM     67  C   UNL A   1      42.791  21.548  27.901  1.00  0.00     0.059 A 
ATOM     68  F   UNL A   1      43.646  23.226  29.297  1.00  0.00    -0.206 F 
ATOM     69  C   UNL A   1      42.378  21.137  26.635  1.00  0.00     0.060 A 
BRANCH  69  70
ATOM     70  S   UNL A   1      41.711  19.480  26.379  1.00  0.00     0.124 S 
ATOM     71  O   UNL A   1      42.402  19.072  25.161  1.00  0.00    -0.237 OA
ATOM     72  O   UNL A   1      42.115  18.789  27.599  1.00  0.00    -0.237 OA
ATOM     73  O   UNL A   1      40.276  19.708  26.238  1.00  0.00    -0.744 OA
ENDBRANCH  69  70
ENDBRANCH  48  62
BRANCH  49  74
ATOM     74  C   UNL A   1      46.924  32.926  28.704  1.00  0.00     0.058 A 
ATOM     75  C   UNL A   1      47.441  33.262  29.963  1.00  0.00     0.135 A 
ATOM     76  C   UNL A   1      46.939  33.915  27.707  1.00  0.00     0.135 A 
ATOM     77  F   UNL A   1      47.445  32.354  30.951  1.00  0.00    -0.206 F 
ATOM     78  C   UNL A   1      47.933  34.535  30.234  1.00  0.00     0.059 A 
ATOM     79  C   UNL A   1      47.453  35.186  27.945  1.00  0.00     0.059 A 
ATOM     80  F   UNL A   1      46.473  33.640  26.478  1.00  0.00    -0.206 F 
ATOM     81  C   UNL A   1      47.938  35.490  29.216  1.00  0.00     0.060 A 
BRANCH  81  82
ATOM     82  S   UNL A   1      48.620  37.125  29.565  1.00  0.00     0.124 S 
ATOM     83  O   UNL A   1      49.214  36.921  30.881  1.00  0.00    -0.237 OA
ATOM     84  O   UNL A   1      49.558  37.307  28.461  1.00  0.00    -0.237 OA
ATOM     85  O   UNL A   1      47.446  37.993  29.530  1.00  0.00    -0.744 OA
ENDBRANCH  81  82
ENDBRANCH  49  74
BRANCH  61  86
ATOM     86  C   UNL A   1      49.643  27.175  25.841  1.00  0.00     0.058 A 
ATOM     87  C   UNL A   1      50.730  26.746  26.620  1.00  0.00     0.135 A 
ATOM     88  C   UNL A   1      49.840  27.303  24.457  1.00  0.00     0.135 A 
ATOM     89  F   UNL A   1      50.598  26.609  27.949  1.00  0.00    -0.206 F 
ATOM     90  C   UNL A   1      51.976  26.494  26.053  1.00  0.00     0.059 A 
ATOM     91  C   UNL A   1      51.068  27.023  23.864  1.00  0.00     0.059 A 
ATOM     92  F   UNL A   1      48.832  27.696  23.662  1.00  0.00    -0.206 F 
ATOM     93  C   UNL A   1      52.135  26.638  24.674  1.00  0.00     0.060 A 
BRANCH  93  94
ATOM     94  S   UNL A   1      53.755  26.305  23.950  1.00  0.00     0.124 S 
ATOM     95  O   UNL A   1      54.509  27.484  24.363  1.00  0.00    -0.237 OA
ATOM     96  O   UNL A   1      54.133  25.051  24.594  1.00  0.00    -0.237 OA
ATOM     97  O   UNL A   1      53.476  26.209  22.520  1.00  0.00    -0.744 OA
ENDBRANCH  93  94
ENDBRANCH  61  86
ENDBRANCH  35  36
ENDBRANCH  27  30
ENDBRANCH  25  26
ENDBRANCH  24  25
ENDBRANCH  23  24
ENDBRANCH   3  23
TORSDOF 19
ENDMDL
