MODEL 1
REMARK VINA RESULT:     -12.1      0.000      0.000
REMARK SMILES Cc1nc(C[NH2+][C@@H](C(=O)NCCCNC(=O)c2ccc(-c3c4nc(c(-c5c(F)cc(S(=O)(=O)[O-])cc5F)c5ccc([nH]5)c(-c5c(F)cc(S(=O)(=O)[O-])cc5F)c5nc(c(-c6c(F)cc(S(=O)(=O)[O-])cc6F)c6ccc3[nH]6)C=C5)C=C4)cc2)c2ccccc2)sc1C
REMARK SMILES IDX 12 1 11 2 10 3 8 4 9 5 7 7 6 8 5 11 4 12 1 13 2 14 3 15
REMARK SMILES IDX 90 16 89 17 91 18 83 19 84 20 88 21 85 22 87 23 86 24 13 25
REMARK SMILES IDX 14 26 15 27 16 29 17 30 18 31 82 32 19 33 81 34 20 35 21 36
REMARK SMILES IDX 22 37 75 38 23 39 80 40 74 41 76 42 24 43 79 44 73 45 72 46
REMARK SMILES IDX 25 48 59 49 38 50 58 51 39 52 42 53 57 54 77 55 40 56 41 57
REMARK SMILES IDX 56 59 78 60 43 61 26 62 27 63 36 64 28 65 29 66 35 67 37 68
REMARK SMILES IDX 30 69 31 70 32 71 33 72 34 73 60 74 61 75 70 76 62 77 63 78
REMARK SMILES IDX 69 79 71 80 64 81 65 82 66 83 67 84 68 85 44 86 45 87 54 88
REMARK SMILES IDX 46 89 47 90 53 91 55 92 48 93 49 94 50 95 51 96 52 97
REMARK H PARENT 10 6 6 9 6 10 14 28 76 47 42 58
REMARK Flexibility Score: inf
ROOT
ATOM      1  C   UNL A   1      37.272  23.663  25.407  1.00  0.00     0.042 C 
ENDROOT
BRANCH   1   2
ATOM      2  C   UNL A   1      36.990  22.150  25.379  1.00  0.00     0.118 C 
BRANCH   2   3
ATOM      3  N   UNL A   1      35.924  21.761  26.295  1.00  0.00    -0.351 N 
ATOM      4  C   UNL A   1      34.666  21.254  26.120  1.00  0.00     0.283 C 
ATOM      5  O   UNL A   1      33.962  21.258  27.137  1.00  0.00    -0.268 OA
ATOM      6  H   UNL A   1      36.161  21.894  27.242  1.00  0.00     0.163 HD
BRANCH   4   7
ATOM      7  C   UNL A   1      34.144  20.725  24.735  1.00  0.00     0.304 C 
BRANCH   7   8
ATOM      8  N   UNL A   1      32.883  21.401  24.318  1.00  0.00    -0.326 N 
ATOM      9  H   UNL A   1      32.481  20.896  23.528  1.00  0.00     0.347 HD
ATOM     10  H   UNL A   1      32.240  21.403  25.109  1.00  0.00     0.347 HD
BRANCH   8  11
ATOM     11  C   UNL A   1      33.131  22.782  23.923  1.00  0.00     0.330 C 
BRANCH  11  12
ATOM     12  C   UNL A   1      32.399  23.853  24.681  1.00  0.00     0.148 A 
ATOM     13  C   UNL A   1      29.641  26.150  24.878  1.00  0.00     0.068 C 
ATOM     14  C   UNL A   1      30.948  25.476  25.094  1.00  0.00     0.052 A 
ATOM     15  N   UNL A   1      31.188  24.290  24.411  1.00  0.00    -0.240 NA
ATOM     16  C   UNL A   1      32.002  25.926  25.874  1.00  0.00     0.025 A 
ATOM     17  S   UNL A   1      33.264  24.773  25.853  1.00  0.00    -0.118 S 
ATOM     18  C   UNL A   1      32.145  27.189  26.650  1.00  0.00     0.058 C 
ENDBRANCH  11  12
ENDBRANCH   8  11
ENDBRANCH   7   8
BRANCH   7  19
ATOM     19  C   UNL A   1      33.889  19.212  24.788  1.00  0.00     0.019 A 
ATOM     20  C   UNL A   1      34.894  18.294  24.428  1.00  0.00     0.010 A 
ATOM     21  C   UNL A   1      32.652  18.702  25.214  1.00  0.00     0.010 A 
ATOM     22  C   UNL A   1      34.672  16.917  24.478  1.00  0.00     0.001 A 
ATOM     23  C   UNL A   1      32.431  17.321  25.266  1.00  0.00     0.001 A 
ATOM     24  C   UNL A   1      33.438  16.430  24.897  1.00  0.00     0.000 A 
ENDBRANCH   7  19
ENDBRANCH   4   7
ENDBRANCH   2   3
ENDBRANCH   1   2
BRANCH   1  25
ATOM     25  C   UNL A   1      38.218  24.131  26.510  1.00  0.00     0.118 C 
BRANCH  25  26
ATOM     26  N   UNL A   1      39.609  24.018  26.117  1.00  0.00    -0.352 N 
ATOM     27  C   UNL A   1      40.690  24.798  26.457  1.00  0.00     0.251 C 
ATOM     28  H   UNL A   1      39.811  23.267  25.513  1.00  0.00     0.163 HD
ATOM     29  O   UNL A   1      41.733  24.662  25.819  1.00  0.00    -0.269 OA
BRANCH  27  30
ATOM     30  C   UNL A   1      40.624  25.799  27.552  1.00  0.00     0.039 A 
ATOM     31  C   UNL A   1      39.650  25.637  28.544  1.00  0.00     0.014 A 
ATOM     32  C   UNL A   1      41.444  26.932  27.583  1.00  0.00     0.014 A 
ATOM     33  C   UNL A   1      39.526  26.575  29.576  1.00  0.00     0.010 A 
ATOM     34  C   UNL A   1      41.371  27.828  28.655  1.00  0.00     0.010 A 
ATOM     35  C   UNL A   1      40.401  27.670  29.656  1.00  0.00    -0.014 A 
BRANCH  35  36
ATOM     36  C   UNL A   1      40.294  28.658  30.767  1.00  0.00     0.031 A 
ATOM     37  C   UNL A   1      41.174  28.541  31.986  1.00  0.00     0.074 A 
ATOM     38  C   UNL A   1      39.380  29.648  30.699  1.00  0.00     0.049 A 
ATOM     39  N   UNL A   1      41.201  29.287  33.062  1.00  0.00    -0.248 NA
ATOM     40  C   UNL A   1      42.133  27.425  32.010  1.00  0.00     0.031 C 
ATOM     41  C   UNL A   1      38.435  29.852  29.600  1.00  0.00     0.029 A 
ATOM     42  N   UNL A   1      39.093  30.666  31.576  1.00  0.00    -0.354 N 
ATOM     43  C   UNL A   1      42.163  28.725  33.894  1.00  0.00     0.074 A 
ATOM     44  C   UNL A   1      42.664  27.546  33.218  1.00  0.00     0.031 C 
ATOM     45  C   UNL A   1      37.690  30.941  29.856  1.00  0.00     0.029 A 
ATOM     46  C   UNL A   1      38.080  31.494  31.149  1.00  0.00     0.049 A 
ATOM     47  H   UNL A   1      39.567  30.792  32.429  1.00  0.00     0.167 HD
ATOM     48  C   UNL A   1      42.607  29.158  35.099  1.00  0.00     0.037 A 
ATOM     49  C   UNL A   1      37.526  32.577  31.731  1.00  0.00     0.037 A 
ATOM     50  C   UNL A   1      42.135  30.349  35.757  1.00  0.00     0.049 A 
ATOM     51  C   UNL A   1      38.046  33.051  33.061  1.00  0.00     0.074 A 
ATOM     52  C   UNL A   1      42.569  30.903  36.949  1.00  0.00     0.029 A 
ATOM     53  N   UNL A   1      41.126  31.172  35.279  1.00  0.00    -0.354 N 
ATOM     54  N   UNL A   1      39.000  32.538  33.802  1.00  0.00    -0.248 NA
ATOM     55  C   UNL A   1      37.423  34.254  33.630  1.00  0.00     0.031 C 
ATOM     56  C   UNL A   1      41.798  32.041  37.211  1.00  0.00     0.029 A 
ATOM     57  C   UNL A   1      40.911  32.219  36.160  1.00  0.00     0.049 A 
ATOM     58  H   UNL A   1      40.634  31.032  34.438  1.00  0.00     0.167 HD
ATOM     59  C   UNL A   1      39.106  33.370  34.911  1.00  0.00     0.074 A 
ATOM     60  C   UNL A   1      38.129  34.424  34.740  1.00  0.00     0.031 C 
ATOM     61  C   UNL A   1      39.939  33.268  35.976  1.00  0.00     0.037 A 
BRANCH  48  62
ATOM     62  C   UNL A   1      43.668  28.342  35.787  1.00  0.00     0.058 A 
ATOM     63  C   UNL A   1      43.340  27.314  36.684  1.00  0.00     0.135 A 
ATOM     64  C   UNL A   1      45.029  28.566  35.519  1.00  0.00     0.135 A 
ATOM     65  F   UNL A   1      42.055  27.066  36.986  1.00  0.00    -0.206 F 
ATOM     66  C   UNL A   1      44.322  26.557  37.316  1.00  0.00     0.059 A 
ATOM     67  C   UNL A   1      46.027  27.804  36.119  1.00  0.00     0.059 A 
ATOM     68  F   UNL A   1      45.399  29.534  34.665  1.00  0.00    -0.206 F 
ATOM     69  C   UNL A   1      45.663  26.813  37.029  1.00  0.00     0.060 A 
BRANCH  69  70
ATOM     70  S   UNL A   1      46.926  25.824  37.858  1.00  0.00     0.124 S 
ATOM     71  O   UNL A   1      46.343  24.488  37.784  1.00  0.00    -0.237 OA
ATOM     72  O   UNL A   1      48.101  26.049  37.024  1.00  0.00    -0.237 OA
ATOM     73  O   UNL A   1      46.989  26.406  39.196  1.00  0.00    -0.744 OA
ENDBRANCH  69  70
ENDBRANCH  48  62
BRANCH  49  74
ATOM     74  C   UNL A   1      36.426  33.303  31.043  1.00  0.00     0.058 A 
ATOM     75  C   UNL A   1      35.110  33.242  31.524  1.00  0.00     0.135 A 
ATOM     76  C   UNL A   1      36.671  34.087  29.905  1.00  0.00     0.135 A 
ATOM     77  F   UNL A   1      34.826  32.500  32.606  1.00  0.00    -0.206 F 
ATOM     78  C   UNL A   1      34.072  33.924  30.898  1.00  0.00     0.059 A 
ATOM     79  C   UNL A   1      35.654  34.795  29.274  1.00  0.00     0.059 A 
ATOM     80  F   UNL A   1      37.916  34.193  29.417  1.00  0.00    -0.206 F 
ATOM     81  C   UNL A   1      34.356  34.700  29.773  1.00  0.00     0.060 A 
BRANCH  81  82
ATOM     82  S   UNL A   1      33.016  35.633  29.000  1.00  0.00     0.124 S 
ATOM     83  O   UNL A   1      33.752  36.689  28.314  1.00  0.00    -0.237 OA
ATOM     84  O   UNL A   1      32.395  34.628  28.143  1.00  0.00    -0.237 OA
ATOM     85  O   UNL A   1      32.208  36.060  30.138  1.00  0.00    -0.744 OA
ENDBRANCH  81  82
ENDBRANCH  49  74
BRANCH  61  86
ATOM     86  C   UNL A   1      39.855  34.337  37.029  1.00  0.00     0.058 A 
ATOM     87  C   UNL A   1      40.477  35.584  36.863  1.00  0.00     0.135 A 
ATOM     88  C   UNL A   1      39.095  34.132  38.192  1.00  0.00     0.135 A 
ATOM     89  F   UNL A   1      41.220  35.827  35.772  1.00  0.00    -0.206 F 
ATOM     90  C   UNL A   1      40.367  36.584  37.824  1.00  0.00     0.059 A 
ATOM     91  C   UNL A   1      38.952  35.127  39.154  1.00  0.00     0.059 A 
ATOM     92  F   UNL A   1      38.473  32.960  38.394  1.00  0.00    -0.206 F 
ATOM     93  C   UNL A   1      39.600  36.346  38.966  1.00  0.00     0.060 A 
BRANCH  93  94
ATOM     94  S   UNL A   1      39.432  37.665  40.188  1.00  0.00     0.124 S 
ATOM     95  O   UNL A   1      38.931  36.930  41.345  1.00  0.00    -0.237 OA
ATOM     96  O   UNL A   1      40.799  38.166  40.299  1.00  0.00    -0.237 OA
ATOM     97  O   UNL A   1      38.483  38.583  39.567  1.00  0.00    -0.744 OA
ENDBRANCH  93  94
ENDBRANCH  61  86
ENDBRANCH  35  36
ENDBRANCH  27  30
ENDBRANCH  25  26
ENDBRANCH   1  25
TORSDOF 17
ENDMDL
MODEL 2
REMARK VINA RESULT:     -12.0      1.138      3.448
REMARK SMILES Cc1nc(C[NH2+][C@@H](C(=O)NCCCNC(=O)c2ccc(-c3c4nc(c(-c5c(F)cc(S(=O)(=O)[O-])cc5F)c5ccc([nH]5)c(-c5c(F)cc(S(=O)(=O)[O-])cc5F)c5nc(c(-c6c(F)cc(S(=O)(=O)[O-])cc6F)c6ccc3[nH]6)C=C5)C=C4)cc2)c2ccccc2)sc1C
REMARK SMILES IDX 12 1 11 2 10 3 8 4 9 5 7 7 6 8 5 11 4 12 1 13 2 14 3 15
REMARK SMILES IDX 90 16 89 17 91 18 83 19 84 20 88 21 85 22 87 23 86 24 13 25
REMARK SMILES IDX 14 26 15 27 16 29 17 30 18 31 82 32 19 33 81 34 20 35 21 36
REMARK SMILES IDX 22 37 75 38 23 39 80 40 74 41 76 42 24 43 79 44 73 45 72 46
REMARK SMILES IDX 25 48 59 49 38 50 58 51 39 52 42 53 57 54 77 55 40 56 41 57
REMARK SMILES IDX 56 59 78 60 43 61 26 62 27 63 36 64 28 65 29 66 35 67 37 68
REMARK SMILES IDX 30 69 31 70 32 71 33 72 34 73 60 74 61 75 70 76 62 77 63 78
REMARK SMILES IDX 69 79 71 80 64 81 65 82 66 83 67 84 68 85 44 86 45 87 54 88
REMARK SMILES IDX 46 89 47 90 53 91 55 92 48 93 49 94 50 95 51 96 52 97
REMARK H PARENT 10 6 6 9 6 10 14 28 76 47 42 58
REMARK Flexibility Score: inf
ROOT
ATOM      1  C   UNL A   1      37.181  23.673  25.371  1.00  0.00     0.042 C 
ENDROOT
BRANCH   1   2
ATOM      2  C   UNL A   1      36.502  22.308  25.585  1.00  0.00     0.118 C 
BRANCH   2   3
ATOM      3  N   UNL A   1      35.601  22.305  26.732  1.00  0.00    -0.351 N 
ATOM      4  C   UNL A   1      34.245  22.419  26.868  1.00  0.00     0.283 C 
ATOM      5  O   UNL A   1      33.856  22.597  28.029  1.00  0.00    -0.268 OA
ATOM      6  H   UNL A   1      36.069  22.199  27.591  1.00  0.00     0.163 HD
BRANCH   4   7
ATOM      7  C   UNL A   1      33.255  22.353  25.649  1.00  0.00     0.304 C 
BRANCH   7   8
ATOM      8  N   UNL A   1      33.475  21.138  24.814  1.00  0.00    -0.326 N 
ATOM      9  H   UNL A   1      33.441  21.401  23.829  1.00  0.00     0.347 HD
ATOM     10  H   UNL A   1      34.385  20.744  25.051  1.00  0.00     0.347 HD
BRANCH   8  11
ATOM     11  C   UNL A   1      32.455  20.130  25.072  1.00  0.00     0.330 C 
BRANCH  11  12
ATOM     12  C   UNL A   1      32.874  18.691  24.964  1.00  0.00     0.148 A 
ATOM     13  C   UNL A   1      32.258  15.237  25.748  1.00  0.00     0.068 C 
ATOM     14  C   UNL A   1      32.918  16.510  25.358  1.00  0.00     0.052 A 
ATOM     15  N   UNL A   1      32.130  17.652  25.277  1.00  0.00    -0.240 NA
ATOM     16  C   UNL A   1      34.267  16.711  25.111  1.00  0.00     0.025 A 
ATOM     17  S   UNL A   1      34.528  18.333  24.638  1.00  0.00    -0.118 S 
ATOM     18  C   UNL A   1      35.408  15.759  25.208  1.00  0.00     0.058 C 
ENDBRANCH  11  12
ENDBRANCH   8  11
ENDBRANCH   7   8
BRANCH   7  19
ATOM     19  C   UNL A   1      33.407  23.591  24.754  1.00  0.00     0.019 A 
ATOM     20  C   UNL A   1      33.598  24.871  25.310  1.00  0.00     0.010 A 
ATOM     21  C   UNL A   1      33.377  23.479  23.354  1.00  0.00     0.010 A 
ATOM     22  C   UNL A   1      33.740  26.000  24.503  1.00  0.00     0.001 A 
ATOM     23  C   UNL A   1      33.523  24.612  22.546  1.00  0.00     0.001 A 
ATOM     24  C   UNL A   1      33.703  25.871  23.119  1.00  0.00     0.000 A 
ENDBRANCH   7  19
ENDBRANCH   4   7
ENDBRANCH   2   3
ENDBRANCH   1   2
BRANCH   1  25
ATOM     25  C   UNL A   1      38.116  24.121  26.493  1.00  0.00     0.118 C 
BRANCH  25  26
ATOM     26  N   UNL A   1      39.512  23.951  26.138  1.00  0.00    -0.352 N 
ATOM     27  C   UNL A   1      40.613  24.690  26.501  1.00  0.00     0.251 C 
ATOM     28  H   UNL A   1      39.700  23.187  25.545  1.00  0.00     0.163 HD
ATOM     29  O   UNL A   1      41.666  24.509  25.893  1.00  0.00    -0.269 OA
BRANCH  27  30
ATOM     30  C   UNL A   1      40.556  25.703  27.588  1.00  0.00     0.039 A 
ATOM     31  C   UNL A   1      39.552  25.584  28.556  1.00  0.00     0.014 A 
ATOM     32  C   UNL A   1      41.417  26.803  27.632  1.00  0.00     0.014 A 
ATOM     33  C   UNL A   1      39.438  26.535  29.577  1.00  0.00     0.010 A 
ATOM     34  C   UNL A   1      41.351  27.711  28.695  1.00  0.00     0.010 A 
ATOM     35  C   UNL A   1      40.350  27.597  29.672  1.00  0.00    -0.014 A 
BRANCH  35  36
ATOM     36  C   UNL A   1      40.253  28.597  30.772  1.00  0.00     0.031 A 
ATOM     37  C   UNL A   1      41.129  28.482  31.994  1.00  0.00     0.074 A 
ATOM     38  C   UNL A   1      39.350  29.596  30.693  1.00  0.00     0.049 A 
ATOM     39  N   UNL A   1      41.163  29.239  33.063  1.00  0.00    -0.248 NA
ATOM     40  C   UNL A   1      42.076  27.356  32.031  1.00  0.00     0.031 C 
ATOM     41  C   UNL A   1      38.409  29.800  29.590  1.00  0.00     0.029 A 
ATOM     42  N   UNL A   1      39.073  30.627  31.559  1.00  0.00    -0.354 N 
ATOM     43  C   UNL A   1      42.117  28.674  33.902  1.00  0.00     0.074 A 
ATOM     44  C   UNL A   1      42.606  27.483  33.239  1.00  0.00     0.031 C 
ATOM     45  C   UNL A   1      37.676  30.899  29.834  1.00  0.00     0.029 A 
ATOM     46  C   UNL A   1      38.070  31.462  31.122  1.00  0.00     0.049 A 
ATOM     47  H   UNL A   1      39.547  30.756  32.412  1.00  0.00     0.167 HD
ATOM     48  C   UNL A   1      42.564  29.114  35.104  1.00  0.00     0.037 A 
ATOM     49  C   UNL A   1      37.527  32.556  31.692  1.00  0.00     0.037 A 
ATOM     50  C   UNL A   1      42.104  30.317  35.749  1.00  0.00     0.049 A 
ATOM     51  C   UNL A   1      38.050  33.038  33.018  1.00  0.00     0.074 A 
ATOM     52  C   UNL A   1      42.542  30.879  36.937  1.00  0.00     0.029 A 
ATOM     53  N   UNL A   1      41.105  31.146  35.261  1.00  0.00    -0.354 N 
ATOM     54  N   UNL A   1      38.997  32.522  33.766  1.00  0.00    -0.248 NA
ATOM     55  C   UNL A   1      37.440  34.253  33.574  1.00  0.00     0.031 C 
ATOM     56  C   UNL A   1      41.783  32.027  37.185  1.00  0.00     0.029 A 
ATOM     57  C   UNL A   1      40.900  32.204  36.131  1.00  0.00     0.049 A 
ATOM     58  H   UNL A   1      40.613  31.003  34.421  1.00  0.00     0.167 HD
ATOM     59  C   UNL A   1      39.110  33.363  34.867  1.00  0.00     0.074 A 
ATOM     60  C   UNL A   1      38.145  34.426  34.684  1.00  0.00     0.031 C 
ATOM     61  C   UNL A   1      39.941  33.262  35.935  1.00  0.00     0.037 A 
BRANCH  48  62
ATOM     62  C   UNL A   1      43.614  28.293  35.801  1.00  0.00     0.058 A 
ATOM     63  C   UNL A   1      44.984  28.511  35.582  1.00  0.00     0.135 A 
ATOM     64  C   UNL A   1      43.250  27.302  36.727  1.00  0.00     0.135 A 
ATOM     65  F   UNL A   1      45.387  29.437  34.698  1.00  0.00    -0.206 F 
ATOM     66  C   UNL A   1      45.954  27.754  36.230  1.00  0.00     0.059 A 
ATOM     67  C   UNL A   1      44.205  26.551  37.407  1.00  0.00     0.059 A 
ATOM     68  F   UNL A   1      41.955  27.055  36.978  1.00  0.00    -0.206 F 
ATOM     69  C   UNL A   1      45.554  26.774  37.139  1.00  0.00     0.060 A 
BRANCH  69  70
ATOM     70  S   UNL A   1      46.826  25.798  37.971  1.00  0.00     0.124 S 
ATOM     71  O   UNL A   1      46.096  24.571  38.276  1.00  0.00    -0.237 OA
ATOM     72  O   UNL A   1      47.857  25.684  36.946  1.00  0.00    -0.237 OA
ATOM     73  O   UNL A   1      47.182  26.619  39.125  1.00  0.00    -0.744 OA
ENDBRANCH  69  70
ENDBRANCH  48  62
BRANCH  49  74
ATOM     74  C   UNL A   1      36.436  33.288  30.995  1.00  0.00     0.058 A 
ATOM     75  C   UNL A   1      36.710  34.107  29.890  1.00  0.00     0.135 A 
ATOM     76  C   UNL A   1      35.100  33.167  31.406  1.00  0.00     0.135 A 
ATOM     77  F   UNL A   1      37.974  34.258  29.465  1.00  0.00    -0.206 F 
ATOM     78  C   UNL A   1      35.700  34.790  29.221  1.00  0.00     0.059 A 
ATOM     79  C   UNL A   1      34.070  33.822  30.739  1.00  0.00     0.059 A 
ATOM     80  F   UNL A   1      34.784  32.379  32.445  1.00  0.00    -0.206 F 
ATOM     81  C   UNL A   1      34.381  34.638  29.653  1.00  0.00     0.060 A 
BRANCH  81  82
ATOM     82  S   UNL A   1      33.066  35.478  28.743  1.00  0.00     0.124 S 
ATOM     83  O   UNL A   1      32.310  36.097  29.825  1.00  0.00    -0.237 OA
ATOM     84  O   UNL A   1      33.818  36.389  27.885  1.00  0.00    -0.237 OA
ATOM     85  O   UNL A   1      32.394  34.385  28.045  1.00  0.00    -0.744 OA
ENDBRANCH  81  82
ENDBRANCH  49  74
BRANCH  61  86
ATOM     86  C   UNL A   1      39.866  34.343  36.977  1.00  0.00     0.058 A 
ATOM     87  C   UNL A   1      40.636  35.513  36.880  1.00  0.00     0.135 A 
ATOM     88  C   UNL A   1      38.973  34.232  38.055  1.00  0.00     0.135 A 
ATOM     89  F   UNL A   1      41.509  35.665  35.872  1.00  0.00    -0.206 F 
ATOM     90  C   UNL A   1      40.537  36.526  37.827  1.00  0.00     0.059 A 
ATOM     91  C   UNL A   1      38.842  35.244  39.000  1.00  0.00     0.059 A 
ATOM     92  F   UNL A   1      38.208  33.137  38.188  1.00  0.00    -0.206 F 
ATOM     93  C   UNL A   1      39.636  36.384  38.884  1.00  0.00     0.060 A 
BRANCH  93  94
ATOM     94  S   UNL A   1      39.489  37.723  40.086  1.00  0.00     0.124 S 
ATOM     95  O   UNL A   1      38.286  38.404  39.621  1.00  0.00    -0.237 OA
ATOM     96  O   UNL A   1      39.360  36.999  41.347  1.00  0.00    -0.237 OA
ATOM     97  O   UNL A   1      40.735  38.464  39.922  1.00  0.00    -0.744 OA
ENDBRANCH  93  94
ENDBRANCH  61  86
ENDBRANCH  35  36
ENDBRANCH  27  30
ENDBRANCH  25  26
ENDBRANCH   1  25
TORSDOF 17
ENDMDL
MODEL 3
REMARK VINA RESULT:     -12.0      5.015     10.859
REMARK SMILES Cc1nc(C[NH2+][C@@H](C(=O)NCCCNC(=O)c2ccc(-c3c4nc(c(-c5c(F)cc(S(=O)(=O)[O-])cc5F)c5ccc([nH]5)c(-c5c(F)cc(S(=O)(=O)[O-])cc5F)c5nc(c(-c6c(F)cc(S(=O)(=O)[O-])cc6F)c6ccc3[nH]6)C=C5)C=C4)cc2)c2ccccc2)sc1C
REMARK SMILES IDX 12 1 11 2 10 3 8 4 9 5 7 7 6 8 5 11 4 12 1 13 2 14 3 15
REMARK SMILES IDX 90 16 89 17 91 18 83 19 84 20 88 21 85 22 87 23 86 24 13 25
REMARK SMILES IDX 14 26 15 27 16 29 17 30 18 31 82 32 19 33 81 34 20 35 21 36
REMARK SMILES IDX 22 37 75 38 23 39 80 40 74 41 76 42 24 43 79 44 73 45 72 46
REMARK SMILES IDX 25 48 59 49 38 50 58 51 39 52 42 53 57 54 77 55 40 56 41 57
REMARK SMILES IDX 56 59 78 60 43 61 26 62 27 63 36 64 28 65 29 66 35 67 37 68
REMARK SMILES IDX 30 69 31 70 32 71 33 72 34 73 60 74 61 75 70 76 62 77 63 78
REMARK SMILES IDX 69 79 71 80 64 81 65 82 66 83 67 84 68 85 44 86 45 87 54 88
REMARK SMILES IDX 46 89 47 90 53 91 55 92 48 93 49 94 50 95 51 96 52 97
REMARK H PARENT 10 6 6 9 6 10 14 28 76 47 42 58
REMARK Flexibility Score: inf
ROOT
ATOM      1  C   UNL A   1      33.921  27.953  25.426  1.00  0.00     0.042 C 
ENDROOT
BRANCH   1   2
ATOM      2  C   UNL A   1      33.560  26.580  24.831  1.00  0.00     0.118 C 
BRANCH   2   3
ATOM      3  N   UNL A   1      32.869  26.688  23.551  1.00  0.00    -0.351 N 
ATOM      4  C   UNL A   1      31.556  26.820  23.195  1.00  0.00     0.283 C 
ATOM      5  O   UNL A   1      31.328  26.654  21.990  1.00  0.00    -0.268 OA
ATOM      6  H   UNL A   1      33.480  26.659  22.779  1.00  0.00     0.163 HD
BRANCH   4   7
ATOM      7  C   UNL A   1      30.417  27.134  24.231  1.00  0.00     0.304 C 
BRANCH   7   8
ATOM      8  N   UNL A   1      29.611  25.926  24.562  1.00  0.00    -0.326 N 
ATOM      9  H   UNL A   1      28.620  26.155  24.479  1.00  0.00     0.347 HD
ATOM     10  H   UNL A   1      29.864  25.181  23.913  1.00  0.00     0.347 HD
BRANCH   8  11
ATOM     11  C   UNL A   1      29.881  25.466  25.918  1.00  0.00     0.330 C 
BRANCH  11  12
ATOM     12  C   UNL A   1      30.737  24.241  26.067  1.00  0.00     0.148 A 
ATOM     13  C   UNL A   1      33.128  22.369  27.991  1.00  0.00     0.068 C 
ATOM     14  C   UNL A   1      32.294  22.885  26.874  1.00  0.00     0.052 A 
ATOM     15  N   UNL A   1      31.354  23.867  27.167  1.00  0.00    -0.240 NA
ATOM     16  C   UNL A   1      32.378  22.535  25.536  1.00  0.00     0.025 A 
ATOM     17  S   UNL A   1      31.166  23.355  24.652  1.00  0.00    -0.118 S 
ATOM     18  C   UNL A   1      33.323  21.613  24.847  1.00  0.00     0.058 C 
ENDBRANCH  11  12
ENDBRANCH   8  11
ENDBRANCH   7   8
BRANCH   7  19
ATOM     19  C   UNL A   1      29.471  28.217  23.693  1.00  0.00     0.019 A 
ATOM     20  C   UNL A   1      28.122  27.927  23.409  1.00  0.00     0.010 A 
ATOM     21  C   UNL A   1      29.921  29.531  23.485  1.00  0.00     0.010 A 
ATOM     22  C   UNL A   1      27.256  28.907  22.924  1.00  0.00     0.001 A 
ATOM     23  C   UNL A   1      29.050  30.514  23.001  1.00  0.00     0.001 A 
ATOM     24  C   UNL A   1      27.720  30.202  22.719  1.00  0.00     0.000 A 
ENDBRANCH   7  19
ENDBRANCH   4   7
ENDBRANCH   2   3
ENDBRANCH   1   2
BRANCH   1  25
ATOM     25  C   UNL A   1      33.716  28.086  26.934  1.00  0.00     0.118 C 
BRANCH  25  26
ATOM     26  N   UNL A   1      33.537  29.467  27.338  1.00  0.00    -0.352 N 
ATOM     27  C   UNL A   1      34.390  30.309  28.011  1.00  0.00     0.251 C 
ATOM     28  H   UNL A   1      32.669  29.863  27.091  1.00  0.00     0.163 HD
ATOM     29  O   UNL A   1      33.941  31.364  28.458  1.00  0.00    -0.269 OA
BRANCH  27  30
ATOM     30  C   UNL A   1      35.822  29.972  28.225  1.00  0.00     0.039 A 
ATOM     31  C   UNL A   1      36.226  29.563  29.501  1.00  0.00     0.014 A 
ATOM     32  C   UNL A   1      36.785  30.122  27.221  1.00  0.00     0.014 A 
ATOM     33  C   UNL A   1      37.570  29.269  29.757  1.00  0.00     0.010 A 
ATOM     34  C   UNL A   1      38.114  29.756  27.458  1.00  0.00     0.010 A 
ATOM     35  C   UNL A   1      38.527  29.340  28.733  1.00  0.00    -0.014 A 
BRANCH  35  36
ATOM     36  C   UNL A   1      39.955  29.003  28.991  1.00  0.00     0.031 A 
ATOM     37  C   UNL A   1      40.885  30.018  29.606  1.00  0.00     0.074 A 
ATOM     38  C   UNL A   1      40.432  27.790  28.643  1.00  0.00     0.049 A 
ATOM     39  N   UNL A   1      42.162  29.914  29.875  1.00  0.00    -0.248 NA
ATOM     40  C   UNL A   1      40.310  31.330  29.942  1.00  0.00     0.031 C 
ATOM     41  C   UNL A   1      39.655  26.729  27.999  1.00  0.00     0.029 A 
ATOM     42  N   UNL A   1      41.687  27.246  28.776  1.00  0.00    -0.354 N 
ATOM     43  C   UNL A   1      42.546  31.147  30.394  1.00  0.00     0.074 A 
ATOM     44  C   UNL A   1      41.375  31.999  30.358  1.00  0.00     0.031 C 
ATOM     45  C   UNL A   1      40.442  25.656  27.816  1.00  0.00     0.029 A 
ATOM     46  C   UNL A   1      41.786  25.960  28.298  1.00  0.00     0.049 A 
ATOM     47  H   UNL A   1      42.444  27.731  29.177  1.00  0.00     0.167 HD
ATOM     48  C   UNL A   1      43.753  31.531  30.876  1.00  0.00     0.037 A 
ATOM     49  C   UNL A   1      42.838  25.118  28.251  1.00  0.00     0.037 A 
ATOM     50  C   UNL A   1      44.909  30.674  30.945  1.00  0.00     0.049 A 
ATOM     51  C   UNL A   1      44.164  25.559  28.809  1.00  0.00     0.074 A 
ATOM     52  C   UNL A   1      46.157  30.954  31.476  1.00  0.00     0.029 A 
ATOM     53  N   UNL A   1      44.959  29.372  30.472  1.00  0.00    -0.354 N 
ATOM     54  N   UNL A   1      44.488  26.709  29.351  1.00  0.00    -0.248 NA
ATOM     55  C   UNL A   1      45.266  24.586  28.758  1.00  0.00     0.031 C 
ATOM     56  C   UNL A   1      46.973  29.832  31.291  1.00  0.00     0.029 A 
ATOM     57  C   UNL A   1      46.221  28.840  30.683  1.00  0.00     0.049 A 
ATOM     58  H   UNL A   1      44.209  28.895  30.049  1.00  0.00     0.167 HD
ATOM     59  C   UNL A   1      45.822  26.588  29.726  1.00  0.00     0.074 A 
ATOM     60  C   UNL A   1      46.242  25.252  29.360  1.00  0.00     0.031 C 
ATOM     61  C   UNL A   1      46.626  27.505  30.321  1.00  0.00     0.037 A 
BRANCH  48  62
ATOM     62  C   UNL A   1      43.886  32.943  31.379  1.00  0.00     0.058 A 
ATOM     63  C   UNL A   1      44.198  34.006  30.516  1.00  0.00     0.135 A 
ATOM     64  C   UNL A   1      43.666  33.244  32.734  1.00  0.00     0.135 A 
ATOM     65  F   UNL A   1      44.431  33.772  29.215  1.00  0.00    -0.206 F 
ATOM     66  C   UNL A   1      44.317  35.311  30.982  1.00  0.00     0.059 A 
ATOM     67  C   UNL A   1      43.754  34.546  33.216  1.00  0.00     0.059 A 
ATOM     68  F   UNL A   1      43.362  32.266  33.602  1.00  0.00    -0.206 F 
ATOM     69  C   UNL A   1      44.096  35.571  32.335  1.00  0.00     0.060 A 
BRANCH  69  70
ATOM     70  S   UNL A   1      44.256  37.270  32.925  1.00  0.00     0.124 S 
ATOM     71  O   UNL A   1      44.200  38.017  31.672  1.00  0.00    -0.237 OA
ATOM     72  O   UNL A   1      43.096  37.411  33.798  1.00  0.00    -0.237 OA
ATOM     73  O   UNL A   1      45.550  37.275  33.600  1.00  0.00    -0.744 OA
ENDBRANCH  69  70
ENDBRANCH  48  62
BRANCH  49  74
ATOM     74  C   UNL A   1      42.671  23.758  27.673  1.00  0.00     0.058 A 
ATOM     75  C   UNL A   1      42.773  23.546  26.290  1.00  0.00     0.135 A 
ATOM     76  C   UNL A   1      42.428  22.644  28.490  1.00  0.00     0.135 A 
ATOM     77  F   UNL A   1      42.999  24.582  25.467  1.00  0.00    -0.206 F 
ATOM     78  C   UNL A   1      42.629  22.279  25.735  1.00  0.00     0.059 A 
ATOM     79  C   UNL A   1      42.302  21.365  27.961  1.00  0.00     0.059 A 
ATOM     80  F   UNL A   1      42.341  22.793  29.821  1.00  0.00    -0.206 F 
ATOM     81  C   UNL A   1      42.395  21.193  26.581  1.00  0.00     0.060 A 
BRANCH  81  82
ATOM     82  S   UNL A   1      42.271  19.541  25.861  1.00  0.00     0.124 S 
ATOM     83  O   UNL A   1      40.867  19.497  25.469  1.00  0.00    -0.237 OA
ATOM     84  O   UNL A   1      43.238  19.607  24.770  1.00  0.00    -0.237 OA
ATOM     85  O   UNL A   1      42.647  18.667  26.968  1.00  0.00    -0.744 OA
ENDBRANCH  81  82
ENDBRANCH  49  74
BRANCH  61  86
ATOM     86  C   UNL A   1      48.035  27.088  30.641  1.00  0.00     0.058 A 
ATOM     87  C   UNL A   1      49.110  27.428  29.807  1.00  0.00     0.135 A 
ATOM     88  C   UNL A   1      48.317  26.389  31.827  1.00  0.00     0.135 A 
ATOM     89  F   UNL A   1      48.892  28.089  28.660  1.00  0.00    -0.206 F 
ATOM     90  C   UNL A   1      50.416  27.071  30.126  1.00  0.00     0.059 A 
ATOM     91  C   UNL A   1      49.619  26.044  32.176  1.00  0.00     0.059 A 
ATOM     92  F   UNL A   1      47.324  26.049  32.663  1.00  0.00    -0.206 F 
ATOM     93  C   UNL A   1      50.661  26.380  31.314  1.00  0.00     0.060 A 
BRANCH  93  94
ATOM     94  S   UNL A   1      52.365  25.957  31.736  1.00  0.00     0.124 S 
ATOM     95  O   UNL A   1      52.689  26.988  32.715  1.00  0.00    -0.237 OA
ATOM     96  O   UNL A   1      52.230  24.602  32.264  1.00  0.00    -0.237 OA
ATOM     97  O   UNL A   1      53.066  26.058  30.460  1.00  0.00    -0.744 OA
ENDBRANCH  93  94
ENDBRANCH  61  86
ENDBRANCH  35  36
ENDBRANCH  27  30
ENDBRANCH  25  26
ENDBRANCH   1  25
TORSDOF 17
ENDMDL
