MODEL 1
REMARK VINA RESULT:     -13.4      0.000      0.000
REMARK SMILES O=C(NCCCNC(=O)[C@H](CO)NC(=O)[C@H](Cc1ccc(O)cc1)NC(=O)c1ccc(F)cc1)c1ccc(-c2c3nc(c(-c4c(F)cc(S(=O)(=O)[O-])cc4F)c4ccc([nH]4)c(-c4c(F)cc(S(=O)(=O)[O-])cc4F)c4nc(c(-c5c(F)cc(S(=O)(=O)[O-])cc5F)c5ccc2[nH]5)C=C4)C=C3)cc1
REMARK SMILES IDX 6 1 5 2 4 3 3 4 1 5 2 6 35 8 36 9 100 10 37 11 99 12 38 13
REMARK SMILES IDX 39 14 40 15 93 16 41 17 98 18 92 19 94 20 42 21 97 22 91 23
REMARK SMILES IDX 90 24 43 26 77 27 56 28 76 29 57 30 60 31 75 32 95 33 58 34
REMARK SMILES IDX 59 35 74 37 96 38 61 39 44 40 45 41 54 42 46 43 47 44 53 45
REMARK SMILES IDX 55 46 48 47 49 48 50 49 51 50 52 51 78 52 79 53 88 54 80 55
REMARK SMILES IDX 81 56 87 57 89 58 82 59 83 60 84 61 85 62 86 63 62 64 63 65
REMARK SMILES IDX 72 66 64 67 65 68 71 69 73 70 66 71 67 72 68 73 69 74 70 75
REMARK SMILES IDX 7 76 8 77 9 79 10 80 13 81 14 82 15 84 16 85 25 86 26 87
REMARK SMILES IDX 27 89 28 90 29 91 34 92 30 93 33 94 31 95 32 96 17 97 18 98
REMARK SMILES IDX 19 99 24 100 20 101 23 102 21 103 22 104 11 106 12 107
REMARK H PARENT 3 7 94 25 60 36 7 78 13 83 25 88 22 105 12 108
REMARK Flexibility Score: inf
ROOT
ATOM      1  C   UNL A   1      31.477  27.893  25.866  1.00  0.00     0.117 C 
ENDROOT
BRANCH   1   2
ATOM      2  C   UNL A   1      31.782  28.734  27.105  1.00  0.00     0.042 C 
BRANCH   2   3
ATOM      3  C   UNL A   1      33.267  28.957  27.397  1.00  0.00     0.118 C 
BRANCH   3   4
ATOM      4  N   UNL A   1      33.553  30.363  27.611  1.00  0.00    -0.352 N 
ATOM      5  O   UNL A   1      34.559  32.128  28.545  1.00  0.00    -0.269 OA
ATOM      6  C   UNL A   1      34.655  30.959  28.176  1.00  0.00     0.251 C 
ATOM      7  H   UNL A   1      32.852  30.983  27.307  1.00  0.00     0.163 HD
BRANCH   6   8
ATOM      8  C   UNL A   1      35.948  30.243  28.336  1.00  0.00     0.039 A 
ATOM      9  C   UNL A   1      36.932  30.257  27.341  1.00  0.00     0.014 A 
ATOM     10  C   UNL A   1      36.245  29.685  29.587  1.00  0.00     0.014 A 
ATOM     11  C   UNL A   1      38.196  29.707  27.592  1.00  0.00     0.010 A 
ATOM     12  C   UNL A   1      37.518  29.163  29.848  1.00  0.00     0.010 A 
ATOM     13  C   UNL A   1      38.512  29.189  28.859  1.00  0.00    -0.014 A 
BRANCH  13  14
ATOM     14  C   UNL A   1      39.916  28.845  29.206  1.00  0.00     0.031 A 
ATOM     15  C   UNL A   1      40.815  29.804  29.927  1.00  0.00     0.074 A 
ATOM     16  C   UNL A   1      40.401  27.652  28.809  1.00  0.00     0.049 A 
ATOM     17  N   UNL A   1      42.069  29.650  30.270  1.00  0.00    -0.248 NA
ATOM     18  C   UNL A   1      40.240  31.101  30.306  1.00  0.00     0.031 C 
ATOM     19  C   UNL A   1      39.641  26.642  28.070  1.00  0.00     0.029 A 
ATOM     20  N   UNL A   1      41.644  27.090  28.964  1.00  0.00    -0.354 N 
ATOM     21  C   UNL A   1      42.442  30.832  30.897  1.00  0.00     0.074 A 
ATOM     22  C   UNL A   1      41.279  31.698  30.878  1.00  0.00     0.031 C 
ATOM     23  C   UNL A   1      40.427  25.576  27.851  1.00  0.00     0.029 A 
ATOM     24  C   UNL A   1      41.753  25.839  28.407  1.00  0.00     0.049 A 
ATOM     25  H   UNL A   1      42.384  27.539  29.429  1.00  0.00     0.167 HD
ATOM     26  C   UNL A   1      43.639  31.162  31.438  1.00  0.00     0.037 A 
ATOM     27  C   UNL A   1      42.800  24.995  28.334  1.00  0.00     0.037 A 
ATOM     28  C   UNL A   1      44.795  30.302  31.470  1.00  0.00     0.049 A 
ATOM     29  C   UNL A   1      44.119  25.386  28.925  1.00  0.00     0.074 A 
ATOM     30  C   UNL A   1      46.025  30.535  32.064  1.00  0.00     0.029 A 
ATOM     31  N   UNL A   1      44.873  29.054  30.871  1.00  0.00    -0.354 N 
ATOM     32  N   UNL A   1      44.435  26.488  29.561  1.00  0.00    -0.248 NA
ATOM     33  C   UNL A   1      45.226  24.431  28.781  1.00  0.00     0.031 C 
ATOM     34  C   UNL A   1      46.855  29.439  31.802  1.00  0.00     0.029 A 
ATOM     35  C   UNL A   1      46.137  28.516  31.059  1.00  0.00     0.049 A 
ATOM     36  H   UNL A   1      44.140  28.615  30.384  1.00  0.00     0.167 HD
ATOM     37  C   UNL A   1      45.778  26.362  29.890  1.00  0.00     0.074 A 
ATOM     38  C   UNL A   1      46.215  25.072  29.394  1.00  0.00     0.031 C 
ATOM     39  C   UNL A   1      46.572  27.242  30.545  1.00  0.00     0.037 A 
BRANCH  26  40
ATOM     40  C   UNL A   1      43.764  32.528  32.043  1.00  0.00     0.058 A 
ATOM     41  C   UNL A   1      44.207  33.612  31.271  1.00  0.00     0.135 A 
ATOM     42  C   UNL A   1      43.473  32.755  33.396  1.00  0.00     0.135 A 
ATOM     43  F   UNL A   1      44.490  33.445  29.970  1.00  0.00    -0.206 F 
ATOM     44  C   UNL A   1      44.350  34.882  31.821  1.00  0.00     0.059 A 
ATOM     45  C   UNL A   1      43.600  34.018  33.964  1.00  0.00     0.059 A 
ATOM     46  F   UNL A   1      43.030  31.750  34.169  1.00  0.00    -0.206 F 
ATOM     47  C   UNL A   1      44.045  35.075  33.170  1.00  0.00     0.060 A 
BRANCH  47  48
ATOM     48  S   UNL A   1      44.152  36.740  33.863  1.00  0.00     0.124 S 
ATOM     49  O   UNL A   1      42.908  36.829  34.619  1.00  0.00    -0.237 OA
ATOM     50  O   UNL A   1      45.377  36.676  34.655  1.00  0.00    -0.237 OA
ATOM     51  O   UNL A   1      44.233  37.586  32.675  1.00  0.00    -0.744 OA
ENDBRANCH  47  48
ENDBRANCH  26  40
BRANCH  27  52
ATOM     52  C   UNL A   1      42.605  23.682  27.674  1.00  0.00     0.058 A 
ATOM     53  C   UNL A   1      42.312  22.534  28.423  1.00  0.00     0.135 A 
ATOM     54  C   UNL A   1      42.832  23.539  26.300  1.00  0.00     0.135 A 
ATOM     55  F   UNL A   1      42.095  22.629  29.743  1.00  0.00    -0.206 F 
ATOM     56  C   UNL A   1      42.295  21.274  27.837  1.00  0.00     0.059 A 
ATOM     57  C   UNL A   1      42.811  22.290  25.688  1.00  0.00     0.059 A 
ATOM     58  F   UNL A   1      43.109  24.615  25.550  1.00  0.00    -0.206 F 
ATOM     59  C   UNL A   1      42.570  21.161  26.472  1.00  0.00     0.060 A 
BRANCH  59  60
ATOM     60  S   UNL A   1      42.636  19.515  25.733  1.00  0.00     0.124 S 
ATOM     61  O   UNL A   1      41.242  19.316  25.349  1.00  0.00    -0.237 OA
ATOM     62  O   UNL A   1      43.578  19.701  24.634  1.00  0.00    -0.237 OA
ATOM     63  O   UNL A   1      43.113  18.678  26.829  1.00  0.00    -0.744 OA
ENDBRANCH  59  60
ENDBRANCH  27  52
BRANCH  39  64
ATOM     64  C   UNL A   1      48.007  26.859  30.751  1.00  0.00     0.058 A 
ATOM     65  C   UNL A   1      48.430  26.273  31.953  1.00  0.00     0.135 A 
ATOM     66  C   UNL A   1      48.975  27.132  29.772  1.00  0.00     0.135 A 
ATOM     67  F   UNL A   1      47.540  25.988  32.916  1.00  0.00    -0.206 F 
ATOM     68  C   UNL A   1      49.772  25.986  32.187  1.00  0.00     0.059 A 
ATOM     69  C   UNL A   1      50.320  26.846  29.981  1.00  0.00     0.059 A 
ATOM     70  F   UNL A   1      48.613  27.677  28.601  1.00  0.00    -0.206 F 
ATOM     71  C   UNL A   1      50.712  26.287  31.199  1.00  0.00     0.060 A 
BRANCH  71  72
ATOM     72  S   UNL A   1      52.450  25.908  31.507  1.00  0.00     0.124 S 
ATOM     73  O   UNL A   1      52.787  26.880  32.542  1.00  0.00    -0.237 OA
ATOM     74  O   UNL A   1      52.397  24.514  31.938  1.00  0.00    -0.237 OA
ATOM     75  O   UNL A   1      53.077  26.130  30.207  1.00  0.00    -0.744 OA
ENDBRANCH  71  72
ENDBRANCH  39  64
ENDBRANCH  13  14
ENDBRANCH   6   8
ENDBRANCH   3   4
ENDBRANCH   2   3
ENDBRANCH   1   2
BRANCH   1  76
ATOM     76  N   UNL A   1      32.161  28.280  24.638  1.00  0.00    -0.354 N 
ATOM     77  C   UNL A   1      31.761  28.217  23.323  1.00  0.00     0.244 C 
ATOM     78  H   UNL A   1      33.064  28.648  24.772  1.00  0.00     0.163 HD
ATOM     79  O   UNL A   1      32.169  29.138  22.599  1.00  0.00    -0.273 OA
BRANCH  77  80
ATOM     80  C   UNL A   1      30.571  27.091  22.775  1.00  0.00     0.197 C 
BRANCH  80  81
ATOM     81  N   UNL A   1      31.722  26.499  21.677  1.00  0.00    -0.340 N 
ATOM     82  C   UNL A   1      32.564  25.421  21.597  1.00  0.00     0.243 C 
ATOM     83  H   UNL A   1      31.806  27.084  20.890  1.00  0.00     0.164 HD
ATOM     84  O   UNL A   1      33.188  25.277  20.537  1.00  0.00    -0.273 OA
BRANCH  82  85
ATOM     85  C   UNL A   1      32.898  24.482  22.804  1.00  0.00     0.176 C 
BRANCH  85  86
ATOM     86  N   UNL A   1      33.243  25.255  24.017  1.00  0.00    -0.340 N 
ATOM     87  C   UNL A   1      33.986  24.850  25.089  1.00  0.00     0.251 C 
ATOM     88  H   UNL A   1      32.893  26.174  24.057  1.00  0.00     0.164 HD
ATOM     89  O   UNL A   1      33.748  25.286  26.210  1.00  0.00    -0.269 OA
BRANCH  87  90
ATOM     90  C   UNL A   1      35.124  23.937  24.901  1.00  0.00     0.040 A 
ATOM     91  C   UNL A   1      35.538  23.151  25.982  1.00  0.00     0.017 A 
ATOM     92  C   UNL A   1      35.642  23.725  23.620  1.00  0.00     0.017 A 
ATOM     93  C   UNL A   1      36.471  22.135  25.774  1.00  0.00     0.040 A 
ATOM     94  C   UNL A   1      36.593  22.720  23.423  1.00  0.00     0.040 A 
ATOM     95  C   UNL A   1      36.987  21.928  24.498  1.00  0.00     0.123 A 
ATOM     96  F   UNL A   1      37.863  20.934  24.296  1.00  0.00    -0.207 F 
ENDBRANCH  87  90
ENDBRANCH  85  86
BRANCH  85  97
ATOM     97  C   UNL A   1      31.842  23.453  23.206  1.00  0.00     0.070 C 
BRANCH  97  98
ATOM     98  C   UNL A   1      32.424  22.068  23.233  1.00  0.00    -0.045 A 
ATOM     99  C   UNL A   1      32.076  21.055  21.781  1.00  0.00     0.007 A 
ATOM    100  C   UNL A   1      32.821  21.270  24.829  1.00  0.00     0.007 A 
ATOM    101  C   UNL A   1      31.991  19.259  21.968  1.00  0.00     0.046 A 
ATOM    102  C   UNL A   1      32.699  19.492  24.985  1.00  0.00     0.046 A 
ATOM    103  C   UNL A   1      32.353  18.501  23.539  1.00  0.00     0.115 A 
BRANCH 103 104
ATOM    104  O   UNL A   1      32.415  17.148  23.654  1.00  0.00    -0.508 OA
ATOM    105  H   UNL A   1      31.639  16.657  23.842  1.00  0.00     0.293 HD
ENDBRANCH 103 104
ENDBRANCH  97  98
ENDBRANCH  85  97
ENDBRANCH  82  85
ENDBRANCH  80  81
BRANCH  80 106
ATOM    106  C   UNL A   1      29.011  25.977  23.854  1.00  0.00     0.191 C 
BRANCH 106 107
ATOM    107  O   UNL A   1      27.474  26.265  23.964  1.00  0.00    -0.394 OA
ATOM    108  H   UNL A   1      27.286  27.154  23.623  1.00  0.00     0.210 HD
ENDBRANCH 106 107
ENDBRANCH  80 106
ENDBRANCH  77  80
ENDBRANCH   1  76
TORSDOF 22
ENDMDL
MODEL 2
REMARK VINA RESULT:     -13.1      2.399      2.949
REMARK SMILES O=C(NCCCNC(=O)[C@H](CO)NC(=O)[C@H](Cc1ccc(O)cc1)NC(=O)c1ccc(F)cc1)c1ccc(-c2c3nc(c(-c4c(F)cc(S(=O)(=O)[O-])cc4F)c4ccc([nH]4)c(-c4c(F)cc(S(=O)(=O)[O-])cc4F)c4nc(c(-c5c(F)cc(S(=O)(=O)[O-])cc5F)c5ccc2[nH]5)C=C4)C=C3)cc1
REMARK SMILES IDX 6 1 5 2 4 3 3 4 1 5 2 6 35 8 36 9 100 10 37 11 99 12 38 13
REMARK SMILES IDX 39 14 40 15 93 16 41 17 98 18 92 19 94 20 42 21 97 22 91 23
REMARK SMILES IDX 90 24 43 26 77 27 56 28 76 29 57 30 60 31 75 32 95 33 58 34
REMARK SMILES IDX 59 35 74 37 96 38 61 39 44 40 45 41 54 42 46 43 47 44 53 45
REMARK SMILES IDX 55 46 48 47 49 48 50 49 51 50 52 51 78 52 79 53 88 54 80 55
REMARK SMILES IDX 81 56 87 57 89 58 82 59 83 60 84 61 85 62 86 63 62 64 63 65
REMARK SMILES IDX 72 66 64 67 65 68 71 69 73 70 66 71 67 72 68 73 69 74 70 75
REMARK SMILES IDX 7 76 8 77 9 79 10 80 13 81 14 82 15 84 16 85 25 86 26 87
REMARK SMILES IDX 27 89 28 90 29 91 34 92 30 93 33 94 31 95 32 96 17 97 18 98
REMARK SMILES IDX 19 99 24 100 20 101 23 102 21 103 22 104 11 106 12 107
REMARK H PARENT 3 7 94 25 60 36 7 78 13 83 25 88 22 105 12 108
REMARK Flexibility Score: inf
ROOT
ATOM      1  C   UNL A   1      32.872  29.086  23.677  1.00  0.00     0.117 C 
ENDROOT
BRANCH   1   2
ATOM      2  C   UNL A   1      32.303  29.434  25.052  1.00  0.00     0.042 C 
BRANCH   2   3
ATOM      3  C   UNL A   1      33.335  29.571  26.173  1.00  0.00     0.118 C 
BRANCH   3   4
ATOM      4  N   UNL A   1      33.299  30.898  26.757  1.00  0.00    -0.352 N 
ATOM      5  O   UNL A   1      33.714  32.472  28.291  1.00  0.00    -0.269 OA
ATOM      6  C   UNL A   1      34.106  31.457  27.719  1.00  0.00     0.251 C 
ATOM      7  H   UNL A   1      32.589  31.488  26.413  1.00  0.00     0.163 HD
BRANCH   6   8
ATOM      8  C   UNL A   1      35.433  30.885  28.070  1.00  0.00     0.039 A 
ATOM      9  C   UNL A   1      36.621  31.605  27.897  1.00  0.00     0.014 A 
ATOM     10  C   UNL A   1      35.467  29.657  28.745  1.00  0.00     0.014 A 
ATOM     11  C   UNL A   1      37.832  31.096  28.386  1.00  0.00     0.010 A 
ATOM     12  C   UNL A   1      36.672  29.163  29.261  1.00  0.00     0.010 A 
ATOM     13  C   UNL A   1      37.861  29.888  29.104  1.00  0.00    -0.014 A 
BRANCH  13  14
ATOM     14  C   UNL A   1      39.085  29.478  29.841  1.00  0.00     0.031 A 
ATOM     15  C   UNL A   1      39.518  30.158  31.105  1.00  0.00     0.074 A 
ATOM     16  C   UNL A   1      39.850  28.498  29.319  1.00  0.00     0.049 A 
ATOM     17  N   UNL A   1      40.578  29.924  31.839  1.00  0.00    -0.248 NA
ATOM     18  C   UNL A   1      38.662  31.239  31.609  1.00  0.00     0.031 C 
ATOM     19  C   UNL A   1      39.559  27.779  28.077  1.00  0.00     0.029 A 
ATOM     20  N   UNL A   1      41.025  27.943  29.760  1.00  0.00    -0.354 N 
ATOM     21  C   UNL A   1      40.526  30.833  32.886  1.00  0.00     0.074 A 
ATOM     22  C   UNL A   1      39.331  31.630  32.686  1.00  0.00     0.031 C 
ATOM     23  C   UNL A   1      40.520  26.867  27.864  1.00  0.00     0.029 A 
ATOM     24  C   UNL A   1      41.507  26.955  28.937  1.00  0.00     0.049 A 
ATOM     25  H   UNL A   1      41.478  28.225  30.586  1.00  0.00     0.167 HD
ATOM     26  C   UNL A   1      41.391  30.988  33.917  1.00  0.00     0.037 A 
ATOM     27  C   UNL A   1      42.625  26.207  29.019  1.00  0.00     0.037 A 
ATOM     28  C   UNL A   1      42.573  30.192  34.128  1.00  0.00     0.049 A 
ATOM     29  C   UNL A   1      43.575  26.404  30.159  1.00  0.00     0.074 A 
ATOM     30  C   UNL A   1      43.463  30.238  35.188  1.00  0.00     0.029 A 
ATOM     31  N   UNL A   1      43.042  29.220  33.257  1.00  0.00    -0.354 N 
ATOM     32  N   UNL A   1      43.479  27.235  31.169  1.00  0.00    -0.248 NA
ATOM     33  C   UNL A   1      44.789  25.577  30.168  1.00  0.00     0.031 C 
ATOM     34  C   UNL A   1      44.484  29.310  34.946  1.00  0.00     0.029 A 
ATOM     35  C   UNL A   1      44.221  28.677  33.742  1.00  0.00     0.049 A 
ATOM     36  H   UNL A   1      42.601  28.955  32.418  1.00  0.00     0.167 HD
ATOM     37  C   UNL A   1      44.622  27.034  31.933  1.00  0.00     0.074 A 
ATOM     38  C   UNL A   1      45.391  25.996  31.276  1.00  0.00     0.031 C 
ATOM     39  C   UNL A   1      44.993  27.659  33.075  1.00  0.00     0.037 A 
BRANCH  26  40
ATOM     40  C   UNL A   1      41.090  32.073  34.906  1.00  0.00     0.058 A 
ATOM     41  C   UNL A   1      40.212  31.840  35.976  1.00  0.00     0.135 A 
ATOM     42  C   UNL A   1      41.648  33.353  34.776  1.00  0.00     0.135 A 
ATOM     43  F   UNL A   1      39.661  30.629  36.146  1.00  0.00    -0.206 F 
ATOM     44  C   UNL A   1      39.904  32.841  36.891  1.00  0.00     0.059 A 
ATOM     45  C   UNL A   1      41.360  34.367  35.684  1.00  0.00     0.059 A 
ATOM     46  F   UNL A   1      42.506  33.617  33.777  1.00  0.00    -0.206 F 
ATOM     47  C   UNL A   1      40.482  34.103  36.736  1.00  0.00     0.060 A 
BRANCH  47  48
ATOM     48  S   UNL A   1      40.146  35.379  37.970  1.00  0.00     0.124 S 
ATOM     49  O   UNL A   1      39.005  34.814  38.681  1.00  0.00    -0.237 OA
ATOM     50  O   UNL A   1      41.399  35.435  38.718  1.00  0.00    -0.237 OA
ATOM     51  O   UNL A   1      39.865  36.558  37.156  1.00  0.00    -0.744 OA
ENDBRANCH  47  48
ENDBRANCH  26  40
BRANCH  27  52
ATOM     52  C   UNL A   1      42.872  25.189  27.971  1.00  0.00     0.058 A 
ATOM     53  C   UNL A   1      42.578  23.836  28.194  1.00  0.00     0.135 A 
ATOM     54  C   UNL A   1      43.520  25.540  26.780  1.00  0.00     0.135 A 
ATOM     55  F   UNL A   1      41.964  23.459  29.326  1.00  0.00    -0.206 F 
ATOM     56  C   UNL A   1      42.962  22.855  27.288  1.00  0.00     0.059 A 
ATOM     57  C   UNL A   1      43.905  24.577  25.853  1.00  0.00     0.059 A 
ATOM     58  F   UNL A   1      43.812  26.824  26.529  1.00  0.00    -0.206 F 
ATOM     59  C   UNL A   1      43.646  23.234  26.132  1.00  0.00     0.060 A 
BRANCH  59  60
ATOM     60  S   UNL A   1      44.221  21.948  25.001  1.00  0.00     0.124 S 
ATOM     61  O   UNL A   1      44.064  22.609  23.710  1.00  0.00    -0.237 OA
ATOM     62  O   UNL A   1      45.595  21.733  25.443  1.00  0.00    -0.237 OA
ATOM     63  O   UNL A   1      43.302  20.844  25.260  1.00  0.00    -0.744 OA
ENDBRANCH  59  60
ENDBRANCH  27  52
BRANCH  39  64
ATOM     64  C   UNL A   1      46.301  27.259  33.688  1.00  0.00     0.058 A 
ATOM     65  C   UNL A   1      46.366  26.227  34.636  1.00  0.00     0.135 A 
ATOM     66  C   UNL A   1      47.484  27.947  33.379  1.00  0.00     0.135 A 
ATOM     67  F   UNL A   1      45.262  25.537  34.961  1.00  0.00    -0.206 F 
ATOM     68  C   UNL A   1      47.561  25.900  35.271  1.00  0.00     0.059 A 
ATOM     69  C   UNL A   1      48.691  27.632  33.994  1.00  0.00     0.059 A 
ATOM     70  F   UNL A   1      47.472  28.931  32.466  1.00  0.00    -0.206 F 
ATOM     71  C   UNL A   1      48.716  26.617  34.952  1.00  0.00     0.060 A 
BRANCH  71  72
ATOM     72  S   UNL A   1      50.264  26.184  35.777  1.00  0.00     0.124 S 
ATOM     73  O   UNL A   1      51.218  27.047  35.089  1.00  0.00    -0.237 OA
ATOM     74  O   UNL A   1      49.986  26.528  37.168  1.00  0.00    -0.237 OA
ATOM     75  O   UNL A   1      50.399  24.755  35.508  1.00  0.00    -0.744 OA
ENDBRANCH  71  72
ENDBRANCH  39  64
ENDBRANCH  13  14
ENDBRANCH   6   8
ENDBRANCH   3   4
ENDBRANCH   2   3
ENDBRANCH   1   2
BRANCH   1  76
ATOM     76  N   UNL A   1      31.971  29.255  22.543  1.00  0.00    -0.354 N 
ATOM     77  C   UNL A   1      30.798  28.613  22.218  1.00  0.00     0.244 C 
ATOM     78  H   UNL A   1      32.250  29.946  21.900  1.00  0.00     0.163 HD
ATOM     79  O   UNL A   1      29.947  29.316  21.655  1.00  0.00    -0.273 OA
BRANCH  77  80
ATOM     80  C   UNL A   1      30.435  27.020  22.778  1.00  0.00     0.197 C 
BRANCH  80  81
ATOM     81  N   UNL A   1      31.574  26.432  21.665  1.00  0.00    -0.340 N 
ATOM     82  C   UNL A   1      32.469  25.396  21.605  1.00  0.00     0.243 C 
ATOM     83  H   UNL A   1      31.596  26.979  20.847  1.00  0.00     0.164 HD
ATOM     84  O   UNL A   1      33.058  25.230  20.528  1.00  0.00    -0.273 OA
BRANCH  82  85
ATOM     85  C   UNL A   1      32.898  24.540  22.843  1.00  0.00     0.176 C 
BRANCH  85  86
ATOM     86  N   UNL A   1      33.329  25.391  23.971  1.00  0.00    -0.340 N 
ATOM     87  C   UNL A   1      34.117  25.046  25.033  1.00  0.00     0.251 C 
ATOM     88  H   UNL A   1      33.009  26.323  23.957  1.00  0.00     0.164 HD
ATOM     89  O   UNL A   1      33.952  25.575  26.127  1.00  0.00    -0.269 OA
BRANCH  87  90
ATOM     90  C   UNL A   1      35.216  24.084  24.860  1.00  0.00     0.040 A 
ATOM     91  C   UNL A   1      35.643  23.347  25.970  1.00  0.00     0.017 A 
ATOM     92  C   UNL A   1      35.679  23.780  23.576  1.00  0.00     0.017 A 
ATOM     93  C   UNL A   1      36.533  22.289  25.789  1.00  0.00     0.040 A 
ATOM     94  C   UNL A   1      36.587  22.733  23.405  1.00  0.00     0.040 A 
ATOM     95  C   UNL A   1      36.995  21.990  24.511  1.00  0.00     0.123 A 
ATOM     96  F   UNL A   1      37.829  20.956  24.337  1.00  0.00    -0.207 F 
ENDBRANCH  87  90
ENDBRANCH  85  86
BRANCH  85  97
ATOM     97  C   UNL A   1      31.881  23.539  23.391  1.00  0.00     0.070 C 
BRANCH  97  98
ATOM     98  C   UNL A   1      32.458  22.153  23.429  1.00  0.00    -0.045 A 
ATOM     99  C   UNL A   1      32.092  21.123  21.993  1.00  0.00     0.007 A 
ATOM    100  C   UNL A   1      32.867  21.373  25.031  1.00  0.00     0.007 A 
ATOM    101  C   UNL A   1      32.003  19.330  22.204  1.00  0.00     0.046 A 
ATOM    102  C   UNL A   1      32.741  19.597  25.211  1.00  0.00     0.046 A 
ATOM    103  C   UNL A   1      32.377  18.590  23.780  1.00  0.00     0.115 A 
BRANCH 103 104
ATOM    104  O   UNL A   1      32.436  17.238  23.912  1.00  0.00    -0.508 OA
ATOM    105  H   UNL A   1      33.262  16.815  24.042  1.00  0.00     0.293 HD
ENDBRANCH 103 104
ENDBRANCH  97  98
ENDBRANCH  85  97
ENDBRANCH  82  85
ENDBRANCH  80  81
BRANCH  80 106
ATOM    106  C   UNL A   1      29.961  26.252  24.784  1.00  0.00     0.191 C 
BRANCH 106 107
ATOM    107  O   UNL A   1      30.907  25.607  25.855  1.00  0.00    -0.394 OA
ATOM    108  H   UNL A   1      30.529  25.736  26.740  1.00  0.00     0.210 HD
ENDBRANCH 106 107
ENDBRANCH  80 106
ENDBRANCH  77  80
ENDBRANCH   1  76
TORSDOF 22
ENDMDL
MODEL 3
REMARK VINA RESULT:     -11.5      9.552     15.919
REMARK SMILES O=C(NCCCNC(=O)[C@H](CO)NC(=O)[C@H](Cc1ccc(O)cc1)NC(=O)c1ccc(F)cc1)c1ccc(-c2c3nc(c(-c4c(F)cc(S(=O)(=O)[O-])cc4F)c4ccc([nH]4)c(-c4c(F)cc(S(=O)(=O)[O-])cc4F)c4nc(c(-c5c(F)cc(S(=O)(=O)[O-])cc5F)c5ccc2[nH]5)C=C4)C=C3)cc1
REMARK SMILES IDX 6 1 5 2 4 3 3 4 1 5 2 6 35 8 36 9 100 10 37 11 99 12 38 13
REMARK SMILES IDX 39 14 40 15 93 16 41 17 98 18 92 19 94 20 42 21 97 22 91 23
REMARK SMILES IDX 90 24 43 26 77 27 56 28 76 29 57 30 60 31 75 32 95 33 58 34
REMARK SMILES IDX 59 35 74 37 96 38 61 39 44 40 45 41 54 42 46 43 47 44 53 45
REMARK SMILES IDX 55 46 48 47 49 48 50 49 51 50 52 51 78 52 79 53 88 54 80 55
REMARK SMILES IDX 81 56 87 57 89 58 82 59 83 60 84 61 85 62 86 63 62 64 63 65
REMARK SMILES IDX 72 66 64 67 65 68 71 69 73 70 66 71 67 72 68 73 69 74 70 75
REMARK SMILES IDX 7 76 8 77 9 79 10 80 13 81 14 82 15 84 16 85 25 86 26 87
REMARK SMILES IDX 27 89 28 90 29 91 34 92 30 93 33 94 31 95 32 96 17 97 18 98
REMARK SMILES IDX 19 99 24 100 20 101 23 102 21 103 22 104 11 106 12 107
REMARK H PARENT 3 7 94 25 60 36 7 78 13 83 25 88 22 105 12 108
REMARK Flexibility Score: inf
ROOT
ATOM      1  C   UNL A   1      45.759  22.339  40.051  1.00  0.00     0.117 C 
ENDROOT
BRANCH   1   2
ATOM      2  C   UNL A   1      45.786  23.548  39.117  1.00  0.00     0.042 C 
BRANCH   2   3
ATOM      3  C   UNL A   1      45.244  24.848  39.712  1.00  0.00     0.118 C 
BRANCH   3   4
ATOM      4  N   UNL A   1      46.280  25.860  39.792  1.00  0.00    -0.352 N 
ATOM      5  O   UNL A   1      47.690  27.412  39.015  1.00  0.00    -0.269 OA
ATOM      6  C   UNL A   1      46.591  26.870  38.914  1.00  0.00     0.251 C 
ATOM      7  H   UNL A   1      46.847  25.816  40.596  1.00  0.00     0.163 HD
BRANCH   6   8
ATOM      8  C   UNL A   1      45.639  27.332  37.869  1.00  0.00     0.039 A 
ATOM      9  C   UNL A   1      44.339  26.824  37.773  1.00  0.00     0.014 A 
ATOM     10  C   UNL A   1      46.010  28.424  37.072  1.00  0.00     0.014 A 
ATOM     11  C   UNL A   1      43.423  27.396  36.880  1.00  0.00     0.010 A 
ATOM     12  C   UNL A   1      45.086  29.016  36.202  1.00  0.00     0.010 A 
ATOM     13  C   UNL A   1      43.778  28.520  36.114  1.00  0.00    -0.014 A 
BRANCH  13  14
ATOM     14  C   UNL A   1      42.742  29.281  35.367  1.00  0.00     0.031 A 
ATOM     15  C   UNL A   1      42.073  30.492  35.946  1.00  0.00     0.074 A 
ATOM     16  C   UNL A   1      42.363  28.830  34.155  1.00  0.00     0.049 A 
ATOM     17  N   UNL A   1      41.134  31.239  35.420  1.00  0.00    -0.248 NA
ATOM     18  C   UNL A   1      42.505  30.919  37.283  1.00  0.00     0.031 C 
ATOM     19  C   UNL A   1      42.910  27.643  33.494  1.00  0.00     0.029 A 
ATOM     20  N   UNL A   1      41.430  29.307  33.269  1.00  0.00    -0.354 N 
ATOM     21  C   UNL A   1      40.851  32.218  36.362  1.00  0.00     0.074 A 
ATOM     22  C   UNL A   1      41.715  31.964  37.498  1.00  0.00     0.031 C 
ATOM     23  C   UNL A   1      42.316  27.495  32.300  1.00  0.00     0.029 A 
ATOM     24  C   UNL A   1      41.328  28.555  32.123  1.00  0.00     0.049 A 
ATOM     25  H   UNL A   1      40.887  30.109  33.438  1.00  0.00     0.167 HD
ATOM     26  C   UNL A   1      39.957  33.233  36.286  1.00  0.00     0.037 A 
ATOM     27  C   UNL A   1      40.523  28.689  31.051  1.00  0.00     0.037 A 
ATOM     28  C   UNL A   1      39.104  33.498  35.156  1.00  0.00     0.049 A 
ATOM     29  C   UNL A   1      39.532  29.809  30.994  1.00  0.00     0.074 A 
ATOM     30  C   UNL A   1      38.222  34.550  34.971  1.00  0.00     0.029 A 
ATOM     31  N   UNL A   1      39.011  32.698  34.027  1.00  0.00    -0.354 N 
ATOM     32  N   UNL A   1      39.318  30.757  31.874  1.00  0.00    -0.248 NA
ATOM     33  C   UNL A   1      38.664  29.875  29.810  1.00  0.00     0.031 C 
ATOM     34  C   UNL A   1      37.577  34.372  33.741  1.00  0.00     0.029 A 
ATOM     35  C   UNL A   1      38.068  33.218  33.154  1.00  0.00     0.049 A 
ATOM     36  H   UNL A   1      39.536  31.881  33.869  1.00  0.00     0.167 HD
ATOM     37  C   UNL A   1      38.288  31.531  31.354  1.00  0.00     0.074 A 
ATOM     38  C   UNL A   1      37.928  30.949  30.076  1.00  0.00     0.031 C 
ATOM     39  C   UNL A   1      37.699  32.624  31.893  1.00  0.00     0.037 A 
BRANCH  26  40
ATOM     40  C   UNL A   1      39.851  34.142  37.473  1.00  0.00     0.058 A 
ATOM     41  C   UNL A   1      40.605  35.324  37.535  1.00  0.00     0.135 A 
ATOM     42  C   UNL A   1      39.026  33.825  38.563  1.00  0.00     0.135 A 
ATOM     43  F   UNL A   1      41.402  35.672  36.514  1.00  0.00    -0.206 F 
ATOM     44  C   UNL A   1      40.537  36.169  38.639  1.00  0.00     0.059 A 
ATOM     45  C   UNL A   1      38.936  34.660  39.672  1.00  0.00     0.059 A 
ATOM     46  F   UNL A   1      38.275  32.713  38.539  1.00  0.00    -0.206 F 
ATOM     47  C   UNL A   1      39.700  35.827  39.704  1.00  0.00     0.060 A 
BRANCH  47  48
ATOM     48  S   UNL A   1      39.549  36.965  41.099  1.00  0.00     0.124 S 
ATOM     49  O   UNL A   1      40.946  37.203  41.443  1.00  0.00    -0.237 OA
ATOM     50  O   UNL A   1      38.835  38.095  40.511  1.00  0.00    -0.237 OA
ATOM     51  O   UNL A   1      38.781  36.192  42.071  1.00  0.00    -0.744 OA
ENDBRANCH  47  48
ENDBRANCH  26  40
BRANCH  27  52
ATOM     52  C   UNL A   1      40.658  27.717  29.941  1.00  0.00     0.058 A 
ATOM     53  C   UNL A   1      41.678  27.846  28.987  1.00  0.00     0.135 A 
ATOM     54  C   UNL A   1      39.695  26.718  29.752  1.00  0.00     0.135 A 
ATOM     55  F   UNL A   1      42.615  28.795  29.129  1.00  0.00    -0.206 F 
ATOM     56  C   UNL A   1      41.711  27.044  27.853  1.00  0.00     0.059 A 
ATOM     57  C   UNL A   1      39.713  25.896  28.630  1.00  0.00     0.059 A 
ATOM     58  F   UNL A   1      38.708  26.559  30.647  1.00  0.00    -0.206 F 
ATOM     59  C   UNL A   1      40.710  26.088  27.672  1.00  0.00     0.060 A 
BRANCH  59  60
ATOM     60  S   UNL A   1      40.707  25.109  26.154  1.00  0.00     0.124 S 
ATOM     61  O   UNL A   1      39.293  24.770  26.033  1.00  0.00    -0.237 OA
ATOM     62  O   UNL A   1      41.221  26.055  25.169  1.00  0.00    -0.237 OA
ATOM     63  O   UNL A   1      41.596  23.997  26.475  1.00  0.00    -0.744 OA
ENDBRANCH  59  60
ENDBRANCH  27  52
BRANCH  39  64
ATOM     64  C   UNL A   1      36.584  33.262  31.120  1.00  0.00     0.058 A 
ATOM     65  C   UNL A   1      36.849  34.032  29.978  1.00  0.00     0.135 A 
ATOM     66  C   UNL A   1      35.254  33.156  31.552  1.00  0.00     0.135 A 
ATOM     67  F   UNL A   1      38.106  34.158  29.524  1.00  0.00    -0.206 F 
ATOM     68  C   UNL A   1      35.831  34.694  29.298  1.00  0.00     0.059 A 
ATOM     69  C   UNL A   1      34.219  33.802  30.883  1.00  0.00     0.059 A 
ATOM     70  F   UNL A   1      34.952  32.416  32.630  1.00  0.00    -0.206 F 
ATOM     71  C   UNL A   1      34.520  34.583  29.766  1.00  0.00     0.060 A 
BRANCH  71  72
ATOM     72  S   UNL A   1      33.203  35.441  28.876  1.00  0.00     0.124 S 
ATOM     73  O   UNL A   1      32.600  34.352  28.116  1.00  0.00    -0.237 OA
ATOM     74  O   UNL A   1      32.391  35.983  29.962  1.00  0.00    -0.237 OA
ATOM     75  O   UNL A   1      33.924  36.436  28.088  1.00  0.00    -0.744 OA
ENDBRANCH  71  72
ENDBRANCH  39  64
ENDBRANCH  13  14
ENDBRANCH   6   8
ENDBRANCH   3   4
ENDBRANCH   2   3
ENDBRANCH   1   2
BRANCH   1  76
ATOM     76  N   UNL A   1      46.538  21.180  39.633  1.00  0.00    -0.354 N 
ATOM     77  C   UNL A   1      46.411  19.846  39.943  1.00  0.00     0.244 C 
ATOM     78  H   UNL A   1      47.285  21.389  39.026  1.00  0.00     0.163 HD
ATOM     79  O   UNL A   1      46.707  19.059  39.032  1.00  0.00    -0.273 OA
BRANCH  77  80
ATOM     80  C   UNL A   1      45.652  19.307  41.398  1.00  0.00     0.197 C 
BRANCH  80  81
ATOM     81  N   UNL A   1      46.522  17.858  41.246  1.00  0.00    -0.340 N 
ATOM     82  C   UNL A   1      46.425  16.579  41.730  1.00  0.00     0.243 C 
ATOM     83  H   UNL A   1      47.302  17.964  40.655  1.00  0.00     0.164 HD
ATOM     84  O   UNL A   1      47.221  15.748  41.273  1.00  0.00    -0.273 OA
BRANCH  82  85
ATOM     85  C   UNL A   1      45.497  16.163  42.920  1.00  0.00     0.176 C 
BRANCH  85  86
ATOM     86  N   UNL A   1      46.192  16.279  44.219  1.00  0.00    -0.340 N 
ATOM     87  C   UNL A   1      46.079  15.463  45.308  1.00  0.00     0.251 C 
ATOM     88  H   UNL A   1      46.813  17.037  44.311  1.00  0.00     0.164 HD
ATOM     89  O   UNL A   1      46.209  15.916  46.441  1.00  0.00    -0.269 OA
BRANCH  87  90
ATOM     90  C   UNL A   1      45.864  14.018  45.136  1.00  0.00     0.040 A 
ATOM     91  C   UNL A   1      44.564  13.515  45.248  1.00  0.00     0.017 A 
ATOM     92  C   UNL A   1      46.909  13.210  44.676  1.00  0.00     0.017 A 
ATOM     93  C   UNL A   1      44.306  12.193  44.884  1.00  0.00     0.040 A 
ATOM     94  C   UNL A   1      46.649  11.881  44.336  1.00  0.00     0.040 A 
ATOM     95  C   UNL A   1      45.349  11.390  44.431  1.00  0.00     0.123 A 
ATOM     96  F   UNL A   1      45.094  10.129  44.057  1.00  0.00    -0.207 F 
ENDBRANCH  87  90
ENDBRANCH  85  86
BRANCH  85  97
ATOM     97  C   UNL A   1      44.159  16.891  43.053  1.00  0.00     0.070 C 
BRANCH  97  98
ATOM     98  C   UNL A   1      43.082  16.181  42.283  1.00  0.00    -0.045 A 
ATOM     99  C   UNL A   1      42.230  14.867  43.178  1.00  0.00     0.007 A 
ATOM    100  C   UNL A   1      43.120  16.165  40.455  1.00  0.00     0.007 A 
ATOM    101  C   UNL A   1      41.544  13.477  42.246  1.00  0.00     0.046 A 
ATOM    102  C   UNL A   1      42.457  14.760  39.567  1.00  0.00     0.046 A 
ATOM    103  C   UNL A   1      41.616  13.465  40.467  1.00  0.00     0.115 A 
BRANCH 103 104
ATOM    104  O   UNL A   1      40.991  12.488  39.757  1.00  0.00    -0.508 OA
ATOM    105  H   UNL A   1      40.324  11.969  40.162  1.00  0.00     0.293 HD
ENDBRANCH 103 104
ENDBRANCH  97  98
ENDBRANCH  85  97
ENDBRANCH  82  85
ENDBRANCH  80  81
BRANCH  80 106
ATOM    106  C   UNL A   1      45.092  20.380  43.234  1.00  0.00     0.191 C 
BRANCH 106 107
ATOM    107  O   UNL A   1      43.694  20.935  43.680  1.00  0.00    -0.394 OA
ATOM    108  H   UNL A   1      43.621  21.868  43.424  1.00  0.00     0.210 HD
ENDBRANCH 106 107
ENDBRANCH  80 106
ENDBRANCH  77  80
ENDBRANCH   1  76
TORSDOF 22
ENDMDL
