MODEL 1
REMARK VINA RESULT:     -13.4      0.000      0.000
REMARK SMILES NS(=O)(=O)c1ccc(-n2nc(C(F)(F)F)cc2-c2ccc(C(=O)NCCCNC(=O)c3ccc(-c4c5nc(c(-c6c(F)cc(S(=O)(=O)[O-])cc6F)c6ccc([nH]6)c(-c6c(F)cc(S(=O)(=O)[O-])cc6F)c6nc(c(-c7c(F)cc(S(=O)(=O)[O-])cc7F)c7ccc4[nH]7)C=C6)C=C5)cc3)cc2)cc1
REMARK SMILES IDX 25 1 24 2 22 3 23 4 21 6 18 7 19 8 98 9 20 10 97 11 17 12
REMARK SMILES IDX 9 13 10 14 11 15 16 16 8 17 5 18 6 19 100 20 7 21 99 22 2 23
REMARK SMILES IDX 3 24 4 25 1 26 12 29 13 30 14 31 15 32 26 33 27 34 28 35
REMARK SMILES IDX 29 36 30 38 31 39 32 40 96 41 33 42 95 43 34 44 35 45 36 46
REMARK SMILES IDX 89 47 37 48 94 49 88 50 90 51 38 52 93 53 87 54 86 55 39 57
REMARK SMILES IDX 73 58 52 59 72 60 53 61 56 62 71 63 91 64 54 65 55 66 70 68
REMARK SMILES IDX 92 69 57 70 40 71 41 72 50 73 42 74 43 75 49 76 51 77 44 78
REMARK SMILES IDX 45 79 46 80 47 81 48 82 74 83 75 84 84 85 76 86 77 87 83 88
REMARK SMILES IDX 85 89 78 90 79 91 80 92 81 93 82 94 58 95 59 96 68 97 60 98
REMARK SMILES IDX 61 99 67 100 69 101 62 102 63 103 64 104 65 105 66 106
REMARK H PARENT 24 5 1 27 1 28 28 37 90 56 56 67
REMARK Flexibility Score: inf
ROOT
ATOM      1  C   UNL A   1      34.997  23.439  25.349  1.00  0.00     0.118 C 
ENDROOT
BRANCH   1   2
ATOM      2  N   UNL A   1      33.844  22.564  25.509  1.00  0.00    -0.352 N 
ATOM      3  C   UNL A   1      32.505  22.772  25.271  1.00  0.00     0.251 C 
ATOM      4  O   UNL A   1      31.747  21.806  25.320  1.00  0.00    -0.269 OA
ATOM      5  H   UNL A   1      34.061  21.666  25.847  1.00  0.00     0.163 HD
BRANCH   3   6
ATOM      6  C   UNL A   1      31.951  24.107  24.912  1.00  0.00     0.039 A 
ATOM      7  C   UNL A   1      30.995  26.640  24.164  1.00  0.00     0.000 A 
ATOM      8  C   UNL A   1      31.782  25.896  23.277  1.00  0.00     0.011 A 
ATOM      9  C   UNL A   1      30.666  26.108  25.404  1.00  0.00     0.011 A 
ATOM     10  C   UNL A   1      32.261  24.636  23.652  1.00  0.00     0.014 A 
ATOM     11  C   UNL A   1      31.106  24.836  25.749  1.00  0.00     0.014 A 
BRANCH   7  12
ATOM     12  C   UNL A   1      30.455  27.938  23.796  1.00  0.00     0.075 A 
ATOM     13  N   UNL A   1      30.805  29.141  24.391  1.00  0.00    -0.233 N 
ATOM     14  N   UNL A   1      29.986  30.151  23.996  1.00  0.00    -0.163 NA
ATOM     15  C   UNL A   1      29.271  29.631  22.975  1.00  0.00     0.167 A 
ATOM     16  C   UNL A   1      29.515  28.244  22.841  1.00  0.00     0.064 A 
BRANCH  13  17
ATOM     17  C   UNL A   1      31.869  29.364  25.305  1.00  0.00     0.065 A 
ATOM     18  C   UNL A   1      34.040  30.050  26.901  1.00  0.00     0.082 A 
ATOM     19  C   UNL A   1      32.798  30.632  27.151  1.00  0.00     0.024 A 
ATOM     20  C   UNL A   1      34.191  29.082  25.900  1.00  0.00     0.024 A 
ATOM     21  C   UNL A   1      31.713  30.288  26.350  1.00  0.00     0.030 A 
ATOM     22  C   UNL A   1      33.095  28.719  25.111  1.00  0.00     0.030 A 
BRANCH  18  23
ATOM     23  S   UNL A   1      35.443  30.574  27.842  1.00  0.00     0.238 S 
ATOM     24  O   UNL A   1      35.457  29.817  29.081  1.00  0.00    -0.207 OA
ATOM     25  O   UNL A   1      35.536  32.003  27.793  1.00  0.00    -0.207 OA
BRANCH  23  26
ATOM     26  N   UNL A   1      36.743  30.005  26.937  1.00  0.00    -0.225 NA
ATOM     27  H   UNL A   1      37.616  30.272  27.391  1.00  0.00     0.137 HD
ATOM     28  H   UNL A   1      36.708  30.408  26.001  1.00  0.00     0.137 HD
ENDBRANCH  23  26
ENDBRANCH  18  23
ENDBRANCH  13  17
BRANCH  15  29
ATOM     29  C   UNL A   1      28.339  30.437  22.113  1.00  0.00     0.435 C 
ATOM     30  F   UNL A   1      27.501  29.670  21.368  1.00  0.00    -0.164 F 
ATOM     31  F   UNL A   1      27.567  31.285  22.843  1.00  0.00    -0.164 F 
ATOM     32  F   UNL A   1      29.025  31.220  21.231  1.00  0.00    -0.164 F 
ENDBRANCH  15  29
ENDBRANCH   7  12
ENDBRANCH   3   6
ENDBRANCH   1   2
BRANCH   1  33
ATOM     33  C   UNL A   1      36.153  23.082  26.294  1.00  0.00     0.042 C 
BRANCH  33  34
ATOM     34  C   UNL A   1      37.525  23.197  25.659  1.00  0.00     0.118 C 
BRANCH  34  35
ATOM     35  N   UNL A   1      38.476  22.234  26.215  1.00  0.00    -0.352 N 
ATOM     36  C   UNL A   1      39.735  22.461  26.736  1.00  0.00     0.251 C 
ATOM     37  H   UNL A   1      38.178  21.296  26.218  1.00  0.00     0.163 HD
ATOM     38  O   UNL A   1      40.539  21.540  26.829  1.00  0.00    -0.269 OA
BRANCH  36  39
ATOM     39  C   UNL A   1      40.096  23.826  27.153  1.00  0.00     0.039 A 
ATOM     40  C   UNL A   1      39.346  24.937  26.756  1.00  0.00     0.014 A 
ATOM     41  C   UNL A   1      41.169  23.973  28.020  1.00  0.00     0.014 A 
ATOM     42  C   UNL A   1      39.637  26.180  27.318  1.00  0.00     0.010 A 
ATOM     43  C   UNL A   1      41.299  25.135  28.731  1.00  0.00     0.010 A 
ATOM     44  C   UNL A   1      40.607  26.270  28.328  1.00  0.00    -0.014 A 
BRANCH  44  45
ATOM     45  C   UNL A   1      40.892  27.532  29.008  1.00  0.00     0.031 A 
ATOM     46  C   UNL A   1      41.989  28.357  28.430  1.00  0.00     0.074 A 
ATOM     47  C   UNL A   1      40.073  28.048  29.952  1.00  0.00     0.049 A 
ATOM     48  N   UNL A   1      43.128  28.658  28.962  1.00  0.00    -0.248 NA
ATOM     49  C   UNL A   1      41.839  28.826  27.044  1.00  0.00     0.031 C 
ATOM     50  C   UNL A   1      38.769  27.545  30.412  1.00  0.00     0.029 A 
ATOM     51  N   UNL A   1      40.183  29.227  30.618  1.00  0.00    -0.354 N 
ATOM     52  C   UNL A   1      43.751  29.533  28.073  1.00  0.00     0.074 A 
ATOM     53  C   UNL A   1      43.002  29.451  26.845  1.00  0.00     0.031 C 
ATOM     54  C   UNL A   1      38.111  28.523  31.066  1.00  0.00     0.029 A 
ATOM     55  C   UNL A   1      39.019  29.636  31.255  1.00  0.00     0.049 A 
ATOM     56  H   UNL A   1      41.018  29.748  30.647  1.00  0.00     0.167 HD
ATOM     57  C   UNL A   1      44.697  30.426  28.484  1.00  0.00     0.037 A 
ATOM     58  C   UNL A   1      38.804  30.814  31.884  1.00  0.00     0.037 A 
ATOM     59  C   UNL A   1      45.189  30.099  29.799  1.00  0.00     0.049 A 
ATOM     60  C   UNL A   1      40.138  31.371  32.219  1.00  0.00     0.074 A 
ATOM     61  C   UNL A   1      45.807  28.998  30.360  1.00  0.00     0.029 A 
ATOM     62  N   UNL A   1      44.731  30.844  30.860  1.00  0.00    -0.354 N 
ATOM     63  N   UNL A   1      40.969  30.822  33.063  1.00  0.00    -0.248 NA
ATOM     64  C   UNL A   1      40.733  32.317  31.289  1.00  0.00     0.031 C 
ATOM     65  C   UNL A   1      45.256  28.892  31.672  1.00  0.00     0.029 A 
ATOM     66  C   UNL A   1      44.380  29.965  31.853  1.00  0.00     0.049 A 
ATOM     67  H   UNL A   1      44.667  31.825  30.899  1.00  0.00     0.167 HD
ATOM     68  C   UNL A   1      42.226  31.022  32.512  1.00  0.00     0.074 A 
ATOM     69  C   UNL A   1      42.026  32.040  31.484  1.00  0.00     0.031 C 
ATOM     70  C   UNL A   1      43.254  30.151  32.745  1.00  0.00     0.037 A 
BRANCH  57  71
ATOM     71  C   UNL A   1      44.934  31.783  27.856  1.00  0.00     0.058 A 
ATOM     72  C   UNL A   1      46.146  32.037  27.181  1.00  0.00     0.135 A 
ATOM     73  C   UNL A   1      44.142  32.922  28.124  1.00  0.00     0.135 A 
ATOM     74  F   UNL A   1      46.984  31.031  26.878  1.00  0.00    -0.206 F 
ATOM     75  C   UNL A   1      46.575  33.329  26.867  1.00  0.00     0.059 A 
ATOM     76  C   UNL A   1      44.522  34.212  27.769  1.00  0.00     0.059 A 
ATOM     77  F   UNL A   1      43.011  32.856  28.835  1.00  0.00    -0.206 F 
ATOM     78  C   UNL A   1      45.762  34.412  27.184  1.00  0.00     0.060 A 
BRANCH  78  79
ATOM     79  S   UNL A   1      46.360  36.088  26.903  1.00  0.00     0.124 S 
ATOM     80  O   UNL A   1      47.075  36.349  28.147  1.00  0.00    -0.237 OA
ATOM     81  O   UNL A   1      47.187  35.922  25.712  1.00  0.00    -0.237 OA
ATOM     82  O   UNL A   1      45.132  36.853  26.705  1.00  0.00    -0.744 OA
ENDBRANCH  78  79
ENDBRANCH  57  71
BRANCH  58  83
ATOM     83  C   UNL A   1      37.548  31.601  31.930  1.00  0.00     0.058 A 
ATOM     84  C   UNL A   1      36.859  31.794  33.138  1.00  0.00     0.135 A 
ATOM     85  C   UNL A   1      37.144  32.407  30.845  1.00  0.00     0.135 A 
ATOM     86  F   UNL A   1      37.192  31.080  34.224  1.00  0.00    -0.206 F 
ATOM     87  C   UNL A   1      35.867  32.768  33.279  1.00  0.00     0.059 A 
ATOM     88  C   UNL A   1      36.150  33.376  30.958  1.00  0.00     0.059 A 
ATOM     89  F   UNL A   1      37.774  32.341  29.662  1.00  0.00    -0.206 F 
ATOM     90  C   UNL A   1      35.534  33.571  32.188  1.00  0.00     0.060 A 
BRANCH  90  91
ATOM     91  S   UNL A   1      34.393  34.953  32.424  1.00  0.00     0.124 S 
ATOM     92  O   UNL A   1      33.223  34.286  32.984  1.00  0.00    -0.237 OA
ATOM     93  O   UNL A   1      35.136  35.812  33.340  1.00  0.00    -0.237 OA
ATOM     94  O   UNL A   1      34.223  35.487  31.076  1.00  0.00    -0.744 OA
ENDBRANCH  90  91
ENDBRANCH  58  83
BRANCH  70  95
ATOM     95  C   UNL A   1      43.100  29.141  33.857  1.00  0.00     0.058 A 
ATOM     96  C   UNL A   1      43.342  29.410  35.215  1.00  0.00     0.135 A 
ATOM     97  C   UNL A   1      42.522  27.898  33.550  1.00  0.00     0.135 A 
ATOM     98  F   UNL A   1      43.795  30.606  35.611  1.00  0.00    -0.206 F 
ATOM     99  C   UNL A   1      43.057  28.479  36.216  1.00  0.00     0.059 A 
ATOM    100  C   UNL A   1      42.201  26.966  34.534  1.00  0.00     0.059 A 
ATOM    101  F   UNL A   1      42.207  27.601  32.278  1.00  0.00    -0.206 F 
ATOM    102  C   UNL A   1      42.481  27.259  35.866  1.00  0.00     0.060 A 
BRANCH 102 103
ATOM    103  S   UNL A   1      42.023  26.096  37.171  1.00  0.00     0.124 S 
ATOM    104  O   UNL A   1      42.963  26.439  38.233  1.00  0.00    -0.237 OA
ATOM    105  O   UNL A   1      40.626  26.437  37.426  1.00  0.00    -0.237 OA
ATOM    106  O   UNL A   1      42.231  24.788  36.551  1.00  0.00    -0.744 OA
ENDBRANCH 102 103
ENDBRANCH  70  95
ENDBRANCH  44  45
ENDBRANCH  36  39
ENDBRANCH  34  35
ENDBRANCH  33  34
ENDBRANCH   1  33
TORSDOF 18
ENDMDL
MODEL 2
REMARK VINA RESULT:     -13.3      2.647      4.806
REMARK SMILES NS(=O)(=O)c1ccc(-n2nc(C(F)(F)F)cc2-c2ccc(C(=O)NCCCNC(=O)c3ccc(-c4c5nc(c(-c6c(F)cc(S(=O)(=O)[O-])cc6F)c6ccc([nH]6)c(-c6c(F)cc(S(=O)(=O)[O-])cc6F)c6nc(c(-c7c(F)cc(S(=O)(=O)[O-])cc7F)c7ccc4[nH]7)C=C6)C=C5)cc3)cc2)cc1
REMARK SMILES IDX 25 1 24 2 22 3 23 4 21 6 18 7 19 8 98 9 20 10 97 11 17 12
REMARK SMILES IDX 9 13 10 14 11 15 16 16 8 17 5 18 6 19 100 20 7 21 99 22 2 23
REMARK SMILES IDX 3 24 4 25 1 26 12 29 13 30 14 31 15 32 26 33 27 34 28 35
REMARK SMILES IDX 29 36 30 38 31 39 32 40 96 41 33 42 95 43 34 44 35 45 36 46
REMARK SMILES IDX 89 47 37 48 94 49 88 50 90 51 38 52 93 53 87 54 86 55 39 57
REMARK SMILES IDX 73 58 52 59 72 60 53 61 56 62 71 63 91 64 54 65 55 66 70 68
REMARK SMILES IDX 92 69 57 70 40 71 41 72 50 73 42 74 43 75 49 76 51 77 44 78
REMARK SMILES IDX 45 79 46 80 47 81 48 82 74 83 75 84 84 85 76 86 77 87 83 88
REMARK SMILES IDX 85 89 78 90 79 91 80 92 81 93 82 94 58 95 59 96 68 97 60 98
REMARK SMILES IDX 61 99 67 100 69 101 62 102 63 103 64 104 65 105 66 106
REMARK H PARENT 24 5 1 27 1 28 28 37 90 56 56 67
REMARK Flexibility Score: inf
ROOT
ATOM      1  C   UNL A   1      38.346  20.825  25.340  1.00  0.00     0.118 C 
ENDROOT
BRANCH   1   2
ATOM      2  N   UNL A   1      38.878  22.112  25.767  1.00  0.00    -0.352 N 
ATOM      3  C   UNL A   1      38.266  23.328  25.962  1.00  0.00     0.251 C 
ATOM      4  O   UNL A   1      38.911  24.226  26.500  1.00  0.00    -0.269 OA
ATOM      5  H   UNL A   1      39.845  22.111  25.948  1.00  0.00     0.163 HD
BRANCH   3   6
ATOM      6  C   UNL A   1      36.846  23.583  25.591  1.00  0.00     0.039 A 
ATOM      7  C   UNL A   1      34.205  24.109  24.792  1.00  0.00     0.000 A 
ATOM      8  C   UNL A   1      35.200  23.893  23.831  1.00  0.00     0.011 A 
ATOM      9  C   UNL A   1      34.524  24.035  26.142  1.00  0.00     0.011 A 
ATOM     10  C   UNL A   1      36.516  23.635  24.230  1.00  0.00     0.014 A 
ATOM     11  C   UNL A   1      35.824  23.730  26.528  1.00  0.00     0.014 A 
BRANCH   7  12
ATOM     12  C   UNL A   1      32.823  24.349  24.415  1.00  0.00     0.075 A 
ATOM     13  N   UNL A   1      31.933  23.371  23.997  1.00  0.00    -0.233 N 
ATOM     14  N   UNL A   1      30.788  23.915  23.506  1.00  0.00    -0.163 NA
ATOM     15  C   UNL A   1      30.864  25.223  23.832  1.00  0.00     0.167 A 
ATOM     16  C   UNL A   1      32.132  25.537  24.373  1.00  0.00     0.064 A 
BRANCH  13  17
ATOM     17  C   UNL A   1      32.125  21.965  24.045  1.00  0.00     0.065 A 
ATOM     18  C   UNL A   1      32.821  19.274  24.123  1.00  0.00     0.082 A 
ATOM     19  C   UNL A   1      32.707  19.985  25.317  1.00  0.00     0.024 A 
ATOM     20  C   UNL A   1      32.529  19.882  22.895  1.00  0.00     0.024 A 
ATOM     21  C   UNL A   1      32.359  21.332  25.276  1.00  0.00     0.030 A 
ATOM     22  C   UNL A   1      32.157  21.230  22.856  1.00  0.00     0.030 A 
BRANCH  18  23
ATOM     23  S   UNL A   1      33.377  17.596  24.168  1.00  0.00     0.238 S 
ATOM     24  O   UNL A   1      33.422  17.106  22.802  1.00  0.00    -0.207 OA
ATOM     25  O   UNL A   1      32.705  16.905  25.229  1.00  0.00    -0.207 OA
BRANCH  23  26
ATOM     26  N   UNL A   1      34.979  17.738  24.663  1.00  0.00    -0.225 NA
ATOM     27  H   UNL A   1      35.008  18.018  25.644  1.00  0.00     0.137 HD
ATOM     28  H   UNL A   1      35.450  18.441  24.094  1.00  0.00     0.137 HD
ENDBRANCH  23  26
ENDBRANCH  18  23
ENDBRANCH  13  17
BRANCH  15  29
ATOM     29  C   UNL A   1      29.738  26.201  23.630  1.00  0.00     0.435 C 
ATOM     30  F   UNL A   1      28.542  25.600  23.400  1.00  0.00    -0.164 F 
ATOM     31  F   UNL A   1      29.577  27.027  24.698  1.00  0.00    -0.164 F 
ATOM     32  F   UNL A   1      29.969  27.014  22.559  1.00  0.00    -0.164 F 
ENDBRANCH  15  29
ENDBRANCH   7  12
ENDBRANCH   3   6
ENDBRANCH   1   2
BRANCH   1  33
ATOM     33  C   UNL A   1      39.387  19.698  25.406  1.00  0.00     0.042 C 
BRANCH  33  34
ATOM     34  C   UNL A   1      40.400  19.861  26.521  1.00  0.00     0.118 C 
BRANCH  34  35
ATOM     35  N   UNL A   1      41.778  19.777  26.036  1.00  0.00    -0.352 N 
ATOM     36  C   UNL A   1      42.699  20.791  25.858  1.00  0.00     0.251 C 
ATOM     37  H   UNL A   1      42.092  18.873  25.806  1.00  0.00     0.163 HD
ATOM     38  O   UNL A   1      43.666  20.623  25.123  1.00  0.00    -0.269 OA
BRANCH  36  39
ATOM     39  C   UNL A   1      42.483  22.075  26.545  1.00  0.00     0.039 A 
ATOM     40  C   UNL A   1      42.668  22.210  27.924  1.00  0.00     0.014 A 
ATOM     41  C   UNL A   1      42.159  23.177  25.765  1.00  0.00     0.014 A 
ATOM     42  C   UNL A   1      42.613  23.485  28.488  1.00  0.00     0.010 A 
ATOM     43  C   UNL A   1      42.331  24.432  26.280  1.00  0.00     0.010 A 
ATOM     44  C   UNL A   1      42.464  24.602  27.653  1.00  0.00    -0.014 A 
BRANCH  44  45
ATOM     45  C   UNL A   1      42.483  25.964  28.183  1.00  0.00     0.031 A 
ATOM     46  C   UNL A   1      43.607  26.831  27.730  1.00  0.00     0.074 A 
ATOM     47  C   UNL A   1      41.436  26.497  28.851  1.00  0.00     0.049 A 
ATOM     48  N   UNL A   1      44.571  27.325  28.435  1.00  0.00    -0.248 NA
ATOM     49  C   UNL A   1      43.727  27.101  26.288  1.00  0.00     0.031 C 
ATOM     50  C   UNL A   1      40.110  25.909  29.101  1.00  0.00     0.029 A 
ATOM     51  N   UNL A   1      41.295  27.755  29.344  1.00  0.00    -0.354 N 
ATOM     52  C   UNL A   1      45.297  28.148  27.574  1.00  0.00     0.074 A 
ATOM     53  C   UNL A   1      44.847  27.826  26.244  1.00  0.00     0.031 C 
ATOM     54  C   UNL A   1      39.243  26.880  29.454  1.00  0.00     0.029 A 
ATOM     55  C   UNL A   1      39.989  28.104  29.660  1.00  0.00     0.049 A 
ATOM     56  H   UNL A   1      42.055  28.368  29.468  1.00  0.00     0.167 HD
ATOM     57  C   UNL A   1      46.049  29.188  28.035  1.00  0.00     0.037 A 
ATOM     58  C   UNL A   1      39.540  29.320  30.049  1.00  0.00     0.037 A 
ATOM     59  C   UNL A   1      46.266  29.087  29.458  1.00  0.00     0.049 A 
ATOM     60  C   UNL A   1      40.715  30.064  30.566  1.00  0.00     0.074 A 
ATOM     61  C   UNL A   1      46.837  28.144  30.290  1.00  0.00     0.029 A 
ATOM     62  N   UNL A   1      45.523  29.903  30.279  1.00  0.00    -0.354 N 
ATOM     63  N   UNL A   1      41.383  29.725  31.636  1.00  0.00    -0.248 NA
ATOM     64  C   UNL A   1      41.418  30.948  29.651  1.00  0.00     0.031 C 
ATOM     65  C   UNL A   1      46.020  28.141  31.461  1.00  0.00     0.029 A 
ATOM     66  C   UNL A   1      45.037  29.121  31.297  1.00  0.00     0.049 A 
ATOM     67  H   UNL A   1      45.368  30.867  30.158  1.00  0.00     0.167 HD
ATOM     68  C   UNL A   1      42.709  29.997  31.332  1.00  0.00     0.074 A 
ATOM     69  C   UNL A   1      42.655  30.848  30.147  1.00  0.00     0.031 C 
ATOM     70  C   UNL A   1      43.731  29.287  31.899  1.00  0.00     0.037 A 
BRANCH  57  71
ATOM     71  C   UNL A   1      46.302  30.473  27.277  1.00  0.00     0.058 A 
ATOM     72  C   UNL A   1      47.617  30.974  27.173  1.00  0.00     0.135 A 
ATOM     73  C   UNL A   1      45.282  31.369  26.886  1.00  0.00     0.135 A 
ATOM     74  F   UNL A   1      48.668  30.215  27.523  1.00  0.00    -0.206 F 
ATOM     75  C   UNL A   1      47.892  32.288  26.786  1.00  0.00     0.059 A 
ATOM     76  C   UNL A   1      45.536  32.663  26.442  1.00  0.00     0.059 A 
ATOM     77  F   UNL A   1      43.983  31.073  27.012  1.00  0.00    -0.206 F 
ATOM     78  C   UNL A   1      46.840  33.131  26.441  1.00  0.00     0.060 A 
BRANCH  78  79
ATOM     79  S   UNL A   1      47.170  34.862  26.068  1.00  0.00     0.124 S 
ATOM     80  O   UNL A   1      47.956  35.260  27.230  1.00  0.00    -0.237 OA
ATOM     81  O   UNL A   1      47.895  34.769  24.805  1.00  0.00    -0.237 OA
ATOM     82  O   UNL A   1      45.835  35.445  25.976  1.00  0.00    -0.744 OA
ENDBRANCH  78  79
ENDBRANCH  57  71
BRANCH  58  83
ATOM     83  C   UNL A   1      38.243  29.956  29.718  1.00  0.00     0.058 A 
ATOM     84  C   UNL A   1      37.471  30.584  30.709  1.00  0.00     0.135 A 
ATOM     85  C   UNL A   1      37.863  30.201  28.382  1.00  0.00     0.135 A 
ATOM     86  F   UNL A   1      37.775  30.418  32.005  1.00  0.00    -0.206 F 
ATOM     87  C   UNL A   1      36.421  31.450  30.394  1.00  0.00     0.059 A 
ATOM     88  C   UNL A   1      36.812  31.051  28.043  1.00  0.00     0.059 A 
ATOM     89  F   UNL A   1      38.568  29.695  27.358  1.00  0.00    -0.206 F 
ATOM     90  C   UNL A   1      36.112  31.695  29.056  1.00  0.00     0.060 A 
BRANCH  90  91
ATOM     91  S   UNL A   1      34.885  32.959  28.649  1.00  0.00     0.124 S 
ATOM     92  O   UNL A   1      34.682  33.608  29.940  1.00  0.00    -0.237 OA
ATOM     93  O   UNL A   1      35.582  33.750  27.641  1.00  0.00    -0.237 OA
ATOM     94  O   UNL A   1      33.751  32.184  28.154  1.00  0.00    -0.744 OA
ENDBRANCH  90  91
ENDBRANCH  58  83
BRANCH  70  95
ATOM     95  C   UNL A   1      43.423  28.414  33.092  1.00  0.00     0.058 A 
ATOM     96  C   UNL A   1      43.184  28.896  34.391  1.00  0.00     0.135 A 
ATOM     97  C   UNL A   1      43.194  27.046  32.872  1.00  0.00     0.135 A 
ATOM     98  F   UNL A   1      43.276  30.203  34.668  1.00  0.00    -0.206 F 
ATOM     99  C   UNL A   1      42.773  28.057  35.428  1.00  0.00     0.059 A 
ATOM    100  C   UNL A   1      42.755  26.194  33.884  1.00  0.00     0.059 A 
ATOM    101  F   UNL A   1      43.343  26.531  31.640  1.00  0.00    -0.206 F 
ATOM    102  C   UNL A   1      42.556  26.705  35.164  1.00  0.00     0.060 A 
BRANCH 102 103
ATOM    103  S   UNL A   1      41.931  25.641  36.483  1.00  0.00     0.124 S 
ATOM    104  O   UNL A   1      42.704  24.420  36.286  1.00  0.00    -0.237 OA
ATOM    105  O   UNL A   1      42.248  26.404  37.687  1.00  0.00    -0.237 OA
ATOM    106  O   UNL A   1      40.504  25.532  36.186  1.00  0.00    -0.744 OA
ENDBRANCH 102 103
ENDBRANCH  70  95
ENDBRANCH  44  45
ENDBRANCH  36  39
ENDBRANCH  34  35
ENDBRANCH  33  34
ENDBRANCH   1  33
TORSDOF 18
ENDMDL
MODEL 3
REMARK VINA RESULT:     -13.1      3.633      8.322
REMARK SMILES NS(=O)(=O)c1ccc(-n2nc(C(F)(F)F)cc2-c2ccc(C(=O)NCCCNC(=O)c3ccc(-c4c5nc(c(-c6c(F)cc(S(=O)(=O)[O-])cc6F)c6ccc([nH]6)c(-c6c(F)cc(S(=O)(=O)[O-])cc6F)c6nc(c(-c7c(F)cc(S(=O)(=O)[O-])cc7F)c7ccc4[nH]7)C=C6)C=C5)cc3)cc2)cc1
REMARK SMILES IDX 25 1 24 2 22 3 23 4 21 6 18 7 19 8 98 9 20 10 97 11 17 12
REMARK SMILES IDX 9 13 10 14 11 15 16 16 8 17 5 18 6 19 100 20 7 21 99 22 2 23
REMARK SMILES IDX 3 24 4 25 1 26 12 29 13 30 14 31 15 32 26 33 27 34 28 35
REMARK SMILES IDX 29 36 30 38 31 39 32 40 96 41 33 42 95 43 34 44 35 45 36 46
REMARK SMILES IDX 89 47 37 48 94 49 88 50 90 51 38 52 93 53 87 54 86 55 39 57
REMARK SMILES IDX 73 58 52 59 72 60 53 61 56 62 71 63 91 64 54 65 55 66 70 68
REMARK SMILES IDX 92 69 57 70 40 71 41 72 50 73 42 74 43 75 49 76 51 77 44 78
REMARK SMILES IDX 45 79 46 80 47 81 48 82 74 83 75 84 84 85 76 86 77 87 83 88
REMARK SMILES IDX 85 89 78 90 79 91 80 92 81 93 82 94 58 95 59 96 68 97 60 98
REMARK SMILES IDX 61 99 67 100 69 101 62 102 63 103 64 104 65 105 66 106
REMARK H PARENT 24 5 1 27 1 28 28 37 90 56 56 67
REMARK Flexibility Score: inf
ROOT
ATOM      1  C   UNL A   1      31.944  31.291  26.873  1.00  0.00     0.118 C 
ENDROOT
BRANCH   1   2
ATOM      2  N   UNL A   1      33.117  30.900  27.642  1.00  0.00    -0.352 N 
ATOM      3  C   UNL A   1      33.869  29.748  27.632  1.00  0.00     0.251 C 
ATOM      4  O   UNL A   1      34.926  29.736  28.258  1.00  0.00    -0.269 OA
ATOM      5  H   UNL A   1      33.427  31.580  28.282  1.00  0.00     0.163 HD
BRANCH   3   6
ATOM      6  C   UNL A   1      33.476  28.539  26.855  1.00  0.00     0.039 A 
ATOM      7  C   UNL A   1      32.684  26.218  25.485  1.00  0.00     0.000 A 
ATOM      8  C   UNL A   1      31.928  26.689  26.565  1.00  0.00     0.011 A 
ATOM      9  C   UNL A   1      33.812  26.919  25.077  1.00  0.00     0.011 A 
ATOM     10  C   UNL A   1      32.326  27.843  27.249  1.00  0.00     0.014 A 
ATOM     11  C   UNL A   1      34.171  28.091  25.732  1.00  0.00     0.014 A 
BRANCH   7  12
ATOM     12  C   UNL A   1      32.284  25.042  24.733  1.00  0.00     0.075 A 
ATOM     13  N   UNL A   1      31.205  24.984  23.864  1.00  0.00    -0.233 N 
ATOM     14  N   UNL A   1      30.944  23.708  23.475  1.00  0.00    -0.163 NA
ATOM     15  C   UNL A   1      32.003  22.994  23.914  1.00  0.00     0.167 A 
ATOM     16  C   UNL A   1      32.845  23.786  24.729  1.00  0.00     0.064 A 
BRANCH  13  17
ATOM     17  C   UNL A   1      30.426  26.075  23.397  1.00  0.00     0.065 A 
ATOM     18  C   UNL A   1      29.019  28.380  22.735  1.00  0.00     0.082 A 
ATOM     19  C   UNL A   1      30.298  28.188  22.214  1.00  0.00     0.024 A 
ATOM     20  C   UNL A   1      28.414  27.401  23.534  1.00  0.00     0.024 A 
ATOM     21  C   UNL A   1      31.001  27.034  22.547  1.00  0.00     0.030 A 
ATOM     22  C   UNL A   1      29.112  26.231  23.849  1.00  0.00     0.030 A 
BRANCH  18  23
ATOM     23  S   UNL A   1      28.174  29.899  22.407  1.00  0.00     0.238 S 
ATOM     24  O   UNL A   1      27.056  29.994  23.328  1.00  0.00    -0.207 OA
ATOM     25  O   UNL A   1      28.042  30.069  20.990  1.00  0.00    -0.207 OA
BRANCH  23  26
ATOM     26  N   UNL A   1      29.281  31.066  22.902  1.00  0.00    -0.225 NA
ATOM     27  H   UNL A   1      30.167  30.617  23.138  1.00  0.00     0.137 HD
ATOM     28  H   UNL A   1      28.918  31.554  23.720  1.00  0.00     0.137 HD
ENDBRANCH  23  26
ENDBRANCH  18  23
ENDBRANCH  13  17
BRANCH  15  29
ATOM     29  C   UNL A   1      32.233  21.546  23.575  1.00  0.00     0.435 C 
ATOM     30  F   UNL A   1      33.544  21.240  23.396  1.00  0.00    -0.164 F 
ATOM     31  F   UNL A   1      31.751  20.712  24.534  1.00  0.00    -0.164 F 
ATOM     32  F   UNL A   1      31.597  21.197  22.420  1.00  0.00    -0.164 F 
ENDBRANCH  15  29
ENDBRANCH   7  12
ENDBRANCH   3   6
ENDBRANCH   1   2
BRANCH   1  33
ATOM     33  C   UNL A   1      31.782  32.814  26.763  1.00  0.00     0.042 C 
BRANCH  33  34
ATOM     34  C   UNL A   1      32.976  33.597  27.274  1.00  0.00     0.118 C 
BRANCH  34  35
ATOM     35  N   UNL A   1      32.599  34.588  28.282  1.00  0.00    -0.352 N 
ATOM     36  C   UNL A   1      33.180  34.841  29.510  1.00  0.00     0.251 C 
ATOM     37  H   UNL A   1      31.825  35.152  28.055  1.00  0.00     0.163 HD
ATOM     38  O   UNL A   1      32.553  35.438  30.377  1.00  0.00    -0.269 OA
BRANCH  36  39
ATOM     39  C   UNL A   1      34.551  34.363  29.759  1.00  0.00     0.039 A 
ATOM     40  C   UNL A   1      34.881  33.651  30.915  1.00  0.00     0.014 A 
ATOM     41  C   UNL A   1      35.497  34.576  28.767  1.00  0.00     0.014 A 
ATOM     42  C   UNL A   1      36.150  33.080  31.014  1.00  0.00     0.010 A 
ATOM     43  C   UNL A   1      36.645  33.831  28.769  1.00  0.00     0.010 A 
ATOM     44  C   UNL A   1      37.026  33.156  29.921  1.00  0.00    -0.014 A 
BRANCH  44  45
ATOM     45  C   UNL A   1      38.335  32.505  29.941  1.00  0.00     0.031 A 
ATOM     46  C   UNL A   1      38.365  31.077  29.518  1.00  0.00     0.074 A 
ATOM     47  C   UNL A   1      39.487  33.195  30.098  1.00  0.00     0.049 A 
ATOM     48  N   UNL A   1      38.652  30.037  30.232  1.00  0.00    -0.248 NA
ATOM     49  C   UNL A   1      37.925  30.755  28.152  1.00  0.00     0.031 C 
ATOM     50  C   UNL A   1      39.680  34.651  30.191  1.00  0.00     0.029 A 
ATOM     51  N   UNL A   1      40.763  32.732  30.080  1.00  0.00    -0.354 N 
ATOM     52  C   UNL A   1      38.643  28.953  29.355  1.00  0.00     0.074 A 
ATOM     53  C   UNL A   1      38.015  29.424  28.147  1.00  0.00     0.031 C 
ATOM     54  C   UNL A   1      40.974  34.953  29.959  1.00  0.00     0.029 A 
ATOM     55  C   UNL A   1      41.728  33.717  29.916  1.00  0.00     0.049 A 
ATOM     56  H   UNL A   1      40.987  31.778  30.175  1.00  0.00     0.167 HD
ATOM     57  C   UNL A   1      39.354  27.817  29.608  1.00  0.00     0.037 A 
ATOM     58  C   UNL A   1      43.057  33.536  29.740  1.00  0.00     0.037 A 
ATOM     59  C   UNL A   1      39.781  27.761  30.984  1.00  0.00     0.049 A 
ATOM     60  C   UNL A   1      43.376  32.180  30.251  1.00  0.00     0.074 A 
ATOM     61  C   UNL A   1      39.133  27.774  32.204  1.00  0.00     0.029 A 
ATOM     62  N   UNL A   1      41.095  28.057  31.261  1.00  0.00    -0.354 N 
ATOM     63  N   UNL A   1      43.272  31.827  31.504  1.00  0.00    -0.248 NA
ATOM     64  C   UNL A   1      43.403  31.082  29.298  1.00  0.00     0.031 C 
ATOM     65  C   UNL A   1      39.968  28.554  33.058  1.00  0.00     0.029 A 
ATOM     66  C   UNL A   1      41.101  28.921  32.327  1.00  0.00     0.049 A 
ATOM     67  H   UNL A   1      41.883  27.713  30.783  1.00  0.00     0.167 HD
ATOM     68  C   UNL A   1      42.803  30.522  31.471  1.00  0.00     0.074 A 
ATOM     69  C   UNL A   1      43.010  30.083  30.094  1.00  0.00     0.031 C 
ATOM     70  C   UNL A   1      42.039  30.013  32.485  1.00  0.00     0.037 A 
BRANCH  57  71
ATOM     71  C   UNL A   1      39.960  26.924  28.546  1.00  0.00     0.058 A 
ATOM     72  C   UNL A   1      39.589  25.564  28.483  1.00  0.00     0.135 A 
ATOM     73  C   UNL A   1      41.085  27.279  27.768  1.00  0.00     0.135 A 
ATOM     74  F   UNL A   1      38.539  25.108  29.187  1.00  0.00    -0.206 F 
ATOM     75  C   UNL A   1      40.325  24.616  27.768  1.00  0.00     0.059 A 
ATOM     76  C   UNL A   1      41.798  26.363  27.001  1.00  0.00     0.059 A 
ATOM     77  F   UNL A   1      41.612  28.508  27.793  1.00  0.00    -0.206 F 
ATOM     78  C   UNL A   1      41.441  25.026  27.045  1.00  0.00     0.060 A 
BRANCH  78  79
ATOM     79  S   UNL A   1      42.472  23.796  26.226  1.00  0.00     0.124 S 
ATOM     80  O   UNL A   1      42.780  24.471  24.970  1.00  0.00    -0.237 OA
ATOM     81  O   UNL A   1      43.579  23.651  27.164  1.00  0.00    -0.237 OA
ATOM     82  O   UNL A   1      41.590  22.637  26.121  1.00  0.00    -0.744 OA
ENDBRANCH  78  79
ENDBRANCH  57  71
BRANCH  58  83
ATOM     83  C   UNL A   1      43.977  34.335  28.895  1.00  0.00     0.058 A 
ATOM     84  C   UNL A   1      44.891  35.232  29.468  1.00  0.00     0.135 A 
ATOM     85  C   UNL A   1      44.168  34.035  27.529  1.00  0.00     0.135 A 
ATOM     86  F   UNL A   1      44.791  35.557  30.766  1.00  0.00    -0.206 F 
ATOM     87  C   UNL A   1      45.966  35.759  28.748  1.00  0.00     0.059 A 
ATOM     88  C   UNL A   1      45.226  34.558  26.787  1.00  0.00     0.059 A 
ATOM     89  F   UNL A   1      43.385  33.147  26.899  1.00  0.00    -0.206 F 
ATOM     90  C   UNL A   1      46.139  35.398  27.412  1.00  0.00     0.060 A 
BRANCH  90  91
ATOM     91  S   UNL A   1      47.632  35.924  26.540  1.00  0.00     0.124 S 
ATOM     92  O   UNL A   1      48.668  35.670  27.536  1.00  0.00    -0.237 OA
ATOM     93  O   UNL A   1      47.636  35.042  25.378  1.00  0.00    -0.237 OA
ATOM     94  O   UNL A   1      47.377  37.332  26.248  1.00  0.00    -0.744 OA
ENDBRANCH  90  91
ENDBRANCH  58  83
BRANCH  70  95
ATOM     95  C   UNL A   1      41.971  30.778  33.785  1.00  0.00     0.058 A 
ATOM     96  C   UNL A   1      41.023  31.777  34.072  1.00  0.00     0.135 A 
ATOM     97  C   UNL A   1      42.793  30.362  34.845  1.00  0.00     0.135 A 
ATOM     98  F   UNL A   1      40.129  32.162  33.153  1.00  0.00    -0.206 F 
ATOM     99  C   UNL A   1      40.921  32.358  35.337  1.00  0.00     0.059 A 
ATOM    100  C   UNL A   1      42.689  30.906  36.123  1.00  0.00     0.059 A 
ATOM    101  F   UNL A   1      43.678  29.368  34.656  1.00  0.00    -0.206 F 
ATOM    102  C   UNL A   1      41.756  31.913  36.360  1.00  0.00     0.060 A 
BRANCH 102 103
ATOM    103  S   UNL A   1      41.556  32.597  38.020  1.00  0.00     0.124 S 
ATOM    104  O   UNL A   1      42.270  31.626  38.842  1.00  0.00    -0.237 OA
ATOM    105  O   UNL A   1      42.184  33.911  37.901  1.00  0.00    -0.237 OA
ATOM    106  O   UNL A   1      40.106  32.626  38.205  1.00  0.00    -0.744 OA
ENDBRANCH 102 103
ENDBRANCH  70  95
ENDBRANCH  44  45
ENDBRANCH  36  39
ENDBRANCH  34  35
ENDBRANCH  33  34
ENDBRANCH   1  33
TORSDOF 18
ENDMDL
