MODEL 1
REMARK VINA RESULT:     -11.7      0.000      0.000
REMARK SMILES C[C@](Nc1ccc(S(N)(=O)=O)cc1)(C(=O)NCCCNC(=O)c1ccc(-c2c3nc(c(-c4c(F)cc(S(=O)(=O)[O-])cc4F)c4ccc([nH]4)c(-c4c(F)cc(S(=O)(=O)[O-])cc4F)c4nc(c(-c5c(F)cc(S(=O)(=O)[O-])cc5F)c5ccc2[nH]5)C=C4)C=C3)cc1)C(F)(F)F
REMARK SMILES IDX 17 1 16 2 14 3 15 4 2 6 1 7 89 8 90 9 91 10 92 11 3 12 4 14
REMARK SMILES IDX 5 15 13 16 6 17 12 18 7 19 8 20 10 21 11 22 9 23 18 26 19 27
REMARK SMILES IDX 20 28 21 29 22 31 23 32 24 33 88 34 25 35 87 36 26 37 27 38
REMARK SMILES IDX 28 39 81 40 29 41 86 42 80 43 82 44 30 45 85 46 79 47 78 48
REMARK SMILES IDX 31 50 65 51 44 52 64 53 45 54 48 55 63 56 83 57 46 58 47 59
REMARK SMILES IDX 62 61 84 62 49 63 32 64 33 65 42 66 34 67 35 68 41 69 43 70
REMARK SMILES IDX 36 71 37 72 38 73 39 74 40 75 66 76 67 77 76 78 68 79 69 80
REMARK SMILES IDX 75 81 77 82 70 83 71 84 72 85 73 86 74 87 50 88 51 89 60 90
REMARK SMILES IDX 52 91 53 92 59 93 61 94 54 95 55 96 56 97 57 98 58 99
REMARK H PARENT 16 5 3 13 9 24 9 25 20 30 82 49 48 60
REMARK Flexibility Score: inf
ROOT
ATOM      1  C   UNL A   1      36.249  23.621  24.885  1.00  0.00     0.117 C 
ENDROOT
BRANCH   1   2
ATOM      2  N   UNL A   1      35.329  24.628  25.389  1.00  0.00    -0.354 N 
ATOM      3  C   UNL A   1      34.033  24.513  25.826  1.00  0.00     0.254 C 
ATOM      4  O   UNL A   1      33.479  25.562  26.157  1.00  0.00    -0.272 OA
ATOM      5  H   UNL A   1      35.696  25.541  25.423  1.00  0.00     0.163 HD
BRANCH   3   6
ATOM      6  C   UNL A   1      33.343  23.124  25.897  1.00  0.00     0.210 C 
ATOM      7  C   UNL A   1      33.861  22.416  27.168  1.00  0.00     0.055 C 
BRANCH   6   8
ATOM      8  C   UNL A   1      31.829  23.395  26.070  1.00  0.00     0.420 C 
ATOM      9  F   UNL A   1      31.093  22.262  26.139  1.00  0.00    -0.168 F 
ATOM     10  F   UNL A   1      31.595  24.075  27.227  1.00  0.00    -0.168 F 
ATOM     11  F   UNL A   1      31.324  24.171  25.080  1.00  0.00    -0.168 F 
ENDBRANCH   6   8
BRANCH   6  12
ATOM     12  N   UNL A   1      33.640  22.412  24.606  1.00  0.00    -0.364 N 
ATOM     13  H   UNL A   1      33.847  22.995  23.839  1.00  0.00     0.161 HD
BRANCH  12  14
ATOM     14  C   UNL A   1      33.665  21.062  24.346  1.00  0.00     0.035 A 
ATOM     15  C   UNL A   1      34.844  20.352  24.629  1.00  0.00     0.027 A 
ATOM     16  C   UNL A   1      32.544  20.329  23.950  1.00  0.00     0.027 A 
ATOM     17  C   UNL A   1      34.875  18.957  24.633  1.00  0.00     0.024 A 
ATOM     18  C   UNL A   1      32.561  18.930  23.932  1.00  0.00     0.024 A 
ATOM     19  C   UNL A   1      33.720  18.252  24.308  1.00  0.00     0.082 A 
BRANCH  19  20
ATOM     20  S   UNL A   1      33.705  16.491  24.456  1.00  0.00     0.238 S 
ATOM     21  O   UNL A   1      33.798  15.923  23.127  1.00  0.00    -0.207 OA
ATOM     22  O   UNL A   1      34.587  16.098  25.525  1.00  0.00    -0.207 OA
BRANCH  20  23
ATOM     23  N   UNL A   1      32.153  16.184  25.004  1.00  0.00    -0.225 NA
ATOM     24  H   UNL A   1      31.487  16.351  24.249  1.00  0.00     0.137 HD
ATOM     25  H   UNL A   1      31.940  16.801  25.788  1.00  0.00     0.137 HD
ENDBRANCH  20  23
ENDBRANCH  19  20
ENDBRANCH  12  14
ENDBRANCH   6  12
ENDBRANCH   3   6
ENDBRANCH   1   2
BRANCH   1  26
ATOM     26  C   UNL A   1      37.285  23.223  25.925  1.00  0.00     0.042 C 
BRANCH  26  27
ATOM     27  C   UNL A   1      38.152  24.379  26.401  1.00  0.00     0.118 C 
BRANCH  27  28
ATOM     28  N   UNL A   1      39.542  24.238  25.994  1.00  0.00    -0.352 N 
ATOM     29  C   UNL A   1      40.656  24.933  26.393  1.00  0.00     0.251 C 
ATOM     30  H   UNL A   1      39.710  23.533  25.328  1.00  0.00     0.163 HD
ATOM     31  O   UNL A   1      41.706  24.786  25.773  1.00  0.00    -0.269 OA
BRANCH  29  32
ATOM     32  C   UNL A   1      40.593  25.861  27.543  1.00  0.00     0.039 A 
ATOM     33  C   UNL A   1      41.491  26.931  27.595  1.00  0.00     0.014 A 
ATOM     34  C   UNL A   1      39.679  25.669  28.581  1.00  0.00     0.014 A 
ATOM     35  C   UNL A   1      41.430  27.835  28.656  1.00  0.00     0.010 A 
ATOM     36  C   UNL A   1      39.557  26.621  29.587  1.00  0.00     0.010 A 
ATOM     37  C   UNL A   1      40.440  27.708  29.644  1.00  0.00    -0.014 A 
BRANCH  37  38
ATOM     38  C   UNL A   1      40.323  28.694  30.750  1.00  0.00     0.031 A 
ATOM     39  C   UNL A   1      41.175  28.553  31.984  1.00  0.00     0.074 A 
ATOM     40  C   UNL A   1      39.410  29.683  30.666  1.00  0.00     0.049 A 
ATOM     41  N   UNL A   1      41.178  29.278  33.072  1.00  0.00    -0.248 NA
ATOM     42  C   UNL A   1      42.130  27.433  32.009  1.00  0.00     0.031 C 
ATOM     43  C   UNL A   1      38.490  29.892  29.545  1.00  0.00     0.029 A 
ATOM     44  N   UNL A   1      39.099  30.692  31.541  1.00  0.00    -0.354 N 
ATOM     45  C   UNL A   1      42.120  28.697  33.914  1.00  0.00     0.074 A 
ATOM     46  C   UNL A   1      42.625  27.524  33.235  1.00  0.00     0.031 C 
ATOM     47  C   UNL A   1      37.740  30.979  29.788  1.00  0.00     0.029 A 
ATOM     48  C   UNL A   1      38.094  31.519  31.097  1.00  0.00     0.049 A 
ATOM     49  H   UNL A   1      39.553  30.814  32.407  1.00  0.00     0.167 HD
ATOM     50  C   UNL A   1      42.545  29.117  35.130  1.00  0.00     0.037 A 
ATOM     51  C   UNL A   1      37.517  32.588  31.681  1.00  0.00     0.037 A 
ATOM     52  C   UNL A   1      42.054  30.300  35.788  1.00  0.00     0.049 A 
ATOM     53  C   UNL A   1      38.007  33.036  33.031  1.00  0.00     0.074 A 
ATOM     54  C   UNL A   1      42.458  30.843  36.996  1.00  0.00     0.029 A 
ATOM     55  N   UNL A   1      41.050  31.122  35.297  1.00  0.00    -0.354 N 
ATOM     56  N   UNL A   1      38.944  32.510  33.784  1.00  0.00    -0.248 NA
ATOM     57  C   UNL A   1      37.369  34.227  33.606  1.00  0.00     0.031 C 
ATOM     58  C   UNL A   1      41.665  31.965  37.258  1.00  0.00     0.029 A 
ATOM     59  C   UNL A   1      40.806  32.156  36.187  1.00  0.00     0.049 A 
ATOM     60  H   UNL A   1      40.580  30.990  34.442  1.00  0.00     0.167 HD
ATOM     61  C   UNL A   1      39.029  33.324  34.909  1.00  0.00     0.074 A 
ATOM     62  C   UNL A   1      38.058  34.385  34.728  1.00  0.00     0.031 C 
ATOM     63  C   UNL A   1      39.839  33.207  35.991  1.00  0.00     0.037 A 
BRANCH  50  64
ATOM     64  C   UNL A   1      43.597  28.295  35.826  1.00  0.00     0.058 A 
ATOM     65  C   UNL A   1      43.258  27.235  36.684  1.00  0.00     0.135 A 
ATOM     66  C   UNL A   1      44.961  28.544  35.605  1.00  0.00     0.135 A 
ATOM     67  F   UNL A   1      41.970  26.961  36.945  1.00  0.00    -0.206 F 
ATOM     68  C   UNL A   1      44.232  26.475  37.323  1.00  0.00     0.059 A 
ATOM     69  C   UNL A   1      45.953  27.775  36.208  1.00  0.00     0.059 A 
ATOM     70  F   UNL A   1      45.344  29.543  34.794  1.00  0.00    -0.206 F 
ATOM     71  C   UNL A   1      45.578  26.753  37.077  1.00  0.00     0.060 A 
BRANCH  71  72
ATOM     72  S   UNL A   1      46.828  25.750  37.908  1.00  0.00     0.124 S 
ATOM     73  O   UNL A   1      46.209  25.536  39.213  1.00  0.00    -0.237 OA
ATOM     74  O   UNL A   1      46.911  24.577  37.046  1.00  0.00    -0.237 OA
ATOM     75  O   UNL A   1      48.008  26.609  37.909  1.00  0.00    -0.744 OA
ENDBRANCH  71  72
ENDBRANCH  50  64
BRANCH  51  76
ATOM     76  C   UNL A   1      36.429  33.321  30.978  1.00  0.00     0.058 A 
ATOM     77  C   UNL A   1      36.709  34.165  29.893  1.00  0.00     0.135 A 
ATOM     78  C   UNL A   1      35.089  33.184  31.369  1.00  0.00     0.135 A 
ATOM     79  F   UNL A   1      37.977  34.333  29.484  1.00  0.00    -0.206 F 
ATOM     80  C   UNL A   1      35.703  34.862  29.232  1.00  0.00     0.059 A 
ATOM     81  C   UNL A   1      34.061  33.848  30.706  1.00  0.00     0.059 A 
ATOM     82  F   UNL A   1      34.764  32.374  32.389  1.00  0.00    -0.206 F 
ATOM     83  C   UNL A   1      34.381  34.694  29.645  1.00  0.00     0.060 A 
BRANCH  83  84
ATOM     84  S   UNL A   1      33.076  35.564  28.750  1.00  0.00     0.124 S 
ATOM     85  O   UNL A   1      32.497  34.489  27.955  1.00  0.00    -0.237 OA
ATOM     86  O   UNL A   1      32.246  36.074  29.838  1.00  0.00    -0.237 OA
ATOM     87  O   UNL A   1      33.807  36.584  28.000  1.00  0.00    -0.744 OA
ENDBRANCH  83  84
ENDBRANCH  51  76
BRANCH  63  88
ATOM     88  C   UNL A   1      39.738  34.274  37.047  1.00  0.00     0.058 A 
ATOM     89  C   UNL A   1      38.984  34.092  38.217  1.00  0.00     0.135 A 
ATOM     90  C   UNL A   1      40.438  35.483  36.901  1.00  0.00     0.135 A 
ATOM     91  F   UNL A   1      38.292  32.957  38.404  1.00  0.00    -0.206 F 
ATOM     92  C   UNL A   1      38.900  35.083  39.189  1.00  0.00     0.059 A 
ATOM     93  C   UNL A   1      40.395  36.475  37.876  1.00  0.00     0.059 A 
ATOM     94  F   UNL A   1      41.185  35.705  35.808  1.00  0.00    -0.206 F 
ATOM     95  C   UNL A   1      39.610  36.272  39.009  1.00  0.00     0.060 A 
BRANCH  95  96
ATOM     96  S   UNL A   1      39.508  37.542  40.287  1.00  0.00     0.124 S 
ATOM     97  O   UNL A   1      38.698  38.559  39.626  1.00  0.00    -0.237 OA
ATOM     98  O   UNL A   1      38.860  36.830  41.384  1.00  0.00    -0.237 OA
ATOM     99  O   UNL A   1      40.903  37.904  40.521  1.00  0.00    -0.744 OA
ENDBRANCH  95  96
ENDBRANCH  63  88
ENDBRANCH  37  38
ENDBRANCH  29  32
ENDBRANCH  27  28
ENDBRANCH  26  27
ENDBRANCH   1  26
TORSDOF 18
ENDMDL
MODEL 2
REMARK VINA RESULT:     -11.6      3.077      3.830
REMARK SMILES C[C@](Nc1ccc(S(N)(=O)=O)cc1)(C(=O)NCCCNC(=O)c1ccc(-c2c3nc(c(-c4c(F)cc(S(=O)(=O)[O-])cc4F)c4ccc([nH]4)c(-c4c(F)cc(S(=O)(=O)[O-])cc4F)c4nc(c(-c5c(F)cc(S(=O)(=O)[O-])cc5F)c5ccc2[nH]5)C=C4)C=C3)cc1)C(F)(F)F
REMARK SMILES IDX 17 1 16 2 14 3 15 4 2 6 1 7 89 8 90 9 91 10 92 11 3 12 4 14
REMARK SMILES IDX 5 15 13 16 6 17 12 18 7 19 8 20 10 21 11 22 9 23 18 26 19 27
REMARK SMILES IDX 20 28 21 29 22 31 23 32 24 33 88 34 25 35 87 36 26 37 27 38
REMARK SMILES IDX 28 39 81 40 29 41 86 42 80 43 82 44 30 45 85 46 79 47 78 48
REMARK SMILES IDX 31 50 65 51 44 52 64 53 45 54 48 55 63 56 83 57 46 58 47 59
REMARK SMILES IDX 62 61 84 62 49 63 32 64 33 65 42 66 34 67 35 68 41 69 43 70
REMARK SMILES IDX 36 71 37 72 38 73 39 74 40 75 66 76 67 77 76 78 68 79 69 80
REMARK SMILES IDX 75 81 77 82 70 83 71 84 72 85 73 86 74 87 50 88 51 89 60 90
REMARK SMILES IDX 52 91 53 92 59 93 61 94 54 95 55 96 56 97 57 98 58 99
REMARK H PARENT 16 5 3 13 9 24 9 25 20 30 82 49 48 60
REMARK Flexibility Score: inf
ROOT
ATOM      1  C   UNL A   1      34.549  24.680  25.279  1.00  0.00     0.117 C 
ENDROOT
BRANCH   1   2
ATOM      2  N   UNL A   1      33.468  24.811  26.243  1.00  0.00    -0.354 N 
ATOM      3  C   UNL A   1      32.206  24.273  26.245  1.00  0.00     0.254 C 
ATOM      4  O   UNL A   1      31.480  24.600  27.184  1.00  0.00    -0.272 OA
ATOM      5  H   UNL A   1      33.677  25.377  27.021  1.00  0.00     0.163 HD
BRANCH   3   6
ATOM      6  C   UNL A   1      31.758  23.303  25.118  1.00  0.00     0.210 C 
ATOM      7  C   UNL A   1      30.732  22.325  25.733  1.00  0.00     0.055 C 
BRANCH   6   8
ATOM      8  C   UNL A   1      31.036  24.166  24.057  1.00  0.00     0.420 C 
ATOM      9  F   UNL A   1      31.868  25.010  23.405  1.00  0.00    -0.168 F 
ATOM     10  F   UNL A   1      30.468  23.375  23.103  1.00  0.00    -0.168 F 
ATOM     11  F   UNL A   1      30.020  24.894  24.582  1.00  0.00    -0.168 F 
ENDBRANCH   6   8
BRANCH   6  12
ATOM     12  N   UNL A   1      32.999  22.658  24.566  1.00  0.00    -0.364 N 
ATOM     13  H   UNL A   1      33.745  23.272  24.373  1.00  0.00     0.161 HD
BRANCH  12  14
ATOM     14  C   UNL A   1      33.240  21.331  24.292  1.00  0.00     0.035 A 
ATOM     15  C   UNL A   1      34.346  20.718  24.903  1.00  0.00     0.027 A 
ATOM     16  C   UNL A   1      32.371  20.522  23.557  1.00  0.00     0.027 A 
ATOM     17  C   UNL A   1      34.518  19.332  24.882  1.00  0.00     0.024 A 
ATOM     18  C   UNL A   1      32.536  19.134  23.511  1.00  0.00     0.024 A 
ATOM     19  C   UNL A   1      33.593  18.544  24.204  1.00  0.00     0.082 A 
BRANCH  19  20
ATOM     20  S   UNL A   1      33.715  16.784  24.298  1.00  0.00     0.238 S 
ATOM     21  O   UNL A   1      32.625  16.296  25.117  1.00  0.00    -0.207 OA
ATOM     22  O   UNL A   1      33.986  16.257  22.984  1.00  0.00    -0.207 OA
BRANCH  20  23
ATOM     23  N   UNL A   1      35.120  16.562  25.181  1.00  0.00    -0.225 NA
ATOM     24  H   UNL A   1      35.759  17.337  25.002  1.00  0.00     0.137 HD
ATOM     25  H   UNL A   1      35.562  15.686  24.902  1.00  0.00     0.137 HD
ENDBRANCH  20  23
ENDBRANCH  19  20
ENDBRANCH  12  14
ENDBRANCH   6  12
ENDBRANCH   3   6
ENDBRANCH   1   2
BRANCH   1  26
ATOM     26  C   UNL A   1      35.775  24.013  25.883  1.00  0.00     0.042 C 
BRANCH  26  27
ATOM     27  C   UNL A   1      36.954  23.916  24.927  1.00  0.00     0.118 C 
BRANCH  27  28
ATOM     28  N   UNL A   1      37.897  22.876  25.308  1.00  0.00    -0.352 N 
ATOM     29  C   UNL A   1      39.058  22.956  26.037  1.00  0.00     0.251 C 
ATOM     30  H   UNL A   1      37.667  21.972  24.993  1.00  0.00     0.163 HD
ATOM     31  O   UNL A   1      39.810  21.986  26.073  1.00  0.00    -0.269 OA
BRANCH  29  32
ATOM     32  C   UNL A   1      39.410  24.198  26.759  1.00  0.00     0.039 A 
ATOM     33  C   UNL A   1      38.949  24.370  28.067  1.00  0.00     0.014 A 
ATOM     34  C   UNL A   1      40.163  25.203  26.148  1.00  0.00     0.014 A 
ATOM     35  C   UNL A   1      39.294  25.521  28.777  1.00  0.00     0.010 A 
ATOM     36  C   UNL A   1      40.584  26.304  26.887  1.00  0.00     0.010 A 
ATOM     37  C   UNL A   1      40.143  26.483  28.205  1.00  0.00    -0.014 A 
BRANCH  37  38
ATOM     38  C   UNL A   1      40.568  27.686  28.967  1.00  0.00     0.031 A 
ATOM     39  C   UNL A   1      41.908  27.715  29.653  1.00  0.00     0.074 A 
ATOM     40  C   UNL A   1      39.722  28.730  29.086  1.00  0.00     0.049 A 
ATOM     41  N   UNL A   1      42.429  28.649  30.406  1.00  0.00    -0.248 NA
ATOM     42  C   UNL A   1      42.763  26.527  29.496  1.00  0.00     0.031 C 
ATOM     43  C   UNL A   1      38.377  28.799  28.511  1.00  0.00     0.029 A 
ATOM     44  N   UNL A   1      39.865  29.930  29.735  1.00  0.00    -0.354 N 
ATOM     45  C   UNL A   1      43.662  28.158  30.821  1.00  0.00     0.074 A 
ATOM     46  C   UNL A   1      43.784  26.819  30.287  1.00  0.00     0.031 C 
ATOM     47  C   UNL A   1      37.830  29.989  28.809  1.00  0.00     0.029 A 
ATOM     48  C   UNL A   1      38.767  30.750  29.630  1.00  0.00     0.049 A 
ATOM     49  H   UNL A   1      40.678  30.180  30.232  1.00  0.00     0.167 HD
ATOM     50  C   UNL A   1      44.617  28.775  31.558  1.00  0.00     0.037 A 
ATOM     51  C   UNL A   1      38.536  31.975  30.141  1.00  0.00     0.037 A 
ATOM     52  C   UNL A   1      44.497  30.117  32.066  1.00  0.00     0.049 A 
ATOM     53  C   UNL A   1      39.613  32.641  30.956  1.00  0.00     0.074 A 
ATOM     54  C   UNL A   1      45.429  30.855  32.776  1.00  0.00     0.029 A 
ATOM     55  N   UNL A   1      43.377  30.923  31.921  1.00  0.00    -0.354 N 
ATOM     56  N   UNL A   1      40.798  32.185  31.285  1.00  0.00    -0.248 NA
ATOM     57  C   UNL A   1      39.324  33.990  31.459  1.00  0.00     0.031 C 
ATOM     58  C   UNL A   1      44.854  32.087  33.103  1.00  0.00     0.029 A 
ATOM     59  C   UNL A   1      43.586  32.142  32.546  1.00  0.00     0.049 A 
ATOM     60  H   UNL A   1      42.555  30.667  31.443  1.00  0.00     0.167 HD
ATOM     61  C   UNL A   1      41.409  33.204  32.009  1.00  0.00     0.074 A 
ATOM     62  C   UNL A   1      40.465  34.303  32.056  1.00  0.00     0.031 C 
ATOM     63  C   UNL A   1      42.639  33.229  32.580  1.00  0.00     0.037 A 
BRANCH  50  64
ATOM     64  C   UNL A   1      45.877  28.006  31.855  1.00  0.00     0.058 A 
ATOM     65  C   UNL A   1      46.961  27.991  30.962  1.00  0.00     0.135 A 
ATOM     66  C   UNL A   1      46.019  27.306  33.064  1.00  0.00     0.135 A 
ATOM     67  F   UNL A   1      46.876  28.629  29.783  1.00  0.00    -0.206 F 
ATOM     68  C   UNL A   1      48.126  27.282  31.240  1.00  0.00     0.059 A 
ATOM     69  C   UNL A   1      47.187  26.617  33.379  1.00  0.00     0.059 A 
ATOM     70  F   UNL A   1      45.016  27.286  33.956  1.00  0.00    -0.206 F 
ATOM     71  C   UNL A   1      48.229  26.599  32.453  1.00  0.00     0.060 A 
BRANCH  71  72
ATOM     72  S   UNL A   1      49.750  25.692  32.802  1.00  0.00     0.124 S 
ATOM     73  O   UNL A   1      50.303  26.468  33.909  1.00  0.00    -0.237 OA
ATOM     74  O   UNL A   1      49.251  24.365  33.147  1.00  0.00    -0.237 OA
ATOM     75  O   UNL A   1      50.491  25.774  31.548  1.00  0.00    -0.744 OA
ENDBRANCH  71  72
ENDBRANCH  50  64
BRANCH  51  76
ATOM     76  C   UNL A   1      37.242  32.659  29.876  1.00  0.00     0.058 A 
ATOM     77  C   UNL A   1      37.140  33.662  28.900  1.00  0.00     0.135 A 
ATOM     78  C   UNL A   1      36.079  32.317  30.584  1.00  0.00     0.135 A 
ATOM     79  F   UNL A   1      38.225  34.029  28.200  1.00  0.00    -0.206 F 
ATOM     80  C   UNL A   1      35.938  34.315  28.648  1.00  0.00     0.059 A 
ATOM     81  C   UNL A   1      34.859  32.936  30.330  1.00  0.00     0.059 A 
ATOM     82  F   UNL A   1      36.117  31.351  31.515  1.00  0.00    -0.206 F 
ATOM     83  C   UNL A   1      34.802  33.942  29.367  1.00  0.00     0.060 A 
BRANCH  83  84
ATOM     84  S   UNL A   1      33.235  34.761  28.997  1.00  0.00     0.124 S 
ATOM     85  O   UNL A   1      33.688  36.062  28.522  1.00  0.00    -0.237 OA
ATOM     86  O   UNL A   1      32.658  33.876  27.989  1.00  0.00    -0.237 OA
ATOM     87  O   UNL A   1      32.546  34.762  30.285  1.00  0.00    -0.744 OA
ENDBRANCH  83  84
ENDBRANCH  51  76
BRANCH  63  88
ATOM     88  C   UNL A   1      43.053  34.499  33.272  1.00  0.00     0.058 A 
ATOM     89  C   UNL A   1      42.812  34.712  34.639  1.00  0.00     0.135 A 
ATOM     90  C   UNL A   1      43.735  35.502  32.564  1.00  0.00     0.135 A 
ATOM     91  F   UNL A   1      42.160  33.788  35.362  1.00  0.00    -0.206 F 
ATOM     92  C   UNL A   1      43.202  35.888  35.270  1.00  0.00     0.059 A 
ATOM     93  C   UNL A   1      44.163  36.672  33.183  1.00  0.00     0.059 A 
ATOM     94  F   UNL A   1      44.003  35.344  31.258  1.00  0.00    -0.206 F 
ATOM     95  C   UNL A   1      43.878  36.863  34.533  1.00  0.00     0.060 A 
BRANCH  95  96
ATOM     96  S   UNL A   1      44.395  38.376  35.369  1.00  0.00     0.124 S 
ATOM     97  O   UNL A   1      45.840  38.341  35.172  1.00  0.00    -0.237 OA
ATOM     98  O   UNL A   1      43.679  39.406  34.623  1.00  0.00    -0.237 OA
ATOM     99  O   UNL A   1      43.944  38.178  36.743  1.00  0.00    -0.744 OA
ENDBRANCH  95  96
ENDBRANCH  63  88
ENDBRANCH  37  38
ENDBRANCH  29  32
ENDBRANCH  27  28
ENDBRANCH  26  27
ENDBRANCH   1  26
TORSDOF 18
ENDMDL
MODEL 3
REMARK VINA RESULT:     -11.6      4.065     10.055
REMARK SMILES C[C@](Nc1ccc(S(N)(=O)=O)cc1)(C(=O)NCCCNC(=O)c1ccc(-c2c3nc(c(-c4c(F)cc(S(=O)(=O)[O-])cc4F)c4ccc([nH]4)c(-c4c(F)cc(S(=O)(=O)[O-])cc4F)c4nc(c(-c5c(F)cc(S(=O)(=O)[O-])cc5F)c5ccc2[nH]5)C=C4)C=C3)cc1)C(F)(F)F
REMARK SMILES IDX 17 1 16 2 14 3 15 4 2 6 1 7 89 8 90 9 91 10 92 11 3 12 4 14
REMARK SMILES IDX 5 15 13 16 6 17 12 18 7 19 8 20 10 21 11 22 9 23 18 26 19 27
REMARK SMILES IDX 20 28 21 29 22 31 23 32 24 33 88 34 25 35 87 36 26 37 27 38
REMARK SMILES IDX 28 39 81 40 29 41 86 42 80 43 82 44 30 45 85 46 79 47 78 48
REMARK SMILES IDX 31 50 65 51 44 52 64 53 45 54 48 55 63 56 83 57 46 58 47 59
REMARK SMILES IDX 62 61 84 62 49 63 32 64 33 65 42 66 34 67 35 68 41 69 43 70
REMARK SMILES IDX 36 71 37 72 38 73 39 74 40 75 66 76 67 77 76 78 68 79 69 80
REMARK SMILES IDX 75 81 77 82 70 83 71 84 72 85 73 86 74 87 50 88 51 89 60 90
REMARK SMILES IDX 52 91 53 92 59 93 61 94 54 95 55 96 56 97 57 98 58 99
REMARK H PARENT 16 5 3 13 9 24 9 25 20 30 82 49 48 60
REMARK Flexibility Score: inf
ROOT
ATOM      1  C   UNL A   1      33.305  26.154  25.750  1.00  0.00     0.117 C 
ENDROOT
BRANCH   1   2
ATOM      2  N   UNL A   1      33.953  26.325  24.459  1.00  0.00    -0.354 N 
ATOM      3  C   UNL A   1      33.483  26.102  23.189  1.00  0.00     0.254 C 
ATOM      4  O   UNL A   1      34.285  26.294  22.274  1.00  0.00    -0.272 OA
ATOM      5  H   UNL A   1      34.880  26.656  24.504  1.00  0.00     0.163 HD
BRANCH   3   6
ATOM      6  C   UNL A   1      32.017  25.647  22.957  1.00  0.00     0.210 C 
ATOM      7  C   UNL A   1      31.666  25.953  21.485  1.00  0.00     0.055 C 
BRANCH   6   8
ATOM      8  C   UNL A   1      31.997  24.113  23.156  1.00  0.00     0.420 C 
ATOM      9  F   UNL A   1      32.460  23.729  24.367  1.00  0.00    -0.168 F 
ATOM     10  F   UNL A   1      30.724  23.635  23.063  1.00  0.00    -0.168 F 
ATOM     11  F   UNL A   1      32.704  23.457  22.204  1.00  0.00    -0.168 F 
ENDBRANCH   6   8
BRANCH   6  12
ATOM     12  N   UNL A   1      31.164  26.354  23.975  1.00  0.00    -0.364 N 
ATOM     13  H   UNL A   1      31.184  25.972  24.883  1.00  0.00     0.161 HD
BRANCH  12  14
ATOM     14  C   UNL A   1      30.361  27.460  23.816  1.00  0.00     0.035 A 
ATOM     15  C   UNL A   1      30.950  28.730  23.930  1.00  0.00     0.027 A 
ATOM     16  C   UNL A   1      29.026  27.395  23.411  1.00  0.00     0.027 A 
ATOM     17  C   UNL A   1      30.273  29.887  23.540  1.00  0.00     0.024 A 
ATOM     18  C   UNL A   1      28.327  28.546  23.032  1.00  0.00     0.024 A 
ATOM     19  C   UNL A   1      28.968  29.784  23.067  1.00  0.00     0.082 A 
BRANCH  19  20
ATOM     20  S   UNL A   1      28.157  31.219  22.431  1.00  0.00     0.238 S 
ATOM     21  O   UNL A   1      27.785  30.957  21.056  1.00  0.00    -0.207 OA
ATOM     22  O   UNL A   1      27.212  31.700  23.406  1.00  0.00    -0.207 OA
BRANCH  20  23
ATOM     23  N   UNL A   1      29.392  32.349  22.391  1.00  0.00    -0.225 NA
ATOM     24  H   UNL A   1      29.738  32.439  21.435  1.00  0.00     0.137 HD
ATOM     25  H   UNL A   1      30.151  32.046  23.000  1.00  0.00     0.137 HD
ENDBRANCH  20  23
ENDBRANCH  19  20
ENDBRANCH  12  14
ENDBRANCH   6  12
ENDBRANCH   3   6
ENDBRANCH   1   2
BRANCH   1  26
ATOM     26  C   UNL A   1      33.305  27.439  26.564  1.00  0.00     0.042 C 
BRANCH  26  27
ATOM     27  C   UNL A   1      34.322  28.466  26.087  1.00  0.00     0.118 C 
BRANCH  27  28
ATOM     28  N   UNL A   1      33.930  29.829  26.412  1.00  0.00    -0.352 N 
ATOM     29  C   UNL A   1      34.436  30.697  27.348  1.00  0.00     0.251 C 
ATOM     30  H   UNL A   1      33.185  30.186  25.876  1.00  0.00     0.163 HD
ATOM     31  O   UNL A   1      33.825  31.734  27.594  1.00  0.00    -0.269 OA
BRANCH  29  32
ATOM     32  C   UNL A   1      35.691  30.384  28.065  1.00  0.00     0.039 A 
ATOM     33  C   UNL A   1      35.625  29.635  29.243  1.00  0.00     0.014 A 
ATOM     34  C   UNL A   1      36.925  30.846  27.601  1.00  0.00     0.014 A 
ATOM     35  C   UNL A   1      36.800  29.303  29.919  1.00  0.00     0.010 A 
ATOM     36  C   UNL A   1      38.100  30.436  28.223  1.00  0.00     0.010 A 
ATOM     37  C   UNL A   1      38.051  29.672  29.397  1.00  0.00    -0.014 A 
BRANCH  37  38
ATOM     38  C   UNL A   1      39.314  29.278  30.072  1.00  0.00     0.031 A 
ATOM     39  C   UNL A   1      39.779  30.016  31.300  1.00  0.00     0.074 A 
ATOM     40  C   UNL A   1      40.071  28.294  29.547  1.00  0.00     0.049 A 
ATOM     41  N   UNL A   1      40.876  29.856  31.994  1.00  0.00    -0.248 NA
ATOM     42  C   UNL A   1      38.909  31.094  31.798  1.00  0.00     0.031 C 
ATOM     43  C   UNL A   1      39.754  27.540  28.331  1.00  0.00     0.029 A 
ATOM     44  N   UNL A   1      41.265  27.762  29.962  1.00  0.00    -0.354 N 
ATOM     45  C   UNL A   1      40.835  30.817  32.998  1.00  0.00     0.074 A 
ATOM     46  C   UNL A   1      39.635  31.596  32.786  1.00  0.00     0.031 C 
ATOM     47  C   UNL A   1      40.714  26.626  28.116  1.00  0.00     0.029 A 
ATOM     48  C   UNL A   1      41.734  26.755  29.152  1.00  0.00     0.049 A 
ATOM     49  H   UNL A   1      41.743  28.072  30.766  1.00  0.00     0.167 HD
ATOM     50  C   UNL A   1      41.704  31.016  34.018  1.00  0.00     0.037 A 
ATOM     51  C   UNL A   1      42.861  26.021  29.230  1.00  0.00     0.037 A 
ATOM     52  C   UNL A   1      42.884  30.220  34.235  1.00  0.00     0.049 A 
ATOM     53  C   UNL A   1      43.811  26.259  30.373  1.00  0.00     0.074 A 
ATOM     54  C   UNL A   1      43.800  30.304  35.269  1.00  0.00     0.029 A 
ATOM     55  N   UNL A   1      43.314  29.196  33.403  1.00  0.00    -0.354 N 
ATOM     56  N   UNL A   1      43.723  27.131  31.349  1.00  0.00    -0.248 NA
ATOM     57  C   UNL A   1      45.006  25.408  30.431  1.00  0.00     0.031 C 
ATOM     58  C   UNL A   1      44.810  29.364  35.037  1.00  0.00     0.029 A 
ATOM     59  C   UNL A   1      44.493  28.653  33.890  1.00  0.00     0.049 A 
ATOM     60  H   UNL A   1      42.849  28.897  32.588  1.00  0.00     0.167 HD
ATOM     61  C   UNL A   1      44.836  26.914  32.154  1.00  0.00     0.074 A 
ATOM     62  C   UNL A   1      45.573  25.818  31.557  1.00  0.00     0.031 C 
ATOM     63  C   UNL A   1      45.212  27.559  33.286  1.00  0.00     0.037 A 
BRANCH  50  64
ATOM     64  C   UNL A   1      41.408  32.135  34.980  1.00  0.00     0.058 A 
ATOM     65  C   UNL A   1      42.006  33.400  34.849  1.00  0.00     0.135 A 
ATOM     66  C   UNL A   1      40.488  31.955  36.026  1.00  0.00     0.135 A 
ATOM     67  F   UNL A   1      42.906  33.625  33.878  1.00  0.00    -0.206 F 
ATOM     68  C   UNL A   1      41.728  34.434  35.738  1.00  0.00     0.059 A 
ATOM     69  C   UNL A   1      40.171  32.985  36.907  1.00  0.00     0.059 A 
ATOM     70  F   UNL A   1      39.886  30.768  36.200  1.00  0.00    -0.206 F 
ATOM     71  C   UNL A   1      40.808  34.215  36.764  1.00  0.00     0.060 A 
BRANCH  71  72
ATOM     72  S   UNL A   1      40.453  35.570  37.903  1.00  0.00     0.124 S 
ATOM     73  O   UNL A   1      39.512  34.938  38.823  1.00  0.00    -0.237 OA
ATOM     74  O   UNL A   1      41.771  35.869  38.453  1.00  0.00    -0.237 OA
ATOM     75  O   UNL A   1      39.888  36.602  37.040  1.00  0.00    -0.744 OA
ENDBRANCH  71  72
ENDBRANCH  50  64
BRANCH  51  76
ATOM     76  C   UNL A   1      43.139  24.975  28.208  1.00  0.00     0.058 A 
ATOM     77  C   UNL A   1      43.725  25.305  26.976  1.00  0.00     0.135 A 
ATOM     78  C   UNL A   1      42.837  23.626  28.446  1.00  0.00     0.135 A 
ATOM     79  F   UNL A   1      44.027  26.583  26.699  1.00  0.00    -0.206 F 
ATOM     80  C   UNL A   1      43.983  24.340  26.009  1.00  0.00     0.059 A 
ATOM     81  C   UNL A   1      43.112  22.638  27.505  1.00  0.00     0.059 A 
ATOM     82  F   UNL A   1      42.294  23.253  29.615  1.00  0.00    -0.206 F 
ATOM     83  C   UNL A   1      43.675  23.007  26.285  1.00  0.00     0.060 A 
BRANCH  83  84
ATOM     84  S   UNL A   1      44.060  21.753  25.043  1.00  0.00     0.124 S 
ATOM     85  O   UNL A   1      43.891  22.504  23.805  1.00  0.00    -0.237 OA
ATOM     86  O   UNL A   1      45.431  21.390  25.389  1.00  0.00    -0.237 OA
ATOM     87  O   UNL A   1      43.063  20.715  25.295  1.00  0.00    -0.744 OA
ENDBRANCH  83  84
ENDBRANCH  51  76
BRANCH  63  88
ATOM     88  C   UNL A   1      46.457  27.073  33.977  1.00  0.00     0.058 A 
ATOM     89  C   UNL A   1      47.718  27.633  33.717  1.00  0.00     0.135 A 
ATOM     90  C   UNL A   1      46.380  26.054  34.941  1.00  0.00     0.135 A 
ATOM     91  F   UNL A   1      47.849  28.605  32.801  1.00  0.00    -0.206 F 
ATOM     92  C   UNL A   1      48.863  27.178  34.363  1.00  0.00     0.059 A 
ATOM     93  C   UNL A   1      47.507  25.607  35.624  1.00  0.00     0.059 A 
ATOM     94  F   UNL A   1      45.198  25.492  35.238  1.00  0.00    -0.206 F 
ATOM     95  C   UNL A   1      48.746  26.164  35.316  1.00  0.00     0.060 A 
BRANCH  95  96
ATOM     96  S   UNL A   1      50.236  25.596  36.161  1.00  0.00     0.124 S 
ATOM     97  O   UNL A   1      49.677  24.727  37.190  1.00  0.00    -0.237 OA
ATOM     98  O   UNL A   1      50.966  24.924  35.091  1.00  0.00    -0.237 OA
ATOM     99  O   UNL A   1      50.845  26.832  36.646  1.00  0.00    -0.744 OA
ENDBRANCH  95  96
ENDBRANCH  63  88
ENDBRANCH  37  38
ENDBRANCH  29  32
ENDBRANCH  27  28
ENDBRANCH  26  27
ENDBRANCH   1  26
TORSDOF 18
ENDMDL
