MODEL 1
REMARK VINA RESULT:     -12.5      0.000      0.000
REMARK SMILES CCCCn1c(C[N@H+]2C[C@H]3C(=O)NC[C@@]3(C(=O)NCCCNC(=O)c3ccc(-c4c5nc(c(-c6c(F)cc(S(=O)(=O)[O-])cc6F)c6ccc([nH]6)c(-c6c(F)cc(S(=O)(=O)[O-])cc6F)c6nc(c(-c7c(F)cc(S(=O)(=O)[O-])cc7F)c7ccc4[nH]7)C=C6)C=C5)cc3)C2)nc2ccccc21
REMARK SMILES IDX 19 1 18 2 16 3 17 4 15 6 8 7 9 8 91 9 10 11 11 12 14 13
REMARK SMILES IDX 12 14 13 15 7 17 6 18 5 19 98 20 92 21 93 22 97 23 94 24
REMARK SMILES IDX 96 25 95 26 4 27 3 28 2 29 1 30 20 31 21 32 22 33 23 34
REMARK SMILES IDX 24 36 25 37 26 38 90 39 27 40 89 41 28 42 29 43 30 44 83 45
REMARK SMILES IDX 31 46 88 47 82 48 84 49 32 50 87 51 81 52 80 53 33 55 67 56
REMARK SMILES IDX 46 57 66 58 47 59 50 60 65 61 85 62 48 63 49 64 64 66 86 67
REMARK SMILES IDX 51 68 34 69 35 70 44 71 36 72 37 73 43 74 45 75 38 76 39 77
REMARK SMILES IDX 40 78 41 79 42 80 68 81 69 82 78 83 70 84 71 85 77 86 79 87
REMARK SMILES IDX 72 88 73 89 74 90 75 91 76 92 52 93 53 94 62 95 54 96 55 97
REMARK SMILES IDX 61 98 63 99 56 100 57 101 58 102 59 103 60 104
REMARK H PARENT 18 5 8 10 13 16 22 35 84 54 50 65
REMARK Flexibility Score: inf
ROOT
ATOM      1  C   UNL A   1      36.258  23.912  25.859  1.00  0.00     0.117 C 
ENDROOT
BRANCH   1   2
ATOM      2  N   UNL A   1      35.522  23.084  26.815  1.00  0.00    -0.355 N 
ATOM      3  C   UNL A   1      34.219  22.614  26.740  1.00  0.00     0.234 C 
ATOM      4  O   UNL A   1      33.755  22.057  27.738  1.00  0.00    -0.274 OA
ATOM      5  H   UNL A   1      36.022  22.823  27.622  1.00  0.00     0.163 HD
BRANCH   3   6
ATOM      6  C   UNL A   1      33.423  22.820  25.394  1.00  0.00     0.132 C 
ATOM      7  N   UNL A   1      31.766  24.605  25.268  1.00  0.00    -0.327 N 
ATOM      8  C   UNL A   1      31.163  23.548  24.465  1.00  0.00     0.277 C 
ATOM      9  C   UNL A   1      32.580  23.841  26.222  1.00  0.00     0.282 C 
ATOM     10  H   UNL A   1      31.061  25.204  25.698  1.00  0.00     0.348 HD
ATOM     11  C   UNL A   1      32.018  22.326  24.791  1.00  0.00     0.156 C 
ATOM     12  C   UNL A   1      32.301  21.583  23.520  1.00  0.00     0.230 C 
ATOM     13  C   UNL A   1      34.079  21.459  24.953  1.00  0.00     0.139 C 
ATOM     14  O   UNL A   1      31.550  21.358  22.592  1.00  0.00    -0.275 OA
ATOM     15  N   UNL A   1      33.563  21.093  23.669  1.00  0.00    -0.354 N 
ATOM     16  H   UNL A   1      34.048  20.567  22.994  1.00  0.00     0.163 HD
BRANCH   7  17
ATOM     17  C   UNL A   1      32.562  25.603  24.506  1.00  0.00     0.339 C 
BRANCH  17  18
ATOM     18  C   UNL A   1      32.909  26.898  25.186  1.00  0.00     0.165 A 
ATOM     19  N   UNL A   1      32.089  28.013  25.251  1.00  0.00    -0.323 N 
ATOM     20  C   UNL A   1      32.755  28.972  26.004  1.00  0.00     0.068 A 
ATOM     21  N   UNL A   1      34.029  27.107  25.853  1.00  0.00    -0.227 NA
ATOM     22  C   UNL A   1      33.949  28.363  26.368  1.00  0.00     0.089 A 
ATOM     23  C   UNL A   1      32.439  30.268  26.436  1.00  0.00     0.028 A 
ATOM     24  C   UNL A   1      34.875  29.029  27.184  1.00  0.00     0.030 A 
ATOM     25  C   UNL A   1      33.370  30.923  27.258  1.00  0.00     0.002 A 
ATOM     26  C   UNL A   1      34.570  30.317  27.631  1.00  0.00     0.002 A 
BRANCH  19  27
ATOM     27  C   UNL A   1      30.691  28.089  24.845  1.00  0.00     0.124 C 
BRANCH  27  28
ATOM     28  C   UNL A   1      30.395  28.557  23.411  1.00  0.00     0.022 C 
BRANCH  28  29
ATOM     29  C   UNL A   1      29.663  29.893  23.206  1.00  0.00    -0.002 C 
ATOM     30  C   UNL A   1      29.394  30.317  21.763  1.00  0.00     0.004 C 
ENDBRANCH  28  29
ENDBRANCH  27  28
ENDBRANCH  19  27
ENDBRANCH  17  18
ENDBRANCH   7  17
ENDBRANCH   3   6
ENDBRANCH   1   2
BRANCH   1  31
ATOM     31  C   UNL A   1      37.462  23.193  25.226  1.00  0.00     0.042 C 
BRANCH  31  32
ATOM     32  C   UNL A   1      38.104  22.139  26.122  1.00  0.00     0.118 C 
BRANCH  32  33
ATOM     33  N   UNL A   1      39.489  21.889  25.781  1.00  0.00    -0.352 N 
ATOM     34  C   UNL A   1      40.679  22.511  26.042  1.00  0.00     0.251 C 
ATOM     35  H   UNL A   1      39.600  21.080  25.232  1.00  0.00     0.163 HD
ATOM     36  O   UNL A   1      41.674  21.952  25.568  1.00  0.00    -0.269 OA
BRANCH  34  37
ATOM     37  C   UNL A   1      40.868  23.772  26.823  1.00  0.00     0.039 A 
ATOM     38  C   UNL A   1      41.710  23.953  27.922  1.00  0.00     0.014 A 
ATOM     39  C   UNL A   1      40.099  24.874  26.395  1.00  0.00     0.014 A 
ATOM     40  C   UNL A   1      41.765  25.186  28.584  1.00  0.00     0.010 A 
ATOM     41  C   UNL A   1      40.160  26.106  27.045  1.00  0.00     0.010 A 
ATOM     42  C   UNL A   1      40.980  26.263  28.158  1.00  0.00    -0.014 A 
BRANCH  42  43
ATOM     43  C   UNL A   1      41.105  27.547  28.859  1.00  0.00     0.031 A 
ATOM     44  C   UNL A   1      42.204  28.460  28.414  1.00  0.00     0.074 A 
ATOM     45  C   UNL A   1      40.203  28.015  29.746  1.00  0.00     0.049 A 
ATOM     46  N   UNL A   1      43.174  28.967  29.109  1.00  0.00    -0.248 NA
ATOM     47  C   UNL A   1      42.235  28.832  26.993  1.00  0.00     0.031 C 
ATOM     48  C   UNL A   1      38.895  27.451  30.088  1.00  0.00     0.029 A 
ATOM     49  N   UNL A   1      40.239  29.176  30.468  1.00  0.00    -0.354 N 
ATOM     50  C   UNL A   1      43.839  29.860  28.264  1.00  0.00     0.074 A 
ATOM     51  C   UNL A   1      43.283  29.656  26.950  1.00  0.00     0.031 C 
ATOM     52  C   UNL A   1      38.187  28.363  30.791  1.00  0.00     0.029 A 
ATOM     53  C   UNL A   1      39.032  29.513  31.062  1.00  0.00     0.049 A 
ATOM     54  H   UNL A   1      41.051  29.725  30.558  1.00  0.00     0.167 HD
ATOM     55  C   UNL A   1      44.692  30.819  28.725  1.00  0.00     0.037 A 
ATOM     56  C   UNL A   1      38.727  30.675  31.689  1.00  0.00     0.037 A 
ATOM     57  C   UNL A   1      45.148  30.534  30.060  1.00  0.00     0.049 A 
ATOM     58  C   UNL A   1      40.001  31.307  32.114  1.00  0.00     0.074 A 
ATOM     59  C   UNL A   1      45.858  29.508  30.653  1.00  0.00     0.029 A 
ATOM     60  N   UNL A   1      44.635  31.273  31.095  1.00  0.00    -0.354 N 
ATOM     61  N   UNL A   1      40.802  30.821  33.023  1.00  0.00    -0.248 NA
ATOM     62  C   UNL A   1      40.574  32.352  31.279  1.00  0.00     0.031 C 
ATOM     63  C   UNL A   1      45.346  29.416  31.981  1.00  0.00     0.029 A 
ATOM     64  C   UNL A   1      44.360  30.396  32.113  1.00  0.00     0.049 A 
ATOM     65  H   UNL A   1      44.493  32.246  31.106  1.00  0.00     0.167 HD
ATOM     66  C   UNL A   1      42.073  31.206  32.626  1.00  0.00     0.074 A 
ATOM     67  C   UNL A   1      41.857  32.250  31.631  1.00  0.00     0.031 C 
ATOM     68  C   UNL A   1      43.173  30.458  32.938  1.00  0.00     0.037 A 
BRANCH  55  69
ATOM     69  C   UNL A   1      44.910  32.175  28.079  1.00  0.00     0.058 A 
ATOM     70  C   UNL A   1      46.170  32.495  27.527  1.00  0.00     0.135 A 
ATOM     71  C   UNL A   1      44.024  33.264  28.233  1.00  0.00     0.135 A 
ATOM     72  F   UNL A   1      47.098  31.543  27.335  1.00  0.00    -0.206 F 
ATOM     73  C   UNL A   1      46.551  33.807  27.232  1.00  0.00     0.059 A 
ATOM     74  C   UNL A   1      44.364  34.572  27.894  1.00  0.00     0.059 A 
ATOM     75  F   UNL A   1      42.824  33.128  28.810  1.00  0.00    -0.206 F 
ATOM     76  C   UNL A   1      45.646  34.842  27.443  1.00  0.00     0.060 A 
BRANCH  76  77
ATOM     77  S   UNL A   1      46.182  36.547  27.213  1.00  0.00     0.124 S 
ATOM     78  O   UNL A   1      47.109  36.710  28.327  1.00  0.00    -0.237 OA
ATOM     79  O   UNL A   1      46.781  36.505  25.883  1.00  0.00    -0.237 OA
ATOM     80  O   UNL A   1      44.937  37.306  27.310  1.00  0.00    -0.744 OA
ENDBRANCH  76  77
ENDBRANCH  55  69
BRANCH  56  81
ATOM     81  C   UNL A   1      37.422  31.386  31.718  1.00  0.00     0.058 A 
ATOM     82  C   UNL A   1      36.786  31.705  32.932  1.00  0.00     0.135 A 
ATOM     83  C   UNL A   1      36.894  31.999  30.564  1.00  0.00     0.135 A 
ATOM     84  F   UNL A   1      37.238  31.192  34.087  1.00  0.00    -0.206 F 
ATOM     85  C   UNL A   1      35.718  32.606  33.000  1.00  0.00     0.059 A 
ATOM     86  C   UNL A   1      35.820  32.886  30.604  1.00  0.00     0.059 A 
ATOM     87  F   UNL A   1      37.465  31.827  29.362  1.00  0.00    -0.206 F 
ATOM     88  C   UNL A   1      35.253  33.206  31.830  1.00  0.00     0.060 A 
BRANCH  88  89
ATOM     89  S   UNL A   1      33.985  34.490  31.931  1.00  0.00     0.124 S 
ATOM     90  O   UNL A   1      33.506  34.550  30.554  1.00  0.00    -0.237 OA
ATOM     91  O   UNL A   1      33.057  33.928  32.905  1.00  0.00    -0.237 OA
ATOM     92  O   UNL A   1      34.726  35.664  32.385  1.00  0.00    -0.744 OA
ENDBRANCH  88  89
ENDBRANCH  56  81
BRANCH  68  93
ATOM     93  C   UNL A   1      43.039  29.403  34.004  1.00  0.00     0.058 A 
ATOM     94  C   UNL A   1      43.181  29.669  35.376  1.00  0.00     0.135 A 
ATOM     95  C   UNL A   1      42.583  28.126  33.642  1.00  0.00     0.135 A 
ATOM     96  F   UNL A   1      43.500  30.895  35.811  1.00  0.00    -0.206 F 
ATOM     97  C   UNL A   1      42.925  28.698  36.344  1.00  0.00     0.059 A 
ATOM     98  C   UNL A   1      42.290  27.151  34.595  1.00  0.00     0.059 A 
ATOM     99  F   UNL A   1      42.359  27.831  32.351  1.00  0.00    -0.206 F 
ATOM    100  C   UNL A   1      42.480  27.439  35.945  1.00  0.00     0.060 A 
BRANCH 100 101
ATOM    101  S   UNL A   1      42.043  26.218  37.202  1.00  0.00     0.124 S 
ATOM    102  O   UNL A   1      42.141  24.966  36.460  1.00  0.00    -0.237 OA
ATOM    103  O   UNL A   1      43.064  26.419  38.227  1.00  0.00    -0.237 OA
ATOM    104  O   UNL A   1      40.692  26.614  37.595  1.00  0.00    -0.744 OA
ENDBRANCH 100 101
ENDBRANCH  68  93
ENDBRANCH  42  43
ENDBRANCH  34  37
ENDBRANCH  32  33
ENDBRANCH  31  32
ENDBRANCH   1  31
TORSDOF 18
ENDMDL
MODEL 2
REMARK VINA RESULT:     -12.3      2.775      9.366
REMARK SMILES CCCCn1c(C[N@H+]2C[C@H]3C(=O)NC[C@@]3(C(=O)NCCCNC(=O)c3ccc(-c4c5nc(c(-c6c(F)cc(S(=O)(=O)[O-])cc6F)c6ccc([nH]6)c(-c6c(F)cc(S(=O)(=O)[O-])cc6F)c6nc(c(-c7c(F)cc(S(=O)(=O)[O-])cc7F)c7ccc4[nH]7)C=C6)C=C5)cc3)C2)nc2ccccc21
REMARK SMILES IDX 19 1 18 2 16 3 17 4 15 6 8 7 9 8 91 9 10 11 11 12 14 13
REMARK SMILES IDX 12 14 13 15 7 17 6 18 5 19 98 20 92 21 93 22 97 23 94 24
REMARK SMILES IDX 96 25 95 26 4 27 3 28 2 29 1 30 20 31 21 32 22 33 23 34
REMARK SMILES IDX 24 36 25 37 26 38 90 39 27 40 89 41 28 42 29 43 30 44 83 45
REMARK SMILES IDX 31 46 88 47 82 48 84 49 32 50 87 51 81 52 80 53 33 55 67 56
REMARK SMILES IDX 46 57 66 58 47 59 50 60 65 61 85 62 48 63 49 64 64 66 86 67
REMARK SMILES IDX 51 68 34 69 35 70 44 71 36 72 37 73 43 74 45 75 38 76 39 77
REMARK SMILES IDX 40 78 41 79 42 80 68 81 69 82 78 83 70 84 71 85 77 86 79 87
REMARK SMILES IDX 72 88 73 89 74 90 75 91 76 92 52 93 53 94 62 95 54 96 55 97
REMARK SMILES IDX 61 98 63 99 56 100 57 101 58 102 59 103 60 104
REMARK H PARENT 18 5 8 10 13 16 22 35 84 54 50 65
REMARK Flexibility Score: inf
ROOT
ATOM      1  C   UNL A   1      34.101  28.593  25.274  1.00  0.00     0.117 C 
ENDROOT
BRANCH   1   2
ATOM      2  N   UNL A   1      34.192  28.606  23.814  1.00  0.00    -0.355 N 
ATOM      3  C   UNL A   1      33.625  27.734  22.897  1.00  0.00     0.234 C 
ATOM      4  O   UNL A   1      33.962  27.849  21.716  1.00  0.00    -0.274 OA
ATOM      5  H   UNL A   1      34.728  29.336  23.430  1.00  0.00     0.163 HD
BRANCH   3   6
ATOM      6  C   UNL A   1      32.593  26.662  23.419  1.00  0.00     0.132 C 
ATOM      7  N   UNL A   1      33.244  24.311  23.434  1.00  0.00    -0.327 N 
ATOM      8  C   UNL A   1      31.829  24.252  23.088  1.00  0.00     0.277 C 
ATOM      9  C   UNL A   1      33.636  25.622  22.901  1.00  0.00     0.282 C 
ATOM     10  H   UNL A   1      33.763  23.524  23.046  1.00  0.00     0.348 HD
ATOM     11  C   UNL A   1      31.484  25.703  22.761  1.00  0.00     0.156 C 
ATOM     12  C   UNL A   1      30.162  26.036  23.385  1.00  0.00     0.230 C 
ATOM     13  C   UNL A   1      31.558  27.847  23.410  1.00  0.00     0.139 C 
ATOM     14  O   UNL A   1      29.161  25.351  23.448  1.00  0.00    -0.275 OA
ATOM     15  N   UNL A   1      30.270  27.338  23.770  1.00  0.00    -0.354 N 
ATOM     16  H   UNL A   1      29.567  27.852  24.229  1.00  0.00     0.163 HD
BRANCH   7  17
ATOM     17  C   UNL A   1      33.548  24.168  24.882  1.00  0.00     0.339 C 
BRANCH  17  18
ATOM     18  C   UNL A   1      34.930  23.719  25.272  1.00  0.00     0.165 A 
ATOM     19  N   UNL A   1      35.432  22.438  25.107  1.00  0.00    -0.323 N 
ATOM     20  C   UNL A   1      36.750  22.453  25.546  1.00  0.00     0.068 A 
ATOM     21  N   UNL A   1      35.851  24.517  25.777  1.00  0.00    -0.227 NA
ATOM     22  C   UNL A   1      36.973  23.766  25.942  1.00  0.00     0.089 A 
ATOM     23  C   UNL A   1      37.771  21.493  25.605  1.00  0.00     0.028 A 
ATOM     24  C   UNL A   1      38.231  24.170  26.410  1.00  0.00     0.030 A 
ATOM     25  C   UNL A   1      39.029  21.911  26.070  1.00  0.00     0.002 A 
ATOM     26  C   UNL A   1      39.260  23.229  26.465  1.00  0.00     0.002 A 
BRANCH  19  27
ATOM     27  C   UNL A   1      34.806  21.347  24.371  1.00  0.00     0.124 C 
BRANCH  27  28
ATOM     28  C   UNL A   1      33.845  20.431  25.147  1.00  0.00     0.022 C 
BRANCH  28  29
ATOM     29  C   UNL A   1      32.602  19.883  24.427  1.00  0.00    -0.002 C 
ATOM     30  C   UNL A   1      32.201  20.572  23.125  1.00  0.00     0.004 C 
ENDBRANCH  28  29
ENDBRANCH  27  28
ENDBRANCH  19  27
ENDBRANCH  17  18
ENDBRANCH   7  17
ENDBRANCH   3   6
ENDBRANCH   1   2
BRANCH   1  31
ATOM     31  C   UNL A   1      33.185  29.691  25.841  1.00  0.00     0.042 C 
BRANCH  31  32
ATOM     32  C   UNL A   1      33.179  29.780  27.363  1.00  0.00     0.118 C 
BRANCH  32  33
ATOM     33  N   UNL A   1      33.545  31.095  27.845  1.00  0.00    -0.352 N 
ATOM     34  C   UNL A   1      34.688  31.665  28.335  1.00  0.00     0.251 C 
ATOM     35  H   UNL A   1      32.793  31.729  27.813  1.00  0.00     0.163 HD
ATOM     36  O   UNL A   1      34.589  32.860  28.631  1.00  0.00    -0.269 OA
BRANCH  34  37
ATOM     37  C   UNL A   1      36.003  30.981  28.538  1.00  0.00     0.039 A 
ATOM     38  C   UNL A   1      36.252  29.610  28.443  1.00  0.00     0.014 A 
ATOM     39  C   UNL A   1      37.083  31.824  28.870  1.00  0.00     0.014 A 
ATOM     40  C   UNL A   1      37.532  29.098  28.692  1.00  0.00     0.010 A 
ATOM     41  C   UNL A   1      38.361  31.319  29.107  1.00  0.00     0.010 A 
ATOM     42  C   UNL A   1      38.587  29.948  29.039  1.00  0.00    -0.014 A 
BRANCH  42  43
ATOM     43  C   UNL A   1      39.920  29.367  29.249  1.00  0.00     0.031 A 
ATOM     44  C   UNL A   1      40.399  29.259  30.663  1.00  0.00     0.074 A 
ATOM     45  C   UNL A   1      40.651  28.781  28.278  1.00  0.00     0.049 A 
ATOM     46  N   UNL A   1      41.473  29.750  31.198  1.00  0.00    -0.248 NA
ATOM     47  C   UNL A   1      39.545  28.529  31.608  1.00  0.00     0.031 C 
ATOM     48  C   UNL A   1      40.248  28.478  26.903  1.00  0.00     0.029 A 
ATOM     49  N   UNL A   1      41.903  28.239  28.363  1.00  0.00    -0.354 N 
ATOM     50  C   UNL A   1      41.528  29.248  32.501  1.00  0.00     0.074 A 
ATOM     51  C   UNL A   1      40.266  28.591  32.729  1.00  0.00     0.031 C 
ATOM     52  C   UNL A   1      41.153  27.639  26.350  1.00  0.00     0.029 A 
ATOM     53  C   UNL A   1      42.256  27.454  27.275  1.00  0.00     0.049 A 
ATOM     54  H   UNL A   1      42.502  28.392  29.129  1.00  0.00     0.167 HD
ATOM     55  C   UNL A   1      42.664  29.267  33.255  1.00  0.00     0.037 A 
ATOM     56  C   UNL A   1      43.353  26.665  27.160  1.00  0.00     0.037 A 
ATOM     57  C   UNL A   1      43.625  30.212  32.750  1.00  0.00     0.049 A 
ATOM     58  C   UNL A   1      44.372  27.164  28.118  1.00  0.00     0.074 A 
ATOM     59  C   UNL A   1      43.643  31.579  32.550  1.00  0.00     0.029 A 
ATOM     60  N   UNL A   1      44.729  29.730  32.092  1.00  0.00    -0.354 N 
ATOM     61  N   UNL A   1      44.974  28.318  28.023  1.00  0.00    -0.248 NA
ATOM     62  C   UNL A   1      44.501  26.501  29.406  1.00  0.00     0.031 C 
ATOM     63  C   UNL A   1      44.473  31.781  31.409  1.00  0.00     0.029 A 
ATOM     64  C   UNL A   1      44.913  30.524  30.989  1.00  0.00     0.049 A 
ATOM     65  H   UNL A   1      45.283  28.963  32.361  1.00  0.00     0.167 HD
ATOM     66  C   UNL A   1      45.218  28.705  29.332  1.00  0.00     0.074 A 
ATOM     67  C   UNL A   1      45.028  27.495  30.124  1.00  0.00     0.031 C 
ATOM     68  C   UNL A   1      45.283  30.024  29.683  1.00  0.00     0.037 A 
BRANCH  55  69
ATOM     69  C   UNL A   1      43.036  28.231  34.298  1.00  0.00     0.058 A 
ATOM     70  C   UNL A   1      43.201  28.620  35.646  1.00  0.00     0.135 A 
ATOM     71  C   UNL A   1      43.507  26.938  33.982  1.00  0.00     0.135 A 
ATOM     72  F   UNL A   1      42.794  29.828  36.068  1.00  0.00    -0.206 F 
ATOM     73  C   UNL A   1      43.861  27.821  36.584  1.00  0.00     0.059 A 
ATOM     74  C   UNL A   1      44.119  26.103  34.915  1.00  0.00     0.059 A 
ATOM     75  F   UNL A   1      43.486  26.461  32.731  1.00  0.00    -0.206 F 
ATOM     76  C   UNL A   1      44.338  26.573  36.200  1.00  0.00     0.060 A 
BRANCH  76  77
ATOM     77  S   UNL A   1      45.325  25.606  37.358  1.00  0.00     0.124 S 
ATOM     78  O   UNL A   1      44.634  24.322  37.323  1.00  0.00    -0.237 OA
ATOM     79  O   UNL A   1      46.646  25.639  36.740  1.00  0.00    -0.237 OA
ATOM     80  O   UNL A   1      45.204  26.355  38.607  1.00  0.00    -0.744 OA
ENDBRANCH  76  77
ENDBRANCH  55  69
BRANCH  56  81
ATOM     81  C   UNL A   1      43.474  25.361  26.456  1.00  0.00     0.058 A 
ATOM     82  C   UNL A   1      44.407  25.170  25.420  1.00  0.00     0.135 A 
ATOM     83  C   UNL A   1      42.857  24.196  26.956  1.00  0.00     0.135 A 
ATOM     84  F   UNL A   1      45.065  26.218  24.901  1.00  0.00    -0.206 F 
ATOM     85  C   UNL A   1      44.736  23.898  24.939  1.00  0.00     0.059 A 
ATOM     86  C   UNL A   1      43.156  22.921  26.481  1.00  0.00     0.059 A 
ATOM     87  F   UNL A   1      42.008  24.250  27.993  1.00  0.00    -0.206 F 
ATOM     88  C   UNL A   1      44.117  22.777  25.489  1.00  0.00     0.060 A 
BRANCH  88  89
ATOM     89  S   UNL A   1      44.656  21.126  24.986  1.00  0.00     0.124 S 
ATOM     90  O   UNL A   1      46.025  21.090  25.488  1.00  0.00    -0.237 OA
ATOM     91  O   UNL A   1      43.700  20.269  25.679  1.00  0.00    -0.237 OA
ATOM     92  O   UNL A   1      44.525  21.154  23.532  1.00  0.00    -0.744 OA
ENDBRANCH  88  89
ENDBRANCH  56  81
BRANCH  68  93
ATOM     93  C   UNL A   1      45.433  31.046  28.588  1.00  0.00     0.058 A 
ATOM     94  C   UNL A   1      44.346  31.588  27.882  1.00  0.00     0.135 A 
ATOM     95  C   UNL A   1      46.694  31.621  28.365  1.00  0.00     0.135 A 
ATOM     96  F   UNL A   1      43.095  31.175  28.121  1.00  0.00    -0.206 F 
ATOM     97  C   UNL A   1      44.510  32.625  26.964  1.00  0.00     0.059 A 
ATOM     98  C   UNL A   1      46.875  32.680  27.475  1.00  0.00     0.059 A 
ATOM     99  F   UNL A   1      47.761  31.196  29.060  1.00  0.00    -0.206 F 
ATOM    100  C   UNL A   1      45.778  33.166  26.764  1.00  0.00     0.060 A 
BRANCH 100 101
ATOM    101  S   UNL A   1      45.972  34.581  25.659  1.00  0.00     0.124 S 
ATOM    102  O   UNL A   1      45.573  35.694  26.512  1.00  0.00    -0.237 OA
ATOM    103  O   UNL A   1      47.390  34.536  25.312  1.00  0.00    -0.237 OA
ATOM    104  O   UNL A   1      45.061  34.271  24.559  1.00  0.00    -0.744 OA
ENDBRANCH 100 101
ENDBRANCH  68  93
ENDBRANCH  42  43
ENDBRANCH  34  37
ENDBRANCH  32  33
ENDBRANCH  31  32
ENDBRANCH   1  31
TORSDOF 18
ENDMDL
MODEL 3
REMARK VINA RESULT:     -12.1      1.430      2.850
REMARK SMILES CCCCn1c(C[N@H+]2C[C@H]3C(=O)NC[C@@]3(C(=O)NCCCNC(=O)c3ccc(-c4c5nc(c(-c6c(F)cc(S(=O)(=O)[O-])cc6F)c6ccc([nH]6)c(-c6c(F)cc(S(=O)(=O)[O-])cc6F)c6nc(c(-c7c(F)cc(S(=O)(=O)[O-])cc7F)c7ccc4[nH]7)C=C6)C=C5)cc3)C2)nc2ccccc21
REMARK SMILES IDX 19 1 18 2 16 3 17 4 15 6 8 7 9 8 91 9 10 11 11 12 14 13
REMARK SMILES IDX 12 14 13 15 7 17 6 18 5 19 98 20 92 21 93 22 97 23 94 24
REMARK SMILES IDX 96 25 95 26 4 27 3 28 2 29 1 30 20 31 21 32 22 33 23 34
REMARK SMILES IDX 24 36 25 37 26 38 90 39 27 40 89 41 28 42 29 43 30 44 83 45
REMARK SMILES IDX 31 46 88 47 82 48 84 49 32 50 87 51 81 52 80 53 33 55 67 56
REMARK SMILES IDX 46 57 66 58 47 59 50 60 65 61 85 62 48 63 49 64 64 66 86 67
REMARK SMILES IDX 51 68 34 69 35 70 44 71 36 72 37 73 43 74 45 75 38 76 39 77
REMARK SMILES IDX 40 78 41 79 42 80 68 81 69 82 78 83 70 84 71 85 77 86 79 87
REMARK SMILES IDX 72 88 73 89 74 90 75 91 76 92 52 93 53 94 62 95 54 96 55 97
REMARK SMILES IDX 61 98 63 99 56 100 57 101 58 102 59 103 60 104
REMARK H PARENT 18 5 8 10 13 16 22 35 84 54 50 65
REMARK Flexibility Score: inf
ROOT
ATOM      1  C   UNL A   1      34.574  22.580  25.643  1.00  0.00     0.117 C 
ENDROOT
BRANCH   1   2
ATOM      2  N   UNL A   1      34.213  22.310  24.251  1.00  0.00    -0.355 N 
ATOM      3  C   UNL A   1      33.016  22.558  23.597  1.00  0.00     0.234 C 
ATOM      4  O   UNL A   1      32.884  22.106  22.456  1.00  0.00    -0.274 OA
ATOM      5  H   UNL A   1      34.919  21.897  23.703  1.00  0.00     0.163 HD
BRANCH   3   6
ATOM      6  C   UNL A   1      31.909  23.395  24.347  1.00  0.00     0.132 C 
ATOM      7  N   UNL A   1      32.062  25.829  24.331  1.00  0.00    -0.327 N 
ATOM      8  C   UNL A   1      31.538  25.548  25.662  1.00  0.00     0.277 C 
ATOM      9  C   UNL A   1      32.835  24.614  24.042  1.00  0.00     0.282 C 
ATOM     10  H   UNL A   1      32.606  26.692  24.312  1.00  0.00     0.348 HD
ATOM     11  C   UNL A   1      31.737  24.040  25.808  1.00  0.00     0.156 C 
ATOM     12  C   UNL A   1      30.505  23.451  26.427  1.00  0.00     0.230 C 
ATOM     13  C   UNL A   1      31.433  22.007  24.916  1.00  0.00     0.139 C 
ATOM     14  O   UNL A   1      29.826  23.893  27.332  1.00  0.00    -0.275 OA
ATOM     15  N   UNL A   1      30.364  22.230  25.840  1.00  0.00    -0.354 N 
ATOM     16  H   UNL A   1      29.634  21.595  26.024  1.00  0.00     0.163 HD
BRANCH   7  17
ATOM     17  C   UNL A   1      31.036  26.115  23.294  1.00  0.00     0.339 C 
BRANCH  17  18
ATOM     18  C   UNL A   1      30.271  27.406  23.395  1.00  0.00     0.165 A 
ATOM     19  N   UNL A   1      30.827  28.648  23.655  1.00  0.00    -0.323 N 
ATOM     20  C   UNL A   1      29.795  29.578  23.615  1.00  0.00     0.068 A 
ATOM     21  N   UNL A   1      28.971  27.512  23.194  1.00  0.00    -0.227 NA
ATOM     22  C   UNL A   1      28.663  28.831  23.313  1.00  0.00     0.089 A 
ATOM     23  C   UNL A   1      29.728  30.970  23.766  1.00  0.00     0.028 A 
ATOM     24  C   UNL A   1      27.417  29.453  23.148  1.00  0.00     0.030 A 
ATOM     25  C   UNL A   1      28.476  31.583  23.593  1.00  0.00     0.002 A 
ATOM     26  C   UNL A   1      27.336  30.840  23.286  1.00  0.00     0.002 A 
BRANCH  19  27
ATOM     27  C   UNL A   1      32.247  28.974  23.697  1.00  0.00     0.124 C 
BRANCH  27  28
ATOM     28  C   UNL A   1      32.830  29.423  25.047  1.00  0.00     0.022 C 
BRANCH  28  29
ATOM     29  C   UNL A   1      33.855  28.516  25.747  1.00  0.00    -0.002 C 
ATOM     30  C   UNL A   1      34.195  28.853  27.198  1.00  0.00     0.004 C 
ENDBRANCH  28  29
ENDBRANCH  27  28
ENDBRANCH  19  27
ENDBRANCH  17  18
ENDBRANCH   7  17
ENDBRANCH   3   6
ENDBRANCH   1   2
BRANCH   1  31
ATOM     31  C   UNL A   1      35.851  21.851  26.096  1.00  0.00     0.042 C 
BRANCH  31  32
ATOM     32  C   UNL A   1      37.147  22.548  25.697  1.00  0.00     0.118 C 
BRANCH  32  33
ATOM     33  N   UNL A   1      38.313  21.718  25.907  1.00  0.00    -0.352 N 
ATOM     34  C   UNL A   1      39.538  21.896  26.492  1.00  0.00     0.251 C 
ATOM     35  H   UNL A   1      38.199  20.811  25.544  1.00  0.00     0.163 HD
ATOM     36  O   UNL A   1      40.270  20.901  26.480  1.00  0.00    -0.269 OA
BRANCH  34  37
ATOM     37  C   UNL A   1      40.046  23.155  27.119  1.00  0.00     0.039 A 
ATOM     38  C   UNL A   1      41.201  23.293  27.892  1.00  0.00     0.014 A 
ATOM     39  C   UNL A   1      39.258  24.303  26.903  1.00  0.00     0.014 A 
ATOM     40  C   UNL A   1      41.543  24.532  28.449  1.00  0.00     0.010 A 
ATOM     41  C   UNL A   1      39.602  25.541  27.446  1.00  0.00     0.010 A 
ATOM     42  C   UNL A   1      40.739  25.657  28.240  1.00  0.00    -0.014 A 
BRANCH  42  43
ATOM     43  C   UNL A   1      41.163  26.942  28.810  1.00  0.00     0.031 A 
ATOM     44  C   UNL A   1      42.391  27.571  28.229  1.00  0.00     0.074 A 
ATOM     45  C   UNL A   1      40.432  27.658  29.690  1.00  0.00     0.049 A 
ATOM     46  N   UNL A   1      43.486  27.924  28.826  1.00  0.00    -0.248 NA
ATOM     47  C   UNL A   1      42.402  27.808  26.779  1.00  0.00     0.031 C 
ATOM     48  C   UNL A   1      39.063  27.403  30.144  1.00  0.00     0.029 A 
ATOM     49  N   UNL A   1      40.746  28.842  30.296  1.00  0.00    -0.354 N 
ATOM     50  C   UNL A   1      44.259  28.589  27.870  1.00  0.00     0.074 A 
ATOM     51  C   UNL A   1      43.589  28.394  26.609  1.00  0.00     0.031 C 
ATOM     52  C   UNL A   1      38.600  28.496  30.790  1.00  0.00     0.029 A 
ATOM     53  C   UNL A   1      39.672  29.467  30.912  1.00  0.00     0.049 A 
ATOM     54  H   UNL A   1      41.656  29.219  30.296  1.00  0.00     0.167 HD
ATOM     55  C   UNL A   1      45.315  29.388  28.197  1.00  0.00     0.037 A 
ATOM     56  C   UNL A   1      39.648  30.716  31.440  1.00  0.00     0.037 A 
ATOM     57  C   UNL A   1      45.790  29.127  29.530  1.00  0.00     0.049 A 
ATOM     58  C   UNL A   1      41.048  31.107  31.742  1.00  0.00     0.074 A 
ATOM     59  C   UNL A   1      46.318  28.031  30.184  1.00  0.00     0.029 A 
ATOM     60  N   UNL A   1      45.505  30.040  30.514  1.00  0.00    -0.354 N 
ATOM     61  N   UNL A   1      41.793  30.543  32.654  1.00  0.00    -0.248 NA
ATOM     62  C   UNL A   1      41.761  31.938  30.785  1.00  0.00     0.031 C 
ATOM     63  C   UNL A   1      45.887  28.156  31.537  1.00  0.00     0.029 A 
ATOM     64  C   UNL A   1      45.127  29.325  31.622  1.00  0.00     0.049 A 
ATOM     65  H   UNL A   1      45.560  31.019  30.440  1.00  0.00     0.167 HD
ATOM     66  C   UNL A   1      43.086  30.626  32.163  1.00  0.00     0.074 A 
ATOM     67  C   UNL A   1      43.018  31.606  31.085  1.00  0.00     0.031 C 
ATOM     68  C   UNL A   1      44.032  29.697  32.492  1.00  0.00     0.037 A 
BRANCH  55  69
ATOM     69  C   UNL A   1      45.756  30.611  27.417  1.00  0.00     0.058 A 
ATOM     70  C   UNL A   1      47.121  30.786  27.099  1.00  0.00     0.135 A 
ATOM     71  C   UNL A   1      44.940  31.746  27.217  1.00  0.00     0.135 A 
ATOM     72  F   UNL A   1      47.997  29.779  27.250  1.00  0.00    -0.206 F 
ATOM     73  C   UNL A   1      47.649  32.017  26.698  1.00  0.00     0.059 A 
ATOM     74  C   UNL A   1      45.436  32.967  26.765  1.00  0.00     0.059 A 
ATOM     75  F   UNL A   1      43.642  31.754  27.543  1.00  0.00    -0.206 F 
ATOM     76  C   UNL A   1      46.799  33.108  26.558  1.00  0.00     0.060 A 
BRANCH  76  77
ATOM     77  S   UNL A   1      47.494  34.731  26.193  1.00  0.00     0.124 S 
ATOM     78  O   UNL A   1      46.305  35.466  25.776  1.00  0.00    -0.237 OA
ATOM     79  O   UNL A   1      48.066  35.117  27.478  1.00  0.00    -0.237 OA
ATOM     80  O   UNL A   1      48.466  34.450  25.140  1.00  0.00    -0.744 OA
ENDBRANCH  76  77
ENDBRANCH  55  69
BRANCH  56  81
ATOM     81  C   UNL A   1      38.516  31.679  31.462  1.00  0.00     0.058 A 
ATOM     82  C   UNL A   1      37.853  32.060  30.281  1.00  0.00     0.135 A 
ATOM     83  C   UNL A   1      37.891  32.050  32.670  1.00  0.00     0.135 A 
ATOM     84  F   UNL A   1      38.358  31.726  29.084  1.00  0.00    -0.206 F 
ATOM     85  C   UNL A   1      36.625  32.732  30.299  1.00  0.00     0.059 A 
ATOM     86  C   UNL A   1      36.678  32.734  32.713  1.00  0.00     0.059 A 
ATOM     87  F   UNL A   1      38.393  31.675  33.856  1.00  0.00    -0.206 F 
ATOM     88  C   UNL A   1      36.037  33.049  31.522  1.00  0.00     0.060 A 
BRANCH  88  89
ATOM     89  S   UNL A   1      34.379  33.769  31.553  1.00  0.00     0.124 S 
ATOM     90  O   UNL A   1      34.652  35.137  31.982  1.00  0.00    -0.237 OA
ATOM     91  O   UNL A   1      33.951  33.609  30.168  1.00  0.00    -0.237 OA
ATOM     92  O   UNL A   1      33.666  32.942  32.523  1.00  0.00    -0.744 OA
ENDBRANCH  88  89
ENDBRANCH  56  81
BRANCH  68  93
ATOM     93  C   UNL A   1      43.760  28.785  33.659  1.00  0.00     0.058 A 
ATOM     94  C   UNL A   1      44.078  29.113  34.988  1.00  0.00     0.135 A 
ATOM     95  C   UNL A   1      43.001  27.623  33.450  1.00  0.00     0.135 A 
ATOM     96  F   UNL A   1      44.699  30.262  35.283  1.00  0.00    -0.206 F 
ATOM     97  C   UNL A   1      43.697  28.303  36.056  1.00  0.00     0.059 A 
ATOM     98  C   UNL A   1      42.582  26.815  34.506  1.00  0.00     0.059 A 
ATOM     99  F   UNL A   1      42.605  27.291  32.210  1.00  0.00    -0.206 F 
ATOM    100  C   UNL A   1      42.950  27.154  35.808  1.00  0.00     0.060 A 
BRANCH 100 101
ATOM    101  S   UNL A   1      42.362  26.164  37.200  1.00  0.00     0.124 S 
ATOM    102  O   UNL A   1      41.000  26.654  37.371  1.00  0.00    -0.237 OA
ATOM    103  O   UNL A   1      42.476  24.795  36.702  1.00  0.00    -0.237 OA
ATOM    104  O   UNL A   1      43.296  26.507  38.270  1.00  0.00    -0.744 OA
ENDBRANCH 100 101
ENDBRANCH  68  93
ENDBRANCH  42  43
ENDBRANCH  34  37
ENDBRANCH  32  33
ENDBRANCH  31  32
ENDBRANCH   1  31
TORSDOF 18
ENDMDL
