MODEL 1
REMARK VINA RESULT:     -10.5      0.000      0.000
REMARK SMILES CC(C)Cc1ccc(C[N@@H+]2CCO[C@@H](C(=O)NCCCNC(=O)c3ccc(-c4c5nc(c(-c6c(F)cc(S(=O)(=O)[O-])cc6F)c6ccc([nH]6)c(-c6c(F)cc(S(=O)(=O)[O-])cc6F)c6nc(c(-c7c(F)cc(S(=O)(=O)[O-])cc7F)c7ccc4[nH]7)C=C6)C=C5)cc3)C2)cc1
REMARK SMILES IDX 18 1 17 2 15 3 16 4 14 6 10 7 11 8 90 9 12 11 13 12 9 13
REMARK SMILES IDX 8 14 5 15 6 16 92 17 7 18 91 19 4 20 2 21 1 22 3 23 19 24
REMARK SMILES IDX 20 25 21 26 22 27 23 29 24 30 25 31 89 32 26 33 88 34 27 35
REMARK SMILES IDX 28 36 29 37 82 38 30 39 87 40 81 41 83 42 31 43 86 44 80 45
REMARK SMILES IDX 79 46 32 48 66 49 45 50 65 51 46 52 49 53 64 54 84 55 47 56
REMARK SMILES IDX 48 57 63 59 85 60 50 61 33 62 34 63 43 64 35 65 36 66 42 67
REMARK SMILES IDX 44 68 37 69 38 70 39 71 40 72 41 73 67 74 68 75 77 76 69 77
REMARK SMILES IDX 70 78 76 79 78 80 71 81 72 82 73 83 74 84 75 85 51 86 52 87
REMARK SMILES IDX 61 88 53 89 54 90 60 91 62 92 55 93 56 94 57 95 58 96 59 97
REMARK H PARENT 17 5 10 10 21 28 83 47 49 58
REMARK Flexibility Score: inf
ROOT
ATOM      1  C   UNL A   1      33.178  34.134  28.021  1.00  0.00     0.117 C 
ENDROOT
BRANCH   1   2
ATOM      2  N   UNL A   1      33.357  35.575  28.064  1.00  0.00    -0.354 N 
ATOM      3  C   UNL A   1      33.262  36.412  29.132  1.00  0.00     0.255 C 
ATOM      4  O   UNL A   1      33.322  37.627  28.925  1.00  0.00    -0.272 OA
ATOM      5  H   UNL A   1      33.576  36.002  27.206  1.00  0.00     0.163 HD
BRANCH   3   6
ATOM      6  C   UNL A   1      33.032  35.845  30.536  1.00  0.00     0.261 C 
ATOM      7  N   UNL A   1      34.339  35.094  32.581  1.00  0.00    -0.327 N 
ATOM      8  C   UNL A   1      33.348  35.852  33.357  1.00  0.00     0.291 C 
ATOM      9  C   UNL A   1      34.407  35.636  31.210  1.00  0.00     0.305 C 
ATOM     10  H   UNL A   1      35.247  35.246  33.021  1.00  0.00     0.348 HD
ATOM     11  C   UNL A   1      32.007  36.138  32.661  1.00  0.00     0.222 C 
ATOM     12  O   UNL A   1      32.145  36.632  31.334  1.00  0.00    -0.357 OA
BRANCH   7  13
ATOM     13  C   UNL A   1      34.267  33.625  32.688  1.00  0.00     0.299 C 
BRANCH  13  14
ATOM     14  C   UNL A   1      35.574  32.905  32.924  1.00  0.00     0.006 A 
ATOM     15  C   UNL A   1      37.625  31.176  33.751  1.00  0.00    -0.048 A 
ATOM     16  C   UNL A   1      37.389  32.374  34.437  1.00  0.00     0.004 A 
ATOM     17  C   UNL A   1      36.905  30.904  32.582  1.00  0.00     0.004 A 
ATOM     18  C   UNL A   1      36.390  33.247  34.008  1.00  0.00     0.010 A 
ATOM     19  C   UNL A   1      35.896  31.769  32.163  1.00  0.00     0.010 A 
BRANCH  15  20
ATOM     20  C   UNL A   1      38.657  30.201  34.257  1.00  0.00     0.038 C 
BRANCH  20  21
ATOM     21  C   UNL A   1      39.717  29.862  33.196  1.00  0.00    -0.013 C 
ATOM     22  C   UNL A   1      41.131  30.205  33.674  1.00  0.00     0.008 C 
ATOM     23  C   UNL A   1      39.633  28.382  32.827  1.00  0.00     0.008 C 
ENDBRANCH  20  21
ENDBRANCH  15  20
ENDBRANCH  13  14
ENDBRANCH   7  13
ENDBRANCH   3   6
ENDBRANCH   1   2
BRANCH   1  24
ATOM     24  C   UNL A   1      34.510  33.416  28.067  1.00  0.00     0.042 C 
BRANCH  24  25
ATOM     25  C   UNL A   1      34.501  32.234  29.016  1.00  0.00     0.118 C 
BRANCH  25  26
ATOM     26  N   UNL A   1      33.965  31.034  28.382  1.00  0.00    -0.352 N 
ATOM     27  C   UNL A   1      34.635  29.956  27.865  1.00  0.00     0.251 C 
ATOM     28  H   UNL A   1      32.984  30.993  28.315  1.00  0.00     0.163 HD
ATOM     29  O   UNL A   1      34.059  29.170  27.117  1.00  0.00    -0.269 OA
BRANCH  27  30
ATOM     30  C   UNL A   1      36.055  29.764  28.212  1.00  0.00     0.039 A 
ATOM     31  C   UNL A   1      36.394  29.250  29.464  1.00  0.00     0.014 A 
ATOM     32  C   UNL A   1      37.046  30.071  27.277  1.00  0.00     0.014 A 
ATOM     33  C   UNL A   1      37.733  28.986  29.750  1.00  0.00     0.010 A 
ATOM     34  C   UNL A   1      38.359  29.700  27.520  1.00  0.00     0.010 A 
ATOM     35  C   UNL A   1      38.719  29.173  28.767  1.00  0.00    -0.014 A 
BRANCH  35  36
ATOM     36  C   UNL A   1      40.142  28.852  29.025  1.00  0.00     0.031 A 
ATOM     37  C   UNL A   1      41.046  29.899  29.618  1.00  0.00     0.074 A 
ATOM     38  C   UNL A   1      40.627  27.649  28.665  1.00  0.00     0.049 A 
ATOM     39  N   UNL A   1      42.330  29.840  29.856  1.00  0.00    -0.248 NA
ATOM     40  C   UNL A   1      40.434  31.197  29.953  1.00  0.00     0.031 C 
ATOM     41  C   UNL A   1      39.856  26.579  28.027  1.00  0.00     0.029 A 
ATOM     42  N   UNL A   1      41.890  27.125  28.774  1.00  0.00    -0.354 N 
ATOM     43  C   UNL A   1      42.678  31.090  30.354  1.00  0.00     0.074 A 
ATOM     44  C   UNL A   1      41.488  31.910  30.319  1.00  0.00     0.031 C 
ATOM     45  C   UNL A   1      40.653  25.517  27.832  1.00  0.00     0.029 A 
ATOM     46  C   UNL A   1      42.000  25.844  28.289  1.00  0.00     0.049 A 
ATOM     47  H   UNL A   1      42.647  27.620  29.163  1.00  0.00     0.167 HD
ATOM     48  C   UNL A   1      43.876  31.508  30.825  1.00  0.00     0.037 A 
ATOM     49  C   UNL A   1      43.068  25.028  28.215  1.00  0.00     0.037 A 
ATOM     50  C   UNL A   1      45.047  30.673  30.879  1.00  0.00     0.049 A 
ATOM     51  C   UNL A   1      44.391  25.514  28.743  1.00  0.00     0.074 A 
ATOM     52  C   UNL A   1      46.293  30.973  31.396  1.00  0.00     0.029 A 
ATOM     53  N   UNL A   1      45.115  29.374  30.395  1.00  0.00    -0.354 N 
ATOM     54  N   UNL A   1      44.687  26.675  29.281  1.00  0.00    -0.248 NA
ATOM     55  C   UNL A   1      45.521  24.580  28.663  1.00  0.00     0.031 C 
ATOM     56  C   UNL A   1      47.132  29.875  31.179  1.00  0.00     0.029 A 
ATOM     57  C   UNL A   1      46.391  28.868  30.577  1.00  0.00     0.049 A 
ATOM     58  H   UNL A   1      44.367  28.884  29.983  1.00  0.00     0.167 HD
ATOM     59  C   UNL A   1      46.032  26.602  29.624  1.00  0.00     0.074 A 
ATOM     60  C   UNL A   1      46.485  25.278  29.249  1.00  0.00     0.031 C 
ATOM     61  C   UNL A   1      46.822  27.544  30.197  1.00  0.00     0.037 A 
BRANCH  48  62
ATOM     62  C   UNL A   1      43.975  32.925  31.322  1.00  0.00     0.058 A 
ATOM     63  C   UNL A   1      43.801  33.247  32.678  1.00  0.00     0.135 A 
ATOM     64  C   UNL A   1      44.272  33.973  30.435  1.00  0.00     0.135 A 
ATOM     65  F   UNL A   1      43.497  32.289  33.568  1.00  0.00    -0.206 F 
ATOM     66  C   UNL A   1      43.885  34.559  33.132  1.00  0.00     0.059 A 
ATOM     67  C   UNL A   1      44.393  35.288  30.872  1.00  0.00     0.059 A 
ATOM     68  F   UNL A   1      44.446  33.724  29.128  1.00  0.00    -0.206 F 
ATOM     69  C   UNL A   1      44.182  35.574  32.221  1.00  0.00     0.060 A 
BRANCH  69  70
ATOM     70  S   UNL A   1      44.292  37.270  32.829  1.00  0.00     0.124 S 
ATOM     71  O   UNL A   1      43.811  38.024  31.676  1.00  0.00    -0.237 OA
ATOM     72  O   UNL A   1      43.403  37.244  33.986  1.00  0.00    -0.237 OA
ATOM     73  O   UNL A   1      45.710  37.430  33.135  1.00  0.00    -0.744 OA
ENDBRANCH  69  70
ENDBRANCH  48  62
BRANCH  49  74
ATOM     74  C   UNL A   1      42.923  23.663  27.640  1.00  0.00     0.058 A 
ATOM     75  C   UNL A   1      42.747  22.546  28.470  1.00  0.00     0.135 A 
ATOM     76  C   UNL A   1      42.934  23.451  26.253  1.00  0.00     0.135 A 
ATOM     77  F   UNL A   1      42.733  22.698  29.803  1.00  0.00    -0.206 F 
ATOM     78  C   UNL A   1      42.603  21.266  27.948  1.00  0.00     0.059 A 
ATOM     79  C   UNL A   1      42.765  22.183  25.705  1.00  0.00     0.059 A 
ATOM     80  F   UNL A   1      43.081  24.488  25.415  1.00  0.00    -0.206 F 
ATOM     81  C   UNL A   1      42.610  21.095  26.563  1.00  0.00     0.060 A 
BRANCH  81  82
ATOM     82  S   UNL A   1      42.371  19.433  25.895  1.00  0.00     0.124 S 
ATOM     83  O   UNL A   1      43.395  19.383  24.858  1.00  0.00    -0.237 OA
ATOM     84  O   UNL A   1      42.607  18.597  27.067  1.00  0.00    -0.237 OA
ATOM     85  O   UNL A   1      40.991  19.457  25.420  1.00  0.00    -0.744 OA
ENDBRANCH  81  82
ENDBRANCH  49  74
BRANCH  61  86
ATOM     86  C   UNL A   1      48.250  27.170  30.480  1.00  0.00     0.058 A 
ATOM     87  C   UNL A   1      49.274  27.414  29.552  1.00  0.00     0.135 A 
ATOM     88  C   UNL A   1      48.606  26.610  31.718  1.00  0.00     0.135 A 
ATOM     89  F   UNL A   1      48.988  27.942  28.352  1.00  0.00    -0.206 F 
ATOM     90  C   UNL A   1      50.599  27.093  29.833  1.00  0.00     0.059 A 
ATOM     91  C   UNL A   1      49.926  26.311  32.032  1.00  0.00     0.059 A 
ATOM     92  F   UNL A   1      47.665  26.367  32.646  1.00  0.00    -0.206 F 
ATOM     93  C   UNL A   1      50.915  26.545  31.077  1.00  0.00     0.060 A 
BRANCH  93  94
ATOM     94  S   UNL A   1      52.642  26.167  31.440  1.00  0.00     0.124 S 
ATOM     95  O   UNL A   1      52.543  24.804  31.952  1.00  0.00    -0.237 OA
ATOM     96  O   UNL A   1      53.274  26.309  30.132  1.00  0.00    -0.237 OA
ATOM     97  O   UNL A   1      53.013  27.182  32.422  1.00  0.00    -0.744 OA
ENDBRANCH  93  94
ENDBRANCH  61  86
ENDBRANCH  35  36
ENDBRANCH  27  30
ENDBRANCH  25  26
ENDBRANCH  24  25
ENDBRANCH   1  24
TORSDOF 17
ENDMDL
MODEL 2
REMARK VINA RESULT:     -10.2      4.559     12.483
REMARK SMILES CC(C)Cc1ccc(C[N@@H+]2CCO[C@@H](C(=O)NCCCNC(=O)c3ccc(-c4c5nc(c(-c6c(F)cc(S(=O)(=O)[O-])cc6F)c6ccc([nH]6)c(-c6c(F)cc(S(=O)(=O)[O-])cc6F)c6nc(c(-c7c(F)cc(S(=O)(=O)[O-])cc7F)c7ccc4[nH]7)C=C6)C=C5)cc3)C2)cc1
REMARK SMILES IDX 18 1 17 2 15 3 16 4 14 6 10 7 11 8 90 9 12 11 13 12 9 13
REMARK SMILES IDX 8 14 5 15 6 16 92 17 7 18 91 19 4 20 2 21 1 22 3 23 19 24
REMARK SMILES IDX 20 25 21 26 22 27 23 29 24 30 25 31 89 32 26 33 88 34 27 35
REMARK SMILES IDX 28 36 29 37 82 38 30 39 87 40 81 41 83 42 31 43 86 44 80 45
REMARK SMILES IDX 79 46 32 48 66 49 45 50 65 51 46 52 49 53 64 54 84 55 47 56
REMARK SMILES IDX 48 57 63 59 85 60 50 61 33 62 34 63 43 64 35 65 36 66 42 67
REMARK SMILES IDX 44 68 37 69 38 70 39 71 40 72 41 73 67 74 68 75 77 76 69 77
REMARK SMILES IDX 70 78 76 79 78 80 71 81 72 82 73 83 74 84 75 85 51 86 52 87
REMARK SMILES IDX 61 88 53 89 54 90 60 91 62 92 55 93 56 94 57 95 58 96 59 97
REMARK H PARENT 17 5 10 10 21 28 83 47 49 58
REMARK Flexibility Score: inf
ROOT
ATOM      1  C   UNL A   1      41.245  21.007  27.749  1.00  0.00     0.117 C 
ENDROOT
BRANCH   1   2
ATOM      2  N   UNL A   1      41.818  20.096  26.774  1.00  0.00    -0.354 N 
ATOM      3  C   UNL A   1      42.714  20.360  25.786  1.00  0.00     0.255 C 
ATOM      4  O   UNL A   1      42.972  19.463  24.979  1.00  0.00    -0.272 OA
ATOM      5  H   UNL A   1      41.517  19.161  26.838  1.00  0.00     0.163 HD
BRANCH   3   6
ATOM      6  C   UNL A   1      43.332  21.756  25.661  1.00  0.00     0.261 C 
ATOM      7  N   UNL A   1      45.164  23.184  26.691  1.00  0.00    -0.327 N 
ATOM      8  C   UNL A   1      45.509  23.543  25.310  1.00  0.00     0.291 C 
ATOM      9  C   UNL A   1      44.470  21.881  26.700  1.00  0.00     0.305 C 
ATOM     10  H   UNL A   1      46.040  23.072  27.202  1.00  0.00     0.348 HD
ATOM     11  C   UNL A   1      44.409  23.341  24.254  1.00  0.00     0.222 C 
ATOM     12  O   UNL A   1      43.763  22.076  24.336  1.00  0.00    -0.357 OA
BRANCH   7  13
ATOM     13  C   UNL A   1      44.548  24.245  27.507  1.00  0.00     0.299 C 
BRANCH  13  14
ATOM     14  C   UNL A   1      44.733  24.134  29.003  1.00  0.00     0.006 A 
ATOM     15  C   UNL A   1      44.550  24.338  31.797  1.00  0.00    -0.048 A 
ATOM     16  C   UNL A   1      45.404  25.185  31.079  1.00  0.00     0.004 A 
ATOM     17  C   UNL A   1      43.875  23.315  31.121  1.00  0.00     0.004 A 
ATOM     18  C   UNL A   1      45.517  25.063  29.695  1.00  0.00     0.010 A 
ATOM     19  C   UNL A   1      43.977  23.204  29.736  1.00  0.00     0.010 A 
BRANCH  15  20
ATOM     20  C   UNL A   1      44.375  24.517  33.283  1.00  0.00     0.038 C 
BRANCH  20  21
ATOM     21  C   UNL A   1      43.756  23.280  33.956  1.00  0.00    -0.013 C 
ATOM     22  C   UNL A   1      44.814  22.428  34.663  1.00  0.00     0.008 C 
ATOM     23  C   UNL A   1      42.680  23.710  34.951  1.00  0.00     0.008 C 
ENDBRANCH  20  21
ENDBRANCH  15  20
ENDBRANCH  13  14
ENDBRANCH   7  13
ENDBRANCH   3   6
ENDBRANCH   1   2
BRANCH   1  24
ATOM     24  C   UNL A   1      40.175  21.876  27.123  1.00  0.00     0.042 C 
BRANCH  24  25
ATOM     25  C   UNL A   1      40.395  23.352  27.389  1.00  0.00     0.118 C 
BRANCH  25  26
ATOM     26  N   UNL A   1      41.160  23.988  26.322  1.00  0.00    -0.352 N 
ATOM     27  C   UNL A   1      41.386  25.320  26.096  1.00  0.00     0.251 C 
ATOM     28  H   UNL A   1      41.573  23.373  25.673  1.00  0.00     0.163 HD
ATOM     29  O   UNL A   1      41.807  25.700  25.005  1.00  0.00    -0.269 OA
BRANCH  27  30
ATOM     30  C   UNL A   1      41.107  26.285  27.174  1.00  0.00     0.039 A 
ATOM     31  C   UNL A   1      40.035  26.063  28.038  1.00  0.00     0.014 A 
ATOM     32  C   UNL A   1      41.933  27.400  27.339  1.00  0.00     0.014 A 
ATOM     33  C   UNL A   1      39.833  26.931  29.109  1.00  0.00     0.010 A 
ATOM     34  C   UNL A   1      41.801  28.192  28.468  1.00  0.00     0.010 A 
ATOM     35  C   UNL A   1      40.737  27.979  29.353  1.00  0.00    -0.014 A 
BRANCH  35  36
ATOM     36  C   UNL A   1      40.577  28.886  30.514  1.00  0.00     0.031 A 
ATOM     37  C   UNL A   1      41.435  28.692  31.735  1.00  0.00     0.074 A 
ATOM     38  C   UNL A   1      39.619  29.832  30.491  1.00  0.00     0.049 A 
ATOM     39  N   UNL A   1      41.404  29.331  32.874  1.00  0.00    -0.248 NA
ATOM     40  C   UNL A   1      42.437  27.611  31.681  1.00  0.00     0.031 C 
ATOM     41  C   UNL A   1      38.689  30.070  29.384  1.00  0.00     0.029 A 
ATOM     42  N   UNL A   1      39.260  30.764  31.430  1.00  0.00    -0.354 N 
ATOM     43  C   UNL A   1      42.367  28.725  33.672  1.00  0.00     0.074 A 
ATOM     44  C   UNL A   1      42.917  27.623  32.915  1.00  0.00     0.031 C 
ATOM     45  C   UNL A   1      37.890  31.102  29.695  1.00  0.00     0.029 A 
ATOM     46  C   UNL A   1      38.219  31.570  31.038  1.00  0.00     0.049 A 
ATOM     47  H   UNL A   1      39.707  30.848  32.303  1.00  0.00     0.167 HD
ATOM     48  C   UNL A   1      42.776  29.074  34.915  1.00  0.00     0.037 A 
ATOM     49  C   UNL A   1      37.595  32.570  31.690  1.00  0.00     0.037 A 
ATOM     50  C   UNL A   1      42.238  30.189  35.647  1.00  0.00     0.049 A 
ATOM     51  C   UNL A   1      38.066  32.939  33.071  1.00  0.00     0.074 A 
ATOM     52  C   UNL A   1      42.624  30.671  36.885  1.00  0.00     0.029 A 
ATOM     53  N   UNL A   1      41.196  30.995  35.210  1.00  0.00    -0.354 N 
ATOM     54  N   UNL A   1      39.030  32.403  33.784  1.00  0.00    -0.248 NA
ATOM     55  C   UNL A   1      37.372  34.051  33.733  1.00  0.00     0.031 C 
ATOM     56  C   UNL A   1      41.781  31.736  37.220  1.00  0.00     0.029 A 
ATOM     57  C   UNL A   1      40.907  31.954  36.165  1.00  0.00     0.049 A 
ATOM     58  H   UNL A   1      40.731  30.898  34.348  1.00  0.00     0.167 HD
ATOM     59  C   UNL A   1      39.072  33.128  34.970  1.00  0.00     0.074 A 
ATOM     60  C   UNL A   1      38.051  34.150  34.869  1.00  0.00     0.031 C 
ATOM     61  C   UNL A   1      39.884  32.965  36.044  1.00  0.00     0.037 A 
BRANCH  48  62
ATOM     62  C   UNL A   1      43.857  28.243  35.552  1.00  0.00     0.058 A 
ATOM     63  C   UNL A   1      43.558  27.138  36.364  1.00  0.00     0.135 A 
ATOM     64  C   UNL A   1      45.211  28.542  35.329  1.00  0.00     0.135 A 
ATOM     65  F   UNL A   1      42.281  26.817  36.627  1.00  0.00    -0.206 F 
ATOM     66  C   UNL A   1      44.560  26.377  36.959  1.00  0.00     0.059 A 
ATOM     67  C   UNL A   1      46.230  27.775  35.887  1.00  0.00     0.059 A 
ATOM     68  F   UNL A   1      45.556  29.589  34.563  1.00  0.00    -0.206 F 
ATOM     69  C   UNL A   1      45.894  26.704  36.714  1.00  0.00     0.060 A 
BRANCH  69  70
ATOM     70  S   UNL A   1      47.181  25.703  37.489  1.00  0.00     0.124 S 
ATOM     71  O   UNL A   1      48.258  25.802  36.508  1.00  0.00    -0.237 OA
ATOM     72  O   UNL A   1      47.404  26.406  38.748  1.00  0.00    -0.237 OA
ATOM     73  O   UNL A   1      46.562  24.387  37.609  1.00  0.00    -0.744 OA
ENDBRANCH  69  70
ENDBRANCH  48  62
BRANCH  49  74
ATOM     74  C   UNL A   1      36.479  33.303  31.035  1.00  0.00     0.058 A 
ATOM     75  C   UNL A   1      36.722  34.186  29.973  1.00  0.00     0.135 A 
ATOM     76  C   UNL A   1      35.148  33.118  31.440  1.00  0.00     0.135 A 
ATOM     77  F   UNL A   1      37.977  34.399  29.551  1.00  0.00    -0.206 F 
ATOM     78  C   UNL A   1      35.688  34.873  29.346  1.00  0.00     0.059 A 
ATOM     79  C   UNL A   1      34.094  33.774  30.812  1.00  0.00     0.059 A 
ATOM     80  F   UNL A   1      34.860  32.270  32.440  1.00  0.00    -0.206 F 
ATOM     81  C   UNL A   1      34.376  34.657  29.771  1.00  0.00     0.060 A 
BRANCH  81  82
ATOM     82  S   UNL A   1      33.037  35.517  28.915  1.00  0.00     0.124 S 
ATOM     83  O   UNL A   1      32.256  36.033  30.035  1.00  0.00    -0.237 OA
ATOM     84  O   UNL A   1      33.764  36.511  28.132  1.00  0.00    -0.237 OA
ATOM     85  O   UNL A   1      32.402  34.459  28.136  1.00  0.00    -0.744 OA
ENDBRANCH  81  82
ENDBRANCH  49  74
BRANCH  61  86
ATOM     86  C   UNL A   1      39.719  33.927  37.187  1.00  0.00     0.058 A 
ATOM     87  C   UNL A   1      38.925  33.619  38.303  1.00  0.00     0.135 A 
ATOM     88  C   UNL A   1      40.410  35.150  37.191  1.00  0.00     0.135 A 
ATOM     89  F   UNL A   1      38.239  32.466  38.347  1.00  0.00    -0.206 F 
ATOM     90  C   UNL A   1      38.802  34.502  39.371  1.00  0.00     0.059 A 
ATOM     91  C   UNL A   1      40.326  36.033  38.261  1.00  0.00     0.059 A 
ATOM     92  F   UNL A   1      41.193  35.489  36.153  1.00  0.00    -0.206 F 
ATOM     93  C   UNL A   1      39.509  35.705  39.342  1.00  0.00     0.060 A 
BRANCH  93  94
ATOM     94  S   UNL A   1      39.367  36.824  40.751  1.00  0.00     0.124 S 
ATOM     95  O   UNL A   1      38.630  37.940  40.167  1.00  0.00    -0.237 OA
ATOM     96  O   UNL A   1      38.631  36.015  41.718  1.00  0.00    -0.237 OA
ATOM     97  O   UNL A   1      40.755  37.104  41.104  1.00  0.00    -0.744 OA
ENDBRANCH  93  94
ENDBRANCH  61  86
ENDBRANCH  35  36
ENDBRANCH  27  30
ENDBRANCH  25  26
ENDBRANCH  24  25
ENDBRANCH   1  24
TORSDOF 17
ENDMDL
MODEL 3
REMARK VINA RESULT:     -10.0      1.308      8.535
REMARK SMILES CC(C)Cc1ccc(C[N@@H+]2CCO[C@@H](C(=O)NCCCNC(=O)c3ccc(-c4c5nc(c(-c6c(F)cc(S(=O)(=O)[O-])cc6F)c6ccc([nH]6)c(-c6c(F)cc(S(=O)(=O)[O-])cc6F)c6nc(c(-c7c(F)cc(S(=O)(=O)[O-])cc7F)c7ccc4[nH]7)C=C6)C=C5)cc3)C2)cc1
REMARK SMILES IDX 18 1 17 2 15 3 16 4 14 6 10 7 11 8 90 9 12 11 13 12 9 13
REMARK SMILES IDX 8 14 5 15 6 16 92 17 7 18 91 19 4 20 2 21 1 22 3 23 19 24
REMARK SMILES IDX 20 25 21 26 22 27 23 29 24 30 25 31 89 32 26 33 88 34 27 35
REMARK SMILES IDX 28 36 29 37 82 38 30 39 87 40 81 41 83 42 31 43 86 44 80 45
REMARK SMILES IDX 79 46 32 48 66 49 45 50 65 51 46 52 49 53 64 54 84 55 47 56
REMARK SMILES IDX 48 57 63 59 85 60 50 61 33 62 34 63 43 64 35 65 36 66 42 67
REMARK SMILES IDX 44 68 37 69 38 70 39 71 40 72 41 73 67 74 68 75 77 76 69 77
REMARK SMILES IDX 70 78 76 79 78 80 71 81 72 82 73 83 74 84 75 85 51 86 52 87
REMARK SMILES IDX 61 88 53 89 54 90 60 91 62 92 55 93 56 94 57 95 58 96 59 97
REMARK H PARENT 17 5 10 10 21 28 83 47 49 58
REMARK Flexibility Score: inf
ROOT
ATOM      1  C   UNL A   1      33.105  33.900  28.384  1.00  0.00     0.117 C 
ENDROOT
BRANCH   1   2
ATOM      2  N   UNL A   1      33.101  35.233  28.962  1.00  0.00    -0.354 N 
ATOM      3  C   UNL A   1      33.436  35.614  30.224  1.00  0.00     0.255 C 
ATOM      4  O   UNL A   1      33.235  36.787  30.549  1.00  0.00    -0.272 OA
ATOM      5  H   UNL A   1      32.818  35.957  28.359  1.00  0.00     0.163 HD
BRANCH   3   6
ATOM      6  C   UNL A   1      33.993  34.588  31.215  1.00  0.00     0.261 C 
ATOM      7  N   UNL A   1      36.048  34.167  32.648  1.00  0.00    -0.327 N 
ATOM      8  C   UNL A   1      35.099  33.816  33.713  1.00  0.00     0.291 C 
ATOM      9  C   UNL A   1      35.388  35.064  31.679  1.00  0.00     0.305 C 
ATOM     10  H   UNL A   1      36.811  34.687  33.082  1.00  0.00     0.348 HD
ATOM     11  C   UNL A   1      33.681  33.424  33.264  1.00  0.00     0.222 C 
ATOM     12  O   UNL A   1      33.115  34.315  32.310  1.00  0.00    -0.357 OA
BRANCH   7  13
ATOM     13  C   UNL A   1      36.820  33.053  32.068  1.00  0.00     0.299 C 
BRANCH  13  14
ATOM     14  C   UNL A   1      37.996  33.433  31.199  1.00  0.00     0.006 A 
ATOM     15  C   UNL A   1      39.879  34.736  29.575  1.00  0.00    -0.048 A 
ATOM     16  C   UNL A   1      38.829  34.010  28.999  1.00  0.00     0.004 A 
ATOM     17  C   UNL A   1      40.046  34.712  30.964  1.00  0.00     0.004 A 
ATOM     18  C   UNL A   1      37.912  33.338  29.805  1.00  0.00     0.010 A 
ATOM     19  C   UNL A   1      39.119  34.053  31.770  1.00  0.00     0.010 A 
BRANCH  15  20
ATOM     20  C   UNL A   1      40.829  35.520  28.705  1.00  0.00     0.038 C 
BRANCH  20  21
ATOM     21  C   UNL A   1      42.302  35.265  29.064  1.00  0.00    -0.013 C 
ATOM     22  C   UNL A   1      43.044  34.536  27.940  1.00  0.00     0.008 C 
ATOM     23  C   UNL A   1      42.999  36.587  29.379  1.00  0.00     0.008 C 
ENDBRANCH  20  21
ENDBRANCH  15  20
ENDBRANCH  13  14
ENDBRANCH   7  13
ENDBRANCH   3   6
ENDBRANCH   1   2
BRANCH   1  24
ATOM     24  C   UNL A   1      34.510  33.461  28.034  1.00  0.00     0.042 C 
BRANCH  24  25
ATOM     25  C   UNL A   1      34.998  32.321  28.907  1.00  0.00     0.118 C 
BRANCH  25  26
ATOM     26  N   UNL A   1      34.421  31.043  28.502  1.00  0.00    -0.352 N 
ATOM     27  C   UNL A   1      35.055  29.894  28.110  1.00  0.00     0.251 C 
ATOM     28  H   UNL A   1      33.437  31.001  28.513  1.00  0.00     0.163 HD
ATOM     29  O   UNL A   1      34.428  29.007  27.533  1.00  0.00    -0.269 OA
BRANCH  27  30
ATOM     30  C   UNL A   1      36.496  29.744  28.381  1.00  0.00     0.039 A 
ATOM     31  C   UNL A   1      36.919  29.303  29.635  1.00  0.00     0.014 A 
ATOM     32  C   UNL A   1      37.424  30.019  27.373  1.00  0.00     0.014 A 
ATOM     33  C   UNL A   1      38.277  29.077  29.854  1.00  0.00     0.010 A 
ATOM     34  C   UNL A   1      38.756  29.683  27.556  1.00  0.00     0.010 A 
ATOM     35  C   UNL A   1      39.200  29.229  28.805  1.00  0.00    -0.014 A 
BRANCH  35  36
ATOM     36  C   UNL A   1      40.642  28.946  28.994  1.00  0.00     0.031 A 
ATOM     37  C   UNL A   1      41.190  27.595  28.623  1.00  0.00     0.074 A 
ATOM     38  C   UNL A   1      41.433  29.878  29.559  1.00  0.00     0.049 A 
ATOM     39  N   UNL A   1      42.401  27.128  28.774  1.00  0.00    -0.248 NA
ATOM     40  C   UNL A   1      40.243  26.627  28.039  1.00  0.00     0.031 C 
ATOM     41  C   UNL A   1      40.995  31.200  30.014  1.00  0.00     0.029 A 
ATOM     42  N   UNL A   1      42.771  29.852  29.858  1.00  0.00    -0.354 N 
ATOM     43  C   UNL A   1      42.358  25.816  28.318  1.00  0.00     0.074 A 
ATOM     44  C   UNL A   1      40.988  25.536  27.950  1.00  0.00     0.031 C 
ATOM     45  C   UNL A   1      42.050  31.869  30.502  1.00  0.00     0.029 A 
ATOM     46  C   UNL A   1      43.229  31.011  30.438  1.00  0.00     0.049 A 
ATOM     47  H   UNL A   1      43.349  29.077  29.674  1.00  0.00     0.167 HD
ATOM     48  C   UNL A   1      43.376  24.932  28.189  1.00  0.00     0.037 A 
ATOM     49  C   UNL A   1      44.459  31.341  30.873  1.00  0.00     0.037 A 
ATOM     50  C   UNL A   1      44.740  25.231  28.534  1.00  0.00     0.049 A 
ATOM     51  C   UNL A   1      45.575  30.342  30.722  1.00  0.00     0.074 A 
ATOM     52  C   UNL A   1      45.859  24.433  28.385  1.00  0.00     0.029 A 
ATOM     53  N   UNL A   1      45.169  26.423  29.102  1.00  0.00    -0.354 N 
ATOM     54  N   UNL A   1      45.533  29.130  30.219  1.00  0.00    -0.248 NA
ATOM     55  C   UNL A   1      46.903  30.756  31.190  1.00  0.00     0.031 C 
ATOM     56  C   UNL A   1      46.958  25.121  28.909  1.00  0.00     0.029 A 
ATOM     57  C   UNL A   1      46.533  26.371  29.334  1.00  0.00     0.049 A 
ATOM     58  H   UNL A   1      44.590  27.191  29.310  1.00  0.00     0.167 HD
ATOM     59  C   UNL A   1      46.834  28.645  30.289  1.00  0.00     0.074 A 
ATOM     60  C   UNL A   1      47.641  29.701  30.866  1.00  0.00     0.031 C 
ATOM     61  C   UNL A   1      47.319  27.436  29.909  1.00  0.00     0.037 A 
BRANCH  48  62
ATOM     62  C   UNL A   1      43.049  23.565  27.651  1.00  0.00     0.058 A 
ATOM     63  C   UNL A   1      42.632  22.520  28.491  1.00  0.00     0.135 A 
ATOM     64  C   UNL A   1      43.131  23.302  26.274  1.00  0.00     0.135 A 
ATOM     65  F   UNL A   1      42.553  22.708  29.818  1.00  0.00    -0.206 F 
ATOM     66  C   UNL A   1      42.339  21.255  27.991  1.00  0.00     0.059 A 
ATOM     67  C   UNL A   1      42.811  22.054  25.747  1.00  0.00     0.059 A 
ATOM     68  F   UNL A   1      43.527  24.263  25.424  1.00  0.00    -0.206 F 
ATOM     69  C   UNL A   1      42.431  21.032  26.616  1.00  0.00     0.060 A 
BRANCH  69  70
ATOM     70  S   UNL A   1      42.042  19.387  25.984  1.00  0.00     0.124 S 
ATOM     71  O   UNL A   1      42.941  19.295  24.838  1.00  0.00    -0.237 OA
ATOM     72  O   UNL A   1      42.373  18.531  27.119  1.00  0.00    -0.237 OA
ATOM     73  O   UNL A   1      40.621  19.474  25.662  1.00  0.00    -0.744 OA
ENDBRANCH  69  70
ENDBRANCH  48  62
BRANCH  49  74
ATOM     74  C   UNL A   1      44.702  32.682  31.470  1.00  0.00     0.058 A 
ATOM     75  C   UNL A   1      45.321  33.700  30.728  1.00  0.00     0.135 A 
ATOM     76  C   UNL A   1      44.301  32.981  32.781  1.00  0.00     0.135 A 
ATOM     77  F   UNL A   1      45.725  33.462  29.471  1.00  0.00    -0.206 F 
ATOM     78  C   UNL A   1      45.548  34.960  31.269  1.00  0.00     0.059 A 
ATOM     79  C   UNL A   1      44.493  34.243  33.335  1.00  0.00     0.059 A 
ATOM     80  F   UNL A   1      43.688  32.049  33.526  1.00  0.00    -0.206 F 
ATOM     81  C   UNL A   1      45.127  35.223  32.573  1.00  0.00     0.060 A 
BRANCH  81  82
ATOM     82  S   UNL A   1      45.382  36.880  33.247  1.00  0.00     0.124 S 
ATOM     83  O   UNL A   1      46.165  36.593  34.444  1.00  0.00    -0.237 OA
ATOM     84  O   UNL A   1      46.095  37.545  32.161  1.00  0.00    -0.237 OA
ATOM     85  O   UNL A   1      44.024  37.360  33.481  1.00  0.00    -0.744 OA
ENDBRANCH  81  82
ENDBRANCH  49  74
BRANCH  61  86
ATOM     86  C   UNL A   1      48.793  27.198  30.081  1.00  0.00     0.058 A 
ATOM     87  C   UNL A   1      49.729  27.661  29.144  1.00  0.00     0.135 A 
ATOM     88  C   UNL A   1      49.278  26.547  31.227  1.00  0.00     0.135 A 
ATOM     89  F   UNL A   1      49.319  28.284  28.028  1.00  0.00    -0.206 F 
ATOM     90  C   UNL A   1      51.095  27.464  29.325  1.00  0.00     0.059 A 
ATOM     91  C   UNL A   1      50.639  26.368  31.444  1.00  0.00     0.059 A 
ATOM     92  F   UNL A   1      48.425  26.095  32.161  1.00  0.00    -0.206 F 
ATOM     93  C   UNL A   1      51.540  26.819  30.481  1.00  0.00     0.060 A 
BRANCH  93  94
ATOM     94  S   UNL A   1      53.316  26.603  30.718  1.00  0.00     0.124 S 
ATOM     95  O   UNL A   1      53.754  26.265  29.368  1.00  0.00    -0.237 OA
ATOM     96  O   UNL A   1      53.727  27.915  31.209  1.00  0.00    -0.237 OA
ATOM     97  O   UNL A   1      53.399  25.521  31.694  1.00  0.00    -0.744 OA
ENDBRANCH  93  94
ENDBRANCH  61  86
ENDBRANCH  35  36
ENDBRANCH  27  30
ENDBRANCH  25  26
ENDBRANCH  24  25
ENDBRANCH   1  24
TORSDOF 17
ENDMDL
