MODEL 1
REMARK VINA RESULT:     -11.0      0.000      0.000
REMARK SMILES Cn1ccc(S(=O)(=O)N2CCO[C@H](CC(=O)NCCCNC(=O)c3ccc(-c4c5nc(c(-c6c(F)cc(S(=O)(=O)[O-])cc6F)c6ccc([nH]6)c(-c6c(F)cc(S(=O)(=O)[O-])cc6F)c6nc(c(-c7c(F)cc(S(=O)(=O)[O-])cc7F)c7ccc4[nH]7)C=C6)C=C5)cc3)C2)c1
REMARK SMILES IDX 19 1 18 2 17 3 15 4 16 5 14 7 13 8 9 9 10 10 90 11 11 12
REMARK SMILES IDX 12 13 6 14 7 15 8 16 5 17 1 18 2 19 3 20 91 21 4 22 20 23
REMARK SMILES IDX 21 24 22 25 23 27 24 28 25 29 89 30 26 31 88 32 27 33 28 34
REMARK SMILES IDX 29 35 82 36 30 37 87 38 81 39 83 40 31 41 86 42 80 43 79 44
REMARK SMILES IDX 32 46 66 47 45 48 65 49 46 50 49 51 64 52 84 53 47 54 48 55
REMARK SMILES IDX 63 57 85 58 50 59 33 60 34 61 43 62 35 63 36 64 42 65 44 66
REMARK SMILES IDX 37 67 38 68 39 69 40 70 41 71 67 72 68 73 77 74 69 75 70 76
REMARK SMILES IDX 76 77 78 78 71 79 72 80 73 81 74 82 75 83 51 84 52 85 61 86
REMARK SMILES IDX 53 87 54 88 60 89 62 90 55 91 56 92 57 93 58 94 59 95
REMARK H PARENT 17 6 21 26 83 45 49 56
REMARK Flexibility Score: inf
ROOT
ATOM      1  C   UNL A   1      33.949  28.282  25.602  1.00  0.00     0.042 C 
ENDROOT
BRANCH   1   2
ATOM      2  C   UNL A   1      32.858  27.604  24.781  1.00  0.00     0.117 C 
BRANCH   2   3
ATOM      3  N   UNL A   1      31.713  27.220  25.590  1.00  0.00    -0.356 N 
ATOM      4  C   UNL A   1      31.271  25.980  25.930  1.00  0.00     0.222 C 
ATOM      5  O   UNL A   1      30.234  25.877  26.584  1.00  0.00    -0.275 OA
ATOM      6  H   UNL A   1      31.180  27.968  25.945  1.00  0.00     0.163 HD
BRANCH   4   7
ATOM      7  C   UNL A   1      32.041  24.765  25.488  1.00  0.00     0.133 C 
BRANCH   7   8
ATOM      8  C   UNL A   1      31.086  23.665  25.011  1.00  0.00     0.142 C 
ATOM      9  N   UNL A   1      32.733  21.877  24.852  1.00  0.00    -0.193 NA
ATOM     10  C   UNL A   1      32.561  21.790  23.391  1.00  0.00     0.131 C 
ATOM     11  C   UNL A   1      31.495  22.272  25.545  1.00  0.00     0.135 C 
ATOM     12  C   UNL A   1      32.147  23.180  22.895  1.00  0.00     0.177 C 
ATOM     13  O   UNL A   1      30.973  23.669  23.566  1.00  0.00    -0.375 OA
BRANCH   9  14
ATOM     14  S   UNL A   1      33.908  20.973  25.613  1.00  0.00     0.244 S 
ATOM     15  O   UNL A   1      34.229  19.829  24.791  1.00  0.00    -0.207 OA
ATOM     16  O   UNL A   1      33.610  20.867  27.023  1.00  0.00    -0.207 OA
BRANCH  14  17
ATOM     17  C   UNL A   1      35.344  21.947  25.578  1.00  0.00     0.100 A 
ATOM     18  C   UNL A   1      38.876  22.584  26.037  1.00  0.00     0.149 C 
ATOM     19  N   UNL A   1      37.457  22.601  25.764  1.00  0.00    -0.356 N 
ATOM     20  C   UNL A   1      36.731  23.707  25.402  1.00  0.00     0.086 A 
ATOM     21  C   UNL A   1      36.630  21.518  25.851  1.00  0.00     0.106 A 
ATOM     22  C   UNL A   1      35.409  23.328  25.277  1.00  0.00     0.041 A 
ENDBRANCH  14  17
ENDBRANCH   9  14
ENDBRANCH   7   8
ENDBRANCH   4   7
ENDBRANCH   2   3
ENDBRANCH   1   2
BRANCH   1  23
ATOM     23  C   UNL A   1      33.610  28.461  27.079  1.00  0.00     0.118 C 
BRANCH  23  24
ATOM     24  N   UNL A   1      33.557  29.860  27.480  1.00  0.00    -0.352 N 
ATOM     25  C   UNL A   1      34.488  30.630  28.132  1.00  0.00     0.251 C 
ATOM     26  H   UNL A   1      32.722  30.327  27.246  1.00  0.00     0.163 HD
ATOM     27  O   UNL A   1      34.171  31.748  28.530  1.00  0.00    -0.269 OA
BRANCH  25  28
ATOM     28  C   UNL A   1      35.852  30.114  28.383  1.00  0.00     0.039 A 
ATOM     29  C   UNL A   1      36.772  30.110  27.331  1.00  0.00     0.014 A 
ATOM     30  C   UNL A   1      36.224  29.622  29.638  1.00  0.00     0.014 A 
ATOM     31  C   UNL A   1      38.085  29.690  27.557  1.00  0.00     0.010 A 
ATOM     32  C   UNL A   1      37.548  29.260  29.877  1.00  0.00     0.010 A 
ATOM     33  C   UNL A   1      38.495  29.302  28.842  1.00  0.00    -0.014 A 
BRANCH  33  34
ATOM     34  C   UNL A   1      39.916  28.977  29.133  1.00  0.00     0.031 A 
ATOM     35  C   UNL A   1      40.839  30.021  29.696  1.00  0.00     0.074 A 
ATOM     36  C   UNL A   1      40.391  27.757  28.812  1.00  0.00     0.049 A 
ATOM     37  N   UNL A   1      42.126  29.948  29.920  1.00  0.00    -0.248 NA
ATOM     38  C   UNL A   1      40.244  31.324  30.031  1.00  0.00     0.031 C 
ATOM     39  C   UNL A   1      39.606  26.672  28.214  1.00  0.00     0.029 A 
ATOM     40  N   UNL A   1      41.653  27.227  28.924  1.00  0.00    -0.354 N 
ATOM     41  C   UNL A   1      42.499  31.195  30.406  1.00  0.00     0.074 A 
ATOM     42  C   UNL A   1      41.308  32.018  30.412  1.00  0.00     0.031 C 
ATOM     43  C   UNL A   1      40.402  25.608  28.021  1.00  0.00     0.029 A 
ATOM     44  C   UNL A   1      41.758  25.942  28.445  1.00  0.00     0.049 A 
ATOM     45  H   UNL A   1      42.411  27.722  29.312  1.00  0.00     0.167 HD
ATOM     46  C   UNL A   1      43.719  31.610  30.821  1.00  0.00     0.037 A 
ATOM     47  C   UNL A   1      42.827  25.131  28.342  1.00  0.00     0.037 A 
ATOM     48  C   UNL A   1      44.896  30.780  30.843  1.00  0.00     0.049 A 
ATOM     49  C   UNL A   1      44.169  25.615  28.817  1.00  0.00     0.074 A 
ATOM     50  C   UNL A   1      46.159  31.091  31.317  1.00  0.00     0.029 A 
ATOM     51  N   UNL A   1      44.956  29.478  30.372  1.00  0.00    -0.354 N 
ATOM     52  N   UNL A   1      44.489  26.778  29.330  1.00  0.00    -0.248 NA
ATOM     53  C   UNL A   1      45.294  24.677  28.699  1.00  0.00     0.031 C 
ATOM     54  C   UNL A   1      46.992  29.987  31.101  1.00  0.00     0.029 A 
ATOM     55  C   UNL A   1      46.239  28.977  30.525  1.00  0.00     0.049 A 
ATOM     56  H   UNL A   1      44.199  28.981  29.986  1.00  0.00     0.167 HD
ATOM     57  C   UNL A   1      45.848  26.707  29.609  1.00  0.00     0.074 A 
ATOM     58  C   UNL A   1      46.287  25.381  29.224  1.00  0.00     0.031 C 
ATOM     59  C   UNL A   1      46.660  27.655  30.137  1.00  0.00     0.037 A 
BRANCH  46  60
ATOM     60  C   UNL A   1      43.849  33.028  31.300  1.00  0.00     0.058 A 
ATOM     61  C   UNL A   1      44.165  34.074  30.419  1.00  0.00     0.135 A 
ATOM     62  C   UNL A   1      43.599  33.354  32.643  1.00  0.00     0.135 A 
ATOM     63  F   UNL A   1      44.427  33.814  29.129  1.00  0.00    -0.206 F 
ATOM     64  C   UNL A   1      44.243  35.393  30.855  1.00  0.00     0.059 A 
ATOM     65  C   UNL A   1      43.651  34.669  33.097  1.00  0.00     0.059 A 
ATOM     66  F   UNL A   1      43.295  32.391  33.527  1.00  0.00    -0.206 F 
ATOM     67  C   UNL A   1      43.984  35.680  32.197  1.00  0.00     0.060 A 
BRANCH  67  68
ATOM     68  S   UNL A   1      44.068  37.399  32.742  1.00  0.00     0.124 S 
ATOM     69  O   UNL A   1      43.819  38.113  31.493  1.00  0.00    -0.237 OA
ATOM     70  O   UNL A   1      42.999  37.467  33.735  1.00  0.00    -0.237 OA
ATOM     71  O   UNL A   1      45.421  37.519  33.275  1.00  0.00    -0.744 OA
ENDBRANCH  67  68
ENDBRANCH  46  60
BRANCH  47  72
ATOM     72  C   UNL A   1      42.673  23.770  27.765  1.00  0.00     0.058 A 
ATOM     73  C   UNL A   1      42.511  22.650  28.594  1.00  0.00     0.135 A 
ATOM     74  C   UNL A   1      42.682  23.564  26.377  1.00  0.00     0.135 A 
ATOM     75  F   UNL A   1      42.504  22.799  29.927  1.00  0.00    -0.206 F 
ATOM     76  C   UNL A   1      42.381  21.370  28.068  1.00  0.00     0.059 A 
ATOM     77  C   UNL A   1      42.532  22.295  25.828  1.00  0.00     0.059 A 
ATOM     78  F   UNL A   1      42.816  24.606  25.542  1.00  0.00    -0.206 F 
ATOM     79  C   UNL A   1      42.393  21.202  26.683  1.00  0.00     0.060 A 
BRANCH  79  80
ATOM     80  S   UNL A   1      42.177  19.542  26.005  1.00  0.00     0.124 S 
ATOM     81  O   UNL A   1      43.096  19.567  24.872  1.00  0.00    -0.237 OA
ATOM     82  O   UNL A   1      42.567  18.694  27.126  1.00  0.00    -0.237 OA
ATOM     83  O   UNL A   1      40.757  19.504  25.665  1.00  0.00    -0.744 OA
ENDBRANCH  79  80
ENDBRANCH  47  72
BRANCH  59  84
ATOM     84  C   UNL A   1      48.102  27.288  30.343  1.00  0.00     0.058 A 
ATOM     85  C   UNL A   1      49.066  27.530  29.353  1.00  0.00     0.135 A 
ATOM     86  C   UNL A   1      48.529  26.726  31.556  1.00  0.00     0.135 A 
ATOM     87  F   UNL A   1      48.706  28.058  28.173  1.00  0.00    -0.206 F 
ATOM     88  C   UNL A   1      50.405  27.210  29.553  1.00  0.00     0.059 A 
ATOM     89  C   UNL A   1      49.865  26.418  31.786  1.00  0.00     0.059 A 
ATOM     90  F   UNL A   1      47.645  26.483  32.537  1.00  0.00    -0.206 F 
ATOM     91  C   UNL A   1      50.796  26.652  30.772  1.00  0.00     0.060 A 
BRANCH  91  92
ATOM     92  S   UNL A   1      52.540  26.268  31.033  1.00  0.00     0.124 S 
ATOM     93  O   UNL A   1      52.456  25.005  31.758  1.00  0.00    -0.237 OA
ATOM     94  O   UNL A   1      53.053  26.183  29.669  1.00  0.00    -0.237 OA
ATOM     95  O   UNL A   1      53.025  27.408  31.806  1.00  0.00    -0.744 OA
ENDBRANCH  91  92
ENDBRANCH  59  84
ENDBRANCH  33  34
ENDBRANCH  25  28
ENDBRANCH  23  24
ENDBRANCH   1  23
TORSDOF 16
ENDMDL
MODEL 2
REMARK VINA RESULT:     -10.9      1.377      2.477
REMARK SMILES Cn1ccc(S(=O)(=O)N2CCO[C@H](CC(=O)NCCCNC(=O)c3ccc(-c4c5nc(c(-c6c(F)cc(S(=O)(=O)[O-])cc6F)c6ccc([nH]6)c(-c6c(F)cc(S(=O)(=O)[O-])cc6F)c6nc(c(-c7c(F)cc(S(=O)(=O)[O-])cc7F)c7ccc4[nH]7)C=C6)C=C5)cc3)C2)c1
REMARK SMILES IDX 19 1 18 2 17 3 15 4 16 5 14 7 13 8 9 9 10 10 90 11 11 12
REMARK SMILES IDX 12 13 6 14 7 15 8 16 5 17 1 18 2 19 3 20 91 21 4 22 20 23
REMARK SMILES IDX 21 24 22 25 23 27 24 28 25 29 89 30 26 31 88 32 27 33 28 34
REMARK SMILES IDX 29 35 82 36 30 37 87 38 81 39 83 40 31 41 86 42 80 43 79 44
REMARK SMILES IDX 32 46 66 47 45 48 65 49 46 50 49 51 64 52 84 53 47 54 48 55
REMARK SMILES IDX 63 57 85 58 50 59 33 60 34 61 43 62 35 63 36 64 42 65 44 66
REMARK SMILES IDX 37 67 38 68 39 69 40 70 41 71 67 72 68 73 77 74 69 75 70 76
REMARK SMILES IDX 76 77 78 78 71 79 72 80 73 81 74 82 75 83 51 84 52 85 61 86
REMARK SMILES IDX 53 87 54 88 60 89 62 90 55 91 56 92 57 93 58 94 59 95
REMARK H PARENT 17 6 21 26 83 45 49 56
REMARK Flexibility Score: inf
ROOT
ATOM      1  C   UNL A   1      32.057  27.733  27.040  1.00  0.00     0.042 C 
ENDROOT
BRANCH   1   2
ATOM      2  C   UNL A   1      31.988  26.550  26.081  1.00  0.00     0.117 C 
BRANCH   2   3
ATOM      3  N   UNL A   1      32.413  26.900  24.736  1.00  0.00    -0.356 N 
ATOM      4  C   UNL A   1      33.365  26.326  23.953  1.00  0.00     0.222 C 
ATOM      5  O   UNL A   1      33.610  26.822  22.854  1.00  0.00    -0.275 OA
ATOM      6  H   UNL A   1      31.943  27.665  24.333  1.00  0.00     0.163 HD
BRANCH   4   7
ATOM      7  C   UNL A   1      34.110  25.114  24.448  1.00  0.00     0.133 C 
BRANCH   7   8
ATOM      8  C   UNL A   1      34.284  24.091  23.321  1.00  0.00     0.142 C 
ATOM      9  N   UNL A   1      33.899  22.093  24.659  1.00  0.00    -0.193 NA
ATOM     10  C   UNL A   1      35.282  21.631  24.446  1.00  0.00     0.131 C 
ATOM     11  C   UNL A   1      33.374  22.855  23.515  1.00  0.00     0.135 C 
ATOM     12  C   UNL A   1      36.155  22.874  24.248  1.00  0.00     0.177 C 
ATOM     13  O   UNL A   1      35.676  23.710  23.180  1.00  0.00    -0.375 OA
BRANCH   9  14
ATOM     14  S   UNL A   1      32.888  21.263  25.692  1.00  0.00     0.244 S 
ATOM     15  O   UNL A   1      31.558  21.819  25.597  1.00  0.00    -0.207 OA
ATOM     16  O   UNL A   1      33.555  21.033  26.953  1.00  0.00    -0.207 OA
BRANCH  14  17
ATOM     17  C   UNL A   1      32.738  19.670  25.021  1.00  0.00     0.100 A 
ATOM     18  C   UNL A   1      32.821  16.054  25.128  1.00  0.00     0.149 C 
ATOM     19  N   UNL A   1      32.714  17.460  24.811  1.00  0.00    -0.356 N 
ATOM     20  C   UNL A   1      32.494  17.977  23.561  1.00  0.00     0.086 A 
ATOM     21  C   UNL A   1      32.840  18.477  25.714  1.00  0.00     0.106 A 
ATOM     22  C   UNL A   1      32.502  19.355  23.661  1.00  0.00     0.041 A 
ENDBRANCH  14  17
ENDBRANCH   9  14
ENDBRANCH   7   8
ENDBRANCH   4   7
ENDBRANCH   2   3
ENDBRANCH   1   2
BRANCH   1  23
ATOM     23  C   UNL A   1      33.440  28.367  27.163  1.00  0.00     0.118 C 
BRANCH  23  24
ATOM     24  N   UNL A   1      33.384  29.786  27.486  1.00  0.00    -0.352 N 
ATOM     25  C   UNL A   1      34.322  30.597  28.075  1.00  0.00     0.251 C 
ATOM     26  H   UNL A   1      32.541  30.234  27.242  1.00  0.00     0.163 HD
ATOM     27  O   UNL A   1      34.004  31.734  28.415  1.00  0.00    -0.269 OA
BRANCH  25  28
ATOM     28  C   UNL A   1      35.694  30.106  28.327  1.00  0.00     0.039 A 
ATOM     29  C   UNL A   1      36.624  30.145  27.284  1.00  0.00     0.014 A 
ATOM     30  C   UNL A   1      36.065  29.593  29.574  1.00  0.00     0.014 A 
ATOM     31  C   UNL A   1      37.943  29.748  27.513  1.00  0.00     0.010 A 
ATOM     32  C   UNL A   1      37.395  29.254  29.817  1.00  0.00     0.010 A 
ATOM     33  C   UNL A   1      38.350  29.340  28.793  1.00  0.00    -0.014 A 
BRANCH  33  34
ATOM     34  C   UNL A   1      39.774  29.039  29.090  1.00  0.00     0.031 A 
ATOM     35  C   UNL A   1      40.680  30.102  29.647  1.00  0.00     0.074 A 
ATOM     36  C   UNL A   1      40.270  27.824  28.779  1.00  0.00     0.049 A 
ATOM     37  N   UNL A   1      41.968  30.050  29.875  1.00  0.00    -0.248 NA
ATOM     38  C   UNL A   1      40.064  31.398  29.970  1.00  0.00     0.031 C 
ATOM     39  C   UNL A   1      39.503  26.723  28.188  1.00  0.00     0.029 A 
ATOM     40  N   UNL A   1      41.539  27.315  28.899  1.00  0.00    -0.354 N 
ATOM     41  C   UNL A   1      42.320  31.306  30.352  1.00  0.00     0.074 A 
ATOM     42  C   UNL A   1      41.117  32.111  30.349  1.00  0.00     0.031 C 
ATOM     43  C   UNL A   1      40.315  25.670  28.004  1.00  0.00     0.029 A 
ATOM     44  C   UNL A   1      41.665  26.028  28.430  1.00  0.00     0.049 A 
ATOM     45  H   UNL A   1      42.288  27.824  29.284  1.00  0.00     0.167 HD
ATOM     46  C   UNL A   1      43.533  31.743  30.767  1.00  0.00     0.037 A 
ATOM     47  C   UNL A   1      42.746  25.232  28.335  1.00  0.00     0.037 A 
ATOM     48  C   UNL A   1      44.722  30.931  30.799  1.00  0.00     0.049 A 
ATOM     49  C   UNL A   1      44.080  25.740  28.810  1.00  0.00     0.074 A 
ATOM     50  C   UNL A   1      45.979  31.265  31.273  1.00  0.00     0.029 A 
ATOM     51  N   UNL A   1      44.803  29.627  30.338  1.00  0.00    -0.354 N 
ATOM     52  N   UNL A   1      44.380  26.913  29.315  1.00  0.00    -0.248 NA
ATOM     53  C   UNL A   1      45.219  24.820  28.703  1.00  0.00     0.031 C 
ATOM     54  C   UNL A   1      46.829  30.173  31.069  1.00  0.00     0.029 A 
ATOM     55  C   UNL A   1      46.093  29.147  30.498  1.00  0.00     0.049 A 
ATOM     56  H   UNL A   1      44.055  29.116  29.954  1.00  0.00     0.167 HD
ATOM     57  C   UNL A   1      45.739  26.864  29.598  1.00  0.00     0.074 A 
ATOM     58  C   UNL A   1      46.200  25.543  29.225  1.00  0.00     0.031 C 
ATOM     59  C   UNL A   1      46.535  27.829  30.121  1.00  0.00     0.037 A 
BRANCH  46  60
ATOM     60  C   UNL A   1      43.640  33.167  31.236  1.00  0.00     0.058 A 
ATOM     61  C   UNL A   1      43.401  33.519  32.573  1.00  0.00     0.135 A 
ATOM     62  C   UNL A   1      44.042  34.182  30.351  1.00  0.00     0.135 A 
ATOM     63  F   UNL A   1      43.001  32.589  33.454  1.00  0.00    -0.206 F 
ATOM     64  C   UNL A   1      43.542  34.830  33.016  1.00  0.00     0.059 A 
ATOM     65  C   UNL A   1      44.210  35.496  30.777  1.00  0.00     0.059 A 
ATOM     66  F   UNL A   1      44.281  33.898  29.061  1.00  0.00    -0.206 F 
ATOM     67  C   UNL A   1      43.947  35.812  32.109  1.00  0.00     0.060 A 
BRANCH  67  68
ATOM     68  S   UNL A   1      44.147  37.505  32.704  1.00  0.00     0.124 S 
ATOM     69  O   UNL A   1      45.527  37.485  33.179  1.00  0.00    -0.237 OA
ATOM     70  O   UNL A   1      43.902  38.293  31.499  1.00  0.00    -0.237 OA
ATOM     71  O   UNL A   1      43.127  37.622  33.742  1.00  0.00    -0.744 OA
ENDBRANCH  67  68
ENDBRANCH  46  60
BRANCH  47  72
ATOM     72  C   UNL A   1      42.616  23.865  27.769  1.00  0.00     0.058 A 
ATOM     73  C   UNL A   1      42.468  22.749  28.606  1.00  0.00     0.135 A 
ATOM     74  C   UNL A   1      42.632  23.649  26.382  1.00  0.00     0.135 A 
ATOM     75  F   UNL A   1      42.453  22.908  29.938  1.00  0.00    -0.206 F 
ATOM     76  C   UNL A   1      42.359  21.463  28.090  1.00  0.00     0.059 A 
ATOM     77  C   UNL A   1      42.503  22.373  25.842  1.00  0.00     0.059 A 
ATOM     78  F   UNL A   1      42.753  24.686  25.540  1.00  0.00    -0.206 F 
ATOM     79  C   UNL A   1      42.378  21.285  26.706  1.00  0.00     0.060 A 
BRANCH  79  80
ATOM     80  S   UNL A   1      42.189  19.617  26.039  1.00  0.00     0.124 S 
ATOM     81  O   UNL A   1      42.587  18.799  27.180  1.00  0.00    -0.237 OA
ATOM     82  O   UNL A   1      40.772  19.580  25.690  1.00  0.00    -0.237 OA
ATOM     83  O   UNL A   1      43.106  19.606  24.903  1.00  0.00    -0.744 OA
ENDBRANCH  79  80
ENDBRANCH  47  72
BRANCH  59  84
ATOM     84  C   UNL A   1      47.982  27.486  30.333  1.00  0.00     0.058 A 
ATOM     85  C   UNL A   1      48.415  26.826  31.493  1.00  0.00     0.135 A 
ATOM     86  C   UNL A   1      48.939  27.786  29.350  1.00  0.00     0.135 A 
ATOM     87  F   UNL A   1      47.540  26.525  32.465  1.00  0.00    -0.206 F 
ATOM     88  C   UNL A   1      49.752  26.490  31.679  1.00  0.00     0.059 A 
ATOM     89  C   UNL A   1      50.277  27.440  29.505  1.00  0.00     0.059 A 
ATOM     90  F   UNL A   1      48.573  28.410  28.219  1.00  0.00    -0.206 F 
ATOM     91  C   UNL A   1      50.676  26.802  30.680  1.00  0.00     0.060 A 
BRANCH  91  92
ATOM     92  S   UNL A   1      52.403  26.335  30.918  1.00  0.00     0.124 S 
ATOM     93  O   UNL A   1      52.270  25.079  31.646  1.00  0.00    -0.237 OA
ATOM     94  O   UNL A   1      52.893  26.225  29.547  1.00  0.00    -0.237 OA
ATOM     95  O   UNL A   1      52.953  27.452  31.683  1.00  0.00    -0.744 OA
ENDBRANCH  91  92
ENDBRANCH  59  84
ENDBRANCH  33  34
ENDBRANCH  25  28
ENDBRANCH  23  24
ENDBRANCH   1  23
TORSDOF 16
ENDMDL
MODEL 3
REMARK VINA RESULT:     -10.8      3.022      9.363
REMARK SMILES Cn1ccc(S(=O)(=O)N2CCO[C@H](CC(=O)NCCCNC(=O)c3ccc(-c4c5nc(c(-c6c(F)cc(S(=O)(=O)[O-])cc6F)c6ccc([nH]6)c(-c6c(F)cc(S(=O)(=O)[O-])cc6F)c6nc(c(-c7c(F)cc(S(=O)(=O)[O-])cc7F)c7ccc4[nH]7)C=C6)C=C5)cc3)C2)c1
REMARK SMILES IDX 19 1 18 2 17 3 15 4 16 5 14 7 13 8 9 9 10 10 90 11 11 12
REMARK SMILES IDX 12 13 6 14 7 15 8 16 5 17 1 18 2 19 3 20 91 21 4 22 20 23
REMARK SMILES IDX 21 24 22 25 23 27 24 28 25 29 89 30 26 31 88 32 27 33 28 34
REMARK SMILES IDX 29 35 82 36 30 37 87 38 81 39 83 40 31 41 86 42 80 43 79 44
REMARK SMILES IDX 32 46 66 47 45 48 65 49 46 50 49 51 64 52 84 53 47 54 48 55
REMARK SMILES IDX 63 57 85 58 50 59 33 60 34 61 43 62 35 63 36 64 42 65 44 66
REMARK SMILES IDX 37 67 38 68 39 69 40 70 41 71 67 72 68 73 77 74 69 75 70 76
REMARK SMILES IDX 76 77 78 78 71 79 72 80 73 81 74 82 75 83 51 84 52 85 61 86
REMARK SMILES IDX 53 87 54 88 60 89 62 90 55 91 56 92 57 93 58 94 59 95
REMARK H PARENT 17 6 21 26 83 45 49 56
REMARK Flexibility Score: inf
ROOT
ATOM      1  C   UNL A   1      35.705  23.681  25.965  1.00  0.00     0.042 C 
ENDROOT
BRANCH   1   2
ATOM      2  C   UNL A   1      34.477  22.963  25.417  1.00  0.00     0.117 C 
BRANCH   2   3
ATOM      3  N   UNL A   1      34.501  22.852  23.968  1.00  0.00    -0.356 N 
ATOM      4  C   UNL A   1      33.912  23.641  23.030  1.00  0.00     0.222 C 
ATOM      5  O   UNL A   1      34.012  23.332  21.844  1.00  0.00    -0.275 OA
ATOM      6  H   UNL A   1      35.020  22.094  23.613  1.00  0.00     0.163 HD
BRANCH   4   7
ATOM      7  C   UNL A   1      33.138  24.860  23.458  1.00  0.00     0.133 C 
BRANCH   7   8
ATOM      8  C   UNL A   1      31.775  24.906  22.759  1.00  0.00     0.142 C 
ATOM      9  N   UNL A   1      31.125  27.132  23.503  1.00  0.00    -0.193 NA
ATOM     10  C   UNL A   1      30.003  26.588  24.288  1.00  0.00     0.131 C 
ATOM     11  C   UNL A   1      31.410  26.337  22.298  1.00  0.00     0.135 C 
ATOM     12  C   UNL A   1      30.391  25.171  24.722  1.00  0.00     0.177 C 
ATOM     13  O   UNL A   1      30.742  24.338  23.602  1.00  0.00    -0.375 OA
BRANCH   9  14
ATOM     14  S   UNL A   1      31.498  28.754  23.586  1.00  0.00     0.244 S 
ATOM     15  O   UNL A   1      30.307  29.495  23.933  1.00  0.00    -0.207 OA
ATOM     16  O   UNL A   1      32.354  29.119  22.481  1.00  0.00    -0.207 OA
BRANCH  14  17
ATOM     17  C   UNL A   1      32.532  28.927  24.969  1.00  0.00     0.100 A 
ATOM     18  C   UNL A   1      34.158  30.765  27.627  1.00  0.00     0.149 C 
ATOM     19  N   UNL A   1      33.645  29.805  26.677  1.00  0.00    -0.356 N 
ATOM     20  C   UNL A   1      34.031  28.493  26.587  1.00  0.00     0.086 A 
ATOM     21  C   UNL A   1      32.715  30.077  25.714  1.00  0.00     0.106 A 
ATOM     22  C   UNL A   1      33.351  27.919  25.530  1.00  0.00     0.041 A 
ENDBRANCH  14  17
ENDBRANCH   9  14
ENDBRANCH   7   8
ENDBRANCH   4   7
ENDBRANCH   2   3
ENDBRANCH   1   2
BRANCH   1  23
ATOM     23  C   UNL A   1      36.892  23.726  25.006  1.00  0.00     0.118 C 
BRANCH  23  24
ATOM     24  N   UNL A   1      37.922  22.750  25.336  1.00  0.00    -0.352 N 
ATOM     25  C   UNL A   1      39.093  22.902  26.036  1.00  0.00     0.251 C 
ATOM     26  H   UNL A   1      37.750  21.839  25.005  1.00  0.00     0.163 HD
ATOM     27  O   UNL A   1      39.907  21.982  26.052  1.00  0.00    -0.269 OA
BRANCH  25  28
ATOM     28  C   UNL A   1      39.391  24.166  26.744  1.00  0.00     0.039 A 
ATOM     29  C   UNL A   1      38.899  24.343  28.040  1.00  0.00     0.014 A 
ATOM     30  C   UNL A   1      40.136  25.182  26.136  1.00  0.00     0.014 A 
ATOM     31  C   UNL A   1      39.220  25.499  28.755  1.00  0.00     0.010 A 
ATOM     32  C   UNL A   1      40.505  26.307  26.870  1.00  0.00     0.010 A 
ATOM     33  C   UNL A   1      40.062  26.472  28.191  1.00  0.00    -0.014 A 
BRANCH  33  34
ATOM     34  C   UNL A   1      40.522  27.643  28.980  1.00  0.00     0.031 A 
ATOM     35  C   UNL A   1      41.842  27.612  29.697  1.00  0.00     0.074 A 
ATOM     36  C   UNL A   1      39.706  28.709  29.113  1.00  0.00     0.049 A 
ATOM     37  N   UNL A   1      42.361  28.499  30.508  1.00  0.00    -0.248 NA
ATOM     38  C   UNL A   1      42.681  26.420  29.494  1.00  0.00     0.031 C 
ATOM     39  C   UNL A   1      38.378  28.840  28.506  1.00  0.00     0.029 A 
ATOM     40  N   UNL A   1      39.863  29.877  29.816  1.00  0.00    -0.354 N 
ATOM     41  C   UNL A   1      43.575  27.969  30.925  1.00  0.00     0.074 A 
ATOM     42  C   UNL A   1      43.702  26.667  30.304  1.00  0.00     0.031 C 
ATOM     43  C   UNL A   1      37.847  30.022  28.858  1.00  0.00     0.029 A 
ATOM     44  C   UNL A   1      38.777  30.718  29.741  1.00  0.00     0.049 A 
ATOM     45  H   UNL A   1      40.677  30.092  30.327  1.00  0.00     0.167 HD
ATOM     46  C   UNL A   1      44.504  28.523  31.739  1.00  0.00     0.037 A 
ATOM     47  C   UNL A   1      38.548  31.907  30.330  1.00  0.00     0.037 A 
ATOM     48  C   UNL A   1      44.390  29.831  32.330  1.00  0.00     0.049 A 
ATOM     49  C   UNL A   1      39.599  32.503  31.224  1.00  0.00     0.074 A 
ATOM     50  C   UNL A   1      45.315  30.507  33.108  1.00  0.00     0.029 A 
ATOM     51  N   UNL A   1      43.287  30.661  32.211  1.00  0.00    -0.354 N 
ATOM     52  N   UNL A   1      40.769  32.012  31.558  1.00  0.00    -0.248 NA
ATOM     53  C   UNL A   1      39.302  33.811  31.821  1.00  0.00     0.031 C 
ATOM     54  C   UNL A   1      44.756  31.733  33.487  1.00  0.00     0.029 A 
ATOM     55  C   UNL A   1      43.498  31.835  32.916  1.00  0.00     0.049 A 
ATOM     56  H   UNL A   1      42.473  30.449  31.699  1.00  0.00     0.167 HD
ATOM     57  C   UNL A   1      41.352  32.958  32.391  1.00  0.00     0.074 A 
ATOM     58  C   UNL A   1      40.414  34.058  32.499  1.00  0.00     0.031 C 
ATOM     59  C   UNL A   1      42.555  32.920  33.013  1.00  0.00     0.037 A 
BRANCH  46  60
ATOM     60  C   UNL A   1      45.741  27.722  32.035  1.00  0.00     0.058 A 
ATOM     61  C   UNL A   1      46.888  27.820  31.233  1.00  0.00     0.135 A 
ATOM     62  C   UNL A   1      45.800  26.891  33.167  1.00  0.00     0.135 A 
ATOM     63  F   UNL A   1      46.878  28.589  30.133  1.00  0.00    -0.206 F 
ATOM     64  C   UNL A   1      48.047  27.112  31.532  1.00  0.00     0.059 A 
ATOM     65  C   UNL A   1      46.957  26.190  33.497  1.00  0.00     0.059 A 
ATOM     66  F   UNL A   1      44.730  26.761  33.966  1.00  0.00    -0.206 F 
ATOM     67  C   UNL A   1      48.071  26.299  32.667  1.00  0.00     0.060 A 
BRANCH  67  68
ATOM     68  S   UNL A   1      49.590  25.402  33.053  1.00  0.00     0.124 S 
ATOM     69  O   UNL A   1      50.255  26.334  33.959  1.00  0.00    -0.237 OA
ATOM     70  O   UNL A   1      49.085  24.176  33.665  1.00  0.00    -0.237 OA
ATOM     71  O   UNL A   1      50.224  25.232  31.750  1.00  0.00    -0.744 OA
ENDBRANCH  67  68
ENDBRANCH  46  60
BRANCH  47  72
ATOM     72  C   UNL A   1      37.266  32.618  30.092  1.00  0.00     0.058 A 
ATOM     73  C   UNL A   1      36.133  32.345  30.872  1.00  0.00     0.135 A 
ATOM     74  C   UNL A   1      37.149  33.587  29.083  1.00  0.00     0.135 A 
ATOM     75  F   UNL A   1      36.196  31.421  31.843  1.00  0.00    -0.206 F 
ATOM     76  C   UNL A   1      34.923  32.992  30.650  1.00  0.00     0.059 A 
ATOM     77  C   UNL A   1      35.955  34.264  28.857  1.00  0.00     0.059 A 
ATOM     78  F   UNL A   1      38.209  33.897  28.321  1.00  0.00    -0.206 F 
ATOM     79  C   UNL A   1      34.843  33.951  29.639  1.00  0.00     0.060 A 
BRANCH  79  80
ATOM     80  S   UNL A   1      33.282  34.823  29.386  1.00  0.00     0.124 S 
ATOM     81  O   UNL A   1      32.794  34.951  30.754  1.00  0.00    -0.237 OA
ATOM     82  O   UNL A   1      33.717  36.060  28.745  1.00  0.00    -0.237 OA
ATOM     83  O   UNL A   1      32.529  33.914  28.527  1.00  0.00    -0.744 OA
ENDBRANCH  79  80
ENDBRANCH  47  72
BRANCH  59  84
ATOM     84  C   UNL A   1      42.934  34.106  33.853  1.00  0.00     0.058 A 
ATOM     85  C   UNL A   1      42.631  34.160  35.221  1.00  0.00     0.135 A 
ATOM     86  C   UNL A   1      43.640  35.182  33.291  1.00  0.00     0.135 A 
ATOM     87  F   UNL A   1      41.950  33.161  35.803  1.00  0.00    -0.206 F 
ATOM     88  C   UNL A   1      43.000  35.250  36.003  1.00  0.00     0.059 A 
ATOM     89  C   UNL A   1      44.038  36.272  34.057  1.00  0.00     0.059 A 
ATOM     90  F   UNL A   1      43.960  35.174  31.987  1.00  0.00    -0.206 F 
ATOM     91  C   UNL A   1      43.703  36.303  35.411  1.00  0.00     0.060 A 
BRANCH  91  92
ATOM     92  S   UNL A   1      44.204  37.699  36.440  1.00  0.00     0.124 S 
ATOM     93  O   UNL A   1      45.613  37.401  36.671  1.00  0.00    -0.237 OA
ATOM     94  O   UNL A   1      43.932  38.843  35.575  1.00  0.00    -0.237 OA
ATOM     95  O   UNL A   1      43.336  37.587  37.608  1.00  0.00    -0.744 OA
ENDBRANCH  91  92
ENDBRANCH  59  84
ENDBRANCH  33  34
ENDBRANCH  25  28
ENDBRANCH  23  24
ENDBRANCH   1  23
TORSDOF 16
ENDMDL
