MODEL 1
REMARK VINA RESULT:      -9.6      0.000      0.000
REMARK SMILES O=C(NCCCNC(=O)[C@@H]1C[C@H]1c1cccc(F)c1F)c1ccc(-c2c3nc(c(-c4c(F)cc(S(=O)(=O)[O-])cc4F)c4ccc([nH]4)c(-c4c(F)cc(S(=O)(=O)[O-])cc4F)c4nc(c(-c5c(F)cc(S(=O)(=O)[O-])cc5F)c5ccc2[nH]5)C=C4)C=C3)cc1
REMARK SMILES IDX 4 1 3 2 1 3 2 4 21 6 22 7 86 8 23 9 85 10 24 11 25 12 26 13
REMARK SMILES IDX 79 14 27 15 84 16 78 17 80 18 28 19 83 20 77 21 76 22 29 24
REMARK SMILES IDX 63 25 42 26 62 27 43 28 46 29 61 30 81 31 44 32 45 33 60 35
REMARK SMILES IDX 82 36 47 37 30 38 31 39 40 40 32 41 33 42 39 43 41 44 34 45
REMARK SMILES IDX 35 46 36 47 37 48 38 49 64 50 65 51 74 52 66 53 67 54 73 55
REMARK SMILES IDX 75 56 68 57 69 58 70 59 71 60 72 61 48 62 49 63 58 64 50 65
REMARK SMILES IDX 51 66 57 67 59 68 52 69 53 70 54 71 55 72 56 73 5 74 6 75
REMARK SMILES IDX 7 76 8 77 9 79 10 80 11 81 12 82 13 83 14 84 19 85 15 86
REMARK SMILES IDX 17 87 20 88 16 89 18 90
REMARK H PARENT 3 5 80 23 46 34 7 78
REMARK Flexibility Score: inf
ROOT
ATOM      1  C   UNL A   1      34.677  32.786  27.987  1.00  0.00     0.118 C 
ENDROOT
BRANCH   1   2
ATOM      2  N   UNL A   1      33.924  31.536  27.919  1.00  0.00    -0.352 N 
ATOM      3  O   UNL A   1      33.539  29.356  27.549  1.00  0.00    -0.269 OA
ATOM      4  C   UNL A   1      34.348  30.231  27.853  1.00  0.00     0.251 C 
ATOM      5  H   UNL A   1      32.946  31.650  27.922  1.00  0.00     0.163 HD
BRANCH   4   6
ATOM      6  C   UNL A   1      35.755  29.873  28.136  1.00  0.00     0.039 A 
ATOM      7  C   UNL A   1      36.748  30.092  27.185  1.00  0.00     0.014 A 
ATOM      8  C   UNL A   1      36.102  29.365  29.394  1.00  0.00     0.014 A 
ATOM      9  C   UNL A   1      38.042  29.650  27.416  1.00  0.00     0.010 A 
ATOM     10  C   UNL A   1      37.435  29.035  29.673  1.00  0.00     0.010 A 
ATOM     11  C   UNL A   1      38.413  29.151  28.675  1.00  0.00    -0.014 A 
BRANCH  11  12
ATOM     12  C   UNL A   1      39.850  28.864  28.921  1.00  0.00     0.031 A 
ATOM     13  C   UNL A   1      40.468  27.550  28.536  1.00  0.00     0.074 A 
ATOM     14  C   UNL A   1      40.610  29.851  29.438  1.00  0.00     0.049 A 
ATOM     15  N   UNL A   1      41.719  27.179  28.620  1.00  0.00    -0.248 NA
ATOM     16  C   UNL A   1      39.574  26.514  27.995  1.00  0.00     0.031 C 
ATOM     17  C   UNL A   1      40.108  31.160  29.873  1.00  0.00     0.029 A 
ATOM     18  N   UNL A   1      41.962  29.934  29.649  1.00  0.00    -0.354 N 
ATOM     19  C   UNL A   1      41.765  25.868  28.159  1.00  0.00     0.074 A 
ATOM     20  C   UNL A   1      40.408  25.498  27.816  1.00  0.00     0.031 C 
ATOM     21  C   UNL A   1      41.142  31.937  30.226  1.00  0.00     0.029 A 
ATOM     22  C   UNL A   1      42.370  31.162  30.115  1.00  0.00     0.049 A 
ATOM     23  H   UNL A   1      42.581  29.186  29.483  1.00  0.00     0.167 HD
ATOM     24  C   UNL A   1      42.842  25.057  28.027  1.00  0.00     0.037 A 
ATOM     25  C   UNL A   1      43.597  31.616  30.432  1.00  0.00     0.037 A 
ATOM     26  C   UNL A   1      44.191  25.446  28.356  1.00  0.00     0.049 A 
ATOM     27  C   UNL A   1      44.769  30.694  30.270  1.00  0.00     0.074 A 
ATOM     28  C   UNL A   1      45.353  24.700  28.246  1.00  0.00     0.029 A 
ATOM     29  N   UNL A   1      44.562  26.686  28.855  1.00  0.00    -0.354 N 
ATOM     30  N   UNL A   1      44.789  29.462  29.821  1.00  0.00    -0.248 NA
ATOM     31  C   UNL A   1      46.082  31.218  30.664  1.00  0.00     0.031 C 
ATOM     32  C   UNL A   1      46.421  25.477  28.709  1.00  0.00     0.029 A 
ATOM     33  C   UNL A   1      45.931  26.722  29.069  1.00  0.00     0.049 A 
ATOM     34  H   UNL A   1      43.943  27.432  29.032  1.00  0.00     0.167 HD
ATOM     35  C   UNL A   1      46.117  29.060  29.883  1.00  0.00     0.074 A 
ATOM     36  C   UNL A   1      46.873  30.194  30.376  1.00  0.00     0.031 C 
ATOM     37  C   UNL A   1      46.661  27.859  29.571  1.00  0.00     0.037 A 
BRANCH  24  38
ATOM     38  C   UNL A   1      42.617  23.664  27.510  1.00  0.00     0.058 A 
ATOM     39  C   UNL A   1      42.715  23.362  26.143  1.00  0.00     0.135 A 
ATOM     40  C   UNL A   1      42.368  22.604  28.398  1.00  0.00     0.135 A 
ATOM     41  F   UNL A   1      42.932  24.339  25.249  1.00  0.00    -0.206 F 
ATOM     42  C   UNL A   1      42.569  22.060  25.673  1.00  0.00     0.059 A 
ATOM     43  C   UNL A   1      42.238  21.291  27.953  1.00  0.00     0.059 A 
ATOM     44  F   UNL A   1      42.261  22.838  29.715  1.00  0.00    -0.206 F 
ATOM     45  C   UNL A   1      42.333  21.030  26.587  1.00  0.00     0.060 A 
BRANCH  45  46
ATOM     46  S   UNL A   1      42.172  19.344  25.962  1.00  0.00     0.124 S 
ATOM     47  O   UNL A   1      40.730  19.247  25.754  1.00  0.00    -0.237 OA
ATOM     48  O   UNL A   1      42.984  19.381  24.749  1.00  0.00    -0.237 OA
ATOM     49  O   UNL A   1      42.707  18.526  27.046  1.00  0.00    -0.744 OA
ENDBRANCH  45  46
ENDBRANCH  24  38
BRANCH  25  50
ATOM     50  C   UNL A   1      43.766  32.995  30.957  1.00  0.00     0.058 A 
ATOM     51  C   UNL A   1      43.819  33.249  32.335  1.00  0.00     0.135 A 
ATOM     52  C   UNL A   1      43.890  34.088  30.085  1.00  0.00     0.135 A 
ATOM     53  F   UNL A   1      43.704  32.238  33.209  1.00  0.00    -0.206 F 
ATOM     54  C   UNL A   1      43.968  34.540  32.831  1.00  0.00     0.059 A 
ATOM     55  C   UNL A   1      44.070  35.383  30.555  1.00  0.00     0.059 A 
ATOM     56  F   UNL A   1      43.867  33.894  28.757  1.00  0.00    -0.206 F 
ATOM     57  C   UNL A   1      44.091  35.602  31.931  1.00  0.00     0.060 A 
BRANCH  57  58
ATOM     58  S   UNL A   1      44.320  37.272  32.575  1.00  0.00     0.124 S 
ATOM     59  O   UNL A   1      45.608  37.150  33.248  1.00  0.00    -0.237 OA
ATOM     60  O   UNL A   1      44.309  38.080  31.358  1.00  0.00    -0.237 OA
ATOM     61  O   UNL A   1      43.164  37.455  33.448  1.00  0.00    -0.744 OA
ENDBRANCH  57  58
ENDBRANCH  25  50
BRANCH  37  62
ATOM     62  C   UNL A   1      48.145  27.723  29.754  1.00  0.00     0.058 A 
ATOM     63  C   UNL A   1      48.695  27.305  30.976  1.00  0.00     0.135 A 
ATOM     64  C   UNL A   1      49.023  28.012  28.699  1.00  0.00     0.135 A 
ATOM     65  F   UNL A   1      47.895  27.027  32.018  1.00  0.00    -0.206 F 
ATOM     66  C   UNL A   1      50.070  27.211  31.156  1.00  0.00     0.059 A 
ATOM     67  C   UNL A   1      50.401  27.900  28.850  1.00  0.00     0.059 A 
ATOM     68  F   UNL A   1      48.544  28.408  27.509  1.00  0.00    -0.206 F 
ATOM     69  C   UNL A   1      50.916  27.516  30.088  1.00  0.00     0.060 A 
BRANCH  69  70
ATOM     70  S   UNL A   1      52.699  27.388  30.330  1.00  0.00     0.124 S 
ATOM     71  O   UNL A   1      53.086  28.793  30.403  1.00  0.00    -0.237 OA
ATOM     72  O   UNL A   1      52.796  26.639  31.579  1.00  0.00    -0.237 OA
ATOM     73  O   UNL A   1      53.151  26.671  29.141  1.00  0.00    -0.744 OA
ENDBRANCH  69  70
ENDBRANCH  37  62
ENDBRANCH  11  12
ENDBRANCH   4   6
ENDBRANCH   1   2
BRANCH   1  74
ATOM     74  C   UNL A   1      35.006  33.183  29.419  1.00  0.00     0.042 C 
BRANCH  74  75
ATOM     75  C   UNL A   1      36.400  33.771  29.560  1.00  0.00     0.117 C 
BRANCH  75  76
ATOM     76  N   UNL A   1      36.673  34.267  30.898  1.00  0.00    -0.356 N 
ATOM     77  C   UNL A   1      37.119  33.605  32.009  1.00  0.00     0.223 C 
ATOM     78  H   UNL A   1      36.511  35.229  31.026  1.00  0.00     0.163 HD
ATOM     79  O   UNL A   1      37.302  34.214  33.058  1.00  0.00    -0.275 OA
BRANCH  77  80
ATOM     80  C   UNL A   1      37.315  32.139  31.964  1.00  0.00     0.086 C 
ATOM     81  C   UNL A   1      36.285  31.207  32.558  1.00  0.00     0.023 C 
ATOM     82  C   UNL A   1      37.628  31.332  33.213  1.00  0.00     0.035 C 
BRANCH  82  83
ATOM     83  C   UNL A   1      38.681  30.246  33.138  1.00  0.00    -0.005 A 
ATOM     84  C   UNL A   1      38.369  28.923  32.760  1.00  0.00     0.007 A 
ATOM     85  C   UNL A   1      40.035  30.535  33.357  1.00  0.00     0.162 A 
ATOM     86  C   UNL A   1      39.356  27.942  32.612  1.00  0.00     0.004 A 
ATOM     87  C   UNL A   1      41.022  29.562  33.207  1.00  0.00     0.159 A 
ATOM     88  F   UNL A   1      40.393  31.787  33.688  1.00  0.00    -0.203 F 
ATOM     89  C   UNL A   1      40.690  28.266  32.835  1.00  0.00     0.042 A 
ATOM     90  F   UNL A   1      42.309  29.877  33.407  1.00  0.00    -0.204 F 
ENDBRANCH  82  83
ENDBRANCH  77  80
ENDBRANCH  75  76
ENDBRANCH  74  75
ENDBRANCH   1  74
TORSDOF 14
ENDMDL
MODEL 2
REMARK VINA RESULT:      -9.5      2.661      5.015
REMARK SMILES O=C(NCCCNC(=O)[C@@H]1C[C@H]1c1cccc(F)c1F)c1ccc(-c2c3nc(c(-c4c(F)cc(S(=O)(=O)[O-])cc4F)c4ccc([nH]4)c(-c4c(F)cc(S(=O)(=O)[O-])cc4F)c4nc(c(-c5c(F)cc(S(=O)(=O)[O-])cc5F)c5ccc2[nH]5)C=C4)C=C3)cc1
REMARK SMILES IDX 4 1 3 2 1 3 2 4 21 6 22 7 86 8 23 9 85 10 24 11 25 12 26 13
REMARK SMILES IDX 79 14 27 15 84 16 78 17 80 18 28 19 83 20 77 21 76 22 29 24
REMARK SMILES IDX 63 25 42 26 62 27 43 28 46 29 61 30 81 31 44 32 45 33 60 35
REMARK SMILES IDX 82 36 47 37 30 38 31 39 40 40 32 41 33 42 39 43 41 44 34 45
REMARK SMILES IDX 35 46 36 47 37 48 38 49 64 50 65 51 74 52 66 53 67 54 73 55
REMARK SMILES IDX 75 56 68 57 69 58 70 59 71 60 72 61 48 62 49 63 58 64 50 65
REMARK SMILES IDX 51 66 57 67 59 68 52 69 53 70 54 71 55 72 56 73 5 74 6 75
REMARK SMILES IDX 7 76 8 77 9 79 10 80 11 81 12 82 13 83 14 84 19 85 15 86
REMARK SMILES IDX 17 87 20 88 16 89 18 90
REMARK H PARENT 3 5 80 23 46 34 7 78
REMARK Flexibility Score: inf
ROOT
ATOM      1  C   UNL A   1      33.642  28.202  27.191  1.00  0.00     0.118 C 
ENDROOT
BRANCH   1   2
ATOM      2  N   UNL A   1      33.534  29.629  27.483  1.00  0.00    -0.352 N 
ATOM      3  O   UNL A   1      33.993  31.591  28.470  1.00  0.00    -0.269 OA
ATOM      4  C   UNL A   1      34.401  30.489  28.112  1.00  0.00     0.251 C 
ATOM      5  H   UNL A   1      32.696  30.045  27.176  1.00  0.00     0.163 HD
BRANCH   4   6
ATOM      6  C   UNL A   1      35.806  30.102  28.365  1.00  0.00     0.039 A 
ATOM      7  C   UNL A   1      36.768  30.231  27.366  1.00  0.00     0.014 A 
ATOM      8  C   UNL A   1      36.187  29.658  29.637  1.00  0.00     0.014 A 
ATOM      9  C   UNL A   1      38.056  29.762  27.574  1.00  0.00     0.010 A 
ATOM     10  C   UNL A   1      37.519  29.301  29.885  1.00  0.00     0.010 A 
ATOM     11  C   UNL A   1      38.460  29.326  28.847  1.00  0.00    -0.014 A 
BRANCH  11  12
ATOM     12  C   UNL A   1      39.896  29.006  29.057  1.00  0.00     0.031 A 
ATOM     13  C   UNL A   1      40.473  27.676  28.662  1.00  0.00     0.074 A 
ATOM     14  C   UNL A   1      40.693  29.978  29.547  1.00  0.00     0.049 A 
ATOM     15  N   UNL A   1      41.717  27.277  28.715  1.00  0.00    -0.248 NA
ATOM     16  C   UNL A   1      39.541  26.659  28.152  1.00  0.00     0.031 C 
ATOM     17  C   UNL A   1      40.233  31.301  29.988  1.00  0.00     0.029 A 
ATOM     18  N   UNL A   1      42.051  30.030  29.722  1.00  0.00    -0.354 N 
ATOM     19  C   UNL A   1      41.720  25.963  28.261  1.00  0.00     0.074 A 
ATOM     20  C   UNL A   1      40.346  25.622  27.957  1.00  0.00     0.031 C 
ATOM     21  C   UNL A   1      41.293  32.055  30.309  1.00  0.00     0.029 A 
ATOM     22  C   UNL A   1      42.500  31.251  30.170  1.00  0.00     0.049 A 
ATOM     23  H   UNL A   1      42.648  29.267  29.544  1.00  0.00     0.167 HD
ATOM     24  C   UNL A   1      42.774  25.126  28.106  1.00  0.00     0.037 A 
ATOM     25  C   UNL A   1      43.745  31.677  30.452  1.00  0.00     0.037 A 
ATOM     26  C   UNL A   1      44.140  25.485  28.397  1.00  0.00     0.049 A 
ATOM     27  C   UNL A   1      44.891  30.727  30.265  1.00  0.00     0.074 A 
ATOM     28  C   UNL A   1      45.281  24.711  28.260  1.00  0.00     0.029 A 
ATOM     29  N   UNL A   1      44.553  26.718  28.878  1.00  0.00    -0.354 N 
ATOM     30  N   UNL A   1      44.869  29.493  29.822  1.00  0.00    -0.248 NA
ATOM     31  C   UNL A   1      46.225  31.223  30.621  1.00  0.00     0.031 C 
ATOM     32  C   UNL A   1      46.378  25.466  28.690  1.00  0.00     0.029 A 
ATOM     33  C   UNL A   1      45.927  26.724  29.056  1.00  0.00     0.049 A 
ATOM     34  H   UNL A   1      43.956  27.479  29.067  1.00  0.00     0.167 HD
ATOM     35  C   UNL A   1      46.189  29.060  29.851  1.00  0.00     0.074 A 
ATOM     36  C   UNL A   1      46.984  30.179  30.318  1.00  0.00     0.031 C 
ATOM     37  C   UNL A   1      46.696  27.845  29.532  1.00  0.00     0.037 A 
BRANCH  24  38
ATOM     38  C   UNL A   1      42.503  23.736  27.602  1.00  0.00     0.058 A 
ATOM     39  C   UNL A   1      42.446  23.448  26.230  1.00  0.00     0.135 A 
ATOM     40  C   UNL A   1      42.367  22.664  28.501  1.00  0.00     0.135 A 
ATOM     41  F   UNL A   1      42.551  24.436  25.327  1.00  0.00    -0.206 F 
ATOM     42  C   UNL A   1      42.258  22.150  25.766  1.00  0.00     0.059 A 
ATOM     43  C   UNL A   1      42.197  21.355  28.060  1.00  0.00     0.059 A 
ATOM     44  F   UNL A   1      42.409  22.884  29.824  1.00  0.00    -0.206 F 
ATOM     45  C   UNL A   1      42.137  21.108  26.689  1.00  0.00     0.060 A 
BRANCH  45  46
ATOM     46  S   UNL A   1      41.920  19.427  26.068  1.00  0.00     0.124 S 
ATOM     47  O   UNL A   1      42.764  19.445  24.877  1.00  0.00    -0.237 OA
ATOM     48  O   UNL A   1      42.411  18.618  27.180  1.00  0.00    -0.237 OA
ATOM     49  O   UNL A   1      40.484  19.339  25.820  1.00  0.00    -0.744 OA
ENDBRANCH  45  46
ENDBRANCH  24  38
BRANCH  25  50
ATOM     50  C   UNL A   1      43.960  33.055  30.965  1.00  0.00     0.058 A 
ATOM     51  C   UNL A   1      44.205  34.127  30.094  1.00  0.00     0.135 A 
ATOM     52  C   UNL A   1      43.911  33.328  32.341  1.00  0.00     0.135 A 
ATOM     53  F   UNL A   1      44.261  33.917  28.770  1.00  0.00    -0.206 F 
ATOM     54  C   UNL A   1      44.415  35.416  30.570  1.00  0.00     0.059 A 
ATOM     55  C   UNL A   1      44.088  34.613  32.838  1.00  0.00     0.059 A 
ATOM     56  F   UNL A   1      43.659  32.340  33.214  1.00  0.00    -0.206 F 
ATOM     57  C   UNL A   1      44.357  35.649  31.946  1.00  0.00     0.060 A 
BRANCH  57  58
ATOM     58  S   UNL A   1      44.594  37.330  32.560  1.00  0.00     0.124 S 
ATOM     59  O   UNL A   1      43.423  37.496  33.412  1.00  0.00    -0.237 OA
ATOM     60  O   UNL A   1      45.877  37.231  33.250  1.00  0.00    -0.237 OA
ATOM     61  O   UNL A   1      44.609  38.131  31.340  1.00  0.00    -0.744 OA
ENDBRANCH  57  58
ENDBRANCH  25  50
BRANCH  37  62
ATOM     62  C   UNL A   1      48.181  27.676  29.677  1.00  0.00     0.058 A 
ATOM     63  C   UNL A   1      48.751  27.220  30.875  1.00  0.00     0.135 A 
ATOM     64  C   UNL A   1      49.040  27.970  28.607  1.00  0.00     0.135 A 
ATOM     65  F   UNL A   1      47.971  26.936  31.930  1.00  0.00    -0.206 F 
ATOM     66  C   UNL A   1      50.128  27.094  31.021  1.00  0.00     0.059 A 
ATOM     67  C   UNL A   1      50.419  27.827  28.722  1.00  0.00     0.059 A 
ATOM     68  F   UNL A   1      48.542  28.401  27.437  1.00  0.00    -0.206 F 
ATOM     69  C   UNL A   1      50.955  27.405  29.939  1.00  0.00     0.060 A 
BRANCH  69  70
ATOM     70  S   UNL A   1      52.740  27.237  30.135  1.00  0.00     0.124 S 
ATOM     71  O   UNL A   1      53.124  28.596  30.501  1.00  0.00    -0.237 OA
ATOM     72  O   UNL A   1      52.848  26.241  31.197  1.00  0.00    -0.237 OA
ATOM     73  O   UNL A   1      53.184  26.789  28.818  1.00  0.00    -0.744 OA
ENDBRANCH  69  70
ENDBRANCH  37  62
ENDBRANCH  11  12
ENDBRANCH   4   6
ENDBRANCH   1   2
BRANCH   1  74
ATOM     74  C   UNL A   1      34.044  27.938  25.748  1.00  0.00     0.042 C 
BRANCH  74  75
ATOM     75  C   UNL A   1      33.181  26.880  25.081  1.00  0.00     0.117 C 
BRANCH  75  76
ATOM     76  N   UNL A   1      32.268  26.228  26.006  1.00  0.00    -0.356 N 
ATOM     77  C   UNL A   1      32.166  24.912  26.362  1.00  0.00     0.223 C 
ATOM     78  H   UNL A   1      31.623  26.828  26.443  1.00  0.00     0.163 HD
ATOM     79  O   UNL A   1      31.325  24.558  27.181  1.00  0.00    -0.275 OA
BRANCH  77  80
ATOM     80  C   UNL A   1      33.026  23.902  25.706  1.00  0.00     0.086 C 
ATOM     81  C   UNL A   1      32.692  22.431  25.799  1.00  0.00     0.023 C 
ATOM     82  C   UNL A   1      33.906  22.957  26.505  1.00  0.00     0.035 C 
BRANCH  82  83
ATOM     83  C   UNL A   1      35.316  22.686  26.024  1.00  0.00    -0.005 A 
ATOM     84  C   UNL A   1      36.333  23.662  26.091  1.00  0.00     0.007 A 
ATOM     85  C   UNL A   1      35.694  21.414  25.573  1.00  0.00     0.162 A 
ATOM     86  C   UNL A   1      37.653  23.383  25.722  1.00  0.00     0.004 A 
ATOM     87  C   UNL A   1      37.010  21.131  25.207  1.00  0.00     0.159 A 
ATOM     88  F   UNL A   1      34.775  20.437  25.519  1.00  0.00    -0.203 F 
ATOM     89  C   UNL A   1      37.993  22.109  25.281  1.00  0.00     0.042 A 
ATOM     90  F   UNL A   1      37.340  19.899  24.797  1.00  0.00    -0.204 F 
ENDBRANCH  82  83
ENDBRANCH  77  80
ENDBRANCH  75  76
ENDBRANCH  74  75
ENDBRANCH   1  74
TORSDOF 14
ENDMDL
MODEL 3
REMARK VINA RESULT:      -9.5      4.791     11.327
REMARK SMILES O=C(NCCCNC(=O)[C@@H]1C[C@H]1c1cccc(F)c1F)c1ccc(-c2c3nc(c(-c4c(F)cc(S(=O)(=O)[O-])cc4F)c4ccc([nH]4)c(-c4c(F)cc(S(=O)(=O)[O-])cc4F)c4nc(c(-c5c(F)cc(S(=O)(=O)[O-])cc5F)c5ccc2[nH]5)C=C4)C=C3)cc1
REMARK SMILES IDX 4 1 3 2 1 3 2 4 21 6 22 7 86 8 23 9 85 10 24 11 25 12 26 13
REMARK SMILES IDX 79 14 27 15 84 16 78 17 80 18 28 19 83 20 77 21 76 22 29 24
REMARK SMILES IDX 63 25 42 26 62 27 43 28 46 29 61 30 81 31 44 32 45 33 60 35
REMARK SMILES IDX 82 36 47 37 30 38 31 39 40 40 32 41 33 42 39 43 41 44 34 45
REMARK SMILES IDX 35 46 36 47 37 48 38 49 64 50 65 51 74 52 66 53 67 54 73 55
REMARK SMILES IDX 75 56 68 57 69 58 70 59 71 60 72 61 48 62 49 63 58 64 50 65
REMARK SMILES IDX 51 66 57 67 59 68 52 69 53 70 54 71 55 72 56 73 5 74 6 75
REMARK SMILES IDX 7 76 8 77 9 79 10 80 11 81 12 82 13 83 14 84 19 85 15 86
REMARK SMILES IDX 17 87 20 88 16 89 18 90
REMARK H PARENT 3 5 80 23 46 34 7 78
REMARK Flexibility Score: inf
ROOT
ATOM      1  C   UNL A   1      44.603  24.239  27.041  1.00  0.00     0.118 C 
ENDROOT
BRANCH   1   2
ATOM      2  N   UNL A   1      43.727  24.689  25.962  1.00  0.00    -0.352 N 
ATOM      3  O   UNL A   1      41.897  25.552  24.991  1.00  0.00    -0.269 OA
ATOM      4  C   UNL A   1      42.628  25.514  25.978  1.00  0.00     0.251 C 
ATOM      5  H   UNL A   1      43.966  24.342  25.072  1.00  0.00     0.163 HD
BRANCH   4   6
ATOM      6  C   UNL A   1      42.319  26.345  27.162  1.00  0.00     0.039 A 
ATOM      7  C   UNL A   1      41.461  25.875  28.153  1.00  0.00     0.014 A 
ATOM      8  C   UNL A   1      42.939  27.590  27.318  1.00  0.00     0.014 A 
ATOM      9  C   UNL A   1      41.088  26.704  29.201  1.00  0.00     0.010 A 
ATOM     10  C   UNL A   1      42.659  28.377  28.443  1.00  0.00     0.010 A 
ATOM     11  C   UNL A   1      41.710  27.950  29.382  1.00  0.00    -0.014 A 
BRANCH  11  12
ATOM     12  C   UNL A   1      41.404  28.714  30.619  1.00  0.00     0.031 A 
ATOM     13  C   UNL A   1      42.277  28.621  31.840  1.00  0.00     0.074 A 
ATOM     14  C   UNL A   1      40.354  29.561  30.594  1.00  0.00     0.049 A 
ATOM     15  N   UNL A   1      42.181  29.280  32.965  1.00  0.00    -0.248 NA
ATOM     16  C   UNL A   1      43.393  27.664  31.801  1.00  0.00     0.031 C 
ATOM     17  C   UNL A   1      39.423  29.712  29.469  1.00  0.00     0.029 A 
ATOM     18  N   UNL A   1      39.911  30.479  31.509  1.00  0.00    -0.354 N 
ATOM     19  C   UNL A   1      43.209  28.813  33.775  1.00  0.00     0.074 A 
ATOM     20  C   UNL A   1      43.907  27.794  33.018  1.00  0.00     0.031 C 
ATOM     21  C   UNL A   1      38.571  30.713  29.730  1.00  0.00     0.029 A 
ATOM     22  C   UNL A   1      38.844  31.225  31.066  1.00  0.00     0.049 A 
ATOM     23  H   UNL A   1      40.318  30.594  32.399  1.00  0.00     0.167 HD
ATOM     24  C   UNL A   1      43.542  29.205  35.027  1.00  0.00     0.037 A 
ATOM     25  C   UNL A   1      38.149  32.206  31.671  1.00  0.00     0.037 A 
ATOM     26  C   UNL A   1      42.849  30.234  35.763  1.00  0.00     0.049 A 
ATOM     27  C   UNL A   1      38.546  32.621  33.056  1.00  0.00     0.074 A 
ATOM     28  C   UNL A   1      43.118  30.713  37.034  1.00  0.00     0.029 A 
ATOM     29  N   UNL A   1      41.754  30.945  35.295  1.00  0.00    -0.354 N 
ATOM     30  N   UNL A   1      39.531  32.172  33.797  1.00  0.00    -0.248 NA
ATOM     31  C   UNL A   1      37.737  33.668  33.691  1.00  0.00     0.031 C 
ATOM     32  C   UNL A   1      42.166  31.690  37.347  1.00  0.00     0.029 A 
ATOM     33  C   UNL A   1      41.328  31.849  36.255  1.00  0.00     0.049 A 
ATOM     34  H   UNL A   1      41.340  30.825  34.409  1.00  0.00     0.167 HD
ATOM     35  C   UNL A   1      39.457  32.878  34.990  1.00  0.00     0.074 A 
ATOM     36  C   UNL A   1      38.355  33.811  34.855  1.00  0.00     0.031 C 
ATOM     37  C   UNL A   1      40.223  32.760  36.102  1.00  0.00     0.037 A 
BRANCH  24  38
ATOM     38  C   UNL A   1      44.704  28.524  35.695  1.00  0.00     0.058 A 
ATOM     39  C   UNL A   1      46.019  28.990  35.539  1.00  0.00     0.135 A 
ATOM     40  C   UNL A   1      44.495  27.435  36.557  1.00  0.00     0.135 A 
ATOM     41  F   UNL A   1      46.279  30.016  34.713  1.00  0.00    -0.206 F 
ATOM     42  C   UNL A   1      47.085  28.397  36.208  1.00  0.00     0.059 A 
ATOM     43  C   UNL A   1      45.544  26.838  37.251  1.00  0.00     0.059 A 
ATOM     44  F   UNL A   1      43.258  26.946  36.739  1.00  0.00    -0.206 F 
ATOM     45  C   UNL A   1      46.837  27.322  37.065  1.00  0.00     0.060 A 
BRANCH  45  46
ATOM     46  S   UNL A   1      48.230  26.582  37.944  1.00  0.00     0.124 S 
ATOM     47  O   UNL A   1      49.098  26.191  36.838  1.00  0.00    -0.237 OA
ATOM     48  O   UNL A   1      48.708  27.692  38.763  1.00  0.00    -0.237 OA
ATOM     49  O   UNL A   1      47.619  25.480  38.682  1.00  0.00    -0.744 OA
ENDBRANCH  45  46
ENDBRANCH  24  38
BRANCH  25  50
ATOM     50  C   UNL A   1      36.996  32.836  30.977  1.00  0.00     0.058 A 
ATOM     51  C   UNL A   1      35.675  32.490  31.296  1.00  0.00     0.135 A 
ATOM     52  C   UNL A   1      37.196  33.810  29.985  1.00  0.00     0.135 A 
ATOM     53  F   UNL A   1      35.432  31.565  32.236  1.00  0.00    -0.206 F 
ATOM     54  C   UNL A   1      34.594  33.071  30.642  1.00  0.00     0.059 A 
ATOM     55  C   UNL A   1      36.132  34.426  29.339  1.00  0.00     0.059 A 
ATOM     56  F   UNL A   1      38.442  34.191  29.659  1.00  0.00    -0.206 F 
ATOM     57  C   UNL A   1      34.833  34.038  29.662  1.00  0.00     0.060 A 
BRANCH  57  58
ATOM     58  S   UNL A   1      33.428  34.817  28.840  1.00  0.00     0.124 S 
ATOM     59  O   UNL A   1      32.502  34.994  29.952  1.00  0.00    -0.237 OA
ATOM     60  O   UNL A   1      34.020  36.039  28.302  1.00  0.00    -0.237 OA
ATOM     61  O   UNL A   1      33.037  33.828  27.840  1.00  0.00    -0.744 OA
ENDBRANCH  57  58
ENDBRANCH  25  50
BRANCH  37  62
ATOM     62  C   UNL A   1      39.888  33.668  37.250  1.00  0.00     0.058 A 
ATOM     63  C   UNL A   1      40.518  34.913  37.405  1.00  0.00     0.135 A 
ATOM     64  C   UNL A   1      38.929  33.291  38.202  1.00  0.00     0.135 A 
ATOM     65  F   UNL A   1      41.450  35.313  36.525  1.00  0.00    -0.206 F 
ATOM     66  C   UNL A   1      40.233  35.739  38.485  1.00  0.00     0.059 A 
ATOM     67  C   UNL A   1      38.610  34.114  39.276  1.00  0.00     0.059 A 
ATOM     68  F   UNL A   1      38.293  32.113  38.092  1.00  0.00    -0.206 F 
ATOM     69  C   UNL A   1      39.280  35.329  39.420  1.00  0.00     0.060 A 
BRANCH  69  70
ATOM     70  S   UNL A   1      38.914  36.408  40.817  1.00  0.00     0.124 S 
ATOM     71  O   UNL A   1      37.844  35.673  41.483  1.00  0.00    -0.237 OA
ATOM     72  O   UNL A   1      40.190  36.451  41.526  1.00  0.00    -0.237 OA
ATOM     73  O   UNL A   1      38.517  37.661  40.182  1.00  0.00    -0.744 OA
ENDBRANCH  69  70
ENDBRANCH  37  62
ENDBRANCH  11  12
ENDBRANCH   4   6
ENDBRANCH   1   2
BRANCH   1  74
ATOM     74  C   UNL A   1      45.326  22.946  26.693  1.00  0.00     0.042 C 
BRANCH  74  75
ATOM     75  C   UNL A   1      44.761  22.271  25.455  1.00  0.00     0.117 C 
BRANCH  75  76
ATOM     76  N   UNL A   1      44.155  20.981  25.739  1.00  0.00    -0.356 N 
ATOM     77  C   UNL A   1      42.874  20.671  26.103  1.00  0.00     0.223 C 
ATOM     78  H   UNL A   1      44.762  20.211  25.659  1.00  0.00     0.163 HD
ATOM     79  O   UNL A   1      42.550  19.503  26.288  1.00  0.00    -0.275 OA
BRANCH  77  80
ATOM     80  C   UNL A   1      41.892  21.753  26.339  1.00  0.00     0.086 C 
ATOM     81  C   UNL A   1      41.611  22.243  27.741  1.00  0.00     0.023 C 
ATOM     82  C   UNL A   1      40.549  21.489  26.998  1.00  0.00     0.035 C 
BRANCH  82  83
ATOM     83  C   UNL A   1      39.313  22.156  26.433  1.00  0.00    -0.005 A 
ATOM     84  C   UNL A   1      39.024  23.519  26.663  1.00  0.00     0.007 A 
ATOM     85  C   UNL A   1      38.444  21.465  25.577  1.00  0.00     0.162 A 
ATOM     86  C   UNL A   1      37.925  24.153  26.073  1.00  0.00     0.004 A 
ATOM     87  C   UNL A   1      37.350  22.094  24.984  1.00  0.00     0.159 A 
ATOM     88  F   UNL A   1      38.689  20.174  25.297  1.00  0.00    -0.203 F 
ATOM     89  C   UNL A   1      37.086  23.436  25.227  1.00  0.00     0.042 A 
ATOM     90  F   UNL A   1      36.551  21.408  24.157  1.00  0.00    -0.204 F 
ENDBRANCH  82  83
ENDBRANCH  77  80
ENDBRANCH  75  76
ENDBRANCH  74  75
ENDBRANCH   1  74
TORSDOF 14
ENDMDL
