MODEL 1
REMARK VINA RESULT:     -11.4      0.000      0.000
REMARK SMILES CC(C)c1ccc(C[N@@H+](CC(=O)NCCCNC(=O)c2ccc(-c3c4nc(c(-c5c(F)cc(S(=O)(=O)[O-])cc5F)c5ccc([nH]5)c(-c5c(F)cc(S(=O)(=O)[O-])cc5F)c5nc(c(-c6c(F)cc(S(=O)(=O)[O-])cc6F)c6ccc3[nH]6)C=C5)C=C4)cc2)CC(F)(F)F)cc1
REMARK SMILES IDX 14 1 13 2 11 3 12 4 10 6 9 7 8 9 7 10 4 11 5 12 92 13 6 14
REMARK SMILES IDX 91 15 2 16 1 17 3 18 86 19 87 20 88 21 89 22 90 23 15 24
REMARK SMILES IDX 16 25 17 26 18 27 19 29 20 30 21 31 85 32 22 33 84 34 23 35
REMARK SMILES IDX 24 36 25 37 78 38 26 39 83 40 77 41 79 42 27 43 82 44 76 45
REMARK SMILES IDX 75 46 28 48 62 49 41 50 61 51 42 52 45 53 60 54 80 55 43 56
REMARK SMILES IDX 44 57 59 59 81 60 46 61 29 62 30 63 39 64 31 65 32 66 38 67
REMARK SMILES IDX 40 68 33 69 34 70 35 71 36 72 37 73 63 74 64 75 73 76 65 77
REMARK SMILES IDX 66 78 72 79 74 80 67 81 68 82 69 83 70 84 71 85 47 86 48 87
REMARK SMILES IDX 57 88 49 89 50 90 56 91 58 92 51 93 52 94 53 95 54 96 55 97
REMARK H PARENT 13 5 9 8 17 28 79 47 45 58
REMARK Flexibility Score: inf
ROOT
ATOM      1  C   UNL A   1      34.412  29.777  27.341  1.00  0.00     0.118 C 
ENDROOT
BRANCH   1   2
ATOM      2  N   UNL A   1      33.236  29.105  27.880  1.00  0.00    -0.351 N 
ATOM      3  C   UNL A   1      32.147  28.532  27.295  1.00  0.00     0.275 C 
ATOM      4  O   UNL A   1      31.405  27.872  28.032  1.00  0.00    -0.269 OA
ATOM      5  H   UNL A   1      33.227  29.055  28.864  1.00  0.00     0.163 HD
BRANCH   3   6
ATOM      6  C   UNL A   1      31.821  28.650  25.799  1.00  0.00     0.364 C 
BRANCH   6   7
ATOM      7  N   UNL A   1      31.860  27.389  25.004  1.00  0.00    -0.316 N 
ATOM      8  H   UNL A   1      31.799  26.608  25.657  1.00  0.00     0.349 HD
BRANCH   7   9
ATOM      9  C   UNL A   1      33.136  27.290  24.307  1.00  0.00     0.299 C 
BRANCH   9  10
ATOM     10  C   UNL A   1      33.877  25.982  24.256  1.00  0.00     0.006 A 
ATOM     11  C   UNL A   1      34.766  23.285  24.377  1.00  0.00    -0.045 A 
ATOM     12  C   UNL A   1      34.348  23.867  23.166  1.00  0.00     0.004 A 
ATOM     13  C   UNL A   1      34.832  24.122  25.499  1.00  0.00     0.004 A 
ATOM     14  C   UNL A   1      33.905  25.197  23.103  1.00  0.00     0.010 A 
ATOM     15  C   UNL A   1      34.388  25.442  25.443  1.00  0.00     0.010 A 
BRANCH  11  16
ATOM     16  C   UNL A   1      35.173  21.811  24.473  1.00  0.00     0.013 C 
ATOM     17  C   UNL A   1      36.652  21.597  24.853  1.00  0.00     0.012 C 
ATOM     18  C   UNL A   1      34.325  21.002  25.467  1.00  0.00     0.012 C 
ENDBRANCH  11  16
ENDBRANCH   9  10
ENDBRANCH   7   9
BRANCH   7  19
ATOM     19  C   UNL A   1      30.667  27.171  24.137  1.00  0.00     0.380 C 
BRANCH  19  20
ATOM     20  C   UNL A   1      30.389  27.936  22.814  1.00  0.00     0.438 C 
ATOM     21  F   UNL A   1      29.084  28.235  22.636  1.00  0.00    -0.165 F 
ATOM     22  F   UNL A   1      31.071  29.107  22.794  1.00  0.00    -0.165 F 
ATOM     23  F   UNL A   1      30.801  27.234  21.737  1.00  0.00    -0.165 F 
ENDBRANCH  19  20
ENDBRANCH   7  19
ENDBRANCH   6   7
ENDBRANCH   3   6
ENDBRANCH   1   2
BRANCH   1  24
ATOM     24  C   UNL A   1      34.480  31.281  27.651  1.00  0.00     0.042 C 
BRANCH  24  25
ATOM     25  C   UNL A   1      35.681  31.728  28.478  1.00  0.00     0.118 C 
BRANCH  25  26
ATOM     26  N   UNL A   1      35.575  31.292  29.857  1.00  0.00    -0.352 N 
ATOM     27  C   UNL A   1      36.412  30.507  30.614  1.00  0.00     0.251 C 
ATOM     28  H   UNL A   1      34.772  31.611  30.329  1.00  0.00     0.163 HD
ATOM     29  O   UNL A   1      35.980  30.055  31.674  1.00  0.00    -0.269 OA
BRANCH  27  30
ATOM     30  C   UNL A   1      37.802  30.181  30.194  1.00  0.00     0.039 A 
ATOM     31  C   UNL A   1      38.057  30.004  28.827  1.00  0.00     0.014 A 
ATOM     32  C   UNL A   1      38.832  29.938  31.108  1.00  0.00     0.014 A 
ATOM     33  C   UNL A   1      39.328  29.619  28.383  1.00  0.00     0.010 A 
ATOM     34  C   UNL A   1      40.120  29.628  30.660  1.00  0.00     0.010 A 
ATOM     35  C   UNL A   1      40.380  29.442  29.295  1.00  0.00    -0.014 A 
BRANCH  35  36
ATOM     36  C   UNL A   1      41.735  29.021  28.836  1.00  0.00     0.031 A 
ATOM     37  C   UNL A   1      42.863  30.021  28.766  1.00  0.00     0.074 A 
ATOM     38  C   UNL A   1      41.952  27.748  28.446  1.00  0.00     0.049 A 
ATOM     39  N   UNL A   1      44.092  29.856  28.342  1.00  0.00    -0.248 NA
ATOM     40  C   UNL A   1      42.565  31.392  29.210  1.00  0.00     0.031 C 
ATOM     41  C   UNL A   1      40.944  26.686  28.425  1.00  0.00     0.029 A 
ATOM     42  N   UNL A   1      43.091  27.133  27.985  1.00  0.00    -0.354 N 
ATOM     43  C   UNL A   1      44.703  31.101  28.445  1.00  0.00     0.074 A 
ATOM     44  C   UNL A   1      43.699  32.021  28.934  1.00  0.00     0.031 C 
ATOM     45  C   UNL A   1      41.513  25.549  27.994  1.00  0.00     0.029 A 
ATOM     46  C   UNL A   1      42.917  25.805  27.678  1.00  0.00     0.049 A 
ATOM     47  H   UNL A   1      43.951  27.601  27.884  1.00  0.00     0.167 HD
ATOM     48  C   UNL A   1      45.986  31.447  28.178  1.00  0.00     0.037 A 
ATOM     49  C   UNL A   1      43.783  24.893  27.192  1.00  0.00     0.037 A 
ATOM     50  C   UNL A   1      46.999  30.527  27.731  1.00  0.00     0.049 A 
ATOM     51  C   UNL A   1      45.209  25.293  26.926  1.00  0.00     0.074 A 
ATOM     52  C   UNL A   1      48.341  30.772  27.493  1.00  0.00     0.029 A 
ATOM     53  N   UNL A   1      46.786  29.184  27.459  1.00  0.00    -0.354 N 
ATOM     54  N   UNL A   1      45.779  26.464  27.077  1.00  0.00    -0.248 NA
ATOM     55  C   UNL A   1      46.113  24.246  26.426  1.00  0.00     0.031 C 
ATOM     56  C   UNL A   1      48.933  29.585  27.048  1.00  0.00     0.029 A 
ATOM     57  C   UNL A   1      47.967  28.591  27.044  1.00  0.00     0.049 A 
ATOM     58  H   UNL A   1      45.923  28.720  27.549  1.00  0.00     0.167 HD
ATOM     59  C   UNL A   1      47.109  26.290  26.713  1.00  0.00     0.074 A 
ATOM     60  C   UNL A   1      47.265  24.898  26.344  1.00  0.00     0.031 C 
ATOM     61  C   UNL A   1      48.112  27.202  26.686  1.00  0.00     0.037 A 
BRANCH  48  62
ATOM     62  C   UNL A   1      46.372  32.888  28.369  1.00  0.00     0.058 A 
ATOM     63  C   UNL A   1      46.865  33.361  29.596  1.00  0.00     0.135 A 
ATOM     64  C   UNL A   1      46.281  33.800  27.306  1.00  0.00     0.135 A 
ATOM     65  F   UNL A   1      46.962  32.535  30.649  1.00  0.00    -0.206 F 
ATOM     66  C   UNL A   1      47.222  34.694  29.771  1.00  0.00     0.059 A 
ATOM     67  C   UNL A   1      46.656  35.133  27.451  1.00  0.00     0.059 A 
ATOM     68  F   UNL A   1      45.821  33.400  26.109  1.00  0.00    -0.206 F 
ATOM     69  C   UNL A   1      47.110  35.574  28.693  1.00  0.00     0.060 A 
BRANCH  69  70
ATOM     70  S   UNL A   1      47.573  37.302  28.936  1.00  0.00     0.124 S 
ATOM     71  O   UNL A   1      49.027  37.228  28.844  1.00  0.00    -0.237 OA
ATOM     72  O   UNL A   1      46.900  37.968  27.826  1.00  0.00    -0.237 OA
ATOM     73  O   UNL A   1      47.042  37.612  30.262  1.00  0.00    -0.744 OA
ENDBRANCH  69  70
ENDBRANCH  48  62
BRANCH  49  74
ATOM     74  C   UNL A   1      43.328  23.500  26.947  1.00  0.00     0.058 A 
ATOM     75  C   UNL A   1      43.076  23.044  25.645  1.00  0.00     0.135 A 
ATOM     76  C   UNL A   1      43.156  22.593  28.004  1.00  0.00     0.135 A 
ATOM     77  F   UNL A   1      43.220  23.877  24.603  1.00  0.00    -0.206 F 
ATOM     78  C   UNL A   1      42.660  21.739  25.398  1.00  0.00     0.059 A 
ATOM     79  C   UNL A   1      42.761  21.279  27.781  1.00  0.00     0.059 A 
ATOM     80  F   UNL A   1      43.401  22.978  29.267  1.00  0.00    -0.206 F 
ATOM     81  C   UNL A   1      42.507  20.864  26.474  1.00  0.00     0.060 A 
BRANCH  81  82
ATOM     82  S   UNL A   1      42.030  19.153  26.144  1.00  0.00     0.124 S 
ATOM     83  O   UNL A   1      42.849  18.840  24.979  1.00  0.00    -0.237 OA
ATOM     84  O   UNL A   1      42.402  18.482  27.386  1.00  0.00    -0.237 OA
ATOM     85  O   UNL A   1      40.594  19.250  25.901  1.00  0.00    -0.744 OA
ENDBRANCH  81  82
ENDBRANCH  49  74
BRANCH  61  86
ATOM     86  C   UNL A   1      49.474  26.724  26.270  1.00  0.00     0.058 A 
ATOM     87  C   UNL A   1      49.937  26.879  24.954  1.00  0.00     0.135 A 
ATOM     88  C   UNL A   1      50.346  26.150  27.208  1.00  0.00     0.135 A 
ATOM     89  F   UNL A   1      49.140  27.418  24.017  1.00  0.00    -0.206 F 
ATOM     90  C   UNL A   1      51.211  26.465  24.578  1.00  0.00     0.059 A 
ATOM     91  C   UNL A   1      51.631  25.746  26.860  1.00  0.00     0.059 A 
ATOM     92  F   UNL A   1      49.954  25.987  28.482  1.00  0.00    -0.206 F 
ATOM     93  C   UNL A   1      52.051  25.899  25.539  1.00  0.00     0.060 A 
BRANCH  93  94
ATOM     94  S   UNL A   1      53.715  25.395  25.051  1.00  0.00     0.124 S 
ATOM     95  O   UNL A   1      54.541  26.211  25.934  1.00  0.00    -0.237 OA
ATOM     96  O   UNL A   1      53.707  23.963  25.336  1.00  0.00    -0.237 OA
ATOM     97  O   UNL A   1      53.773  25.744  23.635  1.00  0.00    -0.744 OA
ENDBRANCH  93  94
ENDBRANCH  61  86
ENDBRANCH  35  36
ENDBRANCH  27  30
ENDBRANCH  25  26
ENDBRANCH  24  25
ENDBRANCH   1  24
TORSDOF 19
ENDMDL
MODEL 2
REMARK VINA RESULT:     -11.3      6.731     12.191
REMARK SMILES CC(C)c1ccc(C[N@@H+](CC(=O)NCCCNC(=O)c2ccc(-c3c4nc(c(-c5c(F)cc(S(=O)(=O)[O-])cc5F)c5ccc([nH]5)c(-c5c(F)cc(S(=O)(=O)[O-])cc5F)c5nc(c(-c6c(F)cc(S(=O)(=O)[O-])cc6F)c6ccc3[nH]6)C=C5)C=C4)cc2)CC(F)(F)F)cc1
REMARK SMILES IDX 14 1 13 2 11 3 12 4 10 6 9 7 8 9 7 10 4 11 5 12 92 13 6 14
REMARK SMILES IDX 91 15 2 16 1 17 3 18 86 19 87 20 88 21 89 22 90 23 15 24
REMARK SMILES IDX 16 25 17 26 18 27 19 29 20 30 21 31 85 32 22 33 84 34 23 35
REMARK SMILES IDX 24 36 25 37 78 38 26 39 83 40 77 41 79 42 27 43 82 44 76 45
REMARK SMILES IDX 75 46 28 48 62 49 41 50 61 51 42 52 45 53 60 54 80 55 43 56
REMARK SMILES IDX 44 57 59 59 81 60 46 61 29 62 30 63 39 64 31 65 32 66 38 67
REMARK SMILES IDX 40 68 33 69 34 70 35 71 36 72 37 73 63 74 64 75 73 76 65 77
REMARK SMILES IDX 66 78 72 79 74 80 67 81 68 82 69 83 70 84 71 85 47 86 48 87
REMARK SMILES IDX 57 88 49 89 50 90 56 91 58 92 51 93 52 94 53 95 54 96 55 97
REMARK H PARENT 13 5 9 8 17 28 79 47 45 58
REMARK Flexibility Score: inf
ROOT
ATOM      1  C   UNL A   1      36.030  23.006  25.515  1.00  0.00     0.118 C 
ENDROOT
BRANCH   1   2
ATOM      2  N   UNL A   1      35.179  22.880  26.693  1.00  0.00    -0.351 N 
ATOM      3  C   UNL A   1      33.867  22.548  26.857  1.00  0.00     0.275 C 
ATOM      4  O   UNL A   1      33.488  22.347  28.016  1.00  0.00    -0.269 OA
ATOM      5  H   UNL A   1      35.646  23.073  27.538  1.00  0.00     0.163 HD
BRANCH   3   6
ATOM      6  C   UNL A   1      32.874  22.399  25.696  1.00  0.00     0.364 C 
BRANCH   6   7
ATOM      7  N   UNL A   1      32.447  23.654  25.014  1.00  0.00    -0.316 N 
ATOM      8  H   UNL A   1      33.226  24.311  25.055  1.00  0.00     0.349 HD
BRANCH   7   9
ATOM      9  C   UNL A   1      31.327  24.245  25.734  1.00  0.00     0.299 C 
BRANCH   9  10
ATOM     10  C   UNL A   1      30.729  25.548  25.280  1.00  0.00     0.006 A 
ATOM     11  C   UNL A   1      29.968  27.943  23.951  1.00  0.00    -0.045 A 
ATOM     12  C   UNL A   1      29.177  26.781  23.882  1.00  0.00     0.004 A 
ATOM     13  C   UNL A   1      31.088  27.904  24.792  1.00  0.00     0.004 A 
ATOM     14  C   UNL A   1      29.551  25.596  24.533  1.00  0.00     0.010 A 
ATOM     15  C   UNL A   1      31.467  26.727  25.437  1.00  0.00     0.010 A 
BRANCH  11  16
ATOM     16  C   UNL A   1      29.612  29.216  23.177  1.00  0.00     0.013 C 
ATOM     17  C   UNL A   1      30.570  29.521  22.007  1.00  0.00     0.012 C 
ATOM     18  C   UNL A   1      28.185  29.211  22.607  1.00  0.00     0.012 C 
ENDBRANCH  11  16
ENDBRANCH   9  10
ENDBRANCH   7   9
BRANCH   7  19
ATOM     19  C   UNL A   1      32.229  23.514  23.546  1.00  0.00     0.380 C 
BRANCH  19  20
ATOM     20  C   UNL A   1      32.864  24.437  22.470  1.00  0.00     0.438 C 
ATOM     21  F   UNL A   1      33.952  25.103  22.914  1.00  0.00    -0.165 F 
ATOM     22  F   UNL A   1      33.255  23.710  21.396  1.00  0.00    -0.165 F 
ATOM     23  F   UNL A   1      31.981  25.351  22.014  1.00  0.00    -0.165 F 
ENDBRANCH  19  20
ENDBRANCH   7  19
ENDBRANCH   6   7
ENDBRANCH   3   6
ENDBRANCH   1   2
BRANCH   1  24
ATOM     24  C   UNL A   1      37.528  22.801  25.792  1.00  0.00     0.042 C 
BRANCH  24  25
ATOM     25  C   UNL A   1      38.280  24.035  26.280  1.00  0.00     0.118 C 
BRANCH  25  26
ATOM     26  N   UNL A   1      39.715  23.879  26.141  1.00  0.00    -0.352 N 
ATOM     27  C   UNL A   1      40.749  24.648  26.620  1.00  0.00     0.251 C 
ATOM     28  H   UNL A   1      39.995  23.094  25.617  1.00  0.00     0.163 HD
ATOM     29  O   UNL A   1      41.872  24.468  26.148  1.00  0.00    -0.269 OA
BRANCH  27  30
ATOM     30  C   UNL A   1      40.557  25.687  27.668  1.00  0.00     0.039 A 
ATOM     31  C   UNL A   1      41.480  26.739  27.736  1.00  0.00     0.014 A 
ATOM     32  C   UNL A   1      39.563  25.598  28.648  1.00  0.00     0.014 A 
ATOM     33  C   UNL A   1      41.392  27.701  28.750  1.00  0.00     0.010 A 
ATOM     34  C   UNL A   1      39.429  26.600  29.616  1.00  0.00     0.010 A 
ATOM     35  C   UNL A   1      40.354  27.651  29.694  1.00  0.00    -0.014 A 
BRANCH  35  36
ATOM     36  C   UNL A   1      40.256  28.661  30.786  1.00  0.00     0.031 A 
ATOM     37  C   UNL A   1      41.138  28.555  32.006  1.00  0.00     0.074 A 
ATOM     38  C   UNL A   1      39.351  29.658  30.705  1.00  0.00     0.049 A 
ATOM     39  N   UNL A   1      41.159  29.304  33.081  1.00  0.00    -0.248 NA
ATOM     40  C   UNL A   1      42.106  27.448  32.032  1.00  0.00     0.031 C 
ATOM     41  C   UNL A   1      38.410  29.860  29.603  1.00  0.00     0.029 A 
ATOM     42  N   UNL A   1      39.072  30.687  31.572  1.00  0.00    -0.354 N 
ATOM     43  C   UNL A   1      42.121  28.748  33.916  1.00  0.00     0.074 A 
ATOM     44  C   UNL A   1      42.634  27.575  33.242  1.00  0.00     0.031 C 
ATOM     45  C   UNL A   1      37.671  30.954  29.850  1.00  0.00     0.029 A 
ATOM     46  C   UNL A   1      38.062  31.515  31.141  1.00  0.00     0.049 A 
ATOM     47  H   UNL A   1      39.550  30.819  32.423  1.00  0.00     0.167 HD
ATOM     48  C   UNL A   1      42.556  29.182  35.125  1.00  0.00     0.037 A 
ATOM     49  C   UNL A   1      37.509  32.601  31.718  1.00  0.00     0.037 A 
ATOM     50  C   UNL A   1      42.079  30.371  35.781  1.00  0.00     0.049 A 
ATOM     51  C   UNL A   1      38.023  33.079  33.048  1.00  0.00     0.074 A 
ATOM     52  C   UNL A   1      42.503  30.923  36.978  1.00  0.00     0.029 A 
ATOM     53  N   UNL A   1      41.075  31.196  35.296  1.00  0.00    -0.354 N 
ATOM     54  N   UNL A   1      38.968  32.566  33.799  1.00  0.00    -0.248 NA
ATOM     55  C   UNL A   1      37.399  34.286  33.610  1.00  0.00     0.031 C 
ATOM     56  C   UNL A   1      41.735  32.066  37.232  1.00  0.00     0.029 A 
ATOM     57  C   UNL A   1      40.858  32.245  36.174  1.00  0.00     0.049 A 
ATOM     58  H   UNL A   1      40.590  31.057  34.451  1.00  0.00     0.167 HD
ATOM     59  C   UNL A   1      39.067  33.398  34.908  1.00  0.00     0.074 A 
ATOM     60  C   UNL A   1      38.093  34.455  34.727  1.00  0.00     0.031 C 
ATOM     61  C   UNL A   1      39.890  33.296  35.980  1.00  0.00     0.037 A 
BRANCH  48  62
ATOM     62  C   UNL A   1      43.611  28.365  35.819  1.00  0.00     0.058 A 
ATOM     63  C   UNL A   1      43.275  27.305  36.676  1.00  0.00     0.135 A 
ATOM     64  C   UNL A   1      44.974  28.620  35.599  1.00  0.00     0.135 A 
ATOM     65  F   UNL A   1      41.987  27.024  36.931  1.00  0.00    -0.206 F 
ATOM     66  C   UNL A   1      44.251  26.549  37.317  1.00  0.00     0.059 A 
ATOM     67  C   UNL A   1      45.969  27.861  36.210  1.00  0.00     0.059 A 
ATOM     68  F   UNL A   1      45.352  29.619  34.784  1.00  0.00    -0.206 F 
ATOM     69  C   UNL A   1      45.597  26.838  37.081  1.00  0.00     0.060 A 
BRANCH  69  70
ATOM     70  S   UNL A   1      46.853  25.852  37.923  1.00  0.00     0.124 S 
ATOM     71  O   UNL A   1      46.078  24.686  38.334  1.00  0.00    -0.237 OA
ATOM     72  O   UNL A   1      47.833  25.621  36.866  1.00  0.00    -0.237 OA
ATOM     73  O   UNL A   1      47.299  26.725  39.005  1.00  0.00    -0.744 OA
ENDBRANCH  69  70
ENDBRANCH  48  62
BRANCH  49  74
ATOM     74  C   UNL A   1      36.413  33.326  31.024  1.00  0.00     0.058 A 
ATOM     75  C   UNL A   1      35.091  33.243  31.483  1.00  0.00     0.135 A 
ATOM     76  C   UNL A   1      36.668  34.132  29.903  1.00  0.00     0.135 A 
ATOM     77  F   UNL A   1      34.797  32.479  32.546  1.00  0.00    -0.206 F 
ATOM     78  C   UNL A   1      34.055  33.925  30.851  1.00  0.00     0.059 A 
ATOM     79  C   UNL A   1      35.654  34.839  29.267  1.00  0.00     0.059 A 
ATOM     80  F   UNL A   1      37.921  34.258  29.436  1.00  0.00    -0.206 F 
ATOM     81  C   UNL A   1      34.349  34.722  29.744  1.00  0.00     0.060 A 
BRANCH  81  82
ATOM     82  S   UNL A   1      33.013  35.658  28.966  1.00  0.00     0.124 S 
ATOM     83  O   UNL A   1      33.744  36.759  28.353  1.00  0.00    -0.237 OA
ATOM     84  O   UNL A   1      32.444  34.677  28.045  1.00  0.00    -0.237 OA
ATOM     85  O   UNL A   1      32.158  36.014  30.093  1.00  0.00    -0.744 OA
ENDBRANCH  81  82
ENDBRANCH  49  74
BRANCH  61  86
ATOM     86  C   UNL A   1      39.797  34.365  37.032  1.00  0.00     0.058 A 
ATOM     87  C   UNL A   1      40.470  35.589  36.896  1.00  0.00     0.135 A 
ATOM     88  C   UNL A   1      38.987  34.183  38.164  1.00  0.00     0.135 A 
ATOM     89  F   UNL A   1      41.262  35.811  35.835  1.00  0.00    -0.206 F 
ATOM     90  C   UNL A   1      40.357  36.589  37.857  1.00  0.00     0.059 A 
ATOM     91  C   UNL A   1      38.843  35.177  39.127  1.00  0.00     0.059 A 
ATOM     92  F   UNL A   1      38.316  33.032  38.336  1.00  0.00    -0.206 F 
ATOM     93  C   UNL A   1      39.541  36.374  38.969  1.00  0.00     0.060 A 
BRANCH  93  94
ATOM     94  S   UNL A   1      39.374  37.692  40.193  1.00  0.00     0.124 S 
ATOM     95  O   UNL A   1      38.280  38.477  39.632  1.00  0.00    -0.237 OA
ATOM     96  O   UNL A   1      39.061  36.951  41.412  1.00  0.00    -0.237 OA
ATOM     97  O   UNL A   1      40.683  38.336  40.178  1.00  0.00    -0.744 OA
ENDBRANCH  93  94
ENDBRANCH  61  86
ENDBRANCH  35  36
ENDBRANCH  27  30
ENDBRANCH  25  26
ENDBRANCH  24  25
ENDBRANCH   1  24
TORSDOF 19
ENDMDL
MODEL 3
REMARK VINA RESULT:     -11.2      5.192      6.717
REMARK SMILES CC(C)c1ccc(C[N@@H+](CC(=O)NCCCNC(=O)c2ccc(-c3c4nc(c(-c5c(F)cc(S(=O)(=O)[O-])cc5F)c5ccc([nH]5)c(-c5c(F)cc(S(=O)(=O)[O-])cc5F)c5nc(c(-c6c(F)cc(S(=O)(=O)[O-])cc6F)c6ccc3[nH]6)C=C5)C=C4)cc2)CC(F)(F)F)cc1
REMARK SMILES IDX 14 1 13 2 11 3 12 4 10 6 9 7 8 9 7 10 4 11 5 12 92 13 6 14
REMARK SMILES IDX 91 15 2 16 1 17 3 18 86 19 87 20 88 21 89 22 90 23 15 24
REMARK SMILES IDX 16 25 17 26 18 27 19 29 20 30 21 31 85 32 22 33 84 34 23 35
REMARK SMILES IDX 24 36 25 37 78 38 26 39 83 40 77 41 79 42 27 43 82 44 76 45
REMARK SMILES IDX 75 46 28 48 62 49 41 50 61 51 42 52 45 53 60 54 80 55 43 56
REMARK SMILES IDX 44 57 59 59 81 60 46 61 29 62 30 63 39 64 31 65 32 66 38 67
REMARK SMILES IDX 40 68 33 69 34 70 35 71 36 72 37 73 63 74 64 75 73 76 65 77
REMARK SMILES IDX 66 78 72 79 74 80 67 81 68 82 69 83 70 84 71 85 47 86 48 87
REMARK SMILES IDX 57 88 49 89 50 90 56 91 58 92 51 93 52 94 53 95 54 96 55 97
REMARK H PARENT 13 5 9 8 17 28 79 47 45 58
REMARK Flexibility Score: inf
ROOT
ATOM      1  C   UNL A   1      32.417  26.593  25.845  1.00  0.00     0.118 C 
ENDROOT
BRANCH   1   2
ATOM      2  N   UNL A   1      31.587  25.666  26.605  1.00  0.00    -0.351 N 
ATOM      3  C   UNL A   1      31.141  24.402  26.355  1.00  0.00     0.275 C 
ATOM      4  O   UNL A   1      30.601  23.809  27.295  1.00  0.00    -0.269 OA
ATOM      5  H   UNL A   1      31.288  26.025  27.472  1.00  0.00     0.163 HD
BRANCH   3   6
ATOM      6  C   UNL A   1      31.296  23.696  25.000  1.00  0.00     0.364 C 
BRANCH   6   7
ATOM      7  N   UNL A   1      32.476  22.799  24.843  1.00  0.00    -0.316 N 
ATOM      8  H   UNL A   1      32.934  22.725  25.752  1.00  0.00     0.349 HD
BRANCH   7   9
ATOM      9  C   UNL A   1      33.425  23.397  23.913  1.00  0.00     0.299 C 
BRANCH   9  10
ATOM     10  C   UNL A   1      34.884  23.491  24.266  1.00  0.00     0.006 A 
ATOM     11  C   UNL A   1      37.509  23.236  25.328  1.00  0.00    -0.045 A 
ATOM     12  C   UNL A   1      37.153  22.651  24.099  1.00  0.00     0.004 A 
ATOM     13  C   UNL A   1      36.548  24.042  25.953  1.00  0.00     0.004 A 
ATOM     14  C   UNL A   1      35.857  22.771  23.573  1.00  0.00     0.010 A 
ATOM     15  C   UNL A   1      35.258  24.161  25.438  1.00  0.00     0.010 A 
BRANCH  11  16
ATOM     16  C   UNL A   1      38.895  23.040  25.950  1.00  0.00     0.013 C 
ATOM     17  C   UNL A   1      39.068  23.738  27.314  1.00  0.00     0.012 C 
ATOM     18  C   UNL A   1      39.281  21.565  26.141  1.00  0.00     0.012 C 
ENDBRANCH  11  16
ENDBRANCH   9  10
ENDBRANCH   7   9
BRANCH   7  19
ATOM     19  C   UNL A   1      32.134  21.378  24.546  1.00  0.00     0.380 C 
BRANCH  19  20
ATOM     20  C   UNL A   1      33.029  20.163  24.912  1.00  0.00     0.438 C 
ATOM     21  F   UNL A   1      32.421  19.283  25.738  1.00  0.00    -0.165 F 
ATOM     22  F   UNL A   1      33.379  19.481  23.795  1.00  0.00    -0.165 F 
ATOM     23  F   UNL A   1      34.180  20.551  25.501  1.00  0.00    -0.165 F 
ENDBRANCH  19  20
ENDBRANCH   7  19
ENDBRANCH   6   7
ENDBRANCH   3   6
ENDBRANCH   1   2
BRANCH   1  24
ATOM     24  C   UNL A   1      33.033  27.724  26.684  1.00  0.00     0.042 C 
BRANCH  24  25
ATOM     25  C   UNL A   1      33.850  28.750  25.905  1.00  0.00     0.118 C 
BRANCH  25  26
ATOM     26  N   UNL A   1      33.603  30.100  26.372  1.00  0.00    -0.352 N 
ATOM     27  C   UNL A   1      34.227  30.836  27.352  1.00  0.00     0.251 C 
ATOM     28  H   UNL A   1      32.868  30.567  25.912  1.00  0.00     0.163 HD
ATOM     29  O   UNL A   1      33.670  31.858  27.751  1.00  0.00    -0.269 OA
BRANCH  27  30
ATOM     30  C   UNL A   1      35.531  30.436  27.947  1.00  0.00     0.039 A 
ATOM     31  C   UNL A   1      35.537  29.407  28.899  1.00  0.00     0.014 A 
ATOM     32  C   UNL A   1      36.725  31.112  27.677  1.00  0.00     0.014 A 
ATOM     33  C   UNL A   1      36.724  29.043  29.548  1.00  0.00     0.010 A 
ATOM     34  C   UNL A   1      37.924  30.699  28.269  1.00  0.00     0.010 A 
ATOM     35  C   UNL A   1      37.935  29.676  29.228  1.00  0.00    -0.014 A 
BRANCH  35  36
ATOM     36  C   UNL A   1      39.203  29.306  29.920  1.00  0.00     0.031 A 
ATOM     37  C   UNL A   1      39.626  30.027  31.177  1.00  0.00     0.074 A 
ATOM     38  C   UNL A   1      40.001  28.347  29.405  1.00  0.00     0.049 A 
ATOM     39  N   UNL A   1      40.718  29.885  31.886  1.00  0.00    -0.248 NA
ATOM     40  C   UNL A   1      38.712  31.060  31.690  1.00  0.00     0.031 C 
ATOM     41  C   UNL A   1      39.736  27.596  28.177  1.00  0.00     0.029 A 
ATOM     42  N   UNL A   1      41.200  27.845  29.849  1.00  0.00    -0.354 N 
ATOM     43  C   UNL A   1      40.633  30.821  32.911  1.00  0.00     0.074 A 
ATOM     44  C   UNL A   1      39.401  31.553  32.709  1.00  0.00     0.031 C 
ATOM     45  C   UNL A   1      40.731  26.717  27.977  1.00  0.00     0.029 A 
ATOM     46  C   UNL A   1      41.721  26.862  29.042  1.00  0.00     0.049 A 
ATOM     47  H   UNL A   1      41.645  28.161  30.669  1.00  0.00     0.167 HD
ATOM     48  C   UNL A   1      41.488  31.040  33.940  1.00  0.00     0.037 A 
ATOM     49  C   UNL A   1      42.866  26.157  29.141  1.00  0.00     0.037 A 
ATOM     50  C   UNL A   1      42.693  30.286  34.170  1.00  0.00     0.049 A 
ATOM     51  C   UNL A   1      43.789  26.400  30.304  1.00  0.00     0.074 A 
ATOM     52  C   UNL A   1      43.591  30.396  35.218  1.00  0.00     0.029 A 
ATOM     53  N   UNL A   1      43.168  29.280  33.343  1.00  0.00    -0.354 N 
ATOM     54  N   UNL A   1      43.665  27.256  31.290  1.00  0.00    -0.248 NA
ATOM     55  C   UNL A   1      45.007  25.578  30.373  1.00  0.00     0.031 C 
ATOM     56  C   UNL A   1      44.625  29.476  35.010  1.00  0.00     0.029 A 
ATOM     57  C   UNL A   1      44.352  28.770  33.850  1.00  0.00     0.049 A 
ATOM     58  H   UNL A   1      42.729  28.974  32.517  1.00  0.00     0.167 HD
ATOM     59  C   UNL A   1      44.775  27.062  32.105  1.00  0.00     0.074 A 
ATOM     60  C   UNL A   1      45.554  25.999  31.505  1.00  0.00     0.031 C 
ATOM     61  C   UNL A   1      45.117  27.706  33.247  1.00  0.00     0.037 A 
BRANCH  48  62
ATOM     62  C   UNL A   1      41.146  32.142  34.906  1.00  0.00     0.058 A 
ATOM     63  C   UNL A   1      40.363  31.904  36.046  1.00  0.00     0.135 A 
ATOM     64  C   UNL A   1      41.635  33.444  34.708  1.00  0.00     0.135 A 
ATOM     65  F   UNL A   1      39.861  30.681  36.278  1.00  0.00    -0.206 F 
ATOM     66  C   UNL A   1      40.048  32.923  36.939  1.00  0.00     0.059 A 
ATOM     67  C   UNL A   1      41.353  34.474  35.601  1.00  0.00     0.059 A 
ATOM     68  F   UNL A   1      42.392  33.726  33.636  1.00  0.00    -0.206 F 
ATOM     69  C   UNL A   1      40.545  34.207  36.705  1.00  0.00     0.060 A 
BRANCH  69  70
ATOM     70  S   UNL A   1      40.124  35.522  37.869  1.00  0.00     0.124 S 
ATOM     71  O   UNL A   1      41.270  35.486  38.772  1.00  0.00    -0.237 OA
ATOM     72  O   UNL A   1      40.036  36.693  37.004  1.00  0.00    -0.237 OA
ATOM     73  O   UNL A   1      38.858  35.074  38.442  1.00  0.00    -0.744 OA
ENDBRANCH  69  70
ENDBRANCH  48  62
BRANCH  49  74
ATOM     74  C   UNL A   1      43.194  25.134  28.115  1.00  0.00     0.058 A 
ATOM     75  C   UNL A   1      44.023  25.444  27.028  1.00  0.00     0.135 A 
ATOM     76  C   UNL A   1      42.702  23.823  28.211  1.00  0.00     0.135 A 
ATOM     77  F   UNL A   1      44.510  26.687  26.889  1.00  0.00    -0.206 F 
ATOM     78  C   UNL A   1      44.348  24.494  26.064  1.00  0.00     0.059 A 
ATOM     79  C   UNL A   1      43.029  22.850  27.272  1.00  0.00     0.059 A 
ATOM     80  F   UNL A   1      41.918  23.471  29.244  1.00  0.00    -0.206 F 
ATOM     81  C   UNL A   1      43.846  23.198  26.198  1.00  0.00     0.060 A 
BRANCH  81  82
ATOM     82  S   UNL A   1      44.323  21.951  24.980  1.00  0.00     0.124 S 
ATOM     83  O   UNL A   1      43.991  22.620  23.729  1.00  0.00    -0.237 OA
ATOM     84  O   UNL A   1      45.747  21.778  25.256  1.00  0.00    -0.237 OA
ATOM     85  O   UNL A   1      43.484  20.809  25.330  1.00  0.00    -0.744 OA
ENDBRANCH  81  82
ENDBRANCH  49  74
BRANCH  61  86
ATOM     86  C   UNL A   1      46.374  27.266  33.943  1.00  0.00     0.058 A 
ATOM     87  C   UNL A   1      46.361  26.246  34.907  1.00  0.00     0.135 A 
ATOM     88  C   UNL A   1      47.611  27.837  33.607  1.00  0.00     0.135 A 
ATOM     89  F   UNL A   1      45.203  25.672  35.269  1.00  0.00    -0.206 F 
ATOM     90  C   UNL A   1      47.531  25.819  35.527  1.00  0.00     0.059 A 
ATOM     91  C   UNL A   1      48.797  27.412  34.199  1.00  0.00     0.059 A 
ATOM     92  F   UNL A   1      47.677  28.811  32.685  1.00  0.00    -0.206 F 
ATOM     93  C   UNL A   1      48.745  26.408  35.166  1.00  0.00     0.060 A 
BRANCH  93  94
ATOM     94  S   UNL A   1      50.263  25.824  35.952  1.00  0.00     0.124 S 
ATOM     95  O   UNL A   1      50.991  25.277  34.812  1.00  0.00    -0.237 OA
ATOM     96  O   UNL A   1      50.813  27.049  36.525  1.00  0.00    -0.237 OA
ATOM     97  O   UNL A   1      49.786  24.845  36.923  1.00  0.00    -0.744 OA
ENDBRANCH  93  94
ENDBRANCH  61  86
ENDBRANCH  35  36
ENDBRANCH  27  30
ENDBRANCH  25  26
ENDBRANCH  24  25
ENDBRANCH   1  24
TORSDOF 19
ENDMDL
