MODEL 1
REMARK VINA RESULT:     -11.1      0.000      0.000
REMARK SMILES C[NH2+]CC(=O)NC[C@H]1CC[C@H](C(=O)NCCCNC(=O)c2ccc(-c3c4nc(c(-c5c(F)cc(S(=O)(=O)[O-])cc5F)c5ccc([nH]5)c(-c5c(F)cc(S(=O)(=O)[O-])cc5F)c5nc(c(-c6c(F)cc(S(=O)(=O)[O-])cc6F)c6ccc3[nH]6)C=C5)C=C4)cc2)O1
REMARK SMILES IDX 15 1 14 2 12 3 13 4 11 6 8 7 9 8 87 9 10 10 7 11 6 12 4 13
REMARK SMILES IDX 5 14 3 16 2 17 1 18 16 21 17 22 18 23 19 24 20 26 21 27
REMARK SMILES IDX 22 28 86 29 23 30 85 31 24 32 25 33 26 34 79 35 27 36 84 37
REMARK SMILES IDX 78 38 80 39 28 40 83 41 77 42 76 43 29 45 63 46 42 47 62 48
REMARK SMILES IDX 43 49 46 50 61 51 81 52 44 53 45 54 60 56 82 57 47 58 30 59
REMARK SMILES IDX 31 60 40 61 32 62 33 63 39 64 41 65 34 66 35 67 36 68 37 69
REMARK SMILES IDX 38 70 64 71 65 72 74 73 66 74 67 75 73 76 75 77 68 78 69 79
REMARK SMILES IDX 70 80 71 81 72 82 48 83 49 84 58 85 50 86 51 87 57 88 59 89
REMARK SMILES IDX 52 90 53 91 54 92 55 93 56 94
REMARK H PARENT 14 5 6 15 2 19 2 20 18 25 80 44 46 55
REMARK Flexibility Score: inf
ROOT
ATOM      1  C   UNL A   1      38.024  22.608  26.089  1.00  0.00     0.117 C 
ENDROOT
BRANCH   1   2
ATOM      2  N   UNL A   1      37.816  22.755  24.663  1.00  0.00    -0.354 N 
ATOM      3  C   UNL A   1      36.671  22.907  23.942  1.00  0.00     0.249 C 
ATOM      4  O   UNL A   1      36.798  23.070  22.722  1.00  0.00    -0.272 OA
ATOM      5  H   UNL A   1      38.641  22.745  24.126  1.00  0.00     0.163 HD
BRANCH   3   6
ATOM      6  C   UNL A   1      35.257  22.806  24.567  1.00  0.00     0.207 C 
ATOM      7  C   UNL A   1      33.320  21.703  23.845  1.00  0.00     0.138 C 
ATOM      8  C   UNL A   1      33.230  23.125  23.322  1.00  0.00     0.037 C 
ATOM      9  O   UNL A   1      34.577  21.555  24.520  1.00  0.00    -0.363 OA
ATOM     10  C   UNL A   1      34.319  23.876  24.038  1.00  0.00     0.045 C 
BRANCH   7  11
ATOM     11  C   UNL A   1      32.147  21.291  24.749  1.00  0.00     0.148 C 
BRANCH  11  12
ATOM     12  N   UNL A   1      32.486  20.094  25.507  1.00  0.00    -0.349 N 
ATOM     13  C   UNL A   1      32.419  18.784  25.138  1.00  0.00     0.275 C 
ATOM     14  O   UNL A   1      32.371  17.935  26.030  1.00  0.00    -0.269 OA
ATOM     15  H   UNL A   1      32.812  20.255  26.422  1.00  0.00     0.163 HD
BRANCH  13  16
ATOM     16  C   UNL A   1      32.434  18.383  23.663  1.00  0.00     0.361 C 
BRANCH  16  17
ATOM     17  N   UNL A   1      32.784  16.970  23.463  1.00  0.00    -0.341 N 
ATOM     18  C   UNL A   1      34.138  16.777  22.976  1.00  0.00     0.331 C 
ATOM     19  H   UNL A   1      32.688  16.483  24.354  1.00  0.00     0.346 HD
ATOM     20  H   UNL A   1      32.153  16.600  22.753  1.00  0.00     0.346 HD
ENDBRANCH  16  17
ENDBRANCH  13  16
ENDBRANCH  11  12
ENDBRANCH   7  11
ENDBRANCH   3   6
ENDBRANCH   1   2
BRANCH   1  21
ATOM     21  C   UNL A   1      39.453  22.197  26.434  1.00  0.00     0.042 C 
BRANCH  21  22
ATOM     22  C   UNL A   1      40.287  23.309  27.065  1.00  0.00     0.118 C 
BRANCH  22  23
ATOM     23  N   UNL A   1      40.908  24.172  26.069  1.00  0.00    -0.352 N 
ATOM     24  C   UNL A   1      41.186  25.517  26.100  1.00  0.00     0.251 C 
ATOM     25  H   UNL A   1      41.172  23.717  25.238  1.00  0.00     0.163 HD
ATOM     26  O   UNL A   1      41.541  26.071  25.063  1.00  0.00    -0.269 OA
BRANCH  24  27
ATOM     27  C   UNL A   1      41.053  26.304  27.348  1.00  0.00     0.039 A 
ATOM     28  C   UNL A   1      41.999  27.301  27.616  1.00  0.00     0.014 A 
ATOM     29  C   UNL A   1      40.044  26.041  28.277  1.00  0.00     0.014 A 
ATOM     30  C   UNL A   1      41.894  28.071  28.779  1.00  0.00     0.010 A 
ATOM     31  C   UNL A   1      39.901  26.854  29.402  1.00  0.00     0.010 A 
ATOM     32  C   UNL A   1      40.823  27.878  29.665  1.00  0.00    -0.014 A 
BRANCH  32  33
ATOM     33  C   UNL A   1      40.641  28.741  30.862  1.00  0.00     0.031 A 
ATOM     34  C   UNL A   1      39.600  29.828  30.862  1.00  0.00     0.074 A 
ATOM     35  C   UNL A   1      41.462  28.591  31.920  1.00  0.00     0.049 A 
ATOM     36  N   UNL A   1      39.370  30.751  31.760  1.00  0.00    -0.248 NA
ATOM     37  C   UNL A   1      38.716  29.902  29.687  1.00  0.00     0.031 C 
ATOM     38  C   UNL A   1      42.534  27.598  32.027  1.00  0.00     0.029 A 
ATOM     39  N   UNL A   1      41.537  29.286  33.102  1.00  0.00    -0.354 N 
ATOM     40  C   UNL A   1      38.328  31.522  31.256  1.00  0.00     0.074 A 
ATOM     41  C   UNL A   1      37.999  30.985  29.953  1.00  0.00     0.031 C 
ATOM     42  C   UNL A   1      43.151  27.741  33.211  1.00  0.00     0.029 A 
ATOM     43  C   UNL A   1      42.551  28.860  33.930  1.00  0.00     0.049 A 
ATOM     44  H   UNL A   1      40.925  30.021  33.335  1.00  0.00     0.167 HD
ATOM     45  C   UNL A   1      37.692  32.569  31.834  1.00  0.00     0.037 A 
ATOM     46  C   UNL A   1      42.961  29.327  35.125  1.00  0.00     0.037 A 
ATOM     47  C   UNL A   1      38.005  33.083  33.143  1.00  0.00     0.049 A 
ATOM     48  C   UNL A   1      42.243  30.498  35.741  1.00  0.00     0.074 A 
ATOM     49  C   UNL A   1      37.386  34.109  33.835  1.00  0.00     0.029 A 
ATOM     50  N   UNL A   1      39.022  32.608  33.959  1.00  0.00    -0.354 N 
ATOM     51  N   UNL A   1      41.231  31.186  35.268  1.00  0.00    -0.248 NA
ATOM     52  C   UNL A   1      42.721  30.955  37.054  1.00  0.00     0.031 C 
ATOM     53  C   UNL A   1      38.050  34.279  35.054  1.00  0.00     0.029 A 
ATOM     54  C   UNL A   1      39.057  33.331  35.140  1.00  0.00     0.049 A 
ATOM     55  H   UNL A   1      39.629  31.867  33.732  1.00  0.00     0.167 HD
ATOM     56  C   UNL A   1      40.937  32.140  36.235  1.00  0.00     0.074 A 
ATOM     57  C   UNL A   1      41.867  31.932  37.325  1.00  0.00     0.031 C 
ATOM     58  C   UNL A   1      39.983  33.104  36.220  1.00  0.00     0.037 A 
BRANCH  45  59
ATOM     59  C   UNL A   1      36.580  33.227  31.064  1.00  0.00     0.058 A 
ATOM     60  C   UNL A   1      35.237  33.079  31.444  1.00  0.00     0.135 A 
ATOM     61  C   UNL A   1      36.864  34.063  29.971  1.00  0.00     0.135 A 
ATOM     62  F   UNL A   1      34.909  32.280  32.472  1.00  0.00    -0.206 F 
ATOM     63  C   UNL A   1      34.211  33.721  30.756  1.00  0.00     0.059 A 
ATOM     64  C   UNL A   1      35.855  34.734  29.284  1.00  0.00     0.059 A 
ATOM     65  F   UNL A   1      38.130  34.239  29.565  1.00  0.00    -0.206 F 
ATOM     66  C   UNL A   1      34.531  34.548  29.679  1.00  0.00     0.060 A 
BRANCH  66  67
ATOM     67  S   UNL A   1      33.189  35.390  28.812  1.00  0.00     0.124 S 
ATOM     68  O   UNL A   1      32.401  35.906  29.928  1.00  0.00    -0.237 OA
ATOM     69  O   UNL A   1      33.903  36.389  28.025  1.00  0.00    -0.237 OA
ATOM     70  O   UNL A   1      32.559  34.322  28.042  1.00  0.00    -0.744 OA
ENDBRANCH  66  67
ENDBRANCH  45  59
BRANCH  46  71
ATOM     71  C   UNL A   1      44.110  28.690  35.823  1.00  0.00     0.058 A 
ATOM     72  C   UNL A   1      45.424  29.116  35.585  1.00  0.00     0.135 A 
ATOM     73  C   UNL A   1      43.918  27.638  36.730  1.00  0.00     0.135 A 
ATOM     74  F   UNL A   1      45.659  30.116  34.720  1.00  0.00    -0.206 F 
ATOM     75  C   UNL A   1      46.512  28.507  36.201  1.00  0.00     0.059 A 
ATOM     76  C   UNL A   1      44.987  27.029  37.380  1.00  0.00     0.059 A 
ATOM     77  F   UNL A   1      42.678  27.205  37.007  1.00  0.00    -0.206 F 
ATOM     78  C   UNL A   1      46.282  27.460  37.097  1.00  0.00     0.060 A 
BRANCH  78  79
ATOM     79  S   UNL A   1      47.697  26.689  37.912  1.00  0.00     0.124 S 
ATOM     80  O   UNL A   1      48.104  25.702  36.920  1.00  0.00    -0.237 OA
ATOM     81  O   UNL A   1      48.601  27.820  38.097  1.00  0.00    -0.237 OA
ATOM     82  O   UNL A   1      47.121  26.150  39.140  1.00  0.00    -0.744 OA
ENDBRANCH  78  79
ENDBRANCH  46  71
BRANCH  58  83
ATOM     83  C   UNL A   1      39.876  33.987  37.432  1.00  0.00     0.058 A 
ATOM     84  C   UNL A   1      40.616  35.174  37.547  1.00  0.00     0.135 A 
ATOM     85  C   UNL A   1      38.988  33.663  38.471  1.00  0.00     0.135 A 
ATOM     86  F   UNL A   1      41.484  35.523  36.585  1.00  0.00    -0.206 F 
ATOM     87  C   UNL A   1      40.497  35.998  38.661  1.00  0.00     0.059 A 
ATOM     88  C   UNL A   1      38.834  34.487  39.582  1.00  0.00     0.059 A 
ATOM     89  F   UNL A   1      38.250  32.543  38.406  1.00  0.00    -0.206 F 
ATOM     90  C   UNL A   1      39.602  35.646  39.673  1.00  0.00     0.060 A 
BRANCH  90  91
ATOM     91  S   UNL A   1      39.432  36.742  41.098  1.00  0.00     0.124 S 
ATOM     92  O   UNL A   1      38.663  35.910  42.018  1.00  0.00    -0.237 OA
ATOM     93  O   UNL A   1      40.821  36.985  41.474  1.00  0.00    -0.237 OA
ATOM     94  O   UNL A   1      38.725  37.898  40.555  1.00  0.00    -0.744 OA
ENDBRANCH  90  91
ENDBRANCH  58  83
ENDBRANCH  32  33
ENDBRANCH  24  27
ENDBRANCH  22  23
ENDBRANCH  21  22
ENDBRANCH   1  21
TORSDOF 17
ENDMDL
MODEL 2
REMARK VINA RESULT:     -11.0      5.446     10.031
REMARK SMILES C[NH2+]CC(=O)NC[C@H]1CC[C@H](C(=O)NCCCNC(=O)c2ccc(-c3c4nc(c(-c5c(F)cc(S(=O)(=O)[O-])cc5F)c5ccc([nH]5)c(-c5c(F)cc(S(=O)(=O)[O-])cc5F)c5nc(c(-c6c(F)cc(S(=O)(=O)[O-])cc6F)c6ccc3[nH]6)C=C5)C=C4)cc2)O1
REMARK SMILES IDX 15 1 14 2 12 3 13 4 11 6 8 7 9 8 87 9 10 10 7 11 6 12 4 13
REMARK SMILES IDX 5 14 3 16 2 17 1 18 16 21 17 22 18 23 19 24 20 26 21 27
REMARK SMILES IDX 22 28 86 29 23 30 85 31 24 32 25 33 26 34 79 35 27 36 84 37
REMARK SMILES IDX 78 38 80 39 28 40 83 41 77 42 76 43 29 45 63 46 42 47 62 48
REMARK SMILES IDX 43 49 46 50 61 51 81 52 44 53 45 54 60 56 82 57 47 58 30 59
REMARK SMILES IDX 31 60 40 61 32 62 33 63 39 64 41 65 34 66 35 67 36 68 37 69
REMARK SMILES IDX 38 70 64 71 65 72 74 73 66 74 67 75 73 76 75 77 68 78 69 79
REMARK SMILES IDX 70 80 71 81 72 82 48 83 49 84 58 85 50 86 51 87 57 88 59 89
REMARK SMILES IDX 52 90 53 91 54 92 55 93 56 94
REMARK H PARENT 14 5 6 15 2 19 2 20 18 25 80 44 46 55
REMARK Flexibility Score: inf
ROOT
ATOM      1  C   UNL A   1      33.159  28.950  24.879  1.00  0.00     0.117 C 
ENDROOT
BRANCH   1   2
ATOM      2  N   UNL A   1      33.827  28.894  23.595  1.00  0.00    -0.354 N 
ATOM      3  C   UNL A   1      33.652  28.057  22.535  1.00  0.00     0.249 C 
ATOM      4  O   UNL A   1      34.334  28.280  21.529  1.00  0.00    -0.272 OA
ATOM      5  H   UNL A   1      34.524  29.577  23.467  1.00  0.00     0.163 HD
BRANCH   3   6
ATOM      6  C   UNL A   1      32.714  26.824  22.578  1.00  0.00     0.207 C 
ATOM      7  C   UNL A   1      31.952  25.519  24.369  1.00  0.00     0.138 C 
ATOM      8  C   UNL A   1      33.195  24.834  23.832  1.00  0.00     0.037 C 
ATOM      9  O   UNL A   1      31.755  26.731  23.628  1.00  0.00    -0.363 OA
ATOM     10  C   UNL A   1      33.484  25.517  22.523  1.00  0.00     0.045 C 
BRANCH   7  11
ATOM     11  C   UNL A   1      30.692  24.640  24.350  1.00  0.00     0.148 C 
BRANCH  11  12
ATOM     12  N   UNL A   1      30.193  24.437  25.704  1.00  0.00    -0.349 N 
ATOM     13  C   UNL A   1      30.432  23.415  26.573  1.00  0.00     0.275 C 
ATOM     14  O   UNL A   1      29.624  23.235  27.488  1.00  0.00    -0.269 OA
ATOM     15  H   UNL A   1      29.595  25.143  26.041  1.00  0.00     0.163 HD
BRANCH  13  16
ATOM     16  C   UNL A   1      31.677  22.541  26.433  1.00  0.00     0.361 C 
BRANCH  16  17
ATOM     17  N   UNL A   1      32.871  23.153  27.033  1.00  0.00    -0.341 N 
ATOM     18  C   UNL A   1      33.638  22.234  27.853  1.00  0.00     0.331 C 
ATOM     19  H   UNL A   1      33.470  23.496  26.283  1.00  0.00     0.346 HD
ATOM     20  H   UNL A   1      32.550  23.905  27.643  1.00  0.00     0.346 HD
ENDBRANCH  16  17
ENDBRANCH  13  16
ENDBRANCH  11  12
ENDBRANCH   7  11
ENDBRANCH   3   6
ENDBRANCH   1   2
BRANCH   1  21
ATOM     21  C   UNL A   1      33.797  28.025  25.912  1.00  0.00     0.042 C 
BRANCH  21  22
ATOM     22  C   UNL A   1      33.433  28.359  27.357  1.00  0.00     0.118 C 
BRANCH  22  23
ATOM     23  N   UNL A   1      33.379  29.794  27.600  1.00  0.00    -0.352 N 
ATOM     24  C   UNL A   1      34.312  30.645  28.141  1.00  0.00     0.251 C 
ATOM     25  H   UNL A   1      32.536  30.225  27.333  1.00  0.00     0.163 HD
ATOM     26  O   UNL A   1      33.972  31.790  28.428  1.00  0.00    -0.269 OA
BRANCH  24  27
ATOM     27  C   UNL A   1      35.703  30.203  28.396  1.00  0.00     0.039 A 
ATOM     28  C   UNL A   1      36.624  30.246  27.341  1.00  0.00     0.014 A 
ATOM     29  C   UNL A   1      36.099  29.703  29.638  1.00  0.00     0.014 A 
ATOM     30  C   UNL A   1      37.948  29.850  27.551  1.00  0.00     0.010 A 
ATOM     31  C   UNL A   1      37.436  29.372  29.865  1.00  0.00     0.010 A 
ATOM     32  C   UNL A   1      38.374  29.442  28.825  1.00  0.00    -0.014 A 
BRANCH  32  33
ATOM     33  C   UNL A   1      39.796  29.099  29.094  1.00  0.00     0.031 A 
ATOM     34  C   UNL A   1      40.737  30.139  29.640  1.00  0.00     0.074 A 
ATOM     35  C   UNL A   1      40.254  27.871  28.780  1.00  0.00     0.049 A 
ATOM     36  N   UNL A   1      42.029  30.065  29.831  1.00  0.00    -0.248 NA
ATOM     37  C   UNL A   1      40.153  31.443  29.996  1.00  0.00     0.031 C 
ATOM     38  C   UNL A   1      39.449  26.787  28.212  1.00  0.00     0.029 A 
ATOM     39  N   UNL A   1      41.513  27.332  28.875  1.00  0.00    -0.354 N 
ATOM     40  C   UNL A   1      42.415  31.311  30.315  1.00  0.00     0.074 A 
ATOM     41  C   UNL A   1      41.227  32.136  30.348  1.00  0.00     0.031 C 
ATOM     42  C   UNL A   1      40.231  25.712  28.019  1.00  0.00     0.029 A 
ATOM     43  C   UNL A   1      41.598  26.040  28.409  1.00  0.00     0.049 A 
ATOM     44  H   UNL A   1      42.283  27.824  29.243  1.00  0.00     0.167 HD
ATOM     45  C   UNL A   1      43.643  31.721  30.713  1.00  0.00     0.037 A 
ATOM     46  C   UNL A   1      42.660  25.219  28.291  1.00  0.00     0.037 A 
ATOM     47  C   UNL A   1      44.817  30.887  30.703  1.00  0.00     0.049 A 
ATOM     48  C   UNL A   1      44.015  25.704  28.731  1.00  0.00     0.074 A 
ATOM     49  C   UNL A   1      46.097  31.197  31.132  1.00  0.00     0.029 A 
ATOM     50  N   UNL A   1      44.857  29.578  30.245  1.00  0.00    -0.354 N 
ATOM     51  N   UNL A   1      44.352  26.871  29.228  1.00  0.00    -0.248 NA
ATOM     52  C   UNL A   1      45.134  24.761  28.598  1.00  0.00     0.031 C 
ATOM     53  C   UNL A   1      46.918  30.088  30.900  1.00  0.00     0.029 A 
ATOM     54  C   UNL A   1      46.141  29.073  30.367  1.00  0.00     0.049 A 
ATOM     55  H   UNL A   1      44.086  29.081  29.888  1.00  0.00     0.167 HD
ATOM     56  C   UNL A   1      45.715  26.793  29.487  1.00  0.00     0.074 A 
ATOM     57  C   UNL A   1      46.138  25.461  29.108  1.00  0.00     0.031 C 
ATOM     58  C   UNL A   1      46.543  27.741  29.993  1.00  0.00     0.037 A 
BRANCH  45  59
ATOM     59  C   UNL A   1      43.784  33.134  31.207  1.00  0.00     0.058 A 
ATOM     60  C   UNL A   1      43.590  33.463  32.558  1.00  0.00     0.135 A 
ATOM     61  C   UNL A   1      44.176  34.163  30.333  1.00  0.00     0.135 A 
ATOM     62  F   UNL A   1      43.200  32.522  33.432  1.00  0.00    -0.206 F 
ATOM     63  C   UNL A   1      43.760  34.763  33.023  1.00  0.00     0.059 A 
ATOM     64  C   UNL A   1      44.377  35.466  30.782  1.00  0.00     0.059 A 
ATOM     65  F   UNL A   1      44.375  33.905  29.031  1.00  0.00    -0.206 F 
ATOM     66  C   UNL A   1      44.156  35.758  32.127  1.00  0.00     0.060 A 
BRANCH  66  67
ATOM     67  S   UNL A   1      44.394  37.434  32.753  1.00  0.00     0.124 S 
ATOM     68  O   UNL A   1      43.389  37.496  33.809  1.00  0.00    -0.237 OA
ATOM     69  O   UNL A   1      45.782  37.408  33.199  1.00  0.00    -0.237 OA
ATOM     70  O   UNL A   1      44.129  38.272  31.587  1.00  0.00    -0.744 OA
ENDBRANCH  66  67
ENDBRANCH  45  59
BRANCH  46  71
ATOM     71  C   UNL A   1      42.489  23.851  27.732  1.00  0.00     0.058 A 
ATOM     72  C   UNL A   1      42.384  22.736  28.575  1.00  0.00     0.135 A 
ATOM     73  C   UNL A   1      42.438  23.632  26.347  1.00  0.00     0.135 A 
ATOM     74  F   UNL A   1      42.433  22.896  29.907  1.00  0.00    -0.206 F 
ATOM     75  C   UNL A   1      42.260  21.447  28.068  1.00  0.00     0.059 A 
ATOM     76  C   UNL A   1      42.289  22.355  25.815  1.00  0.00     0.059 A 
ATOM     77  F   UNL A   1      42.516  24.667  25.498  1.00  0.00    -0.206 F 
ATOM     78  C   UNL A   1      42.216  21.267  26.684  1.00  0.00     0.060 A 
BRANCH  78  79
ATOM     79  S   UNL A   1      42.031  19.592  26.033  1.00  0.00     0.124 S 
ATOM     80  O   UNL A   1      42.512  18.789  27.150  1.00  0.00    -0.237 OA
ATOM     81  O   UNL A   1      40.599  19.522  25.765  1.00  0.00    -0.237 OA
ATOM     82  O   UNL A   1      42.883  19.601  24.847  1.00  0.00    -0.744 OA
ENDBRANCH  78  79
ENDBRANCH  46  71
BRANCH  58  83
ATOM     83  C   UNL A   1      47.984  27.361  30.195  1.00  0.00     0.058 A 
ATOM     84  C   UNL A   1      48.968  27.669  29.243  1.00  0.00     0.135 A 
ATOM     85  C   UNL A   1      48.390  26.720  31.377  1.00  0.00     0.135 A 
ATOM     86  F   UNL A   1      48.628  28.274  28.094  1.00  0.00    -0.206 F 
ATOM     87  C   UNL A   1      50.303  27.335  29.445  1.00  0.00     0.059 A 
ATOM     88  C   UNL A   1      49.724  26.400  31.611  1.00  0.00     0.059 A 
ATOM     89  F   UNL A   1      47.490  26.411  32.323  1.00  0.00    -0.206 F 
ATOM     90  C   UNL A   1      50.671  26.701  30.633  1.00  0.00     0.060 A 
BRANCH  90  91
ATOM     91  S   UNL A   1      52.413  26.303  30.897  1.00  0.00     0.124 S 
ATOM     92  O   UNL A   1      52.867  27.465  31.654  1.00  0.00    -0.237 OA
ATOM     93  O   UNL A   1      52.338  25.051  31.643  1.00  0.00    -0.237 OA
ATOM     94  O   UNL A   1      52.944  26.187  29.543  1.00  0.00    -0.744 OA
ENDBRANCH  90  91
ENDBRANCH  58  83
ENDBRANCH  32  33
ENDBRANCH  24  27
ENDBRANCH  22  23
ENDBRANCH  21  22
ENDBRANCH   1  21
TORSDOF 17
ENDMDL
MODEL 3
REMARK VINA RESULT:     -10.8      7.120     13.027
REMARK SMILES C[NH2+]CC(=O)NC[C@H]1CC[C@H](C(=O)NCCCNC(=O)c2ccc(-c3c4nc(c(-c5c(F)cc(S(=O)(=O)[O-])cc5F)c5ccc([nH]5)c(-c5c(F)cc(S(=O)(=O)[O-])cc5F)c5nc(c(-c6c(F)cc(S(=O)(=O)[O-])cc6F)c6ccc3[nH]6)C=C5)C=C4)cc2)O1
REMARK SMILES IDX 15 1 14 2 12 3 13 4 11 6 8 7 9 8 87 9 10 10 7 11 6 12 4 13
REMARK SMILES IDX 5 14 3 16 2 17 1 18 16 21 17 22 18 23 19 24 20 26 21 27
REMARK SMILES IDX 22 28 86 29 23 30 85 31 24 32 25 33 26 34 79 35 27 36 84 37
REMARK SMILES IDX 78 38 80 39 28 40 83 41 77 42 76 43 29 45 63 46 42 47 62 48
REMARK SMILES IDX 43 49 46 50 61 51 81 52 44 53 45 54 60 56 82 57 47 58 30 59
REMARK SMILES IDX 31 60 40 61 32 62 33 63 39 64 41 65 34 66 35 67 36 68 37 69
REMARK SMILES IDX 38 70 64 71 65 72 74 73 66 74 67 75 73 76 75 77 68 78 69 79
REMARK SMILES IDX 70 80 71 81 72 82 48 83 49 84 58 85 50 86 51 87 57 88 59 89
REMARK SMILES IDX 52 90 53 91 54 92 55 93 56 94
REMARK H PARENT 14 5 6 15 2 19 2 20 18 25 80 44 46 55
REMARK Flexibility Score: inf
ROOT
ATOM      1  C   UNL A   1      35.230  34.511  32.201  1.00  0.00     0.117 C 
ENDROOT
BRANCH   1   2
ATOM      2  N   UNL A   1      34.523  35.765  32.041  1.00  0.00    -0.354 N 
ATOM      3  C   UNL A   1      33.610  36.160  31.111  1.00  0.00     0.249 C 
ATOM      4  O   UNL A   1      33.120  37.286  31.254  1.00  0.00    -0.272 OA
ATOM      5  H   UNL A   1      34.739  36.446  32.719  1.00  0.00     0.163 HD
BRANCH   3   6
ATOM      6  C   UNL A   1      33.236  35.303  29.875  1.00  0.00     0.207 C 
ATOM      7  C   UNL A   1      34.318  33.485  28.868  1.00  0.00     0.138 C 
ATOM      8  C   UNL A   1      34.793  34.730  28.140  1.00  0.00     0.037 C 
ATOM      9  O   UNL A   1      33.447  33.895  29.931  1.00  0.00    -0.363 OA
ATOM     10  C   UNL A   1      33.874  35.827  28.601  1.00  0.00     0.045 C 
BRANCH   7  11
ATOM     11  C   UNL A   1      33.642  32.446  27.960  1.00  0.00     0.148 C 
BRANCH  11  12
ATOM     12  N   UNL A   1      34.535  31.318  27.726  1.00  0.00    -0.349 N 
ATOM     13  C   UNL A   1      34.262  30.086  27.212  1.00  0.00     0.275 C 
ATOM     14  O   UNL A   1      35.049  29.169  27.462  1.00  0.00    -0.269 OA
ATOM     15  H   UNL A   1      35.475  31.469  27.977  1.00  0.00     0.163 HD
BRANCH  13  16
ATOM     16  C   UNL A   1      33.035  29.858  26.331  1.00  0.00     0.361 C 
BRANCH  16  17
ATOM     17  N   UNL A   1      32.530  28.479  26.407  1.00  0.00    -0.341 N 
ATOM     18  C   UNL A   1      31.769  28.212  27.614  1.00  0.00     0.331 C 
ATOM     19  H   UNL A   1      31.929  28.310  25.601  1.00  0.00     0.346 HD
ATOM     20  H   UNL A   1      33.342  27.862  26.419  1.00  0.00     0.346 HD
ENDBRANCH  16  17
ENDBRANCH  13  16
ENDBRANCH  11  12
ENDBRANCH   7  11
ENDBRANCH   3   6
ENDBRANCH   1   2
BRANCH   1  21
ATOM     21  C   UNL A   1      36.722  34.638  31.905  1.00  0.00     0.042 C 
BRANCH  21  22
ATOM     22  C   UNL A   1      37.365  33.355  31.382  1.00  0.00     0.118 C 
BRANCH  22  23
ATOM     23  N   UNL A   1      36.408  32.266  31.251  1.00  0.00    -0.352 N 
ATOM     24  C   UNL A   1      36.541  31.020  30.686  1.00  0.00     0.251 C 
ATOM     25  H   UNL A   1      35.519  32.452  31.630  1.00  0.00     0.163 HD
ATOM     26  O   UNL A   1      35.534  30.337  30.519  1.00  0.00    -0.269 OA
BRANCH  24  27
ATOM     27  C   UNL A   1      37.863  30.501  30.267  1.00  0.00     0.039 A 
ATOM     28  C   UNL A   1      38.150  30.425  28.898  1.00  0.00     0.014 A 
ATOM     29  C   UNL A   1      38.801  30.044  31.195  1.00  0.00     0.014 A 
ATOM     30  C   UNL A   1      39.394  29.953  28.469  1.00  0.00     0.010 A 
ATOM     31  C   UNL A   1      40.066  29.637  30.769  1.00  0.00     0.010 A 
ATOM     32  C   UNL A   1      40.376  29.588  29.403  1.00  0.00    -0.014 A 
BRANCH  32  33
ATOM     33  C   UNL A   1      41.736  29.165  28.973  1.00  0.00     0.031 A 
ATOM     34  C   UNL A   1      42.849  30.174  28.878  1.00  0.00     0.074 A 
ATOM     35  C   UNL A   1      41.948  27.887  28.601  1.00  0.00     0.049 A 
ATOM     36  N   UNL A   1      44.064  30.022  28.418  1.00  0.00    -0.248 NA
ATOM     37  C   UNL A   1      42.551  31.539  29.342  1.00  0.00     0.031 C 
ATOM     38  C   UNL A   1      40.941  26.823  28.614  1.00  0.00     0.029 A 
ATOM     39  N   UNL A   1      43.076  27.269  28.120  1.00  0.00    -0.354 N 
ATOM     40  C   UNL A   1      44.670  31.270  28.521  1.00  0.00     0.074 A 
ATOM     41  C   UNL A   1      43.674  32.179  29.049  1.00  0.00     0.031 C 
ATOM     42  C   UNL A   1      41.498  25.684  28.173  1.00  0.00     0.029 A 
ATOM     43  C   UNL A   1      42.887  25.942  27.806  1.00  0.00     0.049 A 
ATOM     44  H   UNL A   1      43.939  27.730  28.011  1.00  0.00     0.167 HD
ATOM     45  C   UNL A   1      45.943  31.621  28.222  1.00  0.00     0.037 A 
ATOM     46  C   UNL A   1      43.731  25.041  27.266  1.00  0.00     0.037 A 
ATOM     47  C   UNL A   1      46.938  30.707  27.722  1.00  0.00     0.049 A 
ATOM     48  C   UNL A   1      45.137  25.460  26.934  1.00  0.00     0.074 A 
ATOM     49  C   UNL A   1      48.269  30.956  27.434  1.00  0.00     0.029 A 
ATOM     50  N   UNL A   1      46.713  29.368  27.439  1.00  0.00    -0.354 N 
ATOM     51  N   UNL A   1      45.704  26.634  27.080  1.00  0.00    -0.248 NA
ATOM     52  C   UNL A   1      46.021  24.432  26.365  1.00  0.00     0.031 C 
ATOM     53  C   UNL A   1      48.840  29.777  26.943  1.00  0.00     0.029 A 
ATOM     54  C   UNL A   1      47.877  28.782  26.965  1.00  0.00     0.049 A 
ATOM     55  H   UNL A   1      45.855  28.901  27.558  1.00  0.00     0.167 HD
ATOM     56  C   UNL A   1      47.015  26.479  26.644  1.00  0.00     0.074 A 
ATOM     57  C   UNL A   1      47.162  25.095  26.244  1.00  0.00     0.031 C 
ATOM     58  C   UNL A   1      48.008  27.400  26.580  1.00  0.00     0.037 A 
BRANCH  45  59
ATOM     59  C   UNL A   1      46.345  33.054  28.437  1.00  0.00     0.058 A 
ATOM     60  C   UNL A   1      46.880  33.491  29.659  1.00  0.00     0.135 A 
ATOM     61  C   UNL A   1      46.251  33.989  27.392  1.00  0.00     0.135 A 
ATOM     62  F   UNL A   1      46.977  32.643  30.696  1.00  0.00    -0.206 F 
ATOM     63  C   UNL A   1      47.290  34.807  29.846  1.00  0.00     0.059 A 
ATOM     64  C   UNL A   1      46.679  35.305  27.549  1.00  0.00     0.059 A 
ATOM     65  F   UNL A   1      45.747  33.625  26.203  1.00  0.00    -0.206 F 
ATOM     66  C   UNL A   1      47.187  35.707  28.783  1.00  0.00     0.060 A 
BRANCH  66  67
ATOM     67  S   UNL A   1      47.745  37.405  29.037  1.00  0.00     0.124 S 
ATOM     68  O   UNL A   1      47.152  38.081  27.886  1.00  0.00    -0.237 OA
ATOM     69  O   UNL A   1      47.163  37.735  30.333  1.00  0.00    -0.237 OA
ATOM     70  O   UNL A   1      49.199  37.292  29.016  1.00  0.00    -0.744 OA
ENDBRANCH  66  67
ENDBRANCH  45  59
BRANCH  46  71
ATOM     71  C   UNL A   1      43.272  23.650  27.005  1.00  0.00     0.058 A 
ATOM     72  C   UNL A   1      43.166  22.718  28.047  1.00  0.00     0.135 A 
ATOM     73  C   UNL A   1      42.942  23.224  25.710  1.00  0.00     0.135 A 
ATOM     74  F   UNL A   1      43.478  23.078  29.302  1.00  0.00    -0.206 F 
ATOM     75  C   UNL A   1      42.774  21.404  27.814  1.00  0.00     0.059 A 
ATOM     76  C   UNL A   1      42.521  21.923  25.454  1.00  0.00     0.059 A 
ATOM     77  F   UNL A   1      43.008  24.082  24.681  1.00  0.00    -0.206 F 
ATOM     78  C   UNL A   1      42.456  21.015  26.511  1.00  0.00     0.060 A 
BRANCH  78  79
ATOM     79  S   UNL A   1      41.924  19.314  26.219  1.00  0.00     0.124 S 
ATOM     80  O   UNL A   1      42.240  18.686  27.496  1.00  0.00    -0.237 OA
ATOM     81  O   UNL A   1      40.505  19.482  25.923  1.00  0.00    -0.237 OA
ATOM     82  O   UNL A   1      42.748  18.898  25.088  1.00  0.00    -0.744 OA
ENDBRANCH  78  79
ENDBRANCH  46  71
BRANCH  58  83
ATOM     83  C   UNL A   1      49.350  26.935  26.086  1.00  0.00     0.058 A 
ATOM     84  C   UNL A   1      49.714  27.038  24.735  1.00  0.00     0.135 A 
ATOM     85  C   UNL A   1      50.298  26.421  26.986  1.00  0.00     0.135 A 
ATOM     86  F   UNL A   1      48.840  27.515  23.835  1.00  0.00    -0.206 F 
ATOM     87  C   UNL A   1      50.965  26.626  24.288  1.00  0.00     0.059 A 
ATOM     88  C   UNL A   1      51.565  26.028  26.564  1.00  0.00     0.059 A 
ATOM     89  F   UNL A   1      50.003  26.310  28.291  1.00  0.00    -0.206 F 
ATOM     90  C   UNL A   1      51.884  26.123  25.211  1.00  0.00     0.060 A 
BRANCH  90  91
ATOM     91  S   UNL A   1      53.517  25.624  24.623  1.00  0.00     0.124 S 
ATOM     92  O   UNL A   1      53.463  26.035  23.224  1.00  0.00    -0.237 OA
ATOM     93  O   UNL A   1      54.409  26.400  25.477  1.00  0.00    -0.237 OA
ATOM     94  O   UNL A   1      53.534  24.183  24.854  1.00  0.00    -0.744 OA
ENDBRANCH  90  91
ENDBRANCH  58  83
ENDBRANCH  32  33
ENDBRANCH  24  27
ENDBRANCH  22  23
ENDBRANCH  21  22
ENDBRANCH   1  21
TORSDOF 17
ENDMDL
