MODEL 1
REMARK VINA RESULT:     -11.6      0.000      0.000
REMARK SMILES C[C@@H](C(=O)NCCCNC(=O)c1ccc(-c2c3nc(c(-c4c(F)cc(S(=O)(=O)[O-])cc4F)c4ccc([nH]4)c(-c4c(F)cc(S(=O)(=O)[O-])cc4F)c4nc(c(-c5c(F)cc(S(=O)(=O)[O-])cc5F)c5ccc2[nH]5)C=C4)C=C3)cc1)c1ccc(C[C@H]2CCC[C@H]2O)cc1
REMARK SMILES IDX 6 1 5 2 3 3 4 4 2 6 1 7 78 8 79 9 90 10 80 11 89 12 81 13
REMARK SMILES IDX 82 14 83 15 84 16 87 17 85 18 86 19 88 20 7 22 8 23 9 24
REMARK SMILES IDX 10 25 11 27 12 28 13 29 77 30 14 31 76 32 15 33 16 34 17 35
REMARK SMILES IDX 70 36 18 37 75 38 69 39 71 40 19 41 74 42 68 43 67 44 20 46
REMARK SMILES IDX 54 47 33 48 53 49 34 50 37 51 52 52 72 53 35 54 36 55 51 57
REMARK SMILES IDX 73 58 38 59 21 60 22 61 31 62 23 63 24 64 30 65 32 66 25 67
REMARK SMILES IDX 26 68 27 69 28 70 29 71 55 72 56 73 65 74 57 75 58 76 64 77
REMARK SMILES IDX 66 78 59 79 60 80 61 81 62 82 63 83 39 84 40 85 49 86 41 87
REMARK SMILES IDX 42 88 48 89 50 90 43 91 44 92 45 93 46 94 47 95
REMARK H PARENT 5 5 88 21 9 26 71 45 37 56
REMARK Flexibility Score: inf
ROOT
ATOM      1  C   UNL A   1      31.876  27.645  26.112  1.00  0.00     0.117 C 
ENDROOT
BRANCH   1   2
ATOM      2  N   UNL A   1      31.155  26.482  26.593  1.00  0.00    -0.356 N 
ATOM      3  C   UNL A   1      30.800  25.338  25.941  1.00  0.00     0.227 C 
ATOM      4  O   UNL A   1      30.035  24.576  26.535  1.00  0.00    -0.274 OA
ATOM      5  H   UNL A   1      30.880  26.526  27.537  1.00  0.00     0.163 HD
BRANCH   3   6
ATOM      6  C   UNL A   1      31.393  25.032  24.560  1.00  0.00     0.105 C 
ATOM      7  C   UNL A   1      30.316  24.838  23.487  1.00  0.00     0.023 C 
BRANCH   6   8
ATOM      8  C   UNL A   1      32.364  23.858  24.620  1.00  0.00    -0.036 A 
ATOM      9  C   UNL A   1      32.190  22.784  23.738  1.00  0.00     0.005 A 
ATOM     10  C   UNL A   1      33.438  23.817  25.519  1.00  0.00     0.005 A 
ATOM     11  C   UNL A   1      33.006  21.657  23.824  1.00  0.00     0.004 A 
ATOM     12  C   UNL A   1      34.228  22.673  25.629  1.00  0.00     0.004 A 
ATOM     13  C   UNL A   1      33.976  21.557  24.824  1.00  0.00    -0.048 A 
BRANCH  13  14
ATOM     14  C   UNL A   1      34.696  20.257  25.073  1.00  0.00     0.041 C 
BRANCH  14  15
ATOM     15  C   UNL A   1      34.028  18.984  24.516  1.00  0.00     0.022 C 
ATOM     16  C   UNL A   1      34.935  17.750  24.356  1.00  0.00     0.007 C 
ATOM     17  C   UNL A   1      32.772  18.450  25.224  1.00  0.00     0.117 C 
ATOM     18  C   UNL A   1      34.025  16.529  24.524  1.00  0.00     0.003 C 
ATOM     19  C   UNL A   1      32.602  17.070  24.598  1.00  0.00     0.032 C 
BRANCH  17  20
ATOM     20  O   UNL A   1      32.891  18.288  26.626  1.00  0.00    -0.393 OA
ATOM     21  H   UNL A   1      32.631  19.110  27.069  1.00  0.00     0.210 HD
ENDBRANCH  17  20
ENDBRANCH  14  15
ENDBRANCH  13  14
ENDBRANCH   6   8
ENDBRANCH   3   6
ENDBRANCH   1   2
BRANCH   1  22
ATOM     22  C   UNL A   1      33.352  27.576  26.497  1.00  0.00     0.042 C 
BRANCH  22  23
ATOM     23  C   UNL A   1      34.217  28.638  25.825  1.00  0.00     0.118 C 
BRANCH  23  24
ATOM     24  N   UNL A   1      33.918  29.980  26.302  1.00  0.00    -0.352 N 
ATOM     25  C   UNL A   1      34.490  30.698  27.324  1.00  0.00     0.251 C 
ATOM     26  H   UNL A   1      33.197  30.443  25.819  1.00  0.00     0.163 HD
ATOM     27  O   UNL A   1      33.953  31.735  27.700  1.00  0.00    -0.269 OA
BRANCH  25  28
ATOM     28  C   UNL A   1      35.728  30.219  27.977  1.00  0.00     0.039 A 
ATOM     29  C   UNL A   1      36.951  30.435  27.336  1.00  0.00     0.014 A 
ATOM     30  C   UNL A   1      35.689  29.539  29.198  1.00  0.00     0.014 A 
ATOM     31  C   UNL A   1      38.137  30.025  27.949  1.00  0.00     0.010 A 
ATOM     32  C   UNL A   1      36.877  29.199  29.842  1.00  0.00     0.010 A 
ATOM     33  C   UNL A   1      38.114  29.437  29.225  1.00  0.00    -0.014 A 
BRANCH  33  34
ATOM     34  C   UNL A   1      39.375  29.082  29.927  1.00  0.00     0.031 A 
ATOM     35  C   UNL A   1      39.810  29.849  31.147  1.00  0.00     0.074 A 
ATOM     36  C   UNL A   1      40.154  28.100  29.430  1.00  0.00     0.049 A 
ATOM     37  N   UNL A   1      40.902  29.718  31.856  1.00  0.00    -0.248 NA
ATOM     38  C   UNL A   1      38.915  30.918  31.618  1.00  0.00     0.031 C 
ATOM     39  C   UNL A   1      39.864  27.318  28.226  1.00  0.00     0.029 A 
ATOM     40  N   UNL A   1      41.354  27.597  29.868  1.00  0.00    -0.354 N 
ATOM     41  C   UNL A   1      40.829  30.687  32.850  1.00  0.00     0.074 A 
ATOM     42  C   UNL A   1      39.612  31.436  32.620  1.00  0.00     0.031 C 
ATOM     43  C   UNL A   1      40.845  26.421  28.035  1.00  0.00     0.029 A 
ATOM     44  C   UNL A   1      41.855  26.591  29.075  1.00  0.00     0.049 A 
ATOM     45  H   UNL A   1      41.813  27.926  30.674  1.00  0.00     0.167 HD
ATOM     46  C   UNL A   1      41.685  30.917  33.874  1.00  0.00     0.037 A 
ATOM     47  C   UNL A   1      43.002  25.890  29.167  1.00  0.00     0.037 A 
ATOM     48  C   UNL A   1      42.886  30.155  34.108  1.00  0.00     0.049 A 
ATOM     49  C   UNL A   1      43.941  26.173  30.309  1.00  0.00     0.074 A 
ATOM     50  C   UNL A   1      43.792  30.277  35.148  1.00  0.00     0.029 A 
ATOM     51  N   UNL A   1      43.350  29.133  33.293  1.00  0.00    -0.354 N 
ATOM     52  N   UNL A   1      43.822  27.050  31.277  1.00  0.00    -0.248 NA
ATOM     53  C   UNL A   1      45.167  25.366  30.377  1.00  0.00     0.031 C 
ATOM     54  C   UNL A   1      44.828  29.363  34.935  1.00  0.00     0.029 A 
ATOM     55  C   UNL A   1      44.540  28.631  33.793  1.00  0.00     0.049 A 
ATOM     56  H   UNL A   1      42.899  28.813  32.478  1.00  0.00     0.167 HD
ATOM     57  C   UNL A   1      44.943  26.881  32.083  1.00  0.00     0.074 A 
ATOM     58  C   UNL A   1      45.718  25.807  31.498  1.00  0.00     0.031 C 
ATOM     59  C   UNL A   1      45.299  27.556  33.204  1.00  0.00     0.037 A 
BRANCH  46  60
ATOM     60  C   UNL A   1      41.355  32.030  34.831  1.00  0.00     0.058 A 
ATOM     61  C   UNL A   1      41.884  33.322  34.668  1.00  0.00     0.135 A 
ATOM     62  C   UNL A   1      40.454  31.823  35.889  1.00  0.00     0.135 A 
ATOM     63  F   UNL A   1      42.761  33.574  33.684  1.00  0.00    -0.206 F 
ATOM     64  C   UNL A   1      41.547  34.361  35.531  1.00  0.00     0.059 A 
ATOM     65  C   UNL A   1      40.081  32.855  36.746  1.00  0.00     0.059 A 
ATOM     66  F   UNL A   1      39.918  30.608  36.092  1.00  0.00    -0.206 F 
ATOM     67  C   UNL A   1      40.642  34.118  36.565  1.00  0.00     0.060 A 
BRANCH  67  68
ATOM     68  S   UNL A   1      40.198  35.485  37.657  1.00  0.00     0.124 S 
ATOM     69  O   UNL A   1      41.442  35.685  38.394  1.00  0.00    -0.237 OA
ATOM     70  O   UNL A   1      39.847  36.538  36.710  1.00  0.00    -0.237 OA
ATOM     71  O   UNL A   1      39.087  34.951  38.437  1.00  0.00    -0.744 OA
ENDBRANCH  67  68
ENDBRANCH  46  60
BRANCH  47  72
ATOM     72  C   UNL A   1      43.324  24.847  28.156  1.00  0.00     0.058 A 
ATOM     73  C   UNL A   1      44.149  25.131  27.058  1.00  0.00     0.135 A 
ATOM     74  C   UNL A   1      42.807  23.546  28.264  1.00  0.00     0.135 A 
ATOM     75  F   UNL A   1      44.664  26.361  26.907  1.00  0.00    -0.206 F 
ATOM     76  C   UNL A   1      44.430  24.174  26.089  1.00  0.00     0.059 A 
ATOM     77  C   UNL A   1      43.097  22.563  27.323  1.00  0.00     0.059 A 
ATOM     78  F   UNL A   1      42.027  23.215  29.305  1.00  0.00    -0.206 F 
ATOM     79  C   UNL A   1      43.898  22.892  26.231  1.00  0.00     0.060 A 
BRANCH  79  80
ATOM     80  S   UNL A   1      44.293  21.646  24.983  1.00  0.00     0.124 S 
ATOM     81  O   UNL A   1      44.027  22.375  23.748  1.00  0.00    -0.237 OA
ATOM     82  O   UNL A   1      45.695  21.362  25.267  1.00  0.00    -0.237 OA
ATOM     83  O   UNL A   1      43.365  20.561  25.288  1.00  0.00    -0.744 OA
ENDBRANCH  79  80
ENDBRANCH  47  72
BRANCH  59  84
ATOM     84  C   UNL A   1      46.564  27.129  33.896  1.00  0.00     0.058 A 
ATOM     85  C   UNL A   1      46.566  26.134  34.886  1.00  0.00     0.135 A 
ATOM     86  C   UNL A   1      47.798  27.694  33.533  1.00  0.00     0.135 A 
ATOM     87  F   UNL A   1      45.414  25.565  35.276  1.00  0.00    -0.206 F 
ATOM     88  C   UNL A   1      47.743  25.733  35.511  1.00  0.00     0.059 A 
ATOM     89  C   UNL A   1      48.990  27.287  34.123  1.00  0.00     0.059 A 
ATOM     90  F   UNL A   1      47.855  28.643  32.585  1.00  0.00    -0.206 F 
ATOM     91  C   UNL A   1      48.951  26.315  35.121  1.00  0.00     0.060 A 
BRANCH  91  92
ATOM     92  S   UNL A   1      50.473  25.765  35.920  1.00  0.00     0.124 S 
ATOM     93  O   UNL A   1      49.976  24.727  36.816  1.00  0.00    -0.237 OA
ATOM     94  O   UNL A   1      51.269  25.299  34.788  1.00  0.00    -0.237 OA
ATOM     95  O   UNL A   1      50.971  26.972  36.574  1.00  0.00    -0.744 OA
ENDBRANCH  91  92
ENDBRANCH  59  84
ENDBRANCH  33  34
ENDBRANCH  25  28
ENDBRANCH  23  24
ENDBRANCH  22  23
ENDBRANCH   1  22
TORSDOF 17
ENDMDL
MODEL 2
REMARK VINA RESULT:     -11.6      4.392      7.485
REMARK SMILES C[C@@H](C(=O)NCCCNC(=O)c1ccc(-c2c3nc(c(-c4c(F)cc(S(=O)(=O)[O-])cc4F)c4ccc([nH]4)c(-c4c(F)cc(S(=O)(=O)[O-])cc4F)c4nc(c(-c5c(F)cc(S(=O)(=O)[O-])cc5F)c5ccc2[nH]5)C=C4)C=C3)cc1)c1ccc(C[C@H]2CCC[C@H]2O)cc1
REMARK SMILES IDX 6 1 5 2 3 3 4 4 2 6 1 7 78 8 79 9 90 10 80 11 89 12 81 13
REMARK SMILES IDX 82 14 83 15 84 16 87 17 85 18 86 19 88 20 7 22 8 23 9 24
REMARK SMILES IDX 10 25 11 27 12 28 13 29 77 30 14 31 76 32 15 33 16 34 17 35
REMARK SMILES IDX 70 36 18 37 75 38 69 39 71 40 19 41 74 42 68 43 67 44 20 46
REMARK SMILES IDX 54 47 33 48 53 49 34 50 37 51 52 52 72 53 35 54 36 55 51 57
REMARK SMILES IDX 73 58 38 59 21 60 22 61 31 62 23 63 24 64 30 65 32 66 25 67
REMARK SMILES IDX 26 68 27 69 28 70 29 71 55 72 56 73 65 74 57 75 58 76 64 77
REMARK SMILES IDX 66 78 59 79 60 80 61 81 62 82 63 83 39 84 40 85 49 86 41 87
REMARK SMILES IDX 42 88 48 89 50 90 43 91 44 92 45 93 46 94 47 95
REMARK H PARENT 5 5 88 21 9 26 71 45 37 56
REMARK Flexibility Score: inf
ROOT
ATOM      1  C   UNL A   1      33.079  34.698  28.545  1.00  0.00     0.117 C 
ENDROOT
BRANCH   1   2
ATOM      2  N   UNL A   1      33.251  35.993  29.177  1.00  0.00    -0.356 N 
ATOM      3  C   UNL A   1      32.995  36.386  30.457  1.00  0.00     0.227 C 
ATOM      4  O   UNL A   1      33.066  37.593  30.692  1.00  0.00    -0.274 OA
ATOM      5  H   UNL A   1      33.608  36.697  28.589  1.00  0.00     0.163 HD
BRANCH   3   6
ATOM      6  C   UNL A   1      32.692  35.334  31.531  1.00  0.00     0.105 C 
ATOM      7  C   UNL A   1      31.676  35.826  32.567  1.00  0.00     0.023 C 
BRANCH   6   8
ATOM      8  C   UNL A   1      33.972  34.817  32.180  1.00  0.00    -0.036 A 
ATOM      9  C   UNL A   1      34.440  35.431  33.348  1.00  0.00     0.005 A 
ATOM     10  C   UNL A   1      34.695  33.737  31.657  1.00  0.00     0.005 A 
ATOM     11  C   UNL A   1      35.651  35.041  33.917  1.00  0.00     0.004 A 
ATOM     12  C   UNL A   1      35.925  33.374  32.206  1.00  0.00     0.004 A 
ATOM     13  C   UNL A   1      36.443  34.068  33.304  1.00  0.00    -0.048 A 
BRANCH  13  14
ATOM     14  C   UNL A   1      37.851  33.810  33.775  1.00  0.00     0.041 C 
BRANCH  14  15
ATOM     15  C   UNL A   1      38.480  32.466  33.359  1.00  0.00     0.022 C 
ATOM     16  C   UNL A   1      39.972  32.276  33.692  1.00  0.00     0.007 C 
ATOM     17  C   UNL A   1      37.810  31.167  33.840  1.00  0.00     0.117 C 
ATOM     18  C   UNL A   1      40.175  30.771  33.894  1.00  0.00     0.003 C 
ATOM     19  C   UNL A   1      38.856  30.111  33.504  1.00  0.00     0.032 C 
BRANCH  17  20
ATOM     20  O   UNL A   1      37.547  31.102  35.230  1.00  0.00    -0.393 OA
ATOM     21  H   UNL A   1      37.880  31.905  35.660  1.00  0.00     0.210 HD
ENDBRANCH  17  20
ENDBRANCH  14  15
ENDBRANCH  13  14
ENDBRANCH   6   8
ENDBRANCH   3   6
ENDBRANCH   1   2
BRANCH   1  22
ATOM     22  C   UNL A   1      34.370  34.238  27.873  1.00  0.00     0.042 C 
BRANCH  22  23
ATOM     23  C   UNL A   1      34.936  32.941  28.443  1.00  0.00     0.118 C 
BRANCH  23  24
ATOM     24  N   UNL A   1      34.106  31.789  28.131  1.00  0.00    -0.352 N 
ATOM     25  C   UNL A   1      34.460  30.479  27.923  1.00  0.00     0.251 C 
ATOM     26  H   UNL A   1      33.143  31.977  28.057  1.00  0.00     0.163 HD
ATOM     27  O   UNL A   1      33.631  29.698  27.466  1.00  0.00    -0.269 OA
BRANCH  25  28
ATOM     28  C   UNL A   1      35.832  30.015  28.229  1.00  0.00     0.039 A 
ATOM     29  C   UNL A   1      36.782  30.012  27.203  1.00  0.00     0.014 A 
ATOM     30  C   UNL A   1      36.179  29.562  29.505  1.00  0.00     0.014 A 
ATOM     31  C   UNL A   1      38.093  29.614  27.475  1.00  0.00     0.010 A 
ATOM     32  C   UNL A   1      37.504  29.238  29.791  1.00  0.00     0.010 A 
ATOM     33  C   UNL A   1      38.475  29.258  28.779  1.00  0.00    -0.014 A 
BRANCH  33  34
ATOM     34  C   UNL A   1      39.887  28.923  29.099  1.00  0.00     0.031 A 
ATOM     35  C   UNL A   1      40.789  29.948  29.733  1.00  0.00     0.074 A 
ATOM     36  C   UNL A   1      40.370  27.709  28.766  1.00  0.00     0.049 A 
ATOM     37  N   UNL A   1      42.059  29.854  30.033  1.00  0.00    -0.248 NA
ATOM     38  C   UNL A   1      40.195  31.256  30.050  1.00  0.00     0.031 C 
ATOM     39  C   UNL A   1      39.607  26.648  28.103  1.00  0.00     0.029 A 
ATOM     40  N   UNL A   1      41.618  27.162  28.931  1.00  0.00    -0.354 N 
ATOM     41  C   UNL A   1      42.417  31.087  30.567  1.00  0.00     0.074 A 
ATOM     42  C   UNL A   1      41.243  31.931  30.499  1.00  0.00     0.031 C 
ATOM     43  C   UNL A   1      40.396  25.574  27.938  1.00  0.00     0.029 A 
ATOM     44  C   UNL A   1      41.730  25.881  28.444  1.00  0.00     0.049 A 
ATOM     45  H   UNL A   1      42.364  27.642  29.358  1.00  0.00     0.167 HD
ATOM     46  C   UNL A   1      43.606  31.472  31.088  1.00  0.00     0.037 A 
ATOM     47  C   UNL A   1      42.789  25.050  28.398  1.00  0.00     0.037 A 
ATOM     48  C   UNL A   1      44.765  30.620  31.169  1.00  0.00     0.049 A 
ATOM     49  C   UNL A   1      44.103  25.507  28.973  1.00  0.00     0.074 A 
ATOM     50  C   UNL A   1      46.001  30.901  31.727  1.00  0.00     0.029 A 
ATOM     51  N   UNL A   1      44.835  29.323  30.680  1.00  0.00    -0.354 N 
ATOM     52  N   UNL A   1      44.403  26.654  29.533  1.00  0.00    -0.248 NA
ATOM     53  C   UNL A   1      45.221  24.554  28.919  1.00  0.00     0.031 C 
ATOM     54  C   UNL A   1      46.832  29.793  31.530  1.00  0.00     0.029 A 
ATOM     55  C   UNL A   1      46.097  28.800  30.901  1.00  0.00     0.049 A 
ATOM     56  H   UNL A   1      44.094  28.847  30.239  1.00  0.00     0.167 HD
ATOM     57  C   UNL A   1      45.735  26.551  29.922  1.00  0.00     0.074 A 
ATOM     58  C   UNL A   1      46.175  25.223  29.547  1.00  0.00     0.031 C 
ATOM     59  C   UNL A   1      46.521  27.473  30.530  1.00  0.00     0.037 A 
BRANCH  46  60
ATOM     60  C   UNL A   1      43.719  32.874  31.622  1.00  0.00     0.058 A 
ATOM     61  C   UNL A   1      43.942  33.970  30.772  1.00  0.00     0.135 A 
ATOM     62  C   UNL A   1      43.545  33.136  32.991  1.00  0.00     0.135 A 
ATOM     63  F   UNL A   1      44.131  33.779  29.456  1.00  0.00    -0.206 F 
ATOM     64  C   UNL A   1      44.007  35.271  31.262  1.00  0.00     0.059 A 
ATOM     65  C   UNL A   1      43.578  34.432  33.499  1.00  0.00     0.059 A 
ATOM     66  F   UNL A   1      43.330  32.126  33.850  1.00  0.00    -0.206 F 
ATOM     67  C   UNL A   1      43.820  35.492  32.627  1.00  0.00     0.060 A 
BRANCH  67  68
ATOM     68  S   UNL A   1      43.883  37.189  33.240  1.00  0.00     0.124 S 
ATOM     69  O   UNL A   1      43.903  37.948  31.993  1.00  0.00    -0.237 OA
ATOM     70  O   UNL A   1      42.652  37.283  34.019  1.00  0.00    -0.237 OA
ATOM     71  O   UNL A   1      45.118  37.226  34.016  1.00  0.00    -0.744 OA
ENDBRANCH  67  68
ENDBRANCH  46  60
BRANCH  47  72
ATOM     72  C   UNL A   1      42.652  23.697  27.793  1.00  0.00     0.058 A 
ATOM     73  C   UNL A   1      42.434  22.564  28.592  1.00  0.00     0.135 A 
ATOM     74  C   UNL A   1      42.743  23.508  26.406  1.00  0.00     0.135 A 
ATOM     75  F   UNL A   1      42.344  22.691  29.925  1.00  0.00    -0.206 F 
ATOM     76  C   UNL A   1      42.337  21.291  28.042  1.00  0.00     0.059 A 
ATOM     77  C   UNL A   1      42.620  22.248  25.828  1.00  0.00     0.059 A 
ATOM     78  F   UNL A   1      42.933  24.560  25.593  1.00  0.00    -0.206 F 
ATOM     79  C   UNL A   1      42.432  21.143  26.657  1.00  0.00     0.060 A 
BRANCH  79  80
ATOM     80  S   UNL A   1      42.276  19.488  25.949  1.00  0.00     0.124 S 
ATOM     81  O   UNL A   1      40.848  19.429  25.657  1.00  0.00    -0.237 OA
ATOM     82  O   UNL A   1      43.162  19.567  24.791  1.00  0.00    -0.237 OA
ATOM     83  O   UNL A   1      42.738  18.617  27.025  1.00  0.00    -0.744 OA
ENDBRANCH  79  80
ENDBRANCH  47  72
BRANCH  59  84
ATOM     84  C   UNL A   1      47.930  27.067  30.866  1.00  0.00     0.058 A 
ATOM     85  C   UNL A   1      48.264  26.518  32.114  1.00  0.00     0.135 A 
ATOM     86  C   UNL A   1      48.952  27.189  29.909  1.00  0.00     0.135 A 
ATOM     87  F   UNL A   1      47.328  26.385  33.067  1.00  0.00    -0.206 F 
ATOM     88  C   UNL A   1      49.567  26.130  32.413  1.00  0.00     0.059 A 
ATOM     89  C   UNL A   1      50.254  26.779  30.176  1.00  0.00     0.059 A 
ATOM     90  F   UNL A   1      48.685  27.697  28.696  1.00  0.00    -0.206 F 
ATOM     91  C   UNL A   1      50.555  26.263  31.435  1.00  0.00     0.060 A 
BRANCH  91  92
ATOM     92  S   UNL A   1      52.235  25.730  31.826  1.00  0.00     0.124 S 
ATOM     93  O   UNL A   1      52.928  26.004  30.571  1.00  0.00    -0.237 OA
ATOM     94  O   UNL A   1      52.585  26.598  32.946  1.00  0.00    -0.237 OA
ATOM     95  O   UNL A   1      52.076  24.318  32.160  1.00  0.00    -0.744 OA
ENDBRANCH  91  92
ENDBRANCH  59  84
ENDBRANCH  33  34
ENDBRANCH  25  28
ENDBRANCH  23  24
ENDBRANCH  22  23
ENDBRANCH   1  22
TORSDOF 17
ENDMDL
MODEL 3
REMARK VINA RESULT:     -11.4      4.440      7.421
REMARK SMILES C[C@@H](C(=O)NCCCNC(=O)c1ccc(-c2c3nc(c(-c4c(F)cc(S(=O)(=O)[O-])cc4F)c4ccc([nH]4)c(-c4c(F)cc(S(=O)(=O)[O-])cc4F)c4nc(c(-c5c(F)cc(S(=O)(=O)[O-])cc5F)c5ccc2[nH]5)C=C4)C=C3)cc1)c1ccc(C[C@H]2CCC[C@H]2O)cc1
REMARK SMILES IDX 6 1 5 2 3 3 4 4 2 6 1 7 78 8 79 9 90 10 80 11 89 12 81 13
REMARK SMILES IDX 82 14 83 15 84 16 87 17 85 18 86 19 88 20 7 22 8 23 9 24
REMARK SMILES IDX 10 25 11 27 12 28 13 29 77 30 14 31 76 32 15 33 16 34 17 35
REMARK SMILES IDX 70 36 18 37 75 38 69 39 71 40 19 41 74 42 68 43 67 44 20 46
REMARK SMILES IDX 54 47 33 48 53 49 34 50 37 51 52 52 72 53 35 54 36 55 51 57
REMARK SMILES IDX 73 58 38 59 21 60 22 61 31 62 23 63 24 64 30 65 32 66 25 67
REMARK SMILES IDX 26 68 27 69 28 70 29 71 55 72 56 73 65 74 57 75 58 76 64 77
REMARK SMILES IDX 66 78 59 79 60 80 61 81 62 82 63 83 39 84 40 85 49 86 41 87
REMARK SMILES IDX 42 88 48 89 50 90 43 91 44 92 45 93 46 94 47 95
REMARK H PARENT 5 5 88 21 9 26 71 45 37 56
REMARK Flexibility Score: inf
ROOT
ATOM      1  C   UNL A   1      35.094  33.785  31.168  1.00  0.00     0.117 C 
ENDROOT
BRANCH   1   2
ATOM      2  N   UNL A   1      36.483  34.072  30.865  1.00  0.00    -0.356 N 
ATOM      3  C   UNL A   1      37.574  34.099  31.684  1.00  0.00     0.227 C 
ATOM      4  O   UNL A   1      38.618  34.544  31.204  1.00  0.00    -0.274 OA
ATOM      5  H   UNL A   1      36.667  34.280  29.920  1.00  0.00     0.163 HD
BRANCH   3   6
ATOM      6  C   UNL A   1      37.470  33.539  33.108  1.00  0.00     0.105 C 
ATOM      7  C   UNL A   1      37.895  34.556  34.173  1.00  0.00     0.023 C 
BRANCH   6   8
ATOM      8  C   UNL A   1      38.220  32.218  33.242  1.00  0.00    -0.036 A 
ATOM      9  C   UNL A   1      39.589  32.237  33.535  1.00  0.00     0.005 A 
ATOM     10  C   UNL A   1      37.586  30.977  33.095  1.00  0.00     0.005 A 
ATOM     11  C   UNL A   1      40.322  31.053  33.579  1.00  0.00     0.004 A 
ATOM     12  C   UNL A   1      38.328  29.796  33.100  1.00  0.00     0.004 A 
ATOM     13  C   UNL A   1      39.715  29.831  33.279  1.00  0.00    -0.048 A 
BRANCH  13  14
ATOM     14  C   UNL A   1      40.541  28.585  33.091  1.00  0.00     0.041 C 
BRANCH  14  15
ATOM     15  C   UNL A   1      41.534  28.241  34.219  1.00  0.00     0.022 C 
ATOM     16  C   UNL A   1      41.527  26.784  34.717  1.00  0.00     0.007 C 
ATOM     17  C   UNL A   1      43.022  28.568  34.006  1.00  0.00     0.117 C 
ATOM     18  C   UNL A   1      42.948  26.496  35.211  1.00  0.00     0.003 C 
ATOM     19  C   UNL A   1      43.691  27.827  35.157  1.00  0.00     0.032 C 
BRANCH  17  20
ATOM     20  O   UNL A   1      43.577  28.094  32.792  1.00  0.00    -0.393 OA
ATOM     21  H   UNL A   1      43.658  27.128  32.830  1.00  0.00     0.210 HD
ENDBRANCH  17  20
ENDBRANCH  14  15
ENDBRANCH  13  14
ENDBRANCH   6   8
ENDBRANCH   3   6
ENDBRANCH   1   2
BRANCH   1  22
ATOM     22  C   UNL A   1      34.258  33.710  29.893  1.00  0.00     0.042 C 
BRANCH  22  23
ATOM     23  C   UNL A   1      34.900  32.890  28.779  1.00  0.00     0.118 C 
BRANCH  23  24
ATOM     24  N   UNL A   1      34.089  31.745  28.395  1.00  0.00    -0.352 N 
ATOM     25  C   UNL A   1      34.467  30.461  28.089  1.00  0.00     0.251 C 
ATOM     26  H   UNL A   1      33.121  31.917  28.346  1.00  0.00     0.163 HD
ATOM     27  O   UNL A   1      33.648  29.698  27.587  1.00  0.00    -0.269 OA
BRANCH  25  28
ATOM     28  C   UNL A   1      35.852  30.006  28.343  1.00  0.00     0.039 A 
ATOM     29  C   UNL A   1      36.778  30.061  27.297  1.00  0.00     0.014 A 
ATOM     30  C   UNL A   1      36.236  29.504  29.590  1.00  0.00     0.014 A 
ATOM     31  C   UNL A   1      38.100  29.672  27.521  1.00  0.00     0.010 A 
ATOM     32  C   UNL A   1      37.572  29.189  29.832  1.00  0.00     0.010 A 
ATOM     33  C   UNL A   1      38.518  29.268  28.800  1.00  0.00    -0.014 A 
BRANCH  33  34
ATOM     34  C   UNL A   1      39.942  28.941  29.072  1.00  0.00     0.031 A 
ATOM     35  C   UNL A   1      40.866  29.981  29.647  1.00  0.00     0.074 A 
ATOM     36  C   UNL A   1      40.414  27.720  28.750  1.00  0.00     0.049 A 
ATOM     37  N   UNL A   1      42.147  29.896  29.900  1.00  0.00    -0.248 NA
ATOM     38  C   UNL A   1      40.283  31.296  29.957  1.00  0.00     0.031 C 
ATOM     39  C   UNL A   1      39.628  26.644  28.141  1.00  0.00     0.029 A 
ATOM     40  N   UNL A   1      41.669  27.178  28.879  1.00  0.00    -0.354 N 
ATOM     41  C   UNL A   1      42.523  31.140  30.391  1.00  0.00     0.074 A 
ATOM     42  C   UNL A   1      41.346  31.982  30.349  1.00  0.00     0.031 C 
ATOM     43  C   UNL A   1      40.411  25.566  27.971  1.00  0.00     0.029 A 
ATOM     44  C   UNL A   1      41.764  25.886  28.417  1.00  0.00     0.049 A 
ATOM     45  H   UNL A   1      42.429  27.669  29.266  1.00  0.00     0.167 HD
ATOM     46  C   UNL A   1      43.731  31.539  30.856  1.00  0.00     0.037 A 
ATOM     47  C   UNL A   1      42.822  25.055  28.350  1.00  0.00     0.037 A 
ATOM     48  C   UNL A   1      44.894  30.689  30.913  1.00  0.00     0.049 A 
ATOM     49  C   UNL A   1      44.156  25.526  28.863  1.00  0.00     0.074 A 
ATOM     50  C   UNL A   1      46.150  30.984  31.415  1.00  0.00     0.029 A 
ATOM     51  N   UNL A   1      44.946  29.382  30.452  1.00  0.00    -0.354 N 
ATOM     52  N   UNL A   1      44.476  26.686  29.385  1.00  0.00    -0.248 NA
ATOM     53  C   UNL A   1      45.272  24.574  28.788  1.00  0.00     0.031 C 
ATOM     54  C   UNL A   1      46.975  29.873  31.213  1.00  0.00     0.029 A 
ATOM     55  C   UNL A   1      46.218  28.865  30.636  1.00  0.00     0.049 A 
ATOM     56  H   UNL A   1      44.190  28.895  30.051  1.00  0.00     0.167 HD
ATOM     57  C   UNL A   1      45.822  26.593  29.723  1.00  0.00     0.074 A 
ATOM     58  C   UNL A   1      46.249  25.258  29.364  1.00  0.00     0.031 C 
ATOM     59  C   UNL A   1      46.629  27.530  30.280  1.00  0.00     0.037 A 
BRANCH  46  60
ATOM     60  C   UNL A   1      43.862  32.953  31.353  1.00  0.00     0.058 A 
ATOM     61  C   UNL A   1      43.684  33.276  32.709  1.00  0.00     0.135 A 
ATOM     62  C   UNL A   1      44.229  33.989  30.478  1.00  0.00     0.135 A 
ATOM     63  F   UNL A   1      43.318  32.330  33.588  1.00  0.00    -0.206 F 
ATOM     64  C   UNL A   1      43.845  34.578  33.175  1.00  0.00     0.059 A 
ATOM     65  C   UNL A   1      44.423  35.293  30.928  1.00  0.00     0.059 A 
ATOM     66  F   UNL A   1      44.412  33.738  29.172  1.00  0.00    -0.206 F 
ATOM     67  C   UNL A   1      44.218  35.579  32.277  1.00  0.00     0.060 A 
BRANCH  67  68
ATOM     68  S   UNL A   1      44.446  37.256  32.904  1.00  0.00     0.124 S 
ATOM     69  O   UNL A   1      43.753  37.183  34.187  1.00  0.00    -0.237 OA
ATOM     70  O   UNL A   1      45.900  37.365  32.976  1.00  0.00    -0.237 OA
ATOM     71  O   UNL A   1      43.807  38.089  31.892  1.00  0.00    -0.744 OA
ENDBRANCH  67  68
ENDBRANCH  46  60
BRANCH  47  72
ATOM     72  C   UNL A   1      42.664  23.688  27.783  1.00  0.00     0.058 A 
ATOM     73  C   UNL A   1      42.637  23.476  26.397  1.00  0.00     0.135 A 
ATOM     74  C   UNL A   1      42.529  22.567  28.616  1.00  0.00     0.135 A 
ATOM     75  F   UNL A   1      42.756  24.517  25.557  1.00  0.00    -0.206 F 
ATOM     76  C   UNL A   1      42.456  22.208  25.855  1.00  0.00     0.059 A 
ATOM     77  C   UNL A   1      42.377  21.284  28.099  1.00  0.00     0.059 A 
ATOM     78  F   UNL A   1      42.567  22.710  29.950  1.00  0.00    -0.206 F 
ATOM     79  C   UNL A   1      42.326  21.117  26.715  1.00  0.00     0.060 A 
BRANCH  79  80
ATOM     80  S   UNL A   1      42.121  19.470  26.003  1.00  0.00     0.124 S 
ATOM     81  O   UNL A   1      42.620  18.622  27.080  1.00  0.00    -0.237 OA
ATOM     82  O   UNL A   1      40.683  19.418  25.762  1.00  0.00    -0.237 OA
ATOM     83  O   UNL A   1      42.950  19.519  24.802  1.00  0.00    -0.744 OA
ENDBRANCH  79  80
ENDBRANCH  47  72
BRANCH  59  84
ATOM     84  C   UNL A   1      48.051  27.133  30.570  1.00  0.00     0.058 A 
ATOM     85  C   UNL A   1      49.082  27.344  29.642  1.00  0.00     0.135 A 
ATOM     86  C   UNL A   1      48.392  26.572  31.813  1.00  0.00     0.135 A 
ATOM     87  F   UNL A   1      48.810  27.870  28.437  1.00  0.00    -0.206 F 
ATOM     88  C   UNL A   1      50.398  26.988  29.924  1.00  0.00     0.059 A 
ATOM     89  C   UNL A   1      49.705  26.238  32.127  1.00  0.00     0.059 A 
ATOM     90  F   UNL A   1      47.446  26.358  32.741  1.00  0.00    -0.206 F 
ATOM     91  C   UNL A   1      50.700  26.437  31.171  1.00  0.00     0.060 A 
BRANCH  91  92
ATOM     92  S   UNL A   1      52.414  26.006  31.533  1.00  0.00     0.124 S 
ATOM     93  O   UNL A   1      52.274  24.641  32.031  1.00  0.00    -0.237 OA
ATOM     94  O   UNL A   1      53.053  26.143  30.228  1.00  0.00    -0.237 OA
ATOM     95  O   UNL A   1      52.812  26.999  32.527  1.00  0.00    -0.744 OA
ENDBRANCH  91  92
ENDBRANCH  59  84
ENDBRANCH  33  34
ENDBRANCH  25  28
ENDBRANCH  23  24
ENDBRANCH  22  23
ENDBRANCH   1  22
TORSDOF 17
ENDMDL
