MODEL 1
REMARK VINA RESULT:     -10.9      0.000      0.000
REMARK SMILES CCOc1cc(CO)cc(Br)c1OCC(C)(C)C(=O)NCCCNC(=O)c1ccc(-c2c3nc(c(-c4c(F)cc(S(=O)(=O)[O-])cc4F)c4ccc([nH]4)c(-c4c(F)cc(S(=O)(=O)[O-])cc4F)c4nc(c(-c5c(F)cc(S(=O)(=O)[O-])cc5F)c5ccc2[nH]5)C=C4)C=C3)cc1
REMARK SMILES IDX 21 1 20 2 18 3 19 4 15 6 16 7 17 8 14 9 13 10 12 11 4 12
REMARK SMILES IDX 5 13 6 14 10 15 9 16 11 17 3 18 2 19 1 20 7 21 8 22 22 24
REMARK SMILES IDX 23 25 24 26 25 27 26 29 27 30 28 31 92 32 29 33 91 34 30 35
REMARK SMILES IDX 31 36 32 37 85 38 33 39 90 40 84 41 86 42 34 43 89 44 83 45
REMARK SMILES IDX 82 46 35 48 69 49 48 50 68 51 49 52 52 53 67 54 87 55 50 56
REMARK SMILES IDX 51 57 66 59 88 60 53 61 36 62 37 63 46 64 38 65 39 66 45 67
REMARK SMILES IDX 47 68 40 69 41 70 42 71 43 72 44 73 70 74 71 75 80 76 72 77
REMARK SMILES IDX 73 78 79 79 81 80 74 81 75 82 76 83 77 84 78 85 54 86 55 87
REMARK SMILES IDX 64 88 56 89 57 90 63 91 65 92 58 93 59 94 60 95 61 96 62 97
REMARK H PARENT 20 5 8 23 24 28 86 47 52 58
REMARK Flexibility Score: inf
ROOT
ATOM      1  C   UNL A   1      38.916  22.452  26.093  1.00  0.00     0.117 C 
ENDROOT
BRANCH   1   2
ATOM      2  N   UNL A   1      37.899  21.420  25.919  1.00  0.00    -0.355 N 
ATOM      3  C   UNL A   1      36.650  21.439  25.362  1.00  0.00     0.229 C 
ATOM      4  O   UNL A   1      36.051  20.362  25.334  1.00  0.00    -0.274 OA
ATOM      5  H   UNL A   1      38.164  20.539  26.268  1.00  0.00     0.163 HD
BRANCH   3   6
ATOM      6  C   UNL A   1      36.032  22.737  24.815  1.00  0.00     0.077 C 
ATOM      7  C   UNL A   1      36.555  22.966  23.392  1.00  0.00     0.025 C 
ATOM      8  C   UNL A   1      36.428  23.896  25.764  1.00  0.00     0.025 C 
BRANCH   6   9
ATOM      9  C   UNL A   1      34.454  22.688  24.904  1.00  0.00     0.246 C 
BRANCH   9  10
ATOM     10  O   UNL A   1      33.617  23.594  24.172  1.00  0.00    -0.487 OA
BRANCH  10  11
ATOM     11  C   UNL A   1      32.960  24.635  24.763  1.00  0.00     0.175 A 
ATOM     12  C   UNL A   1      33.373  25.905  24.307  1.00  0.00     0.162 A 
ATOM     13  C   UNL A   1      33.069  27.046  25.049  1.00  0.00     0.056 A 
ATOM     14  C   UNL A   1      32.343  26.954  26.241  1.00  0.00    -0.018 A 
ATOM     15  C   UNL A   1      32.011  24.583  25.791  1.00  0.00     0.064 A 
ATOM     16  C   UNL A   1      31.753  25.728  26.560  1.00  0.00     0.026 A 
ATOM     17  Br  UNL A   1      30.947  23.058  26.196  1.00  0.00    -0.047 Br
BRANCH  12  18
ATOM     18  O   UNL A   1      33.942  25.963  23.060  1.00  0.00    -0.490 OA
BRANCH  18  19
ATOM     19  C   UNL A   1      33.253  26.665  22.028  1.00  0.00     0.226 C 
ATOM     20  C   UNL A   1      31.989  25.956  21.562  1.00  0.00     0.049 C 
ENDBRANCH  18  19
ENDBRANCH  12  18
BRANCH  14  21
ATOM     21  C   UNL A   1      32.109  28.170  27.096  1.00  0.00     0.191 C 
BRANCH  21  22
ATOM     22  O   UNL A   1      31.419  27.829  28.294  1.00  0.00    -0.392 OA
ATOM     23  H   UNL A   1      31.036  28.631  28.684  1.00  0.00     0.211 HD
ENDBRANCH  21  22
ENDBRANCH  14  21
ENDBRANCH  10  11
ENDBRANCH   9  10
ENDBRANCH   6   9
ENDBRANCH   3   6
ENDBRANCH   1   2
BRANCH   1  24
ATOM     24  C   UNL A   1      40.073  22.002  26.960  1.00  0.00     0.042 C 
BRANCH  24  25
ATOM     25  C   UNL A   1      40.968  23.144  27.402  1.00  0.00     0.118 C 
BRANCH  25  26
ATOM     26  N   UNL A   1      41.573  23.844  26.274  1.00  0.00    -0.352 N 
ATOM     27  C   UNL A   1      41.688  25.191  26.035  1.00  0.00     0.251 C 
ATOM     28  H   UNL A   1      41.958  23.263  25.579  1.00  0.00     0.163 HD
ATOM     29  O   UNL A   1      42.031  25.584  24.921  1.00  0.00    -0.269 OA
BRANCH  27  30
ATOM     30  C   UNL A   1      41.379  26.157  27.107  1.00  0.00     0.039 A 
ATOM     31  C   UNL A   1      40.354  25.877  28.012  1.00  0.00     0.014 A 
ATOM     32  C   UNL A   1      42.117  27.336  27.229  1.00  0.00     0.014 A 
ATOM     33  C   UNL A   1      40.122  26.747  29.079  1.00  0.00     0.010 A 
ATOM     34  C   UNL A   1      41.971  28.131  28.357  1.00  0.00     0.010 A 
ATOM     35  C   UNL A   1      40.957  27.858  29.284  1.00  0.00    -0.014 A 
BRANCH  35  36
ATOM     36  C   UNL A   1      40.771  28.768  30.441  1.00  0.00     0.031 A 
ATOM     37  C   UNL A   1      41.622  28.597  31.672  1.00  0.00     0.074 A 
ATOM     38  C   UNL A   1      39.796  29.699  30.411  1.00  0.00     0.049 A 
ATOM     39  N   UNL A   1      41.575  29.246  32.806  1.00  0.00    -0.248 NA
ATOM     40  C   UNL A   1      42.640  27.531  31.638  1.00  0.00     0.031 C 
ATOM     41  C   UNL A   1      38.865  29.915  29.301  1.00  0.00     0.029 A 
ATOM     42  N   UNL A   1      39.423  30.634  31.341  1.00  0.00    -0.354 N 
ATOM     43  C   UNL A   1      42.538  28.659  33.619  1.00  0.00     0.074 A 
ATOM     44  C   UNL A   1      43.104  27.556  32.878  1.00  0.00     0.031 C 
ATOM     45  C   UNL A   1      38.053  30.941  29.600  1.00  0.00     0.029 A 
ATOM     46  C   UNL A   1      38.375  31.428  30.937  1.00  0.00     0.049 A 
ATOM     47  H   UNL A   1      39.863  30.729  32.217  1.00  0.00     0.167 HD
ATOM     48  C   UNL A   1      42.938  29.026  34.859  1.00  0.00     0.037 A 
ATOM     49  C   UNL A   1      37.744  32.433  31.574  1.00  0.00     0.037 A 
ATOM     50  C   UNL A   1      42.390  30.146  35.577  1.00  0.00     0.049 A 
ATOM     51  C   UNL A   1      38.211  32.829  32.949  1.00  0.00     0.074 A 
ATOM     52  C   UNL A   1      42.767  30.645  36.811  1.00  0.00     0.029 A 
ATOM     53  N   UNL A   1      41.347  30.941  35.124  1.00  0.00    -0.354 N 
ATOM     54  N   UNL A   1      39.175  32.310  33.674  1.00  0.00    -0.248 NA
ATOM     55  C   UNL A   1      37.514  33.951  33.589  1.00  0.00     0.031 C 
ATOM     56  C   UNL A   1      41.917  31.710  37.126  1.00  0.00     0.029 A 
ATOM     57  C   UNL A   1      41.050  31.912  36.065  1.00  0.00     0.049 A 
ATOM     58  H   UNL A   1      40.885  30.831  34.261  1.00  0.00     0.167 HD
ATOM     59  C   UNL A   1      39.218  33.061  34.843  1.00  0.00     0.074 A 
ATOM     60  C   UNL A   1      38.194  34.079  34.720  1.00  0.00     0.031 C 
ATOM     61  C   UNL A   1      40.028  32.921  35.922  1.00  0.00     0.037 A 
BRANCH  48  62
ATOM     62  C   UNL A   1      44.027  28.215  35.510  1.00  0.00     0.058 A 
ATOM     63  C   UNL A   1      43.736  27.133  36.358  1.00  0.00     0.135 A 
ATOM     64  C   UNL A   1      45.378  28.505  35.263  1.00  0.00     0.135 A 
ATOM     65  F   UNL A   1      42.463  26.821  36.646  1.00  0.00    -0.206 F 
ATOM     66  C   UNL A   1      44.744  26.390  36.962  1.00  0.00     0.059 A 
ATOM     67  C   UNL A   1      46.403  27.754  35.830  1.00  0.00     0.059 A 
ATOM     68  F   UNL A   1      45.715  29.530  34.463  1.00  0.00    -0.206 F 
ATOM     69  C   UNL A   1      46.076  26.707  36.691  1.00  0.00     0.060 A 
BRANCH  69  70
ATOM     70  S   UNL A   1      47.371  25.726  37.477  1.00  0.00     0.124 S 
ATOM     71  O   UNL A   1      47.962  26.700  38.389  1.00  0.00    -0.237 OA
ATOM     72  O   UNL A   1      46.609  24.651  38.104  1.00  0.00    -0.237 OA
ATOM     73  O   UNL A   1      48.217  25.319  36.358  1.00  0.00    -0.744 OA
ENDBRANCH  69  70
ENDBRANCH  48  62
BRANCH  49  74
ATOM     74  C   UNL A   1      36.624  33.151  30.908  1.00  0.00     0.058 A 
ATOM     75  C   UNL A   1      36.864  34.055  29.863  1.00  0.00     0.135 A 
ATOM     76  C   UNL A   1      35.290  32.940  31.293  1.00  0.00     0.135 A 
ATOM     77  F   UNL A   1      38.122  34.294  29.459  1.00  0.00    -0.206 F 
ATOM     78  C   UNL A   1      35.828  34.738  29.234  1.00  0.00     0.059 A 
ATOM     79  C   UNL A   1      34.234  33.590  30.661  1.00  0.00     0.059 A 
ATOM     80  F   UNL A   1      35.003  32.072  32.275  1.00  0.00    -0.206 F 
ATOM     81  C   UNL A   1      34.515  34.496  29.640  1.00  0.00     0.060 A 
BRANCH  81  82
ATOM     82  S   UNL A   1      33.174  35.354  28.786  1.00  0.00     0.124 S 
ATOM     83  O   UNL A   1      32.424  35.913  29.904  1.00  0.00    -0.237 OA
ATOM     84  O   UNL A   1      33.901  36.313  27.961  1.00  0.00    -0.237 OA
ATOM     85  O   UNL A   1      32.507  34.284  28.051  1.00  0.00    -0.744 OA
ENDBRANCH  81  82
ENDBRANCH  49  74
BRANCH  61  86
ATOM     86  C   UNL A   1      39.866  33.913  37.041  1.00  0.00     0.058 A 
ATOM     87  C   UNL A   1      40.587  35.116  37.071  1.00  0.00     0.135 A 
ATOM     88  C   UNL A   1      38.944  33.675  38.072  1.00  0.00     0.135 A 
ATOM     89  F   UNL A   1      41.485  35.391  36.111  1.00  0.00    -0.206 F 
ATOM     90  C   UNL A   1      40.423  36.035  38.103  1.00  0.00     0.059 A 
ATOM     91  C   UNL A   1      38.740  34.594  39.097  1.00  0.00     0.059 A 
ATOM     92  F   UNL A   1      38.219  32.545  38.084  1.00  0.00    -0.206 F 
ATOM     93  C   UNL A   1      39.496  35.765  39.111  1.00  0.00     0.060 A 
BRANCH  93  94
ATOM     94  S   UNL A   1      39.277  36.975  40.431  1.00  0.00     0.124 S 
ATOM     95  O   UNL A   1      38.490  38.005  39.758  1.00  0.00    -0.237 OA
ATOM     96  O   UNL A   1      38.572  36.203  41.449  1.00  0.00    -0.237 OA
ATOM     97  O   UNL A   1      40.644  37.356  40.775  1.00  0.00    -0.744 OA
ENDBRANCH  93  94
ENDBRANCH  61  86
ENDBRANCH  35  36
ENDBRANCH  27  30
ENDBRANCH  25  26
ENDBRANCH  24  25
ENDBRANCH   1  24
TORSDOF 20
ENDMDL
MODEL 2
REMARK VINA RESULT:     -10.9      5.397     11.620
REMARK SMILES CCOc1cc(CO)cc(Br)c1OCC(C)(C)C(=O)NCCCNC(=O)c1ccc(-c2c3nc(c(-c4c(F)cc(S(=O)(=O)[O-])cc4F)c4ccc([nH]4)c(-c4c(F)cc(S(=O)(=O)[O-])cc4F)c4nc(c(-c5c(F)cc(S(=O)(=O)[O-])cc5F)c5ccc2[nH]5)C=C4)C=C3)cc1
REMARK SMILES IDX 21 1 20 2 18 3 19 4 15 6 16 7 17 8 14 9 13 10 12 11 4 12
REMARK SMILES IDX 5 13 6 14 10 15 9 16 11 17 3 18 2 19 1 20 7 21 8 22 22 24
REMARK SMILES IDX 23 25 24 26 25 27 26 29 27 30 28 31 92 32 29 33 91 34 30 35
REMARK SMILES IDX 31 36 32 37 85 38 33 39 90 40 84 41 86 42 34 43 89 44 83 45
REMARK SMILES IDX 82 46 35 48 69 49 48 50 68 51 49 52 52 53 67 54 87 55 50 56
REMARK SMILES IDX 51 57 66 59 88 60 53 61 36 62 37 63 46 64 38 65 39 66 45 67
REMARK SMILES IDX 47 68 40 69 41 70 42 71 43 72 44 73 70 74 71 75 80 76 72 77
REMARK SMILES IDX 73 78 79 79 81 80 74 81 75 82 76 83 77 84 78 85 54 86 55 87
REMARK SMILES IDX 64 88 56 89 57 90 63 91 65 92 58 93 59 94 60 95 61 96 62 97
REMARK H PARENT 20 5 8 23 24 28 86 47 52 58
REMARK Flexibility Score: inf
ROOT
ATOM      1  C   UNL A   1      35.471  34.022  29.990  1.00  0.00     0.117 C 
ENDROOT
BRANCH   1   2
ATOM      2  N   UNL A   1      34.279  34.803  30.308  1.00  0.00    -0.355 N 
ATOM      3  C   UNL A   1      33.797  35.316  31.480  1.00  0.00     0.229 C 
ATOM      4  O   UNL A   1      32.762  35.980  31.398  1.00  0.00    -0.274 OA
ATOM      5  H   UNL A   1      33.713  34.999  29.527  1.00  0.00     0.163 HD
BRANCH   3   6
ATOM      6  C   UNL A   1      34.508  35.066  32.821  1.00  0.00     0.077 C 
ATOM      7  C   UNL A   1      34.094  33.685  33.344  1.00  0.00     0.025 C 
ATOM      8  C   UNL A   1      34.101  36.196  33.800  1.00  0.00     0.025 C 
BRANCH   6   9
ATOM      9  C   UNL A   1      36.073  35.236  32.666  1.00  0.00     0.246 C 
BRANCH   9  10
ATOM     10  O   UNL A   1      36.988  34.903  33.719  1.00  0.00    -0.487 OA
BRANCH  10  11
ATOM     11  C   UNL A   1      37.551  33.665  33.846  1.00  0.00     0.175 A 
ATOM     12  C   UNL A   1      38.172  33.196  32.670  1.00  0.00     0.162 A 
ATOM     13  C   UNL A   1      38.467  31.840  32.529  1.00  0.00     0.056 A 
ATOM     14  C   UNL A   1      38.169  30.932  33.550  1.00  0.00    -0.018 A 
ATOM     15  C   UNL A   1      37.513  32.811  34.955  1.00  0.00     0.064 A 
ATOM     16  C   UNL A   1      37.764  31.441  34.788  1.00  0.00     0.026 A 
ATOM     17  Br  UNL A   1      37.214  33.385  36.744  1.00  0.00    -0.047 Br
BRANCH  12  18
ATOM     18  O   UNL A   1      38.589  34.140  31.767  1.00  0.00    -0.490 OA
BRANCH  18  19
ATOM     19  C   UNL A   1      39.988  34.340  31.584  1.00  0.00     0.226 C 
ATOM     20  C   UNL A   1      40.735  34.576  32.890  1.00  0.00     0.049 C 
ENDBRANCH  18  19
ENDBRANCH  12  18
BRANCH  14  21
ATOM     21  C   UNL A   1      38.388  29.456  33.356  1.00  0.00     0.191 C 
BRANCH  21  22
ATOM     22  O   UNL A   1      37.149  28.754  33.324  1.00  0.00    -0.392 OA
ATOM     23  H   UNL A   1      36.524  29.175  33.935  1.00  0.00     0.211 HD
ENDBRANCH  21  22
ENDBRANCH  14  21
ENDBRANCH  10  11
ENDBRANCH   9  10
ENDBRANCH   6   9
ENDBRANCH   3   6
ENDBRANCH   1   2
BRANCH   1  24
ATOM     24  C   UNL A   1      35.168  32.563  29.722  1.00  0.00     0.042 C 
BRANCH  24  25
ATOM     25  C   UNL A   1      34.796  32.285  28.279  1.00  0.00     0.118 C 
BRANCH  25  26
ATOM     26  N   UNL A   1      34.231  30.953  28.096  1.00  0.00    -0.352 N 
ATOM     27  C   UNL A   1      34.861  29.741  27.963  1.00  0.00     0.251 C 
ATOM     28  H   UNL A   1      33.247  30.917  28.064  1.00  0.00     0.163 HD
ATOM     29  O   UNL A   1      34.220  28.759  27.593  1.00  0.00    -0.269 OA
BRANCH  27  30
ATOM     30  C   UNL A   1      36.307  29.629  28.243  1.00  0.00     0.039 A 
ATOM     31  C   UNL A   1      36.733  29.229  29.510  1.00  0.00     0.014 A 
ATOM     32  C   UNL A   1      37.242  29.905  27.244  1.00  0.00     0.014 A 
ATOM     33  C   UNL A   1      38.096  29.037  29.747  1.00  0.00     0.010 A 
ATOM     34  C   UNL A   1      38.579  29.592  27.442  1.00  0.00     0.010 A 
ATOM     35  C   UNL A   1      39.025  29.176  28.703  1.00  0.00    -0.014 A 
BRANCH  35  36
ATOM     36  C   UNL A   1      40.472  28.921  28.911  1.00  0.00     0.031 A 
ATOM     37  C   UNL A   1      41.056  27.580  28.552  1.00  0.00     0.074 A 
ATOM     38  C   UNL A   1      41.242  29.869  29.482  1.00  0.00     0.049 A 
ATOM     39  N   UNL A   1      42.277  27.141  28.712  1.00  0.00    -0.248 NA
ATOM     40  C   UNL A   1      40.138  26.587  27.967  1.00  0.00     0.031 C 
ATOM     41  C   UNL A   1      40.776  31.183  29.933  1.00  0.00     0.029 A 
ATOM     42  N   UNL A   1      42.580  29.873  29.785  1.00  0.00    -0.354 N 
ATOM     43  C   UNL A   1      42.267  25.824  28.266  1.00  0.00     0.074 A 
ATOM     44  C   UNL A   1      40.907  25.511  27.897  1.00  0.00     0.031 C 
ATOM     45  C   UNL A   1      41.816  31.877  30.421  1.00  0.00     0.029 A 
ATOM     46  C   UNL A   1      43.013  31.045  30.358  1.00  0.00     0.049 A 
ATOM     47  H   UNL A   1      43.175  29.108  29.609  1.00  0.00     0.167 HD
ATOM     48  C   UNL A   1      43.305  24.964  28.144  1.00  0.00     0.037 A 
ATOM     49  C   UNL A   1      44.238  31.407  30.787  1.00  0.00     0.037 A 
ATOM     50  C   UNL A   1      44.664  25.296  28.484  1.00  0.00     0.049 A 
ATOM     51  C   UNL A   1      45.378  30.437  30.634  1.00  0.00     0.074 A 
ATOM     52  C   UNL A   1      45.801  24.522  28.339  1.00  0.00     0.029 A 
ATOM     53  N   UNL A   1      45.067  26.502  29.039  1.00  0.00    -0.354 N 
ATOM     54  N   UNL A   1      45.365  29.221  30.140  1.00  0.00    -0.248 NA
ATOM     55  C   UNL A   1      46.700  30.889  31.085  1.00  0.00     0.031 C 
ATOM     56  C   UNL A   1      46.884  25.241  28.853  1.00  0.00     0.029 A 
ATOM     57  C   UNL A   1      46.433  26.485  29.265  1.00  0.00     0.049 A 
ATOM     58  H   UNL A   1      44.470  27.259  29.243  1.00  0.00     0.167 HD
ATOM     59  C   UNL A   1      46.681  28.773  30.196  1.00  0.00     0.074 A 
ATOM     60  C   UNL A   1      47.464  29.857  30.757  1.00  0.00     0.031 C 
ATOM     61  C   UNL A   1      47.195  27.576  29.821  1.00  0.00     0.037 A 
BRANCH  48  62
ATOM     62  C   UNL A   1      43.012  23.587  27.610  1.00  0.00     0.058 A 
ATOM     63  C   UNL A   1      43.173  23.271  26.251  1.00  0.00     0.135 A 
ATOM     64  C   UNL A   1      42.590  22.562  28.472  1.00  0.00     0.135 A 
ATOM     65  F   UNL A   1      43.556  24.215  25.377  1.00  0.00    -0.206 F 
ATOM     66  C   UNL A   1      42.896  22.000  25.760  1.00  0.00     0.059 A 
ATOM     67  C   UNL A   1      42.338  21.274  28.009  1.00  0.00     0.059 A 
ATOM     68  F   UNL A   1      42.416  22.807  29.781  1.00  0.00    -0.206 F 
ATOM     69  C   UNL A   1      42.480  21.006  26.647  1.00  0.00     0.060 A 
BRANCH  69  70
ATOM     70  S   UNL A   1      42.134  19.360  25.995  1.00  0.00     0.124 S 
ATOM     71  O   UNL A   1      42.927  19.360  24.769  1.00  0.00    -0.237 OA
ATOM     72  O   UNL A   1      42.620  18.494  27.064  1.00  0.00    -0.237 OA
ATOM     73  O   UNL A   1      40.687  19.365  25.805  1.00  0.00    -0.744 OA
ENDBRANCH  69  70
ENDBRANCH  48  62
BRANCH  49  74
ATOM     74  C   UNL A   1      44.453  32.757  31.375  1.00  0.00     0.058 A 
ATOM     75  C   UNL A   1      44.685  33.873  30.557  1.00  0.00     0.135 A 
ATOM     76  C   UNL A   1      44.418  32.963  32.763  1.00  0.00     0.135 A 
ATOM     77  F   UNL A   1      44.732  33.729  29.224  1.00  0.00    -0.206 F 
ATOM     78  C   UNL A   1      44.894  35.140  31.092  1.00  0.00     0.059 A 
ATOM     79  C   UNL A   1      44.596  34.225  33.321  1.00  0.00     0.059 A 
ATOM     80  F   UNL A   1      44.181  31.933  33.590  1.00  0.00    -0.206 F 
ATOM     81  C   UNL A   1      44.845  35.306  32.477  1.00  0.00     0.060 A 
BRANCH  81  82
ATOM     82  S   UNL A   1      45.071  36.964  33.158  1.00  0.00     0.124 S 
ATOM     83  O   UNL A   1      44.158  37.747  32.334  1.00  0.00    -0.237 OA
ATOM     84  O   UNL A   1      44.676  36.779  34.551  1.00  0.00    -0.237 OA
ATOM     85  O   UNL A   1      46.492  37.222  32.946  1.00  0.00    -0.744 OA
ENDBRANCH  81  82
ENDBRANCH  49  74
BRANCH  61  86
ATOM     86  C   UNL A   1      48.679  27.385  29.969  1.00  0.00     0.058 A 
ATOM     87  C   UNL A   1      49.564  27.613  28.904  1.00  0.00     0.135 A 
ATOM     88  C   UNL A   1      49.227  27.011  31.208  1.00  0.00     0.135 A 
ATOM     89  F   UNL A   1      49.093  27.968  27.698  1.00  0.00    -0.206 F 
ATOM     90  C   UNL A   1      50.937  27.447  29.052  1.00  0.00     0.059 A 
ATOM     91  C   UNL A   1      50.599  26.870  31.387  1.00  0.00     0.059 A 
ATOM     92  F   UNL A   1      48.426  26.793  32.263  1.00  0.00    -0.206 F 
ATOM     93  C   UNL A   1      51.445  27.076  30.299  1.00  0.00     0.060 A 
BRANCH  93  94
ATOM     94  S   UNL A   1      53.230  26.885  30.483  1.00  0.00     0.124 S 
ATOM     95  O   UNL A   1      53.580  28.096  31.218  1.00  0.00    -0.237 OA
ATOM     96  O   UNL A   1      53.335  25.636  31.231  1.00  0.00    -0.237 OA
ATOM     97  O   UNL A   1      53.711  26.826  29.105  1.00  0.00    -0.744 OA
ENDBRANCH  93  94
ENDBRANCH  61  86
ENDBRANCH  35  36
ENDBRANCH  27  30
ENDBRANCH  25  26
ENDBRANCH  24  25
ENDBRANCH   1  24
TORSDOF 20
ENDMDL
MODEL 3
REMARK VINA RESULT:     -10.9      1.373      8.405
REMARK SMILES CCOc1cc(CO)cc(Br)c1OCC(C)(C)C(=O)NCCCNC(=O)c1ccc(-c2c3nc(c(-c4c(F)cc(S(=O)(=O)[O-])cc4F)c4ccc([nH]4)c(-c4c(F)cc(S(=O)(=O)[O-])cc4F)c4nc(c(-c5c(F)cc(S(=O)(=O)[O-])cc5F)c5ccc2[nH]5)C=C4)C=C3)cc1
REMARK SMILES IDX 21 1 20 2 18 3 19 4 15 6 16 7 17 8 14 9 13 10 12 11 4 12
REMARK SMILES IDX 5 13 6 14 10 15 9 16 11 17 3 18 2 19 1 20 7 21 8 22 22 24
REMARK SMILES IDX 23 25 24 26 25 27 26 29 27 30 28 31 92 32 29 33 91 34 30 35
REMARK SMILES IDX 31 36 32 37 85 38 33 39 90 40 84 41 86 42 34 43 89 44 83 45
REMARK SMILES IDX 82 46 35 48 69 49 48 50 68 51 49 52 52 53 67 54 87 55 50 56
REMARK SMILES IDX 51 57 66 59 88 60 53 61 36 62 37 63 46 64 38 65 39 66 45 67
REMARK SMILES IDX 47 68 40 69 41 70 42 71 43 72 44 73 70 74 71 75 80 76 72 77
REMARK SMILES IDX 73 78 79 79 81 80 74 81 75 82 76 83 77 84 78 85 54 86 55 87
REMARK SMILES IDX 64 88 56 89 57 90 63 91 65 92 58 93 59 94 60 95 61 96 62 97
REMARK H PARENT 20 5 8 23 24 28 86 47 52 58
REMARK Flexibility Score: inf
ROOT
ATOM      1  C   UNL A   1      37.787  23.635  25.883  1.00  0.00     0.117 C 
ENDROOT
BRANCH   1   2
ATOM      2  N   UNL A   1      37.538  23.318  24.480  1.00  0.00    -0.355 N 
ATOM      3  C   UNL A   1      36.389  23.225  23.744  1.00  0.00     0.229 C 
ATOM      4  O   UNL A   1      36.531  22.975  22.546  1.00  0.00    -0.274 OA
ATOM      5  H   UNL A   1      38.356  23.138  23.964  1.00  0.00     0.163 HD
BRANCH   3   6
ATOM      6  C   UNL A   1      35.004  23.414  24.387  1.00  0.00     0.077 C 
ATOM      7  C   UNL A   1      34.910  22.508  25.620  1.00  0.00     0.025 C 
ATOM      8  C   UNL A   1      33.931  23.055  23.328  1.00  0.00     0.025 C 
BRANCH   6   9
ATOM      9  C   UNL A   1      34.737  24.939  24.705  1.00  0.00     0.246 C 
BRANCH   9  10
ATOM     10  O   UNL A   1      33.599  25.376  25.460  1.00  0.00    -0.487 OA
BRANCH  10  11
ATOM     11  C   UNL A   1      32.744  26.345  25.016  1.00  0.00     0.175 A 
ATOM     12  C   UNL A   1      31.584  25.842  24.391  1.00  0.00     0.162 A 
ATOM     13  C   UNL A   1      30.809  26.674  23.583  1.00  0.00     0.056 A 
ATOM     14  C   UNL A   1      31.158  28.015  23.392  1.00  0.00    -0.018 A 
ATOM     15  C   UNL A   1      32.926  27.733  25.044  1.00  0.00     0.064 A 
ATOM     16  C   UNL A   1      32.173  28.552  24.190  1.00  0.00     0.026 A 
ATOM     17  Br  UNL A   1      34.095  28.640  26.241  1.00  0.00    -0.047 Br
BRANCH  12  18
ATOM     18  O   UNL A   1      31.195  24.572  24.733  1.00  0.00    -0.490 OA
BRANCH  18  19
ATOM     19  C   UNL A   1      30.568  24.366  25.997  1.00  0.00     0.226 C 
ATOM     20  C   UNL A   1      31.151  23.191  26.770  1.00  0.00     0.049 C 
ENDBRANCH  18  19
ENDBRANCH  12  18
BRANCH  14  21
ATOM     21  C   UNL A   1      30.385  28.883  22.437  1.00  0.00     0.191 C 
BRANCH  21  22
ATOM     22  O   UNL A   1      31.227  29.862  21.837  1.00  0.00    -0.392 OA
ATOM     23  H   UNL A   1      31.124  29.829  20.873  1.00  0.00     0.211 HD
ENDBRANCH  21  22
ENDBRANCH  14  21
ENDBRANCH  10  11
ENDBRANCH   9  10
ENDBRANCH   6   9
ENDBRANCH   3   6
ENDBRANCH   1   2
BRANCH   1  24
ATOM     24  C   UNL A   1      38.843  22.750  26.512  1.00  0.00     0.042 C 
BRANCH  24  25
ATOM     25  C   UNL A   1      40.020  23.528  27.066  1.00  0.00     0.118 C 
BRANCH  25  26
ATOM     26  N   UNL A   1      40.707  24.305  26.039  1.00  0.00    -0.352 N 
ATOM     27  C   UNL A   1      41.105  25.619  26.050  1.00  0.00     0.251 C 
ATOM     28  H   UNL A   1      40.918  23.812  25.214  1.00  0.00     0.163 HD
ATOM     29  O   UNL A   1      41.468  26.153  25.003  1.00  0.00    -0.269 OA
BRANCH  27  30
ATOM     30  C   UNL A   1      41.073  26.387  27.310  1.00  0.00     0.039 A 
ATOM     31  C   UNL A   1      42.016  27.393  27.527  1.00  0.00     0.014 A 
ATOM     32  C   UNL A   1      40.097  26.122  28.273  1.00  0.00     0.014 A 
ATOM     33  C   UNL A   1      41.930  28.178  28.679  1.00  0.00     0.010 A 
ATOM     34  C   UNL A   1      39.936  26.982  29.350  1.00  0.00     0.010 A 
ATOM     35  C   UNL A   1      40.864  28.006  29.578  1.00  0.00    -0.014 A 
BRANCH  35  36
ATOM     36  C   UNL A   1      40.714  28.864  30.779  1.00  0.00     0.031 A 
ATOM     37  C   UNL A   1      39.655  29.934  30.808  1.00  0.00     0.074 A 
ATOM     38  C   UNL A   1      41.570  28.725  31.812  1.00  0.00     0.049 A 
ATOM     39  N   UNL A   1      39.403  30.823  31.734  1.00  0.00    -0.248 NA
ATOM     40  C   UNL A   1      38.785  30.045  29.624  1.00  0.00     0.031 C 
ATOM     41  C   UNL A   1      42.678  27.768  31.871  1.00  0.00     0.029 A 
ATOM     42  N   UNL A   1      41.646  29.391  33.008  1.00  0.00    -0.354 N 
ATOM     43  C   UNL A   1      38.363  31.602  31.237  1.00  0.00     0.074 A 
ATOM     44  C   UNL A   1      38.080  31.130  29.903  1.00  0.00     0.031 C 
ATOM     45  C   UNL A   1      43.299  27.885  33.056  1.00  0.00     0.029 A 
ATOM     46  C   UNL A   1      42.663  28.951  33.822  1.00  0.00     0.049 A 
ATOM     47  H   UNL A   1      41.030  30.117  33.260  1.00  0.00     0.167 HD
ATOM     48  C   UNL A   1      37.684  32.599  31.852  1.00  0.00     0.037 A 
ATOM     49  C   UNL A   1      43.041  29.364  35.048  1.00  0.00     0.037 A 
ATOM     50  C   UNL A   1      37.953  33.040  33.195  1.00  0.00     0.049 A 
ATOM     51  C   UNL A   1      42.266  30.468  35.715  1.00  0.00     0.074 A 
ATOM     52  C   UNL A   1      37.284  33.996  33.937  1.00  0.00     0.029 A 
ATOM     53  N   UNL A   1      38.976  32.553  33.997  1.00  0.00    -0.354 N 
ATOM     54  N   UNL A   1      41.237  31.144  35.259  1.00  0.00    -0.248 NA
ATOM     55  C   UNL A   1      42.696  30.860  37.062  1.00  0.00     0.031 C 
ATOM     56  C   UNL A   1      37.934  34.124  35.168  1.00  0.00     0.029 A 
ATOM     57  C   UNL A   1      38.971  33.207  35.217  1.00  0.00     0.049 A 
ATOM     58  H   UNL A   1      39.612  31.847  33.736  1.00  0.00     0.167 HD
ATOM     59  C   UNL A   1      40.879  32.022  36.277  1.00  0.00     0.074 A 
ATOM     60  C   UNL A   1      41.792  31.778  37.376  1.00  0.00     0.031 C 
ATOM     61  C   UNL A   1      39.887  32.947  36.301  1.00  0.00     0.037 A 
BRANCH  48  62
ATOM     62  C   UNL A   1      36.579  33.270  31.080  1.00  0.00     0.058 A 
ATOM     63  C   UNL A   1      35.226  33.062  31.395  1.00  0.00     0.135 A 
ATOM     64  C   UNL A   1      36.876  34.154  30.030  1.00  0.00     0.135 A 
ATOM     65  F   UNL A   1      34.882  32.214  32.377  1.00  0.00    -0.206 F 
ATOM     66  C   UNL A   1      34.208  33.679  30.677  1.00  0.00     0.059 A 
ATOM     67  C   UNL A   1      35.874  34.807  29.319  1.00  0.00     0.059 A 
ATOM     68  F   UNL A   1      38.152  34.388  29.684  1.00  0.00    -0.206 F 
ATOM     69  C   UNL A   1      34.541  34.552  29.641  1.00  0.00     0.060 A 
BRANCH  69  70
ATOM     70  S   UNL A   1      33.207  35.351  28.726  1.00  0.00     0.124 S 
ATOM     71  O   UNL A   1      33.950  36.274  27.873  1.00  0.00    -0.237 OA
ATOM     72  O   UNL A   1      32.578  34.224  28.045  1.00  0.00    -0.237 OA
ATOM     73  O   UNL A   1      32.402  35.975  29.772  1.00  0.00    -0.744 OA
ENDBRANCH  69  70
ENDBRANCH  48  62
BRANCH  49  74
ATOM     74  C   UNL A   1      44.190  28.711  35.732  1.00  0.00     0.058 A 
ATOM     75  C   UNL A   1      45.504  29.156  35.523  1.00  0.00     0.135 A 
ATOM     76  C   UNL A   1      43.999  27.639  36.618  1.00  0.00     0.135 A 
ATOM     77  F   UNL A   1      45.741  30.176  34.682  1.00  0.00    -0.206 F 
ATOM     78  C   UNL A   1      46.589  28.552  36.150  1.00  0.00     0.059 A 
ATOM     79  C   UNL A   1      45.065  27.037  37.279  1.00  0.00     0.059 A 
ATOM     80  F   UNL A   1      42.761  27.186  36.868  1.00  0.00    -0.206 F 
ATOM     81  C   UNL A   1      46.358  27.494  37.030  1.00  0.00     0.060 A 
BRANCH  81  82
ATOM     82  S   UNL A   1      47.769  26.747  37.875  1.00  0.00     0.124 S 
ATOM     83  O   UNL A   1      48.121  25.668  36.960  1.00  0.00    -0.237 OA
ATOM     84  O   UNL A   1      48.710  27.861  37.941  1.00  0.00    -0.237 OA
ATOM     85  O   UNL A   1      47.210  26.331  39.157  1.00  0.00    -0.744 OA
ENDBRANCH  81  82
ENDBRANCH  49  74
BRANCH  61  86
ATOM     86  C   UNL A   1      39.713  33.740  37.567  1.00  0.00     0.058 A 
ATOM     87  C   UNL A   1      40.359  34.970  37.763  1.00  0.00     0.135 A 
ATOM     88  C   UNL A   1      38.854  33.281  38.578  1.00  0.00     0.135 A 
ATOM     89  F   UNL A   1      41.195  35.452  36.829  1.00  0.00    -0.206 F 
ATOM     90  C   UNL A   1      40.183  35.704  38.932  1.00  0.00     0.059 A 
ATOM     91  C   UNL A   1      38.638  34.014  39.741  1.00  0.00     0.059 A 
ATOM     92  F   UNL A   1      38.201  32.117  38.436  1.00  0.00    -0.206 F 
ATOM     93  C   UNL A   1      39.319  35.218  39.915  1.00  0.00     0.060 A 
BRANCH  93  94
ATOM     94  S   UNL A   1      39.083  36.190  41.416  1.00  0.00     0.124 S 
ATOM     95  O   UNL A   1      38.923  37.535  40.873  1.00  0.00    -0.237 OA
ATOM     96  O   UNL A   1      37.883  35.591  41.990  1.00  0.00    -0.237 OA
ATOM     97  O   UNL A   1      40.314  35.960  42.169  1.00  0.00    -0.744 OA
ENDBRANCH  93  94
ENDBRANCH  61  86
ENDBRANCH  35  36
ENDBRANCH  27  30
ENDBRANCH  25  26
ENDBRANCH  24  25
ENDBRANCH   1  24
TORSDOF 20
ENDMDL
