MODEL 1
REMARK VINA RESULT:     -11.5      0.000      0.000
REMARK SMILES CC(C)CN(C)S(=O)(=O)c1ccc(C(=O)NCCCNC(=O)c2ccc(-c3c4nc(c(-c5c(F)cc(S(=O)(=O)[O-])cc5F)c5ccc([nH]5)c(-c5c(F)cc(S(=O)(=O)[O-])cc5F)c5nc(c(-c6c(F)cc(S(=O)(=O)[O-])cc6F)c6ccc3[nH]6)C=C5)C=C4)cc2)cc1
REMARK SMILES IDX 17 1 16 2 14 3 15 4 13 6 10 7 11 8 90 9 12 10 89 11 7 12
REMARK SMILES IDX 8 13 9 14 5 15 6 16 4 17 2 18 1 19 3 20 18 21 19 22 20 23
REMARK SMILES IDX 21 24 22 26 23 27 24 28 88 29 25 30 87 31 26 32 27 33 28 34
REMARK SMILES IDX 81 35 29 36 86 37 80 38 82 39 30 40 85 41 79 42 78 43 31 45
REMARK SMILES IDX 65 46 44 47 64 48 45 49 48 50 63 51 83 52 46 53 47 54 62 56
REMARK SMILES IDX 84 57 49 58 32 59 33 60 42 61 34 62 35 63 41 64 43 65 36 66
REMARK SMILES IDX 37 67 38 68 39 69 40 70 66 71 67 72 76 73 68 74 69 75 75 76
REMARK SMILES IDX 77 77 70 78 71 79 72 80 73 81 74 82 50 83 51 84 60 85 52 86
REMARK SMILES IDX 53 87 59 88 61 89 54 90 55 91 56 92 57 93 58 94
REMARK H PARENT 16 5 20 25 82 44 48 55
REMARK Flexibility Score: inf
ROOT
ATOM      1  C   UNL A   1      37.608  22.432  25.461  1.00  0.00     0.118 C 
ENDROOT
BRANCH   1   2
ATOM      2  N   UNL A   1      36.419  21.931  26.131  1.00  0.00    -0.352 N 
ATOM      3  C   UNL A   1      35.082  22.195  25.950  1.00  0.00     0.251 C 
ATOM      4  O   UNL A   1      34.271  21.506  26.571  1.00  0.00    -0.269 OA
ATOM      5  H   UNL A   1      36.606  21.281  26.848  1.00  0.00     0.163 HD
BRANCH   3   6
ATOM      6  C   UNL A   1      34.572  23.232  25.008  1.00  0.00     0.039 A 
ATOM      7  C   UNL A   1      33.519  25.281  23.382  1.00  0.00     0.082 A 
ATOM      8  C   UNL A   1      34.035  25.593  24.639  1.00  0.00     0.022 A 
ATOM      9  C   UNL A   1      33.632  23.974  22.899  1.00  0.00     0.022 A 
ATOM     10  C   UNL A   1      34.534  24.564  25.454  1.00  0.00     0.015 A 
ATOM     11  C   UNL A   1      34.180  22.969  23.696  1.00  0.00     0.015 A 
BRANCH   7  12
ATOM     12  S   UNL A   1      32.687  26.432  22.309  1.00  0.00     0.242 S 
ATOM     13  O   UNL A   1      31.854  25.645  21.421  1.00  0.00    -0.207 OA
ATOM     14  O   UNL A   1      33.724  27.287  21.778  1.00  0.00    -0.207 OA
BRANCH  12  15
ATOM     15  N   UNL A   1      31.627  27.405  23.265  1.00  0.00    -0.201 NA
ATOM     16  C   UNL A   1      30.679  26.584  24.084  1.00  0.00     0.124 C 
BRANCH  15  17
ATOM     17  C   UNL A   1      30.823  28.379  22.430  1.00  0.00     0.105 C 
BRANCH  17  18
ATOM     18  C   UNL A   1      29.680  29.063  23.204  1.00  0.00    -0.002 C 
ATOM     19  C   UNL A   1      30.134  30.289  23.999  1.00  0.00     0.009 C 
ATOM     20  C   UNL A   1      28.602  29.508  22.206  1.00  0.00     0.009 C 
ENDBRANCH  17  18
ENDBRANCH  15  17
ENDBRANCH  12  15
ENDBRANCH   7  12
ENDBRANCH   3   6
ENDBRANCH   1   2
BRANCH   1  21
ATOM     21  C   UNL A   1      38.167  23.680  26.144  1.00  0.00     0.042 C 
BRANCH  21  22
ATOM     22  C   UNL A   1      39.408  23.418  26.991  1.00  0.00     0.118 C 
BRANCH  22  23
ATOM     23  N   UNL A   1      40.635  23.670  26.252  1.00  0.00    -0.352 N 
ATOM     24  C   UNL A   1      41.494  24.740  26.315  1.00  0.00     0.251 C 
ATOM     25  H   UNL A   1      40.887  22.968  25.610  1.00  0.00     0.163 HD
ATOM     26  O   UNL A   1      42.367  24.852  25.458  1.00  0.00    -0.269 OA
BRANCH  24  27
ATOM     27  C   UNL A   1      41.373  25.756  27.385  1.00  0.00     0.039 A 
ATOM     28  C   UNL A   1      40.373  25.597  28.350  1.00  0.00     0.014 A 
ATOM     29  C   UNL A   1      42.191  26.890  27.415  1.00  0.00     0.014 A 
ATOM     30  C   UNL A   1      40.219  26.548  29.363  1.00  0.00     0.010 A 
ATOM     31  C   UNL A   1      42.079  27.806  28.460  1.00  0.00     0.010 A 
ATOM     32  C   UNL A   1      41.083  27.651  29.436  1.00  0.00    -0.014 A 
BRANCH  32  33
ATOM     33  C   UNL A   1      40.952  28.661  30.516  1.00  0.00     0.031 A 
ATOM     34  C   UNL A   1      41.834  28.587  31.731  1.00  0.00     0.074 A 
ATOM     35  C   UNL A   1      39.986  29.596  30.438  1.00  0.00     0.049 A 
ATOM     36  N   UNL A   1      41.821  29.331  32.808  1.00  0.00    -0.248 NA
ATOM     37  C   UNL A   1      42.843  27.519  31.750  1.00  0.00     0.031 C 
ATOM     38  C   UNL A   1      39.027  29.730  29.341  1.00  0.00     0.029 A 
ATOM     39  N   UNL A   1      39.638  30.596  31.311  1.00  0.00    -0.354 N 
ATOM     40  C   UNL A   1      42.797  28.802  33.644  1.00  0.00     0.074 A 
ATOM     41  C   UNL A   1      43.358  27.654  32.963  1.00  0.00     0.031 C 
ATOM     42  C   UNL A   1      38.201  30.755  29.604  1.00  0.00     0.029 A 
ATOM     43  C   UNL A   1      38.555  31.334  30.897  1.00  0.00     0.049 A 
ATOM     44  H   UNL A   1      40.119  30.770  32.152  1.00  0.00     0.167 HD
ATOM     45  C   UNL A   1      43.200  29.242  34.861  1.00  0.00     0.037 A 
ATOM     46  C   UNL A   1      37.912  32.356  31.495  1.00  0.00     0.037 A 
ATOM     47  C   UNL A   1      42.663  30.405  35.517  1.00  0.00     0.049 A 
ATOM     48  C   UNL A   1      38.408  32.864  32.817  1.00  0.00     0.074 A 
ATOM     49  C   UNL A   1      43.062  30.985  36.709  1.00  0.00     0.029 A 
ATOM     50  N   UNL A   1      41.604  31.163  35.039  1.00  0.00    -0.354 N 
ATOM     51  N   UNL A   1      39.389  32.405  33.559  1.00  0.00    -0.248 NA
ATOM     52  C   UNL A   1      37.722  34.035  33.380  1.00  0.00     0.031 C 
ATOM     53  C   UNL A   1      42.224  32.077  36.966  1.00  0.00     0.029 A 
ATOM     54  C   UNL A   1      41.323  32.196  35.919  1.00  0.00     0.049 A 
ATOM     55  H   UNL A   1      41.122  30.992  34.199  1.00  0.00     0.167 HD
ATOM     56  C   UNL A   1      39.447  33.237  34.671  1.00  0.00     0.074 A 
ATOM     57  C   UNL A   1      38.409  34.237  34.498  1.00  0.00     0.031 C 
ATOM     58  C   UNL A   1      40.282  33.178  35.736  1.00  0.00     0.037 A 
BRANCH  45  59
ATOM     59  C   UNL A   1      44.272  28.448  35.556  1.00  0.00     0.058 A 
ATOM     60  C   UNL A   1      45.636  28.676  35.314  1.00  0.00     0.135 A 
ATOM     61  C   UNL A   1      43.929  27.428  36.458  1.00  0.00     0.135 A 
ATOM     62  F   UNL A   1      46.017  29.631  34.450  1.00  0.00    -0.206 F 
ATOM     63  C   UNL A   1      46.621  27.890  35.901  1.00  0.00     0.059 A 
ATOM     64  C   UNL A   1      44.899  26.644  37.077  1.00  0.00     0.059 A 
ATOM     65  F   UNL A   1      42.640  27.168  36.729  1.00  0.00    -0.206 F 
ATOM     66  C   UNL A   1      46.241  26.866  36.771  1.00  0.00     0.060 A 
BRANCH  66  67
ATOM     67  S   UNL A   1      47.523  25.818  37.491  1.00  0.00     0.124 S 
ATOM     68  O   UNL A   1      46.722  24.765  38.109  1.00  0.00    -0.237 OA
ATOM     69  O   UNL A   1      48.300  25.417  36.323  1.00  0.00    -0.237 OA
ATOM     70  O   UNL A   1      48.209  26.712  38.418  1.00  0.00    -0.744 OA
ENDBRANCH  66  67
ENDBRANCH  45  59
BRANCH  46  71
ATOM     71  C   UNL A   1      36.747  32.973  30.812  1.00  0.00     0.058 A 
ATOM     72  C   UNL A   1      35.440  32.716  31.247  1.00  0.00     0.135 A 
ATOM     73  C   UNL A   1      36.924  33.895  29.769  1.00  0.00     0.135 A 
ATOM     74  F   UNL A   1      35.225  31.837  32.239  1.00  0.00    -0.206 F 
ATOM     75  C   UNL A   1      34.346  33.361  30.682  1.00  0.00     0.059 A 
ATOM     76  C   UNL A   1      35.846  34.565  29.199  1.00  0.00     0.059 A 
ATOM     77  F   UNL A   1      38.159  34.185  29.331  1.00  0.00    -0.206 F 
ATOM     78  C   UNL A   1      34.560  34.293  29.665  1.00  0.00     0.060 A 
BRANCH  78  79
ATOM     79  S   UNL A   1      33.145  35.207  29.014  1.00  0.00     0.124 S 
ATOM     80  O   UNL A   1      33.791  36.385  28.446  1.00  0.00    -0.237 OA
ATOM     81  O   UNL A   1      32.582  34.262  28.055  1.00  0.00    -0.237 OA
ATOM     82  O   UNL A   1      32.326  35.444  30.200  1.00  0.00    -0.744 OA
ENDBRANCH  78  79
ENDBRANCH  46  71
BRANCH  58  83
ATOM     83  C   UNL A   1      40.119  34.228  36.797  1.00  0.00     0.058 A 
ATOM     84  C   UNL A   1      40.810  35.447  36.732  1.00  0.00     0.135 A 
ATOM     85  C   UNL A   1      39.223  34.034  37.861  1.00  0.00     0.135 A 
ATOM     86  F   UNL A   1      41.683  35.677  35.738  1.00  0.00    -0.206 F 
ATOM     87  C   UNL A   1      40.632  36.434  37.697  1.00  0.00     0.059 A 
ATOM     88  C   UNL A   1      39.015  35.015  38.826  1.00  0.00     0.059 A 
ATOM     89  F   UNL A   1      38.532  32.888  37.963  1.00  0.00    -0.206 F 
ATOM     90  C   UNL A   1      39.732  36.209  38.740  1.00  0.00     0.060 A 
BRANCH  90  91
ATOM     91  S   UNL A   1      39.479  37.509  39.967  1.00  0.00     0.124 S 
ATOM     92  O   UNL A   1      40.759  38.208  39.921  1.00  0.00    -0.237 OA
ATOM     93  O   UNL A   1      38.339  38.240  39.422  1.00  0.00    -0.237 OA
ATOM     94  O   UNL A   1      39.210  36.768  41.195  1.00  0.00    -0.744 OA
ENDBRANCH  90  91
ENDBRANCH  58  83
ENDBRANCH  32  33
ENDBRANCH  24  27
ENDBRANCH  22  23
ENDBRANCH  21  22
ENDBRANCH   1  21
TORSDOF 17
ENDMDL
MODEL 2
REMARK VINA RESULT:     -11.5      6.417     11.917
REMARK SMILES CC(C)CN(C)S(=O)(=O)c1ccc(C(=O)NCCCNC(=O)c2ccc(-c3c4nc(c(-c5c(F)cc(S(=O)(=O)[O-])cc5F)c5ccc([nH]5)c(-c5c(F)cc(S(=O)(=O)[O-])cc5F)c5nc(c(-c6c(F)cc(S(=O)(=O)[O-])cc6F)c6ccc3[nH]6)C=C5)C=C4)cc2)cc1
REMARK SMILES IDX 17 1 16 2 14 3 15 4 13 6 10 7 11 8 90 9 12 10 89 11 7 12
REMARK SMILES IDX 8 13 9 14 5 15 6 16 4 17 2 18 1 19 3 20 18 21 19 22 20 23
REMARK SMILES IDX 21 24 22 26 23 27 24 28 88 29 25 30 87 31 26 32 27 33 28 34
REMARK SMILES IDX 81 35 29 36 86 37 80 38 82 39 30 40 85 41 79 42 78 43 31 45
REMARK SMILES IDX 65 46 44 47 64 48 45 49 48 50 63 51 83 52 46 53 47 54 62 56
REMARK SMILES IDX 84 57 49 58 32 59 33 60 42 61 34 62 35 63 41 64 43 65 36 66
REMARK SMILES IDX 37 67 38 68 39 69 40 70 66 71 67 72 76 73 68 74 69 75 75 76
REMARK SMILES IDX 77 77 70 78 71 79 72 80 73 81 74 82 50 83 51 84 60 85 52 86
REMARK SMILES IDX 53 87 59 88 61 89 54 90 55 91 56 92 57 93 58 94
REMARK H PARENT 16 5 20 25 82 44 48 55
REMARK Flexibility Score: inf
ROOT
ATOM      1  C   UNL A   1      33.487  30.312  26.959  1.00  0.00     0.118 C 
ENDROOT
BRANCH   1   2
ATOM      2  N   UNL A   1      32.398  29.547  27.547  1.00  0.00    -0.352 N 
ATOM      3  C   UNL A   1      31.867  28.318  27.237  1.00  0.00     0.251 C 
ATOM      4  O   UNL A   1      31.031  27.843  28.007  1.00  0.00    -0.269 OA
ATOM      5  H   UNL A   1      31.960  29.993  28.308  1.00  0.00     0.163 HD
BRANCH   3   6
ATOM      6  C   UNL A   1      32.289  27.518  26.051  1.00  0.00     0.039 A 
ATOM      7  C   UNL A   1      32.894  25.982  23.766  1.00  0.00     0.082 A 
ATOM      8  C   UNL A   1      31.877  26.932  23.709  1.00  0.00     0.022 A 
ATOM      9  C   UNL A   1      33.676  25.881  24.921  1.00  0.00     0.022 A 
ATOM     10  C   UNL A   1      31.562  27.675  24.859  1.00  0.00     0.015 A 
ATOM     11  C   UNL A   1      33.391  26.663  26.040  1.00  0.00     0.015 A 
BRANCH   7  12
ATOM     12  S   UNL A   1      33.291  24.836  22.462  1.00  0.00     0.242 S 
ATOM     13  O   UNL A   1      34.614  24.318  22.752  1.00  0.00    -0.207 OA
ATOM     14  O   UNL A   1      33.034  25.546  21.230  1.00  0.00    -0.207 OA
BRANCH  12  15
ATOM     15  N   UNL A   1      32.196  23.503  22.552  1.00  0.00    -0.201 NA
ATOM     16  C   UNL A   1      31.174  23.674  23.634  1.00  0.00     0.124 C 
BRANCH  15  17
ATOM     17  C   UNL A   1      32.906  22.183  22.764  1.00  0.00     0.105 C 
BRANCH  17  18
ATOM     18  C   UNL A   1      32.656  21.561  24.151  1.00  0.00    -0.002 C 
ATOM     19  C   UNL A   1      32.532  20.036  24.118  1.00  0.00     0.009 C 
ATOM     20  C   UNL A   1      33.824  21.929  25.077  1.00  0.00     0.009 C 
ENDBRANCH  17  18
ENDBRANCH  15  17
ENDBRANCH  12  15
ENDBRANCH   7  12
ENDBRANCH   3   6
ENDBRANCH   1   2
BRANCH   1  21
ATOM     21  C   UNL A   1      34.834  29.971  27.597  1.00  0.00     0.042 C 
BRANCH  21  22
ATOM     22  C   UNL A   1      35.525  31.161  28.253  1.00  0.00     0.118 C 
BRANCH  22  23
ATOM     23  N   UNL A   1      35.434  31.112  29.704  1.00  0.00    -0.352 N 
ATOM     24  C   UNL A   1      36.316  30.599  30.623  1.00  0.00     0.251 C 
ATOM     25  H   UNL A   1      34.616  31.508  30.084  1.00  0.00     0.163 HD
ATOM     26  O   UNL A   1      35.954  30.476  31.790  1.00  0.00    -0.269 OA
BRANCH  24  27
ATOM     27  C   UNL A   1      37.680  30.182  30.224  1.00  0.00     0.039 A 
ATOM     28  C   UNL A   1      38.061  30.330  28.886  1.00  0.00     0.014 A 
ATOM     29  C   UNL A   1      38.563  29.595  31.136  1.00  0.00     0.014 A 
ATOM     30  C   UNL A   1      39.334  29.930  28.472  1.00  0.00     0.010 A 
ATOM     31  C   UNL A   1      39.854  29.253  30.736  1.00  0.00     0.010 A 
ATOM     32  C   UNL A   1      40.248  29.404  29.398  1.00  0.00    -0.014 A 
BRANCH  32  33
ATOM     33  C   UNL A   1      41.613  28.994  28.985  1.00  0.00     0.031 A 
ATOM     34  C   UNL A   1      42.720  30.008  28.918  1.00  0.00     0.074 A 
ATOM     35  C   UNL A   1      41.836  27.724  28.595  1.00  0.00     0.049 A 
ATOM     36  N   UNL A   1      43.956  29.859  28.513  1.00  0.00    -0.248 NA
ATOM     37  C   UNL A   1      42.386  31.378  29.334  1.00  0.00     0.031 C 
ATOM     38  C   UNL A   1      40.828  26.664  28.554  1.00  0.00     0.029 A 
ATOM     39  N   UNL A   1      42.978  27.118  28.136  1.00  0.00    -0.354 N 
ATOM     40  C   UNL A   1      44.536  31.119  28.596  1.00  0.00     0.074 A 
ATOM     41  C   UNL A   1      43.508  32.026  29.057  1.00  0.00     0.031 C 
ATOM     42  C   UNL A   1      41.396  25.537  28.098  1.00  0.00     0.029 A 
ATOM     43  C   UNL A   1      42.799  25.800  27.791  1.00  0.00     0.049 A 
ATOM     44  H   UNL A   1      43.843  27.582  28.061  1.00  0.00     0.167 HD
ATOM     45  C   UNL A   1      45.814  31.482  28.328  1.00  0.00     0.037 A 
ATOM     46  C   UNL A   1      43.665  24.904  27.277  1.00  0.00     0.037 A 
ATOM     47  C   UNL A   1      46.841  30.568  27.903  1.00  0.00     0.049 A 
ATOM     48  C   UNL A   1      45.090  25.312  27.038  1.00  0.00     0.074 A 
ATOM     49  C   UNL A   1      48.186  30.819  27.690  1.00  0.00     0.029 A 
ATOM     50  N   UNL A   1      46.636  29.225  27.620  1.00  0.00    -0.354 N 
ATOM     51  N   UNL A   1      45.646  26.489  27.202  1.00  0.00    -0.248 NA
ATOM     52  C   UNL A   1      46.008  24.270  26.559  1.00  0.00     0.031 C 
ATOM     53  C   UNL A   1      48.787  29.634  27.249  1.00  0.00     0.029 A 
ATOM     54  C   UNL A   1      47.825  28.637  27.218  1.00  0.00     0.049 A 
ATOM     55  H   UNL A   1      45.773  28.759  27.694  1.00  0.00     0.167 HD
ATOM     56  C   UNL A   1      46.983  26.329  26.857  1.00  0.00     0.074 A 
ATOM     57  C   UNL A   1      47.154  24.936  26.488  1.00  0.00     0.031 C 
ATOM     58  C   UNL A   1      47.976  27.251  26.847  1.00  0.00     0.037 A 
BRANCH  45  59
ATOM     59  C   UNL A   1      46.158  32.938  28.482  1.00  0.00     0.058 A 
ATOM     60  C   UNL A   1      46.070  33.837  27.407  1.00  0.00     0.135 A 
ATOM     61  C   UNL A   1      46.605  33.437  29.717  1.00  0.00     0.135 A 
ATOM     62  F   UNL A   1      45.661  33.409  26.202  1.00  0.00    -0.206 F 
ATOM     63  C   UNL A   1      46.460  35.165  27.535  1.00  0.00     0.059 A 
ATOM     64  C   UNL A   1      46.977  34.769  29.874  1.00  0.00     0.059 A 
ATOM     65  F   UNL A   1      46.705  32.623  30.779  1.00  0.00    -0.206 F 
ATOM     66  C   UNL A   1      46.926  35.619  28.770  1.00  0.00     0.060 A 
BRANCH  66  67
ATOM     67  S   UNL A   1      47.477  37.332  28.915  1.00  0.00     0.124 S 
ATOM     68  O   UNL A   1      48.690  37.178  29.713  1.00  0.00    -0.237 OA
ATOM     69  O   UNL A   1      47.682  37.720  27.523  1.00  0.00    -0.237 OA
ATOM     70  O   UNL A   1      46.362  37.990  29.587  1.00  0.00    -0.744 OA
ENDBRANCH  66  67
ENDBRANCH  45  59
BRANCH  46  71
ATOM     71  C   UNL A   1      43.192  23.527  26.990  1.00  0.00     0.058 A 
ATOM     72  C   UNL A   1      43.010  23.089  25.671  1.00  0.00     0.135 A 
ATOM     73  C   UNL A   1      42.995  22.599  28.025  1.00  0.00     0.135 A 
ATOM     74  F   UNL A   1      43.184  23.945  24.652  1.00  0.00    -0.206 F 
ATOM     75  C   UNL A   1      42.662  21.775  25.384  1.00  0.00     0.059 A 
ATOM     76  C   UNL A   1      42.662  21.274  27.760  1.00  0.00     0.059 A 
ATOM     77  F   UNL A   1      43.173  22.968  29.302  1.00  0.00    -0.206 F 
ATOM     78  C   UNL A   1      42.501  20.870  26.435  1.00  0.00     0.060 A 
BRANCH  78  79
ATOM     79  S   UNL A   1      42.158  19.140  26.047  1.00  0.00     0.124 S 
ATOM     80  O   UNL A   1      40.730  19.181  25.754  1.00  0.00    -0.237 OA
ATOM     81  O   UNL A   1      43.038  18.900  24.907  1.00  0.00    -0.237 OA
ATOM     82  O   UNL A   1      42.534  18.442  27.274  1.00  0.00    -0.744 OA
ENDBRANCH  78  79
ENDBRANCH  46  71
BRANCH  58  83
ATOM     83  C   UNL A   1      49.343  26.785  26.433  1.00  0.00     0.058 A 
ATOM     84  C   UNL A   1      49.798  26.935  25.115  1.00  0.00     0.135 A 
ATOM     85  C   UNL A   1      50.224  26.232  27.375  1.00  0.00     0.135 A 
ATOM     86  F   UNL A   1      48.990  27.451  24.175  1.00  0.00    -0.206 F 
ATOM     87  C   UNL A   1      51.077  26.535  24.739  1.00  0.00     0.059 A 
ATOM     88  C   UNL A   1      51.514  25.843  27.026  1.00  0.00     0.059 A 
ATOM     89  F   UNL A   1      49.839  26.076  28.652  1.00  0.00    -0.206 F 
ATOM     90  C   UNL A   1      51.927  25.990  25.702  1.00  0.00     0.060 A 
BRANCH  90  91
ATOM     91  S   UNL A   1      53.598  25.508  25.215  1.00  0.00     0.124 S 
ATOM     92  O   UNL A   1      54.367  26.687  25.602  1.00  0.00    -0.237 OA
ATOM     93  O   UNL A   1      53.828  24.311  26.017  1.00  0.00    -0.237 OA
ATOM     94  O   UNL A   1      53.479  25.278  23.779  1.00  0.00    -0.744 OA
ENDBRANCH  90  91
ENDBRANCH  58  83
ENDBRANCH  32  33
ENDBRANCH  24  27
ENDBRANCH  22  23
ENDBRANCH  21  22
ENDBRANCH   1  21
TORSDOF 17
ENDMDL
MODEL 3
REMARK VINA RESULT:     -11.4      2.382      8.914
REMARK SMILES CC(C)CN(C)S(=O)(=O)c1ccc(C(=O)NCCCNC(=O)c2ccc(-c3c4nc(c(-c5c(F)cc(S(=O)(=O)[O-])cc5F)c5ccc([nH]5)c(-c5c(F)cc(S(=O)(=O)[O-])cc5F)c5nc(c(-c6c(F)cc(S(=O)(=O)[O-])cc6F)c6ccc3[nH]6)C=C5)C=C4)cc2)cc1
REMARK SMILES IDX 17 1 16 2 14 3 15 4 13 6 10 7 11 8 90 9 12 10 89 11 7 12
REMARK SMILES IDX 8 13 9 14 5 15 6 16 4 17 2 18 1 19 3 20 18 21 19 22 20 23
REMARK SMILES IDX 21 24 22 26 23 27 24 28 88 29 25 30 87 31 26 32 27 33 28 34
REMARK SMILES IDX 81 35 29 36 86 37 80 38 82 39 30 40 85 41 79 42 78 43 31 45
REMARK SMILES IDX 65 46 44 47 64 48 45 49 48 50 63 51 83 52 46 53 47 54 62 56
REMARK SMILES IDX 84 57 49 58 32 59 33 60 42 61 34 62 35 63 41 64 43 65 36 66
REMARK SMILES IDX 37 67 38 68 39 69 40 70 66 71 67 72 76 73 68 74 69 75 75 76
REMARK SMILES IDX 77 77 70 78 71 79 72 80 73 81 74 82 50 83 51 84 60 85 52 86
REMARK SMILES IDX 53 87 59 88 61 89 54 90 55 91 56 92 57 93 58 94
REMARK H PARENT 16 5 20 25 82 44 48 55
REMARK Flexibility Score: inf
ROOT
ATOM      1  C   UNL A   1      31.788  30.785  26.586  1.00  0.00     0.118 C 
ENDROOT
BRANCH   1   2
ATOM      2  N   UNL A   1      33.051  30.293  27.112  1.00  0.00    -0.352 N 
ATOM      3  C   UNL A   1      33.889  29.287  26.696  1.00  0.00     0.251 C 
ATOM      4  O   UNL A   1      34.983  29.184  27.253  1.00  0.00    -0.269 OA
ATOM      5  H   UNL A   1      33.364  30.770  27.915  1.00  0.00     0.163 HD
BRANCH   3   6
ATOM      6  C   UNL A   1      33.560  28.355  25.579  1.00  0.00     0.039 A 
ATOM      7  C   UNL A   1      32.988  26.444  23.587  1.00  0.00     0.082 A 
ATOM      8  C   UNL A   1      32.607  26.202  24.905  1.00  0.00     0.022 A 
ATOM      9  C   UNL A   1      33.549  27.679  23.249  1.00  0.00     0.022 A 
ATOM     10  C   UNL A   1      32.919  27.146  25.897  1.00  0.00     0.015 A 
ATOM     11  C   UNL A   1      33.805  28.634  24.234  1.00  0.00     0.015 A 
BRANCH   7  12
ATOM     12  S   UNL A   1      32.834  25.275  22.252  1.00  0.00     0.242 S 
ATOM     13  O   UNL A   1      33.384  25.916  21.073  1.00  0.00    -0.207 OA
ATOM     14  O   UNL A   1      31.457  24.838  22.275  1.00  0.00    -0.207 OA
BRANCH  12  15
ATOM     15  N   UNL A   1      33.836  23.911  22.600  1.00  0.00    -0.201 NA
ATOM     16  C   UNL A   1      33.073  22.787  23.229  1.00  0.00     0.124 C 
BRANCH  15  17
ATOM     17  C   UNL A   1      35.003  24.264  23.498  1.00  0.00     0.105 C 
BRANCH  17  18
ATOM     18  C   UNL A   1      35.504  23.085  24.354  1.00  0.00    -0.002 C 
ATOM     19  C   UNL A   1      36.845  22.519  23.881  1.00  0.00     0.009 C 
ATOM     20  C   UNL A   1      35.666  23.560  25.804  1.00  0.00     0.009 C 
ENDBRANCH  17  18
ENDBRANCH  15  17
ENDBRANCH  12  15
ENDBRANCH   7  12
ENDBRANCH   3   6
ENDBRANCH   1   2
BRANCH   1  21
ATOM     21  C   UNL A   1      31.594  32.276  26.863  1.00  0.00     0.042 C 
BRANCH  21  22
ATOM     22  C   UNL A   1      32.891  33.024  27.150  1.00  0.00     0.118 C 
BRANCH  22  23
ATOM     23  N   UNL A   1      32.649  34.321  27.761  1.00  0.00    -0.352 N 
ATOM     24  C   UNL A   1      33.179  34.867  28.905  1.00  0.00     0.251 C 
ATOM     25  H   UNL A   1      32.008  34.895  27.282  1.00  0.00     0.163 HD
ATOM     26  O   UNL A   1      32.686  35.898  29.355  1.00  0.00    -0.269 OA
BRANCH  24  27
ATOM     27  C   UNL A   1      34.317  34.225  29.602  1.00  0.00     0.039 A 
ATOM     28  C   UNL A   1      34.050  33.391  30.693  1.00  0.00     0.014 A 
ATOM     29  C   UNL A   1      35.641  34.481  29.233  1.00  0.00     0.014 A 
ATOM     30  C   UNL A   1      35.102  32.784  31.385  1.00  0.00     0.010 A 
ATOM     31  C   UNL A   1      36.687  33.828  29.883  1.00  0.00     0.010 A 
ATOM     32  C   UNL A   1      36.428  32.985  30.974  1.00  0.00    -0.014 A 
BRANCH  32  33
ATOM     33  C   UNL A   1      37.559  32.332  31.681  1.00  0.00     0.031 A 
ATOM     34  C   UNL A   1      38.012  32.845  33.020  1.00  0.00     0.074 A 
ATOM     35  C   UNL A   1      38.228  31.329  31.081  1.00  0.00     0.049 A 
ATOM     36  N   UNL A   1      39.021  32.456  33.756  1.00  0.00    -0.248 NA
ATOM     37  C   UNL A   1      37.246  33.962  33.591  1.00  0.00     0.031 C 
ATOM     38  C   UNL A   1      37.925  30.786  29.756  1.00  0.00     0.029 A 
ATOM     39  N   UNL A   1      39.314  30.603  31.500  1.00  0.00    -0.354 N 
ATOM     40  C   UNL A   1      39.030  33.299  34.861  1.00  0.00     0.074 A 
ATOM     41  C   UNL A   1      37.946  34.241  34.680  1.00  0.00     0.031 C 
ATOM     42  C   UNL A   1      38.803  29.811  29.471  1.00  0.00     0.029 A 
ATOM     43  C   UNL A   1      39.744  29.678  30.579  1.00  0.00     0.049 A 
ATOM     44  H   UNL A   1      39.745  30.733  32.375  1.00  0.00     0.167 HD
ATOM     45  C   UNL A   1      39.855  33.278  35.936  1.00  0.00     0.037 A 
ATOM     46  C   UNL A   1      40.785  28.822  30.619  1.00  0.00     0.037 A 
ATOM     47  C   UNL A   1      40.909  32.317  36.126  1.00  0.00     0.049 A 
ATOM     48  C   UNL A   1      41.654  28.778  31.841  1.00  0.00     0.074 A 
ATOM     49  C   UNL A   1      41.744  32.156  37.219  1.00  0.00     0.029 A 
ATOM     50  N   UNL A   1      41.278  31.355  35.197  1.00  0.00    -0.354 N 
ATOM     51  N   UNL A   1      41.598  29.526  32.918  1.00  0.00    -0.248 NA
ATOM     52  C   UNL A   1      42.719  27.766  31.863  1.00  0.00     0.031 C 
ATOM     53  C   UNL A   1      42.637  31.115  36.937  1.00  0.00     0.029 A 
ATOM     54  C   UNL A   1      42.338  30.606  35.683  1.00  0.00     0.049 A 
ATOM     55  H   UNL A   1      40.848  31.223  34.321  1.00  0.00     0.167 HD
ATOM     56  C   UNL A   1      42.612  29.070  33.751  1.00  0.00     0.074 A 
ATOM     57  C   UNL A   1      43.258  27.970  33.059  1.00  0.00     0.031 C 
ATOM     58  C   UNL A   1      42.974  29.520  34.978  1.00  0.00     0.037 A 
BRANCH  45  59
ATOM     59  C   UNL A   1      39.646  34.341  36.980  1.00  0.00     0.058 A 
ATOM     60  C   UNL A   1      40.218  35.617  36.860  1.00  0.00     0.135 A 
ATOM     61  C   UNL A   1      38.882  34.070  38.127  1.00  0.00     0.135 A 
ATOM     62  F   UNL A   1      40.968  35.923  35.790  1.00  0.00    -0.206 F 
ATOM     63  C   UNL A   1      40.085  36.571  37.863  1.00  0.00     0.059 A 
ATOM     64  C   UNL A   1      38.714  35.019  39.132  1.00  0.00     0.059 A 
ATOM     65  F   UNL A   1      38.310  32.868  38.291  1.00  0.00    -0.206 F 
ATOM     66  C   UNL A   1      39.342  36.257  39.002  1.00  0.00     0.060 A 
BRANCH  66  67
ATOM     67  S   UNL A   1      39.214  37.484  40.321  1.00  0.00     0.124 S 
ATOM     68  O   UNL A   1      38.130  38.328  39.826  1.00  0.00    -0.237 OA
ATOM     69  O   UNL A   1      38.895  36.666  41.487  1.00  0.00    -0.237 OA
ATOM     70  O   UNL A   1      40.535  38.102  40.337  1.00  0.00    -0.744 OA
ENDBRANCH  66  67
ENDBRANCH  45  59
BRANCH  46  71
ATOM     71  C   UNL A   1      41.023  27.924  29.461  1.00  0.00     0.058 A 
ATOM     72  C   UNL A   1      42.085  28.157  28.577  1.00  0.00     0.135 A 
ATOM     73  C   UNL A   1      40.247  26.770  29.269  1.00  0.00     0.135 A 
ATOM     74  F   UNL A   1      42.850  29.250  28.722  1.00  0.00    -0.206 F 
ATOM     75  C   UNL A   1      42.380  27.271  27.547  1.00  0.00     0.059 A 
ATOM     76  C   UNL A   1      40.533  25.861  28.255  1.00  0.00     0.059 A 
ATOM     77  F   UNL A   1      39.230  26.497  30.101  1.00  0.00    -0.206 F 
ATOM     78  C   UNL A   1      41.604  26.119  27.400  1.00  0.00     0.060 A 
BRANCH  78  79
ATOM     79  S   UNL A   1      42.064  24.920  26.130  1.00  0.00     0.124 S 
ATOM     80  O   UNL A   1      43.307  24.381  26.671  1.00  0.00    -0.237 OA
ATOM     81  O   UNL A   1      40.920  24.014  26.133  1.00  0.00    -0.237 OA
ATOM     82  O   UNL A   1      42.198  25.741  24.930  1.00  0.00    -0.744 OA
ENDBRANCH  78  79
ENDBRANCH  46  71
BRANCH  58  83
ATOM     83  C   UNL A   1      44.116  28.820  35.658  1.00  0.00     0.058 A 
ATOM     84  C   UNL A   1      45.441  29.250  35.491  1.00  0.00     0.135 A 
ATOM     85  C   UNL A   1      43.877  27.743  36.525  1.00  0.00     0.135 A 
ATOM     86  F   UNL A   1      45.721  30.272  34.666  1.00  0.00    -0.206 F 
ATOM     87  C   UNL A   1      46.495  28.624  36.148  1.00  0.00     0.059 A 
ATOM     88  C   UNL A   1      44.914  27.114  37.207  1.00  0.00     0.059 A 
ATOM     89  F   UNL A   1      42.626  27.300  36.725  1.00  0.00    -0.206 F 
ATOM     90  C   UNL A   1      46.221  27.556  37.005  1.00  0.00     0.060 A 
BRANCH  90  91
ATOM     91  S   UNL A   1      47.590  26.772  37.883  1.00  0.00     0.124 S 
ATOM     92  O   UNL A   1      48.677  26.917  36.921  1.00  0.00    -0.237 OA
ATOM     93  O   UNL A   1      47.700  27.586  39.089  1.00  0.00    -0.237 OA
ATOM     94  O   UNL A   1      47.118  25.408  38.098  1.00  0.00    -0.744 OA
ENDBRANCH  90  91
ENDBRANCH  58  83
ENDBRANCH  32  33
ENDBRANCH  24  27
ENDBRANCH  22  23
ENDBRANCH  21  22
ENDBRANCH   1  21
TORSDOF 17
ENDMDL
