MODEL 1
REMARK VINA RESULT:     -13.1      0.000      0.000
REMARK SMILES Cc1ccn2c([C@@H]3CCCC[C@@H]3C(=O)NCCCNC(=O)c3ccc(-c4c5nc(c(-c6c(F)cc(S(=O)(=O)[O-])cc6F)c6ccc([nH]6)c(-c6c(F)cc(S(=O)(=O)[O-])cc6F)c6nc(c(-c7c(F)cc(S(=O)(=O)[O-])cc7F)c7ccc4[nH]7)C=C6)C=C5)cc3)nnc2c1
REMARK SMILES IDX 18 1 17 2 16 3 15 4 13 5 14 6 12 8 7 9 8 10 9 11 11 12 10 13
REMARK SMILES IDX 6 14 1 15 2 16 3 17 91 18 4 19 90 20 5 21 89 22 88 23 19 24
REMARK SMILES IDX 20 25 21 27 22 28 23 29 87 30 24 31 86 32 25 33 26 34 27 35
REMARK SMILES IDX 80 36 28 37 85 38 79 39 81 40 29 41 84 42 78 43 77 44 30 46
REMARK SMILES IDX 64 47 43 48 63 49 44 50 47 51 62 52 82 53 45 54 46 55 61 57
REMARK SMILES IDX 83 58 48 59 31 60 32 61 41 62 33 63 34 64 40 65 42 66 35 67
REMARK SMILES IDX 36 68 37 69 38 70 39 71 65 72 66 73 75 74 67 75 68 76 74 77
REMARK SMILES IDX 76 78 69 79 70 80 71 81 72 82 73 83 49 84 50 85 59 86 51 87
REMARK SMILES IDX 52 88 58 89 60 90 53 91 54 92 55 93 56 94 57 95
REMARK H PARENT 15 7 19 26 81 45 47 56
REMARK Flexibility Score: inf
ROOT
ATOM      1  C   UNL A   1      39.675  21.930  26.454  1.00  0.00     0.118 C 
ENDROOT
BRANCH   1   2
ATOM      2  C   UNL A   1      38.396  21.781  25.623  1.00  0.00     0.042 C 
BRANCH   2   3
ATOM      3  C   UNL A   1      37.528  23.039  25.551  1.00  0.00     0.117 C 
BRANCH   3   4
ATOM      4  N   UNL A   1      36.300  22.910  26.318  1.00  0.00    -0.356 N 
ATOM      5  C   UNL A   1      35.100  22.353  26.039  1.00  0.00     0.223 C 
ATOM      6  O   UNL A   1      34.300  22.285  26.975  1.00  0.00    -0.275 OA
ATOM      7  H   UNL A   1      36.352  23.306  27.218  1.00  0.00     0.163 HD
BRANCH   5   8
ATOM      8  C   UNL A   1      34.790  21.773  24.667  1.00  0.00     0.089 C 
ATOM      9  C   UNL A   1      33.500  22.318  24.012  1.00  0.00     0.071 C 
ATOM     10  C   UNL A   1      32.203  21.901  24.707  1.00  0.00     0.012 C 
ATOM     11  C   UNL A   1      32.141  20.384  24.899  1.00  0.00     0.001 C 
ATOM     12  C   UNL A   1      34.684  20.245  24.833  1.00  0.00     0.014 C 
ATOM     13  C   UNL A   1      33.398  19.809  25.547  1.00  0.00     0.001 C 
BRANCH   9  14
ATOM     14  C   UNL A   1      33.562  23.766  23.605  1.00  0.00     0.141 A 
ATOM     15  C   UNL A   1      33.476  28.805  26.058  1.00  0.00     0.044 C 
ATOM     16  C   UNL A   1      33.417  27.460  25.400  1.00  0.00    -0.046 A 
ATOM     17  C   UNL A   1      33.013  26.331  26.234  1.00  0.00     0.022 A 
ATOM     18  C   UNL A   1      33.729  27.269  24.101  1.00  0.00     0.053 A 
ATOM     19  C   UNL A   1      32.999  25.095  25.709  1.00  0.00     0.095 A 
ATOM     20  C   UNL A   1      33.703  25.958  23.547  1.00  0.00     0.161 A 
ATOM     21  N   UNL A   1      33.384  24.897  24.385  1.00  0.00    -0.286 N 
ATOM     22  N   UNL A   1      33.934  25.514  22.334  1.00  0.00    -0.130 NA
ATOM     23  N   UNL A   1      33.844  24.148  22.370  1.00  0.00    -0.134 NA
ENDBRANCH   9  14
ENDBRANCH   5   8
ENDBRANCH   3   4
ENDBRANCH   2   3
ENDBRANCH   1   2
BRANCH   1  24
ATOM     24  N   UNL A   1      40.909  21.829  25.699  1.00  0.00    -0.352 N 
ATOM     25  C   UNL A   1      42.111  22.478  25.730  1.00  0.00     0.251 C 
ATOM     26  H   UNL A   1      40.873  21.132  25.006  1.00  0.00     0.163 HD
ATOM     27  O   UNL A   1      43.015  21.965  25.065  1.00  0.00    -0.269 OA
BRANCH  25  28
ATOM     28  C   UNL A   1      42.361  23.774  26.410  1.00  0.00     0.039 A 
ATOM     29  C   UNL A   1      43.065  23.939  27.603  1.00  0.00     0.014 A 
ATOM     30  C   UNL A   1      41.731  24.892  25.830  1.00  0.00     0.014 A 
ATOM     31  C   UNL A   1      43.014  25.147  28.282  1.00  0.00     0.010 A 
ATOM     32  C   UNL A   1      41.693  26.107  26.493  1.00  0.00     0.010 A 
ATOM     33  C   UNL A   1      42.271  26.201  27.754  1.00  0.00    -0.014 A 
BRANCH  33  34
ATOM     34  C   UNL A   1      42.157  27.419  28.540  1.00  0.00     0.031 A 
ATOM     35  C   UNL A   1      43.320  28.344  28.438  1.00  0.00     0.074 A 
ATOM     36  C   UNL A   1      41.022  27.719  29.203  1.00  0.00     0.049 A 
ATOM     37  N   UNL A   1      44.110  28.747  29.381  1.00  0.00    -0.248 NA
ATOM     38  C   UNL A   1      43.744  28.757  27.090  1.00  0.00     0.031 C 
ATOM     39  C   UNL A   1      39.739  27.010  29.169  1.00  0.00     0.029 A 
ATOM     40  N   UNL A   1      40.743  28.806  29.967  1.00  0.00    -0.354 N 
ATOM     41  C   UNL A   1      45.004  29.632  28.779  1.00  0.00     0.074 A 
ATOM     42  C   UNL A   1      44.839  29.470  27.358  1.00  0.00     0.031 C 
ATOM     43  C   UNL A   1      38.772  27.814  29.664  1.00  0.00     0.029 A 
ATOM     44  C   UNL A   1      39.385  29.032  30.160  1.00  0.00     0.049 A 
ATOM     45  H   UNL A   1      41.441  29.385  30.350  1.00  0.00     0.167 HD
ATOM     46  C   UNL A   1      45.671  30.584  29.489  1.00  0.00     0.037 A 
ATOM     47  C   UNL A   1      38.824  30.192  30.592  1.00  0.00     0.037 A 
ATOM     48  C   UNL A   1      45.660  30.298  30.898  1.00  0.00     0.049 A 
ATOM     49  C   UNL A   1      39.899  30.954  31.293  1.00  0.00     0.074 A 
ATOM     50  C   UNL A   1      46.134  29.254  31.669  1.00  0.00     0.029 A 
ATOM     51  N   UNL A   1      44.759  30.969  31.691  1.00  0.00    -0.354 N 
ATOM     52  N   UNL A   1      40.455  30.551  32.408  1.00  0.00    -0.248 NA
ATOM     53  C   UNL A   1      40.705  31.872  30.497  1.00  0.00     0.031 C 
ATOM     54  C   UNL A   1      45.133  29.050  32.662  1.00  0.00     0.029 A 
ATOM     55  C   UNL A   1      44.151  30.026  32.482  1.00  0.00     0.049 A 
ATOM     56  H   UNL A   1      44.584  31.938  31.691  1.00  0.00     0.167 HD
ATOM     57  C   UNL A   1      41.809  30.823  32.257  1.00  0.00     0.074 A 
ATOM     58  C   UNL A   1      41.894  31.689  31.081  1.00  0.00     0.031 C 
ATOM     59  C   UNL A   1      42.769  30.098  32.906  1.00  0.00     0.037 A 
BRANCH  46  60
ATOM     60  C   UNL A   1      46.054  31.937  28.942  1.00  0.00     0.058 A 
ATOM     61  C   UNL A   1      45.065  32.778  28.393  1.00  0.00     0.135 A 
ATOM     62  C   UNL A   1      47.389  32.319  28.687  1.00  0.00     0.135 A 
ATOM     63  F   UNL A   1      43.761  32.503  28.563  1.00  0.00    -0.206 F 
ATOM     64  C   UNL A   1      45.380  33.879  27.595  1.00  0.00     0.059 A 
ATOM     65  C   UNL A   1      47.727  33.442  27.943  1.00  0.00     0.059 A 
ATOM     66  F   UNL A   1      48.431  31.565  29.064  1.00  0.00    -0.206 F 
ATOM     67  C   UNL A   1      46.717  34.193  27.365  1.00  0.00     0.060 A 
BRANCH  67  68
ATOM     68  S   UNL A   1      47.129  35.539  26.241  1.00  0.00     0.124 S 
ATOM     69  O   UNL A   1      45.894  36.313  26.246  1.00  0.00    -0.237 OA
ATOM     70  O   UNL A   1      48.273  36.150  26.909  1.00  0.00    -0.237 OA
ATOM     71  O   UNL A   1      47.435  34.850  24.989  1.00  0.00    -0.744 OA
ENDBRANCH  67  68
ENDBRANCH  46  60
BRANCH  47  72
ATOM     72  C   UNL A   1      37.564  30.801  30.077  1.00  0.00     0.058 A 
ATOM     73  C   UNL A   1      36.627  31.419  30.924  1.00  0.00     0.135 A 
ATOM     74  C   UNL A   1      37.355  30.987  28.693  1.00  0.00     0.135 A 
ATOM     75  F   UNL A   1      36.767  31.338  32.256  1.00  0.00    -0.206 F 
ATOM     76  C   UNL A   1      35.554  32.176  30.427  1.00  0.00     0.059 A 
ATOM     77  C   UNL A   1      36.289  31.721  28.176  1.00  0.00     0.059 A 
ATOM     78  F   UNL A   1      38.232  30.525  27.790  1.00  0.00    -0.206 F 
ATOM     79  C   UNL A   1      35.399  32.328  29.048  1.00  0.00     0.060 A 
BRANCH  79  80
ATOM     80  S   UNL A   1      34.086  33.389  28.397  1.00  0.00     0.124 S 
ATOM     81  O   UNL A   1      34.826  34.278  27.507  1.00  0.00    -0.237 OA
ATOM     82  O   UNL A   1      33.206  32.424  27.747  1.00  0.00    -0.237 OA
ATOM     83  O   UNL A   1      33.536  34.024  29.592  1.00  0.00    -0.744 OA
ENDBRANCH  79  80
ENDBRANCH  47  72
BRANCH  59  84
ATOM     84  C   UNL A   1      42.350  29.108  33.966  1.00  0.00     0.058 A 
ATOM     85  C   UNL A   1      41.865  27.817  33.687  1.00  0.00     0.135 A 
ATOM     86  C   UNL A   1      42.655  29.395  35.305  1.00  0.00     0.135 A 
ATOM     87  F   UNL A   1      41.655  27.420  32.425  1.00  0.00    -0.206 F 
ATOM     88  C   UNL A   1      41.661  26.870  34.693  1.00  0.00     0.059 A 
ATOM     89  C   UNL A   1      42.492  28.456  36.322  1.00  0.00     0.059 A 
ATOM     90  F   UNL A   1      43.187  30.584  35.632  1.00  0.00    -0.206 F 
ATOM     91  C   UNL A   1      41.985  27.196  36.008  1.00  0.00     0.060 A 
BRANCH  91  92
ATOM     92  S   UNL A   1      41.813  25.940  37.295  1.00  0.00     0.124 S 
ATOM     93  O   UNL A   1      42.148  24.714  36.571  1.00  0.00    -0.237 OA
ATOM     94  O   UNL A   1      42.797  26.372  38.288  1.00  0.00    -0.237 OA
ATOM     95  O   UNL A   1      40.425  26.061  37.711  1.00  0.00    -0.744 OA
ENDBRANCH  91  92
ENDBRANCH  59  84
ENDBRANCH  33  34
ENDBRANCH  25  28
ENDBRANCH   1  24
TORSDOF 14
ENDMDL
MODEL 2
REMARK VINA RESULT:     -13.0      2.886      8.999
REMARK SMILES Cc1ccn2c([C@@H]3CCCC[C@@H]3C(=O)NCCCNC(=O)c3ccc(-c4c5nc(c(-c6c(F)cc(S(=O)(=O)[O-])cc6F)c6ccc([nH]6)c(-c6c(F)cc(S(=O)(=O)[O-])cc6F)c6nc(c(-c7c(F)cc(S(=O)(=O)[O-])cc7F)c7ccc4[nH]7)C=C6)C=C5)cc3)nnc2c1
REMARK SMILES IDX 18 1 17 2 16 3 15 4 13 5 14 6 12 8 7 9 8 10 9 11 11 12 10 13
REMARK SMILES IDX 6 14 1 15 2 16 3 17 91 18 4 19 90 20 5 21 89 22 88 23 19 24
REMARK SMILES IDX 20 25 21 27 22 28 23 29 87 30 24 31 86 32 25 33 26 34 27 35
REMARK SMILES IDX 80 36 28 37 85 38 79 39 81 40 29 41 84 42 78 43 77 44 30 46
REMARK SMILES IDX 64 47 43 48 63 49 44 50 47 51 62 52 82 53 45 54 46 55 61 57
REMARK SMILES IDX 83 58 48 59 31 60 32 61 41 62 33 63 34 64 40 65 42 66 35 67
REMARK SMILES IDX 36 68 37 69 38 70 39 71 65 72 66 73 75 74 67 75 68 76 74 77
REMARK SMILES IDX 76 78 69 79 70 80 71 81 72 82 73 83 49 84 50 85 59 86 51 87
REMARK SMILES IDX 52 88 58 89 60 90 53 91 54 92 55 93 56 94 57 95
REMARK H PARENT 15 7 19 26 81 45 47 56
REMARK Flexibility Score: inf
ROOT
ATOM      1  C   UNL A   1      33.531  29.825  26.464  1.00  0.00     0.118 C 
ENDROOT
BRANCH   1   2
ATOM      2  C   UNL A   1      32.223  29.034  26.363  1.00  0.00     0.042 C 
BRANCH   2   3
ATOM      3  C   UNL A   1      31.958  28.080  27.530  1.00  0.00     0.117 C 
BRANCH   3   4
ATOM      4  N   UNL A   1      31.028  27.020  27.179  1.00  0.00    -0.356 N 
ATOM      5  C   UNL A   1      31.157  25.896  26.438  1.00  0.00     0.223 C 
ATOM      6  O   UNL A   1      30.197  25.122  26.452  1.00  0.00    -0.275 OA
ATOM      7  H   UNL A   1      30.126  27.145  27.553  1.00  0.00     0.163 HD
BRANCH   5   8
ATOM      8  C   UNL A   1      32.446  25.573  25.696  1.00  0.00     0.089 C 
ATOM      9  C   UNL A   1      32.308  25.513  24.159  1.00  0.00     0.071 C 
ATOM     10  C   UNL A   1      31.473  24.342  23.635  1.00  0.00     0.012 C 
ATOM     11  C   UNL A   1      31.964  23.012  24.211  1.00  0.00     0.001 C 
ATOM     12  C   UNL A   1      32.947  24.217  26.228  1.00  0.00     0.014 C 
ATOM     13  C   UNL A   1      32.109  23.032  25.731  1.00  0.00     0.001 C 
BRANCH   9  14
ATOM     14  C   UNL A   1      32.026  26.835  23.497  1.00  0.00     0.141 A 
ATOM     15  C   UNL A   1      27.653  30.238  22.651  1.00  0.00     0.044 C 
ATOM     16  C   UNL A   1      28.801  29.289  22.808  1.00  0.00    -0.046 A 
ATOM     17  C   UNL A   1      28.487  27.936  23.260  1.00  0.00     0.022 A 
ATOM     18  C   UNL A   1      30.080  29.644  22.564  1.00  0.00     0.053 A 
ATOM     19  C   UNL A   1      29.485  27.063  23.472  1.00  0.00     0.095 A 
ATOM     20  C   UNL A   1      31.133  28.712  22.781  1.00  0.00     0.161 A 
ATOM     21  N   UNL A   1      30.806  27.456  23.278  1.00  0.00    -0.286 N 
ATOM     22  N   UNL A   1      32.430  28.795  22.600  1.00  0.00    -0.130 NA
ATOM     23  N   UNL A   1      32.986  27.625  23.044  1.00  0.00    -0.134 NA
ENDBRANCH   9  14
ENDBRANCH   5   8
ENDBRANCH   3   4
ENDBRANCH   2   3
ENDBRANCH   1   2
BRANCH   1  24
ATOM     24  N   UNL A   1      33.653  30.655  27.647  1.00  0.00    -0.352 N 
ATOM     25  C   UNL A   1      34.701  31.151  28.370  1.00  0.00     0.251 C 
ATOM     26  H   UNL A   1      32.780  30.925  28.011  1.00  0.00     0.163 HD
ATOM     27  O   UNL A   1      34.416  32.013  29.205  1.00  0.00    -0.269 OA
BRANCH  25  28
ATOM     28  C   UNL A   1      36.100  30.662  28.286  1.00  0.00     0.039 A 
ATOM     29  C   UNL A   1      36.483  29.343  28.039  1.00  0.00     0.014 A 
ATOM     30  C   UNL A   1      37.092  31.614  28.590  1.00  0.00     0.014 A 
ATOM     31  C   UNL A   1      37.797  28.949  28.242  1.00  0.00     0.010 A 
ATOM     32  C   UNL A   1      38.409  31.231  28.775  1.00  0.00     0.010 A 
ATOM     33  C   UNL A   1      38.736  29.884  28.675  1.00  0.00    -0.014 A 
BRANCH  33  34
ATOM     34  C   UNL A   1      40.080  29.415  28.974  1.00  0.00     0.031 A 
ATOM     35  C   UNL A   1      40.421  29.371  30.423  1.00  0.00     0.074 A 
ATOM     36  C   UNL A   1      40.888  28.946  28.002  1.00  0.00     0.049 A 
ATOM     37  N   UNL A   1      41.356  30.012  31.047  1.00  0.00    -0.248 NA
ATOM     38  C   UNL A   1      39.514  28.629  31.313  1.00  0.00     0.031 C 
ATOM     39  C   UNL A   1      40.567  28.712  26.591  1.00  0.00     0.029 A 
ATOM     40  N   UNL A   1      42.154  28.464  28.106  1.00  0.00    -0.354 N 
ATOM     41  C   UNL A   1      41.288  29.592  32.375  1.00  0.00     0.074 A 
ATOM     42  C   UNL A   1      40.045  28.880  32.511  1.00  0.00     0.031 C 
ATOM     43  C   UNL A   1      41.509  27.909  26.047  1.00  0.00     0.029 A 
ATOM     44  C   UNL A   1      42.554  27.682  27.028  1.00  0.00     0.049 A 
ATOM     45  H   UNL A   1      42.737  28.650  28.877  1.00  0.00     0.167 HD
ATOM     46  C   UNL A   1      42.353  29.682  33.220  1.00  0.00     0.037 A 
ATOM     47  C   UNL A   1      43.612  26.829  27.013  1.00  0.00     0.037 A 
ATOM     48  C   UNL A   1      43.348  30.593  32.722  1.00  0.00     0.049 A 
ATOM     49  C   UNL A   1      44.527  27.260  28.109  1.00  0.00     0.074 A 
ATOM     50  C   UNL A   1      43.350  31.942  32.423  1.00  0.00     0.029 A 
ATOM     51  N   UNL A   1      44.454  30.069  32.095  1.00  0.00    -0.354 N 
ATOM     52  N   UNL A   1      45.167  28.402  28.104  1.00  0.00    -0.248 NA
ATOM     53  C   UNL A   1      44.325  26.671  29.427  1.00  0.00     0.031 C 
ATOM     54  C   UNL A   1      44.133  32.051  31.238  1.00  0.00     0.029 A 
ATOM     55  C   UNL A   1      44.621  30.779  30.931  1.00  0.00     0.049 A 
ATOM     56  H   UNL A   1      45.017  29.328  32.417  1.00  0.00     0.167 HD
ATOM     57  C   UNL A   1      45.083  28.872  29.409  1.00  0.00     0.074 A 
ATOM     58  C   UNL A   1      44.602  27.733  30.191  1.00  0.00     0.031 C 
ATOM     59  C   UNL A   1      45.125  30.206  29.701  1.00  0.00     0.037 A 
BRANCH  46  60
ATOM     60  C   UNL A   1      42.638  28.703  34.332  1.00  0.00     0.058 A 
ATOM     61  C   UNL A   1      42.779  29.165  35.656  1.00  0.00     0.135 A 
ATOM     62  C   UNL A   1      43.049  27.372  34.103  1.00  0.00     0.135 A 
ATOM     63  F   UNL A   1      42.430  30.421  35.983  1.00  0.00    -0.206 F 
ATOM     64  C   UNL A   1      43.348  28.384  36.662  1.00  0.00     0.059 A 
ATOM     65  C   UNL A   1      43.567  26.557  35.103  1.00  0.00     0.059 A 
ATOM     66  F   UNL A   1      43.063  26.830  32.878  1.00  0.00    -0.206 F 
ATOM     67  C   UNL A   1      43.753  27.083  36.370  1.00  0.00     0.060 A 
BRANCH  67  68
ATOM     68  S   UNL A   1      44.596  26.114  37.632  1.00  0.00     0.124 S 
ATOM     69  O   UNL A   1      44.115  24.770  37.337  1.00  0.00    -0.237 OA
ATOM     70  O   UNL A   1      45.998  26.375  37.326  1.00  0.00    -0.237 OA
ATOM     71  O   UNL A   1      44.113  26.696  38.881  1.00  0.00    -0.744 OA
ENDBRANCH  67  68
ENDBRANCH  46  60
BRANCH  47  72
ATOM     72  C   UNL A   1      43.640  25.480  26.379  1.00  0.00     0.058 A 
ATOM     73  C   UNL A   1      44.504  25.166  25.315  1.00  0.00     0.135 A 
ATOM     74  C   UNL A   1      42.962  24.385  26.960  1.00  0.00     0.135 A 
ATOM     75  F   UNL A   1      45.226  26.133  24.728  1.00  0.00    -0.206 F 
ATOM     76  C   UNL A   1      44.686  23.850  24.860  1.00  0.00     0.059 A 
ATOM     77  C   UNL A   1      43.114  23.073  26.516  1.00  0.00     0.059 A 
ATOM     78  F   UNL A   1      42.183  24.545  28.040  1.00  0.00    -0.206 F 
ATOM     79  C   UNL A   1      43.990  22.807  25.476  1.00  0.00     0.060 A 
BRANCH  79  80
ATOM     80  S   UNL A   1      44.297  21.097  24.974  1.00  0.00     0.124 S 
ATOM     81  O   UNL A   1      44.481  21.230  23.533  1.00  0.00    -0.237 OA
ATOM     82  O   UNL A   1      45.492  20.762  25.742  1.00  0.00    -0.237 OA
ATOM     83  O   UNL A   1      43.081  20.397  25.383  1.00  0.00    -0.744 OA
ENDBRANCH  79  80
ENDBRANCH  47  72
BRANCH  59  84
ATOM     84  C   UNL A   1      45.470  31.187  28.607  1.00  0.00     0.058 A 
ATOM     85  C   UNL A   1      44.528  31.732  27.716  1.00  0.00     0.135 A 
ATOM     86  C   UNL A   1      46.752  31.757  28.602  1.00  0.00     0.135 A 
ATOM     87  F   UNL A   1      43.251  31.326  27.732  1.00  0.00    -0.206 F 
ATOM     88  C   UNL A   1      44.853  32.770  26.840  1.00  0.00     0.059 A 
ATOM     89  C   UNL A   1      47.090  32.816  27.761  1.00  0.00     0.059 A 
ATOM     90  F   UNL A   1      47.679  31.332  29.476  1.00  0.00    -0.206 F 
ATOM     91  C   UNL A   1      46.135  33.312  26.875  1.00  0.00     0.060 A 
BRANCH  91  92
ATOM     92  S   UNL A   1      46.528  34.717  25.810  1.00  0.00     0.124 S 
ATOM     93  O   UNL A   1      45.584  34.536  24.707  1.00  0.00    -0.237 OA
ATOM     94  O   UNL A   1      46.259  35.858  26.686  1.00  0.00    -0.237 OA
ATOM     95  O   UNL A   1      47.928  34.515  25.474  1.00  0.00    -0.744 OA
ENDBRANCH  91  92
ENDBRANCH  59  84
ENDBRANCH  33  34
ENDBRANCH  25  28
ENDBRANCH   1  24
TORSDOF 14
ENDMDL
MODEL 3
REMARK VINA RESULT:     -13.0      1.852      3.517
REMARK SMILES Cc1ccn2c([C@@H]3CCCC[C@@H]3C(=O)NCCCNC(=O)c3ccc(-c4c5nc(c(-c6c(F)cc(S(=O)(=O)[O-])cc6F)c6ccc([nH]6)c(-c6c(F)cc(S(=O)(=O)[O-])cc6F)c6nc(c(-c7c(F)cc(S(=O)(=O)[O-])cc7F)c7ccc4[nH]7)C=C6)C=C5)cc3)nnc2c1
REMARK SMILES IDX 18 1 17 2 16 3 15 4 13 5 14 6 12 8 7 9 8 10 9 11 11 12 10 13
REMARK SMILES IDX 6 14 1 15 2 16 3 17 91 18 4 19 90 20 5 21 89 22 88 23 19 24
REMARK SMILES IDX 20 25 21 27 22 28 23 29 87 30 24 31 86 32 25 33 26 34 27 35
REMARK SMILES IDX 80 36 28 37 85 38 79 39 81 40 29 41 84 42 78 43 77 44 30 46
REMARK SMILES IDX 64 47 43 48 63 49 44 50 47 51 62 52 82 53 45 54 46 55 61 57
REMARK SMILES IDX 83 58 48 59 31 60 32 61 41 62 33 63 34 64 40 65 42 66 35 67
REMARK SMILES IDX 36 68 37 69 38 70 39 71 65 72 66 73 75 74 67 75 68 76 74 77
REMARK SMILES IDX 76 78 69 79 70 80 71 81 72 82 73 83 49 84 50 85 59 86 51 87
REMARK SMILES IDX 52 88 58 89 60 90 53 91 54 92 55 93 56 94 57 95
REMARK H PARENT 15 7 19 26 81 45 47 56
REMARK Flexibility Score: inf
ROOT
ATOM      1  C   UNL A   1      36.439  23.195  26.387  1.00  0.00     0.118 C 
ENDROOT
BRANCH   1   2
ATOM      2  C   UNL A   1      35.700  23.690  25.140  1.00  0.00     0.042 C 
BRANCH   2   3
ATOM      3  C   UNL A   1      34.778  24.890  25.374  1.00  0.00     0.117 C 
BRANCH   3   4
ATOM      4  N   UNL A   1      34.174  25.373  24.144  1.00  0.00    -0.356 N 
ATOM      5  C   UNL A   1      33.102  26.159  23.898  1.00  0.00     0.223 C 
ATOM      6  O   UNL A   1      32.936  26.502  22.724  1.00  0.00    -0.275 OA
ATOM      7  H   UNL A   1      34.635  25.067  23.330  1.00  0.00     0.163 HD
BRANCH   5   8
ATOM      8  C   UNL A   1      32.201  26.654  25.019  1.00  0.00     0.089 C 
ATOM      9  C   UNL A   1      30.996  25.739  25.332  1.00  0.00     0.071 C 
ATOM     10  C   UNL A   1      29.935  25.677  24.231  1.00  0.00     0.012 C 
ATOM     11  C   UNL A   1      29.485  27.080  23.817  1.00  0.00     0.001 C 
ATOM     12  C   UNL A   1      31.700  28.054  24.614  1.00  0.00     0.014 C 
ATOM     13  C   UNL A   1      30.650  28.014  23.496  1.00  0.00     0.001 C 
BRANCH   9  14
ATOM     14  C   UNL A   1      31.354  24.409  25.939  1.00  0.00     0.141 A 
ATOM     15  C   UNL A   1      33.321  19.438  24.256  1.00  0.00     0.044 C 
ATOM     16  C   UNL A   1      32.720  20.740  24.689  1.00  0.00    -0.046 A 
ATOM     17  C   UNL A   1      32.245  21.634  23.638  1.00  0.00     0.022 A 
ATOM     18  C   UNL A   1      32.620  21.101  25.986  1.00  0.00     0.053 A 
ATOM     19  C   UNL A   1      31.750  22.838  23.969  1.00  0.00     0.095 A 
ATOM     20  C   UNL A   1      32.085  22.374  26.332  1.00  0.00     0.161 A 
ATOM     21  N   UNL A   1      31.708  23.230  25.304  1.00  0.00    -0.286 N 
ATOM     22  N   UNL A   1      31.861  22.945  27.492  1.00  0.00    -0.130 NA
ATOM     23  N   UNL A   1      31.403  24.212  27.247  1.00  0.00    -0.134 NA
ENDBRANCH   9  14
ENDBRANCH   5   8
ENDBRANCH   3   4
ENDBRANCH   2   3
ENDBRANCH   1   2
BRANCH   1  24
ATOM     24  N   UNL A   1      37.589  22.353  26.121  1.00  0.00    -0.352 N 
ATOM     25  C   UNL A   1      38.918  22.413  26.433  1.00  0.00     0.251 C 
ATOM     26  H   UNL A   1      37.359  21.554  25.596  1.00  0.00     0.163 HD
ATOM     27  O   UNL A   1      39.567  21.386  26.215  1.00  0.00    -0.269 OA
BRANCH  25  28
ATOM     28  C   UNL A   1      39.626  23.627  26.909  1.00  0.00     0.039 A 
ATOM     29  C   UNL A   1      40.736  23.638  27.755  1.00  0.00     0.014 A 
ATOM     30  C   UNL A   1      39.038  24.852  26.541  1.00  0.00     0.014 A 
ATOM     31  C   UNL A   1      41.153  24.823  28.344  1.00  0.00     0.010 A 
ATOM     32  C   UNL A   1      39.462  26.041  27.110  1.00  0.00     0.010 A 
ATOM     33  C   UNL A   1      40.468  26.005  28.068  1.00  0.00    -0.014 A 
BRANCH  33  34
ATOM     34  C   UNL A   1      40.869  27.209  28.779  1.00  0.00     0.031 A 
ATOM     35  C   UNL A   1      42.043  27.919  28.199  1.00  0.00     0.074 A 
ATOM     36  C   UNL A   1      40.140  27.688  29.807  1.00  0.00     0.049 A 
ATOM     37  N   UNL A   1      43.188  28.160  28.751  1.00  0.00    -0.248 NA
ATOM     38  C   UNL A   1      41.984  28.278  26.773  1.00  0.00     0.031 C 
ATOM     39  C   UNL A   1      38.842  27.213  30.296  1.00  0.00     0.029 A 
ATOM     40  N   UNL A   1      40.361  28.793  30.566  1.00  0.00    -0.354 N 
ATOM     41  C   UNL A   1      43.920  28.888  27.813  1.00  0.00     0.074 A 
ATOM     42  C   UNL A   1      43.201  28.785  26.571  1.00  0.00     0.031 C 
ATOM     43  C   UNL A   1      38.287  28.164  31.080  1.00  0.00     0.029 A 
ATOM     44  C   UNL A   1      39.238  29.247  31.248  1.00  0.00     0.049 A 
ATOM     45  H   UNL A   1      41.239  29.234  30.627  1.00  0.00     0.167 HD
ATOM     46  C   UNL A   1      44.957  29.696  28.170  1.00  0.00     0.037 A 
ATOM     47  C   UNL A   1      39.088  30.478  31.803  1.00  0.00     0.037 A 
ATOM     48  C   UNL A   1      45.436  29.389  29.491  1.00  0.00     0.049 A 
ATOM     49  C   UNL A   1      40.460  31.028  32.007  1.00  0.00     0.074 A 
ATOM     50  C   UNL A   1      45.986  28.263  30.075  1.00  0.00     0.029 A 
ATOM     51  N   UNL A   1      45.032  30.190  30.532  1.00  0.00    -0.354 N 
ATOM     52  N   UNL A   1      41.323  30.513  32.846  1.00  0.00    -0.248 NA
ATOM     53  C   UNL A   1      41.043  31.807  30.921  1.00  0.00     0.031 C 
ATOM     54  C   UNL A   1      45.421  28.218  31.381  1.00  0.00     0.029 A 
ATOM     55  C   UNL A   1      44.623  29.352  31.540  1.00  0.00     0.049 A 
ATOM     56  H   UNL A   1      45.036  31.175  30.552  1.00  0.00     0.167 HD
ATOM     57  C   UNL A   1      42.542  30.548  32.180  1.00  0.00     0.074 A 
ATOM     58  C   UNL A   1      42.316  31.409  31.020  1.00  0.00     0.031 C 
ATOM     59  C   UNL A   1      43.540  29.655  32.452  1.00  0.00     0.037 A 
BRANCH  46  60
ATOM     60  C   UNL A   1      45.323  30.973  27.454  1.00  0.00     0.058 A 
ATOM     61  C   UNL A   1      46.605  31.116  26.885  1.00  0.00     0.135 A 
ATOM     62  C   UNL A   1      44.561  32.158  27.549  1.00  0.00     0.135 A 
ATOM     63  F   UNL A   1      47.420  30.056  26.759  1.00  0.00    -0.206 F 
ATOM     64  C   UNL A   1      47.115  32.356  26.500  1.00  0.00     0.059 A 
ATOM     65  C   UNL A   1      45.028  33.394  27.120  1.00  0.00     0.059 A 
ATOM     66  F   UNL A   1      43.366  32.191  28.154  1.00  0.00    -0.206 F 
ATOM     67  C   UNL A   1      46.321  33.493  26.636  1.00  0.00     0.060 A 
BRANCH  67  68
ATOM     68  S   UNL A   1      47.017  35.109  26.252  1.00  0.00     0.124 S 
ATOM     69  O   UNL A   1      45.815  35.926  26.142  1.00  0.00    -0.237 OA
ATOM     70  O   UNL A   1      47.859  35.359  27.416  1.00  0.00    -0.237 OA
ATOM     71  O   UNL A   1      47.737  34.877  25.002  1.00  0.00    -0.744 OA
ENDBRANCH  67  68
ENDBRANCH  46  60
BRANCH  47  72
ATOM     72  C   UNL A   1      37.849  31.307  31.775  1.00  0.00     0.058 A 
ATOM     73  C   UNL A   1      37.127  31.620  32.940  1.00  0.00     0.135 A 
ATOM     74  C   UNL A   1      37.462  32.004  30.609  1.00  0.00     0.135 A 
ATOM     75  F   UNL A   1      37.450  31.043  34.107  1.00  0.00    -0.206 F 
ATOM     76  C   UNL A   1      36.091  32.569  32.947  1.00  0.00     0.059 A 
ATOM     77  C   UNL A   1      36.428  32.938  30.588  1.00  0.00     0.059 A 
ATOM     78  F   UNL A   1      38.136  31.860  29.458  1.00  0.00    -0.206 F 
ATOM     79  C   UNL A   1      35.755  33.229  31.764  1.00  0.00     0.060 A 
BRANCH  79  80
ATOM     80  S   UNL A   1      34.498  34.531  31.781  1.00  0.00     0.124 S 
ATOM     81  O   UNL A   1      33.407  33.891  32.506  1.00  0.00    -0.237 OA
ATOM     82  O   UNL A   1      35.185  35.610  32.483  1.00  0.00    -0.237 OA
ATOM     83  O   UNL A   1      34.242  34.777  30.363  1.00  0.00    -0.744 OA
ENDBRANCH  79  80
ENDBRANCH  47  72
BRANCH  59  84
ATOM     84  C   UNL A   1      43.397  28.733  33.638  1.00  0.00     0.058 A 
ATOM     85  C   UNL A   1      43.673  29.112  34.965  1.00  0.00     0.135 A 
ATOM     86  C   UNL A   1      42.754  27.500  33.452  1.00  0.00     0.135 A 
ATOM     87  F   UNL A   1      44.181  30.320  35.243  1.00  0.00    -0.206 F 
ATOM     88  C   UNL A   1      43.355  28.292  36.049  1.00  0.00     0.059 A 
ATOM     89  C   UNL A   1      42.397  26.679  34.520  1.00  0.00     0.059 A 
ATOM     90  F   UNL A   1      42.398  27.108  32.217  1.00  0.00    -0.206 F 
ATOM     91  C   UNL A   1      42.710  27.080  35.818  1.00  0.00     0.060 A 
BRANCH  91  92
ATOM     92  S   UNL A   1      42.213  26.063  37.227  1.00  0.00     0.124 S 
ATOM     93  O   UNL A   1      40.842  26.515  37.460  1.00  0.00    -0.237 OA
ATOM     94  O   UNL A   1      42.345  24.706  36.695  1.00  0.00    -0.237 OA
ATOM     95  O   UNL A   1      43.172  26.415  38.262  1.00  0.00    -0.744 OA
ENDBRANCH  91  92
ENDBRANCH  59  84
ENDBRANCH  33  34
ENDBRANCH  25  28
ENDBRANCH   1  24
TORSDOF 14
ENDMDL
