MODEL 1
REMARK VINA RESULT:     -11.9      0.000      0.000
REMARK SMILES C[C@H](NC(=O)c1ccncc1/C=C/C(=O)NCCCNC(=O)c1ccc(-c2c3nc(c(-c4c(F)cc(S(=O)(=O)[O-])cc4F)c4ccc([nH]4)c(-c4c(F)cc(S(=O)(=O)[O-])cc4F)c4nc(c(-c5c(F)cc(S(=O)(=O)[O-])cc5F)c5ccc2[nH]5)C=C4)C=C3)cc1)c1ccco1
REMARK SMILES IDX 17 1 16 2 14 3 15 4 13 6 12 7 11 8 6 9 7 10 8 11 10 12 9 13
REMARK SMILES IDX 4 14 3 15 5 17 2 18 1 19 89 20 90 21 93 22 91 23 92 24 18 25
REMARK SMILES IDX 19 26 20 27 21 28 22 30 23 31 24 32 88 33 25 34 87 35 26 36
REMARK SMILES IDX 27 37 28 38 81 39 29 40 86 41 80 42 82 43 30 44 85 45 79 46
REMARK SMILES IDX 78 47 31 49 65 50 44 51 64 52 45 53 48 54 63 55 83 56 46 57
REMARK SMILES IDX 47 58 62 60 84 61 49 62 32 63 33 64 42 65 34 66 35 67 41 68
REMARK SMILES IDX 43 69 36 70 37 71 38 72 39 73 40 74 66 75 67 76 76 77 68 78
REMARK SMILES IDX 69 79 75 80 77 81 70 82 71 83 72 84 73 85 74 86 50 87 51 88
REMARK SMILES IDX 60 89 52 90 53 91 59 92 61 93 54 94 55 95 56 96 57 97 58 98
REMARK H PARENT 16 5 3 16 20 29 82 48 48 59
REMARK Flexibility Score: inf
ROOT
ATOM      1  C   UNL A   1      33.749  29.584  26.563  1.00  0.00     0.118 C 
ENDROOT
BRANCH   1   2
ATOM      2  N   UNL A   1      32.562  28.806  26.882  1.00  0.00    -0.352 N 
ATOM      3  C   UNL A   1      32.295  27.491  26.663  1.00  0.00     0.244 C 
ATOM      4  O   UNL A   1      31.289  26.975  27.146  1.00  0.00    -0.270 OA
ATOM      5  H   UNL A   1      31.842  29.308  27.326  1.00  0.00     0.163 HD
BRANCH   3   6
ATOM      6  C   UNL A   1      33.250  26.645  25.917  1.00  0.00     0.072 C 
ATOM      7  C   UNL A   1      33.044  25.345  25.656  1.00  0.00     0.016 C 
BRANCH   7   8
ATOM      8  C   UNL A   1      34.012  24.515  24.923  1.00  0.00     0.006 A 
ATOM      9  C   UNL A   1      33.668  23.750  23.800  1.00  0.00     0.050 A 
ATOM     10  C   UNL A   1      34.628  22.980  23.134  1.00  0.00     0.034 A 
ATOM     11  C   UNL A   1      35.909  22.962  23.645  1.00  0.00     0.112 A 
ATOM     12  C   UNL A   1      35.332  24.403  25.351  1.00  0.00     0.119 A 
ATOM     13  N   UNL A   1      36.283  23.650  24.743  1.00  0.00    -0.264 NA
BRANCH   9  14
ATOM     14  C   UNL A   1      32.304  23.786  23.237  1.00  0.00     0.252 C 
ATOM     15  N   UNL A   1      32.013  24.660  22.224  1.00  0.00    -0.342 N 
ATOM     16  H   UNL A   1      31.067  24.691  21.954  1.00  0.00     0.164 HD
ATOM     17  O   UNL A   1      31.444  23.034  23.681  1.00  0.00    -0.269 OA
BRANCH  15  18
ATOM     18  C   UNL A   1      32.903  25.554  21.491  1.00  0.00     0.145 C 
ATOM     19  C   UNL A   1      32.529  25.572  20.013  1.00  0.00     0.039 C 
BRANCH  18  20
ATOM     20  C   UNL A   1      32.807  26.915  22.095  1.00  0.00     0.125 A 
ATOM     21  C   UNL A   1      33.732  27.890  22.419  1.00  0.00     0.048 A 
ATOM     22  O   UNL A   1      31.555  27.336  22.444  1.00  0.00    -0.467 OA
ATOM     23  C   UNL A   1      33.007  28.951  23.012  1.00  0.00     0.042 A 
ATOM     24  C   UNL A   1      31.689  28.562  23.010  1.00  0.00     0.195 A 
ENDBRANCH  18  20
ENDBRANCH  15  18
ENDBRANCH   9  14
ENDBRANCH   7   8
ENDBRANCH   3   6
ENDBRANCH   1   2
BRANCH   1  25
ATOM     25  C   UNL A   1      34.824  29.454  27.641  1.00  0.00     0.042 C 
BRANCH  25  26
ATOM     26  C   UNL A   1      35.343  30.792  28.168  1.00  0.00     0.118 C 
BRANCH  26  27
ATOM     27  N   UNL A   1      35.413  30.826  29.620  1.00  0.00    -0.352 N 
ATOM     28  C   UNL A   1      36.408  30.431  30.478  1.00  0.00     0.251 C 
ATOM     29  H   UNL A   1      34.613  31.193  30.061  1.00  0.00     0.163 HD
ATOM     30  O   UNL A   1      36.161  30.374  31.681  1.00  0.00    -0.269 OA
BRANCH  28  31
ATOM     31  C   UNL A   1      37.758  30.064  29.989  1.00  0.00     0.039 A 
ATOM     32  C   UNL A   1      38.720  29.684  30.930  1.00  0.00     0.014 A 
ATOM     33  C   UNL A   1      38.112  30.163  28.640  1.00  0.00     0.014 A 
ATOM     34  C   UNL A   1      40.016  29.363  30.519  1.00  0.00     0.010 A 
ATOM     35  C   UNL A   1      39.392  29.788  28.222  1.00  0.00     0.010 A 
ATOM     36  C   UNL A   1      40.357  29.390  29.158  1.00  0.00    -0.014 A 
BRANCH  36  37
ATOM     37  C   UNL A   1      41.720  28.990  28.714  1.00  0.00     0.031 A 
ATOM     38  C   UNL A   1      42.834  30.000  28.648  1.00  0.00     0.074 A 
ATOM     39  C   UNL A   1      41.944  27.714  28.345  1.00  0.00     0.049 A 
ATOM     40  N   UNL A   1      44.077  29.831  28.275  1.00  0.00    -0.248 NA
ATOM     41  C   UNL A   1      42.504  31.382  29.028  1.00  0.00     0.031 C 
ATOM     42  C   UNL A   1      40.933  26.654  28.313  1.00  0.00     0.029 A 
ATOM     43  N   UNL A   1      43.090  27.090  27.921  1.00  0.00    -0.354 N 
ATOM     44  C   UNL A   1      44.679  31.080  28.376  1.00  0.00     0.074 A 
ATOM     45  C   UNL A   1      43.650  32.008  28.796  1.00  0.00     0.031 C 
ATOM     46  C   UNL A   1      41.507  25.511  27.909  1.00  0.00     0.029 A 
ATOM     47  C   UNL A   1      42.919  25.758  27.631  1.00  0.00     0.049 A 
ATOM     48  H   UNL A   1      43.954  27.555  27.832  1.00  0.00     0.167 HD
ATOM     49  C   UNL A   1      45.973  31.420  28.160  1.00  0.00     0.037 A 
ATOM     50  C   UNL A   1      43.797  24.838  27.189  1.00  0.00     0.037 A 
ATOM     51  C   UNL A   1      46.999  30.491  27.757  1.00  0.00     0.049 A 
ATOM     52  C   UNL A   1      45.233  25.231  26.983  1.00  0.00     0.074 A 
ATOM     53  C   UNL A   1      48.347  30.732  27.548  1.00  0.00     0.029 A 
ATOM     54  N   UNL A   1      46.793  29.142  27.506  1.00  0.00    -0.354 N 
ATOM     55  N   UNL A   1      45.793  26.409  27.132  1.00  0.00    -0.248 NA
ATOM     56  C   UNL A   1      46.160  24.172  26.564  1.00  0.00     0.031 C 
ATOM     57  C   UNL A   1      48.950  29.534  27.144  1.00  0.00     0.029 A 
ATOM     58  C   UNL A   1      47.984  28.540  27.136  1.00  0.00     0.049 A 
ATOM     59  H   UNL A   1      45.926  28.682  27.579  1.00  0.00     0.167 HD
ATOM     60  C   UNL A   1      47.139  26.229  26.836  1.00  0.00     0.074 A 
ATOM     61  C   UNL A   1      47.313  24.825  26.523  1.00  0.00     0.031 C 
ATOM     62  C   UNL A   1      48.140  27.143  26.820  1.00  0.00     0.037 A 
BRANCH  49  63
ATOM     63  C   UNL A   1      46.359  32.858  28.373  1.00  0.00     0.058 A 
ATOM     64  C   UNL A   1      46.813  33.316  29.620  1.00  0.00     0.135 A 
ATOM     65  C   UNL A   1      46.310  33.780  27.315  1.00  0.00     0.135 A 
ATOM     66  F   UNL A   1      46.867  32.479  30.668  1.00  0.00    -0.206 F 
ATOM     67  C   UNL A   1      47.182  34.642  29.818  1.00  0.00     0.059 A 
ATOM     68  C   UNL A   1      46.697  35.107  27.485  1.00  0.00     0.059 A 
ATOM     69  F   UNL A   1      45.884  33.396  26.102  1.00  0.00    -0.206 F 
ATOM     70  C   UNL A   1      47.119  35.532  28.744  1.00  0.00     0.060 A 
BRANCH  70  71
ATOM     71  S   UNL A   1      47.606  37.250  29.016  1.00  0.00     0.124 S 
ATOM     72  O   UNL A   1      47.938  37.235  30.437  1.00  0.00    -0.237 OA
ATOM     73  O   UNL A   1      48.734  37.404  28.104  1.00  0.00    -0.237 OA
ATOM     74  O   UNL A   1      46.407  38.002  28.660  1.00  0.00    -0.744 OA
ENDBRANCH  70  71
ENDBRANCH  49  63
BRANCH  50  75
ATOM     75  C   UNL A   1      43.342  23.446  26.933  1.00  0.00     0.058 A 
ATOM     76  C   UNL A   1      43.213  22.956  25.626  1.00  0.00     0.135 A 
ATOM     77  C   UNL A   1      43.050  22.575  27.993  1.00  0.00     0.135 A 
ATOM     78  F   UNL A   1      43.477  23.755  24.580  1.00  0.00    -0.206 F 
ATOM     79  C   UNL A   1      42.796  21.652  25.375  1.00  0.00     0.059 A 
ATOM     80  C   UNL A   1      42.653  21.261  27.769  1.00  0.00     0.059 A 
ATOM     81  F   UNL A   1      43.178  22.992  29.262  1.00  0.00    -0.206 F 
ATOM     82  C   UNL A   1      42.521  20.811  26.455  1.00  0.00     0.060 A 
BRANCH  82  83
ATOM     83  S   UNL A   1      42.043  19.100  26.127  1.00  0.00     0.124 S 
ATOM     84  O   UNL A   1      42.801  18.811  24.916  1.00  0.00    -0.237 OA
ATOM     85  O   UNL A   1      42.487  18.417  27.339  1.00  0.00    -0.237 OA
ATOM     86  O   UNL A   1      40.595  19.185  25.964  1.00  0.00    -0.744 OA
ENDBRANCH  82  83
ENDBRANCH  50  75
BRANCH  62  87
ATOM     87  C   UNL A   1      49.511  26.646  26.461  1.00  0.00     0.058 A 
ATOM     88  C   UNL A   1      50.335  26.020  27.409  1.00  0.00     0.135 A 
ATOM     89  C   UNL A   1      50.002  26.783  25.153  1.00  0.00     0.135 A 
ATOM     90  F   UNL A   1      49.916  25.871  28.676  1.00  0.00    -0.206 F 
ATOM     91  C   UNL A   1      51.612  25.576  27.082  1.00  0.00     0.059 A 
ATOM     92  C   UNL A   1      51.266  26.325  24.797  1.00  0.00     0.059 A 
ATOM     93  F   UNL A   1      49.249  27.365  24.207  1.00  0.00    -0.206 F 
ATOM     94  C   UNL A   1      52.070  25.737  25.773  1.00  0.00     0.060 A 
BRANCH  94  95
ATOM     95  S   UNL A   1      53.726  25.152  25.355  1.00  0.00     0.124 S 
ATOM     96  O   UNL A   1      53.540  23.705  25.376  1.00  0.00    -0.237 OA
ATOM     97  O   UNL A   1      53.947  25.743  24.038  1.00  0.00    -0.237 OA
ATOM     98  O   UNL A   1      54.557  25.696  26.425  1.00  0.00    -0.744 OA
ENDBRANCH  94  95
ENDBRANCH  62  87
ENDBRANCH  36  37
ENDBRANCH  28  31
ENDBRANCH  26  27
ENDBRANCH  25  26
ENDBRANCH   1  25
TORSDOF 17
ENDMDL
MODEL 2
REMARK VINA RESULT:     -11.7      1.338      2.741
REMARK SMILES C[C@H](NC(=O)c1ccncc1/C=C/C(=O)NCCCNC(=O)c1ccc(-c2c3nc(c(-c4c(F)cc(S(=O)(=O)[O-])cc4F)c4ccc([nH]4)c(-c4c(F)cc(S(=O)(=O)[O-])cc4F)c4nc(c(-c5c(F)cc(S(=O)(=O)[O-])cc5F)c5ccc2[nH]5)C=C4)C=C3)cc1)c1ccco1
REMARK SMILES IDX 17 1 16 2 14 3 15 4 13 6 12 7 11 8 6 9 7 10 8 11 10 12 9 13
REMARK SMILES IDX 4 14 3 15 5 17 2 18 1 19 89 20 90 21 93 22 91 23 92 24 18 25
REMARK SMILES IDX 19 26 20 27 21 28 22 30 23 31 24 32 88 33 25 34 87 35 26 36
REMARK SMILES IDX 27 37 28 38 81 39 29 40 86 41 80 42 82 43 30 44 85 45 79 46
REMARK SMILES IDX 78 47 31 49 65 50 44 51 64 52 45 53 48 54 63 55 83 56 46 57
REMARK SMILES IDX 47 58 62 60 84 61 49 62 32 63 33 64 42 65 34 66 35 67 41 68
REMARK SMILES IDX 43 69 36 70 37 71 38 72 39 73 40 74 66 75 67 76 76 77 68 78
REMARK SMILES IDX 69 79 75 80 77 81 70 82 71 83 72 84 73 85 74 86 50 87 51 88
REMARK SMILES IDX 60 89 52 90 53 91 59 92 61 93 54 94 55 95 56 96 57 97 58 98
REMARK H PARENT 16 5 3 16 20 29 82 48 48 59
REMARK Flexibility Score: inf
ROOT
ATOM      1  C   UNL A   1      34.137  29.110  26.415  1.00  0.00     0.118 C 
ENDROOT
BRANCH   1   2
ATOM      2  N   UNL A   1      32.943  28.284  26.328  1.00  0.00    -0.352 N 
ATOM      3  C   UNL A   1      32.818  26.950  26.095  1.00  0.00     0.244 C 
ATOM      4  O   UNL A   1      31.724  26.402  26.212  1.00  0.00    -0.270 OA
ATOM      5  H   UNL A   1      32.094  28.765  26.457  1.00  0.00     0.163 HD
BRANCH   3   6
ATOM      6  C   UNL A   1      34.006  26.128  25.785  1.00  0.00     0.072 C 
ATOM      7  C   UNL A   1      33.939  24.857  25.359  1.00  0.00     0.016 C 
BRANCH   7   8
ATOM      8  C   UNL A   1      35.133  24.050  25.068  1.00  0.00     0.006 A 
ATOM      9  C   UNL A   1      35.193  23.123  24.018  1.00  0.00     0.050 A 
ATOM     10  C   UNL A   1      36.355  22.381  23.780  1.00  0.00     0.034 A 
ATOM     11  C   UNL A   1      37.421  22.558  24.638  1.00  0.00     0.112 A 
ATOM     12  C   UNL A   1      36.268  24.127  25.872  1.00  0.00     0.119 A 
ATOM     13  N   UNL A   1      37.403  23.409  25.683  1.00  0.00    -0.264 NA
BRANCH   9  14
ATOM     14  C   UNL A   1      34.063  22.949  23.085  1.00  0.00     0.252 C 
ATOM     15  N   UNL A   1      33.135  21.970  23.320  1.00  0.00    -0.342 N 
ATOM     16  H   UNL A   1      32.456  21.856  22.615  1.00  0.00     0.164 HD
ATOM     17  O   UNL A   1      33.964  23.683  22.108  1.00  0.00    -0.269 OA
BRANCH  15  18
ATOM     18  C   UNL A   1      33.010  21.072  24.463  1.00  0.00     0.145 C 
ATOM     19  C   UNL A   1      31.737  21.387  25.241  1.00  0.00     0.039 C 
BRANCH  18  20
ATOM     20  C   UNL A   1      33.009  19.667  23.960  1.00  0.00     0.125 A 
ATOM     21  C   UNL A   1      33.690  18.518  24.317  1.00  0.00     0.048 A 
ATOM     22  O   UNL A   1      32.187  19.403  22.901  1.00  0.00    -0.467 OA
ATOM     23  C   UNL A   1      33.275  17.508  23.417  1.00  0.00     0.042 A 
ATOM     24  C   UNL A   1      32.367  18.099  22.572  1.00  0.00     0.195 A 
ENDBRANCH  18  20
ENDBRANCH  15  18
ENDBRANCH   9  14
ENDBRANCH   7   8
ENDBRANCH   3   6
ENDBRANCH   1   2
BRANCH   1  25
ATOM     25  C   UNL A   1      33.976  30.241  27.430  1.00  0.00     0.042 C 
BRANCH  25  26
ATOM     26  C   UNL A   1      35.297  30.752  28.007  1.00  0.00     0.118 C 
BRANCH  26  27
ATOM     27  N   UNL A   1      35.331  30.679  29.459  1.00  0.00    -0.352 N 
ATOM     28  C   UNL A   1      36.299  30.212  30.310  1.00  0.00     0.251 C 
ATOM     29  H   UNL A   1      34.524  31.023  29.906  1.00  0.00     0.163 HD
ATOM     30  O   UNL A   1      36.022  30.071  31.499  1.00  0.00    -0.269 OA
BRANCH  28  31
ATOM     31  C   UNL A   1      37.658  29.867  29.829  1.00  0.00     0.039 A 
ATOM     32  C   UNL A   1      38.640  29.570  30.780  1.00  0.00     0.014 A 
ATOM     33  C   UNL A   1      37.998  29.905  28.474  1.00  0.00     0.014 A 
ATOM     34  C   UNL A   1      39.943  29.272  30.375  1.00  0.00     0.010 A 
ATOM     35  C   UNL A   1      39.287  29.552  28.064  1.00  0.00     0.010 A 
ATOM     36  C   UNL A   1      40.273  29.238  29.011  1.00  0.00    -0.014 A 
BRANCH  36  37
ATOM     37  C   UNL A   1      41.645  28.862  28.577  1.00  0.00     0.031 A 
ATOM     38  C   UNL A   1      42.738  29.895  28.501  1.00  0.00     0.074 A 
ATOM     39  C   UNL A   1      41.898  27.586  28.224  1.00  0.00     0.049 A 
ATOM     40  N   UNL A   1      43.986  29.748  28.135  1.00  0.00    -0.248 NA
ATOM     41  C   UNL A   1      42.377  31.273  28.864  1.00  0.00     0.031 C 
ATOM     42  C   UNL A   1      40.910  26.505  28.201  1.00  0.00     0.029 A 
ATOM     43  N   UNL A   1      43.058  26.982  27.811  1.00  0.00    -0.354 N 
ATOM     44  C   UNL A   1      44.560  31.010  28.222  1.00  0.00     0.074 A 
ATOM     45  C   UNL A   1      43.510  31.921  28.628  1.00  0.00     0.031 C 
ATOM     46  C   UNL A   1      41.510  25.369  27.814  1.00  0.00     0.029 A 
ATOM     47  C   UNL A   1      42.917  25.644  27.537  1.00  0.00     0.049 A 
ATOM     48  H   UNL A   1      43.913  27.464  27.719  1.00  0.00     0.167 HD
ATOM     49  C   UNL A   1      45.847  31.375  28.006  1.00  0.00     0.037 A 
ATOM     50  C   UNL A   1      43.816  24.737  27.109  1.00  0.00     0.037 A 
ATOM     51  C   UNL A   1      46.894  30.464  27.618  1.00  0.00     0.049 A 
ATOM     52  C   UNL A   1      45.244  25.158  26.903  1.00  0.00     0.074 A 
ATOM     53  C   UNL A   1      48.238  30.731  27.410  1.00  0.00     0.029 A 
ATOM     54  N   UNL A   1      46.718  29.108  27.383  1.00  0.00    -0.354 N 
ATOM     55  N   UNL A   1      45.778  26.349  27.039  1.00  0.00    -0.248 NA
ATOM     56  C   UNL A   1      46.194  24.114  26.500  1.00  0.00     0.031 C 
ATOM     57  C   UNL A   1      48.867  29.541  27.023  1.00  0.00     0.029 A 
ATOM     58  C   UNL A   1      47.923  28.527  27.024  1.00  0.00     0.049 A 
ATOM     59  H   UNL A   1      45.861  28.629  27.458  1.00  0.00     0.167 HD
ATOM     60  C   UNL A   1      47.128  26.194  26.750  1.00  0.00     0.074 A 
ATOM     61  C   UNL A   1      47.333  24.790  26.455  1.00  0.00     0.031 C 
ATOM     62  C   UNL A   1      48.110  27.129  26.726  1.00  0.00     0.037 A 
BRANCH  49  63
ATOM     63  C   UNL A   1      46.202  32.824  28.203  1.00  0.00     0.058 A 
ATOM     64  C   UNL A   1      46.641  33.306  29.446  1.00  0.00     0.135 A 
ATOM     65  C   UNL A   1      46.139  33.731  27.133  1.00  0.00     0.135 A 
ATOM     66  F   UNL A   1      46.707  32.484  30.505  1.00  0.00    -0.206 F 
ATOM     67  C   UNL A   1      46.980  34.643  29.629  1.00  0.00     0.059 A 
ATOM     68  C   UNL A   1      46.497  35.068  27.288  1.00  0.00     0.059 A 
ATOM     69  F   UNL A   1      45.727  33.323  25.923  1.00  0.00    -0.206 F 
ATOM     70  C   UNL A   1      46.903  35.517  28.544  1.00  0.00     0.060 A 
BRANCH  70  71
ATOM     71  S   UNL A   1      47.353  37.248  28.796  1.00  0.00     0.124 S 
ATOM     72  O   UNL A   1      48.633  37.320  28.099  1.00  0.00    -0.237 OA
ATOM     73  O   UNL A   1      46.246  37.956  28.162  1.00  0.00    -0.237 OA
ATOM     74  O   UNL A   1      47.423  37.372  30.249  1.00  0.00    -0.744 OA
ENDBRANCH  70  71
ENDBRANCH  49  63
BRANCH  50  75
ATOM     75  C   UNL A   1      43.391  23.332  26.869  1.00  0.00     0.058 A 
ATOM     76  C   UNL A   1      43.320  22.810  25.570  1.00  0.00     0.135 A 
ATOM     77  C   UNL A   1      43.072  22.481  27.937  1.00  0.00     0.135 A 
ATOM     78  F   UNL A   1      43.611  23.589  24.517  1.00  0.00    -0.206 F 
ATOM     79  C   UNL A   1      42.932  21.495  25.334  1.00  0.00     0.059 A 
ATOM     80  C   UNL A   1      42.704  21.156  27.729  1.00  0.00     0.059 A 
ATOM     81  F   UNL A   1      43.145  22.929  29.200  1.00  0.00    -0.206 F 
ATOM     82  C   UNL A   1      42.628  20.675  26.422  1.00  0.00     0.060 A 
BRANCH  82  83
ATOM     83  S   UNL A   1      42.188  18.950  26.117  1.00  0.00     0.124 S 
ATOM     84  O   UNL A   1      42.496  18.337  27.403  1.00  0.00    -0.237 OA
ATOM     85  O   UNL A   1      40.771  19.047  25.778  1.00  0.00    -0.237 OA
ATOM     86  O   UNL A   1      43.061  18.575  25.010  1.00  0.00    -0.744 OA
ENDBRANCH  82  83
ENDBRANCH  50  75
BRANCH  62  87
ATOM     87  C   UNL A   1      49.493  26.658  26.378  1.00  0.00     0.058 A 
ATOM     88  C   UNL A   1      50.029  26.844  25.094  1.00  0.00     0.135 A 
ATOM     89  C   UNL A   1      50.297  26.027  27.341  1.00  0.00     0.135 A 
ATOM     90  F   UNL A   1      49.298  27.436  24.136  1.00  0.00    -0.206 F 
ATOM     91  C   UNL A   1      51.303  26.392  24.767  1.00  0.00     0.059 A 
ATOM     92  C   UNL A   1      51.582  25.588  27.042  1.00  0.00     0.059 A 
ATOM     93  F   UNL A   1      49.834  25.834  28.586  1.00  0.00    -0.206 F 
ATOM     94  C   UNL A   1      52.071  25.761  25.747  1.00  0.00     0.060 A 
BRANCH  94  95
ATOM     95  S   UNL A   1      53.726  25.182  25.315  1.00  0.00     0.124 S 
ATOM     96  O   UNL A   1      54.561  26.019  26.171  1.00  0.00    -0.237 OA
ATOM     97  O   UNL A   1      53.669  23.768  25.673  1.00  0.00    -0.237 OA
ATOM     98  O   UNL A   1      53.817  25.458  23.885  1.00  0.00    -0.744 OA
ENDBRANCH  94  95
ENDBRANCH  62  87
ENDBRANCH  36  37
ENDBRANCH  28  31
ENDBRANCH  26  27
ENDBRANCH  25  26
ENDBRANCH   1  25
TORSDOF 17
ENDMDL
MODEL 3
REMARK VINA RESULT:     -11.7      6.475     11.783
REMARK SMILES C[C@H](NC(=O)c1ccncc1/C=C/C(=O)NCCCNC(=O)c1ccc(-c2c3nc(c(-c4c(F)cc(S(=O)(=O)[O-])cc4F)c4ccc([nH]4)c(-c4c(F)cc(S(=O)(=O)[O-])cc4F)c4nc(c(-c5c(F)cc(S(=O)(=O)[O-])cc5F)c5ccc2[nH]5)C=C4)C=C3)cc1)c1ccco1
REMARK SMILES IDX 17 1 16 2 14 3 15 4 13 6 12 7 11 8 6 9 7 10 8 11 10 12 9 13
REMARK SMILES IDX 4 14 3 15 5 17 2 18 1 19 89 20 90 21 93 22 91 23 92 24 18 25
REMARK SMILES IDX 19 26 20 27 21 28 22 30 23 31 24 32 88 33 25 34 87 35 26 36
REMARK SMILES IDX 27 37 28 38 81 39 29 40 86 41 80 42 82 43 30 44 85 45 79 46
REMARK SMILES IDX 78 47 31 49 65 50 44 51 64 52 45 53 48 54 63 55 83 56 46 57
REMARK SMILES IDX 47 58 62 60 84 61 49 62 32 63 33 64 42 65 34 66 35 67 41 68
REMARK SMILES IDX 43 69 36 70 37 71 38 72 39 73 40 74 66 75 67 76 76 77 68 78
REMARK SMILES IDX 69 79 75 80 77 81 70 82 71 83 72 84 73 85 74 86 50 87 51 88
REMARK SMILES IDX 60 89 52 90 53 91 59 92 61 93 54 94 55 95 56 96 57 97 58 98
REMARK H PARENT 16 5 3 16 20 29 82 48 48 59
REMARK Flexibility Score: inf
ROOT
ATOM      1  C   UNL A   1      37.949  22.182  25.782  1.00  0.00     0.118 C 
ENDROOT
BRANCH   1   2
ATOM      2  N   UNL A   1      37.736  22.408  24.360  1.00  0.00    -0.352 N 
ATOM      3  C   UNL A   1      36.582  22.623  23.674  1.00  0.00     0.244 C 
ATOM      4  O   UNL A   1      36.620  22.950  22.489  1.00  0.00    -0.270 OA
ATOM      5  H   UNL A   1      38.552  22.405  23.811  1.00  0.00     0.163 HD
BRANCH   3   6
ATOM      6  C   UNL A   1      35.276  22.555  24.360  1.00  0.00     0.072 C 
ATOM      7  C   UNL A   1      34.611  23.633  24.804  1.00  0.00     0.016 C 
BRANCH   7   8
ATOM      8  C   UNL A   1      33.318  23.544  25.496  1.00  0.00     0.006 A 
ATOM      9  C   UNL A   1      32.105  23.929  24.907  1.00  0.00     0.050 A 
ATOM     10  C   UNL A   1      30.899  23.820  25.607  1.00  0.00     0.034 A 
ATOM     11  C   UNL A   1      30.947  23.367  26.909  1.00  0.00     0.112 A 
ATOM     12  C   UNL A   1      33.238  23.117  26.820  1.00  0.00     0.119 A 
ATOM     13  N   UNL A   1      32.090  23.019  27.535  1.00  0.00    -0.264 NA
BRANCH   9  14
ATOM     14  C   UNL A   1      32.049  24.391  23.506  1.00  0.00     0.252 C 
ATOM     15  N   UNL A   1      32.112  25.731  23.232  1.00  0.00    -0.342 N 
ATOM     16  H   UNL A   1      31.985  25.974  22.286  1.00  0.00     0.164 HD
ATOM     17  O   UNL A   1      31.945  23.571  22.600  1.00  0.00    -0.269 OA
BRANCH  15  18
ATOM     18  C   UNL A   1      32.339  26.849  24.141  1.00  0.00     0.145 C 
ATOM     19  C   UNL A   1      33.800  27.283  24.086  1.00  0.00     0.039 C 
BRANCH  18  20
ATOM     20  C   UNL A   1      31.425  27.963  23.755  1.00  0.00     0.125 A 
ATOM     21  C   UNL A   1      30.836  29.007  24.445  1.00  0.00     0.048 A 
ATOM     22  O   UNL A   1      31.033  27.999  22.447  1.00  0.00    -0.467 OA
ATOM     23  C   UNL A   1      30.029  29.702  23.512  1.00  0.00     0.042 A 
ATOM     24  C   UNL A   1      30.179  29.046  22.315  1.00  0.00     0.195 A 
ENDBRANCH  18  20
ENDBRANCH  15  18
ENDBRANCH   9  14
ENDBRANCH   7   8
ENDBRANCH   3   6
ENDBRANCH   1   2
BRANCH   1  25
ATOM     25  C   UNL A   1      38.528  23.415  26.475  1.00  0.00     0.042 C 
BRANCH  25  26
ATOM     26  C   UNL A   1      39.977  23.248  26.933  1.00  0.00     0.118 C 
BRANCH  26  27
ATOM     27  N   UNL A   1      40.917  23.923  26.052  1.00  0.00    -0.352 N 
ATOM     28  C   UNL A   1      41.424  25.197  26.090  1.00  0.00     0.251 C 
ATOM     29  H   UNL A   1      41.243  23.375  25.302  1.00  0.00     0.163 HD
ATOM     30  O   UNL A   1      42.056  25.610  25.121  1.00  0.00    -0.269 OA
BRANCH  28  31
ATOM     31  C   UNL A   1      41.218  26.082  27.261  1.00  0.00     0.039 A 
ATOM     32  C   UNL A   1      42.130  27.121  27.472  1.00  0.00     0.014 A 
ATOM     33  C   UNL A   1      40.196  25.860  28.190  1.00  0.00     0.014 A 
ATOM     34  C   UNL A   1      41.995  27.960  28.581  1.00  0.00     0.010 A 
ATOM     35  C   UNL A   1      40.028  26.733  29.269  1.00  0.00     0.010 A 
ATOM     36  C   UNL A   1      40.928  27.787  29.478  1.00  0.00    -0.014 A 
BRANCH  36  37
ATOM     37  C   UNL A   1      40.750  28.716  30.625  1.00  0.00     0.031 A 
ATOM     38  C   UNL A   1      41.618  28.601  31.850  1.00  0.00     0.074 A 
ATOM     39  C   UNL A   1      39.782  29.652  30.571  1.00  0.00     0.049 A 
ATOM     40  N   UNL A   1      41.596  29.317  32.946  1.00  0.00    -0.248 NA
ATOM     41  C   UNL A   1      42.626  27.531  31.854  1.00  0.00     0.031 C 
ATOM     42  C   UNL A   1      38.841  29.829  29.463  1.00  0.00     0.029 A 
ATOM     43  N   UNL A   1      39.424  30.626  31.468  1.00  0.00    -0.354 N 
ATOM     44  C   UNL A   1      42.583  28.787  33.768  1.00  0.00     0.074 A 
ATOM     45  C   UNL A   1      43.151  27.656  33.065  1.00  0.00     0.031 C 
ATOM     46  C   UNL A   1      38.026  30.859  29.738  1.00  0.00     0.029 A 
ATOM     47  C   UNL A   1      38.369  31.401  31.050  1.00  0.00     0.049 A 
ATOM     48  H   UNL A   1      39.881  30.758  32.331  1.00  0.00     0.167 HD
ATOM     49  C   UNL A   1      42.994  29.215  34.986  1.00  0.00     0.037 A 
ATOM     50  C   UNL A   1      37.745  32.431  31.653  1.00  0.00     0.037 A 
ATOM     51  C   UNL A   1      42.437  30.351  35.678  1.00  0.00     0.049 A 
ATOM     52  C   UNL A   1      38.236  32.906  32.992  1.00  0.00     0.074 A 
ATOM     53  C   UNL A   1      42.809  30.884  36.900  1.00  0.00     0.029 A 
ATOM     54  N   UNL A   1      41.391  31.131  35.206  1.00  0.00    -0.354 N 
ATOM     55  N   UNL A   1      39.205  32.421  33.732  1.00  0.00    -0.248 NA
ATOM     56  C   UNL A   1      37.561  34.074  33.572  1.00  0.00     0.031 C 
ATOM     57  C   UNL A   1      41.971  31.971  37.179  1.00  0.00     0.029 A 
ATOM     58  C   UNL A   1      41.099  32.135  36.115  1.00  0.00     0.049 A 
ATOM     59  H   UNL A   1      40.924  30.990  34.351  1.00  0.00     0.167 HD
ATOM     60  C   UNL A   1      39.264  33.231  34.859  1.00  0.00     0.074 A 
ATOM     61  C   UNL A   1      38.248  34.251  34.692  1.00  0.00     0.031 C 
ATOM     62  C   UNL A   1      40.080  33.138  35.937  1.00  0.00     0.037 A 
BRANCH  49  63
ATOM     63  C   UNL A   1      44.115  28.460  35.646  1.00  0.00     0.058 A 
ATOM     64  C   UNL A   1      45.451  28.871  35.512  1.00  0.00     0.135 A 
ATOM     65  C   UNL A   1      43.853  27.340  36.451  1.00  0.00     0.135 A 
ATOM     66  F   UNL A   1      45.758  29.928  34.744  1.00  0.00    -0.206 F 
ATOM     67  C   UNL A   1      46.490  28.183  36.129  1.00  0.00     0.059 A 
ATOM     68  C   UNL A   1      44.875  26.650  37.098  1.00  0.00     0.059 A 
ATOM     69  F   UNL A   1      42.594  26.904  36.615  1.00  0.00    -0.206 F 
ATOM     70  C   UNL A   1      46.192  27.072  36.920  1.00  0.00     0.060 A 
BRANCH  70  71
ATOM     71  S   UNL A   1      47.552  26.192  37.720  1.00  0.00     0.124 S 
ATOM     72  O   UNL A   1      46.976  25.896  39.027  1.00  0.00    -0.237 OA
ATOM     73  O   UNL A   1      47.746  25.046  36.838  1.00  0.00    -0.237 OA
ATOM     74  O   UNL A   1      48.635  27.170  37.719  1.00  0.00    -0.744 OA
ENDBRANCH  70  71
ENDBRANCH  49  63
BRANCH  50  75
ATOM     75  C   UNL A   1      36.599  33.096  30.980  1.00  0.00     0.058 A 
ATOM     76  C   UNL A   1      35.286  32.911  31.435  1.00  0.00     0.135 A 
ATOM     77  C   UNL A   1      36.799  33.947  29.883  1.00  0.00     0.135 A 
ATOM     78  F   UNL A   1      35.045  32.102  32.479  1.00  0.00    -0.206 F 
ATOM     79  C   UNL A   1      34.207  33.535  30.818  1.00  0.00     0.059 A 
ATOM     80  C   UNL A   1      35.740  34.600  29.263  1.00  0.00     0.059 A 
ATOM     81  F   UNL A   1      38.040  34.171  29.423  1.00  0.00    -0.206 F 
ATOM     82  C   UNL A   1      34.444  34.381  29.733  1.00  0.00     0.060 A 
BRANCH  82  83
ATOM     83  S   UNL A   1      33.048  35.240  28.975  1.00  0.00     0.124 S 
ATOM     84  O   UNL A   1      33.702  36.410  28.401  1.00  0.00    -0.237 OA
ATOM     85  O   UNL A   1      32.555  34.250  28.022  1.00  0.00    -0.237 OA
ATOM     86  O   UNL A   1      32.164  35.500  30.107  1.00  0.00    -0.744 OA
ENDBRANCH  82  83
ENDBRANCH  50  75
BRANCH  62  87
ATOM     87  C   UNL A   1      39.912  34.174  37.013  1.00  0.00     0.058 A 
ATOM     88  C   UNL A   1      39.159  33.914  38.168  1.00  0.00     0.135 A 
ATOM     89  C   UNL A   1      40.521  35.433  36.894  1.00  0.00     0.135 A 
ATOM     90  F   UNL A   1      38.551  32.728  38.327  1.00  0.00    -0.206 F 
ATOM     91  C   UNL A   1      38.989  34.879  39.156  1.00  0.00     0.059 A 
ATOM     92  C   UNL A   1      40.383  36.404  37.880  1.00  0.00     0.059 A 
ATOM     93  F   UNL A   1      41.259  35.727  35.813  1.00  0.00    -0.206 F 
ATOM     94  C   UNL A   1      39.601  36.124  39.000  1.00  0.00     0.060 A 
BRANCH  94  95
ATOM     95  S   UNL A   1      39.379  37.368  40.289  1.00  0.00     0.124 S 
ATOM     96  O   UNL A   1      38.599  38.381  39.586  1.00  0.00    -0.237 OA
ATOM     97  O   UNL A   1      38.668  36.626  41.326  1.00  0.00    -0.237 OA
ATOM     98  O   UNL A   1      40.747  37.751  40.628  1.00  0.00    -0.744 OA
ENDBRANCH  94  95
ENDBRANCH  62  87
ENDBRANCH  36  37
ENDBRANCH  28  31
ENDBRANCH  26  27
ENDBRANCH  25  26
ENDBRANCH   1  25
TORSDOF 17
ENDMDL
