MODEL 1
REMARK VINA RESULT:     -12.3      0.000      0.000
REMARK SMILES O=C(Cn1cc(NC(=O)N2CC[N@@H+]3CCC[C@@H]3C2)cn1)NCCCNC(=O)c1ccc(-c2c3nc(c(-c4c(F)cc(S(=O)(=O)[O-])cc4F)c4ccc([nH]4)c(-c4c(F)cc(S(=O)(=O)[O-])cc4F)c4nc(c(-c5c(F)cc(S(=O)(=O)[O-])cc5F)c5ccc2[nH]5)C=C4)C=C3)cc1
REMARK SMILES IDX 23 1 22 2 21 3 1 4 2 5 3 7 4 8 5 9 20 10 6 11 19 12 7 13
REMARK SMILES IDX 8 14 9 16 10 17 11 18 18 19 12 20 17 21 13 22 16 23 14 24
REMARK SMILES IDX 15 26 24 27 25 28 26 29 27 31 28 32 29 33 93 34 30 35 92 36
REMARK SMILES IDX 31 37 32 38 33 39 86 40 34 41 91 42 85 43 87 44 35 45 90 46
REMARK SMILES IDX 84 47 83 48 36 50 70 51 49 52 69 53 50 54 53 55 68 56 88 57
REMARK SMILES IDX 51 58 52 59 67 61 89 62 54 63 37 64 38 65 47 66 39 67 40 68
REMARK SMILES IDX 46 69 48 70 41 71 42 72 43 73 44 74 45 75 71 76 72 77 81 78
REMARK SMILES IDX 73 79 74 80 80 81 82 82 75 83 76 84 77 85 78 86 79 87 55 88
REMARK SMILES IDX 56 89 65 90 57 91 58 92 64 93 66 94 59 95 60 96 61 97 62 98
REMARK SMILES IDX 63 99
REMARK H PARENT 21 6 7 15 13 25 25 30 87 49 53 60
REMARK Flexibility Score: inf
ROOT
ATOM      1  C   UNL A   1      35.012  33.648  28.005  1.00  0.00     0.042 C 
ENDROOT
BRANCH   1   2
ATOM      2  C   UNL A   1      34.425  35.058  28.133  1.00  0.00     0.117 C 
BRANCH   2   3
ATOM      3  N   UNL A   1      34.383  35.528  29.509  1.00  0.00    -0.354 N 
ATOM      4  O   UNL A   1      32.289  36.452  29.398  1.00  0.00    -0.273 OA
ATOM      5  C   UNL A   1      33.294  36.187  30.054  1.00  0.00     0.241 C 
ATOM      6  H   UNL A   1      35.168  35.370  30.081  1.00  0.00     0.163 HD
BRANCH   5   7
ATOM      7  C   UNL A   1      33.456  36.608  31.502  1.00  0.00     0.244 C 
BRANCH   7   8
ATOM      8  N   UNL A   1      33.898  35.519  32.357  1.00  0.00    -0.261 N 
ATOM      9  C   UNL A   1      34.543  35.612  33.563  1.00  0.00     0.135 A 
ATOM     10  N   UNL A   1      33.581  34.250  32.029  1.00  0.00    -0.179 NA
ATOM     11  C   UNL A   1      34.787  34.322  33.968  1.00  0.00     0.081 A 
ATOM     12  C   UNL A   1      34.096  33.529  33.027  1.00  0.00     0.161 A 
BRANCH  11  13
ATOM     13  N   UNL A   1      35.513  33.980  35.094  1.00  0.00    -0.305 N 
ATOM     14  C   UNL A   1      36.790  33.492  35.123  1.00  0.00     0.322 C 
ATOM     15  H   UNL A   1      35.066  34.099  35.962  1.00  0.00     0.171 HD
ATOM     16  O   UNL A   1      37.126  32.721  36.022  1.00  0.00    -0.248 OA
BRANCH  14  17
ATOM     17  N   UNL A   1      37.665  33.911  34.145  1.00  0.00    -0.313 N 
ATOM     18  C   UNL A   1      38.888  34.654  34.481  1.00  0.00     0.183 C 
ATOM     19  C   UNL A   1      37.604  33.294  32.830  1.00  0.00     0.186 C 
ATOM     20  C   UNL A   1      39.899  34.769  33.325  1.00  0.00     0.284 C 
ATOM     21  C   UNL A   1      38.943  32.691  32.378  1.00  0.00     0.204 C 
ATOM     22  N   UNL A   1      40.151  33.524  32.591  1.00  0.00    -0.330 N 
ATOM     23  C   UNL A   1      38.925  32.359  30.885  1.00  0.00     0.073 C 
ATOM     24  C   UNL A   1      40.776  33.772  31.288  1.00  0.00     0.262 C 
ATOM     25  H   UNL A   1      40.788  33.004  33.194  1.00  0.00     0.348 HD
ATOM     26  C   UNL A   1      40.357  32.588  30.441  1.00  0.00     0.068 C 
ENDBRANCH  14  17
ENDBRANCH  11  13
ENDBRANCH   7   8
ENDBRANCH   5   7
ENDBRANCH   2   3
ENDBRANCH   1   2
BRANCH   1  27
ATOM     27  C   UNL A   1      34.446  32.651  29.009  1.00  0.00     0.118 C 
BRANCH  27  28
ATOM     28  N   UNL A   1      33.905  31.435  28.396  1.00  0.00    -0.352 N 
ATOM     29  C   UNL A   1      34.600  30.324  27.937  1.00  0.00     0.251 C 
ATOM     30  H   UNL A   1      32.926  31.402  28.296  1.00  0.00     0.163 HD
ATOM     31  O   UNL A   1      34.099  29.567  27.125  1.00  0.00    -0.269 OA
BRANCH  29  32
ATOM     32  C   UNL A   1      35.961  30.077  28.458  1.00  0.00     0.039 A 
ATOM     33  C   UNL A   1      36.187  29.399  29.661  1.00  0.00     0.014 A 
ATOM     34  C   UNL A   1      37.029  30.513  27.683  1.00  0.00     0.014 A 
ATOM     35  C   UNL A   1      37.498  29.081  30.019  1.00  0.00     0.010 A 
ATOM     36  C   UNL A   1      38.287  30.038  27.937  1.00  0.00     0.010 A 
ATOM     37  C   UNL A   1      38.546  29.382  29.134  1.00  0.00    -0.014 A 
BRANCH  37  38
ATOM     38  C   UNL A   1      39.912  28.908  29.361  1.00  0.00     0.031 A 
ATOM     39  C   UNL A   1      40.263  28.744  30.798  1.00  0.00     0.074 A 
ATOM     40  C   UNL A   1      40.673  28.394  28.365  1.00  0.00     0.049 A 
ATOM     41  N   UNL A   1      41.106  29.434  31.495  1.00  0.00    -0.248 NA
ATOM     42  C   UNL A   1      39.469  27.799  31.605  1.00  0.00     0.031 C 
ATOM     43  C   UNL A   1      40.284  28.206  26.958  1.00  0.00     0.029 A 
ATOM     44  N   UNL A   1      41.905  27.808  28.407  1.00  0.00    -0.354 N 
ATOM     45  C   UNL A   1      41.151  28.813  32.742  1.00  0.00     0.074 A 
ATOM     46  C   UNL A   1      39.969  28.001  32.828  1.00  0.00     0.031 C 
ATOM     47  C   UNL A   1      41.132  27.345  26.357  1.00  0.00     0.029 A 
ATOM     48  C   UNL A   1      42.234  27.081  27.263  1.00  0.00     0.049 A 
ATOM     49  H   UNL A   1      42.510  27.892  29.179  1.00  0.00     0.167 HD
ATOM     50  C   UNL A   1      42.318  28.755  33.445  1.00  0.00     0.037 A 
ATOM     51  C   UNL A   1      43.341  26.329  27.050  1.00  0.00     0.037 A 
ATOM     52  C   UNL A   1      43.300  29.634  32.864  1.00  0.00     0.049 A 
ATOM     53  C   UNL A   1      44.378  26.814  27.987  1.00  0.00     0.074 A 
ATOM     54  C   UNL A   1      43.527  30.991  32.809  1.00  0.00     0.029 A 
ATOM     55  N   UNL A   1      44.031  29.054  31.860  1.00  0.00    -0.354 N 
ATOM     56  N   UNL A   1      44.892  28.012  27.926  1.00  0.00    -0.248 NA
ATOM     57  C   UNL A   1      44.610  26.096  29.235  1.00  0.00     0.031 C 
ATOM     58  C   UNL A   1      44.281  31.219  31.619  1.00  0.00     0.029 A 
ATOM     59  C   UNL A   1      44.532  29.996  31.003  1.00  0.00     0.049 A 
ATOM     60  H   UNL A   1      44.176  28.084  31.766  1.00  0.00     0.167 HD
ATOM     61  C   UNL A   1      45.118  28.351  29.244  1.00  0.00     0.074 A 
ATOM     62  C   UNL A   1      45.101  27.092  29.977  1.00  0.00     0.031 C 
ATOM     63  C   UNL A   1      44.960  29.637  29.669  1.00  0.00     0.037 A 
BRANCH  50  64
ATOM     64  C   UNL A   1      42.758  27.590  34.316  1.00  0.00     0.058 A 
ATOM     65  C   UNL A   1      42.865  27.780  35.713  1.00  0.00     0.135 A 
ATOM     66  C   UNL A   1      43.361  26.411  33.823  1.00  0.00     0.135 A 
ATOM     67  F   UNL A   1      42.341  28.871  36.295  1.00  0.00    -0.206 F 
ATOM     68  C   UNL A   1      43.567  26.900  36.540  1.00  0.00     0.059 A 
ATOM     69  C   UNL A   1      44.017  25.494  34.637  1.00  0.00     0.059 A 
ATOM     70  F   UNL A   1      43.434  26.135  32.517  1.00  0.00    -0.206 F 
ATOM     71  C   UNL A   1      44.150  25.764  35.988  1.00  0.00     0.060 A 
BRANCH  71  72
ATOM     72  S   UNL A   1      45.126  24.665  37.031  1.00  0.00     0.124 S 
ATOM     73  O   UNL A   1      46.467  25.210  36.857  1.00  0.00    -0.237 OA
ATOM     74  O   UNL A   1      44.514  24.867  38.339  1.00  0.00    -0.237 OA
ATOM     75  O   UNL A   1      44.897  23.350  36.436  1.00  0.00    -0.744 OA
ENDBRANCH  71  72
ENDBRANCH  50  64
BRANCH  51  76
ATOM     76  C   UNL A   1      43.522  25.102  26.236  1.00  0.00     0.058 A 
ATOM     77  C   UNL A   1      44.566  24.997  25.299  1.00  0.00     0.135 A 
ATOM     78  C   UNL A   1      42.870  23.902  26.580  1.00  0.00     0.135 A 
ATOM     79  F   UNL A   1      45.244  26.091  24.919  1.00  0.00    -0.206 F 
ATOM     80  C   UNL A   1      44.991  23.767  24.790  1.00  0.00     0.059 A 
ATOM     81  C   UNL A   1      43.274  22.663  26.082  1.00  0.00     0.059 A 
ATOM     82  F   UNL A   1      41.884  23.895  27.491  1.00  0.00    -0.206 F 
ATOM     83  C   UNL A   1      44.357  22.599  25.211  1.00  0.00     0.060 A 
BRANCH  83  84
ATOM     84  S   UNL A   1      45.040  20.997  24.722  1.00  0.00     0.124 S 
ATOM     85  O   UNL A   1      46.449  21.152  25.063  1.00  0.00    -0.237 OA
ATOM     86  O   UNL A   1      44.281  20.070  25.555  1.00  0.00    -0.237 OA
ATOM     87  O   UNL A   1      44.747  20.926  23.293  1.00  0.00    -0.744 OA
ENDBRANCH  83  84
ENDBRANCH  51  76
BRANCH  63  88
ATOM     88  C   UNL A   1      45.106  30.726  28.648  1.00  0.00     0.058 A 
ATOM     89  C   UNL A   1      46.321  31.165  28.098  1.00  0.00     0.135 A 
ATOM     90  C   UNL A   1      43.927  31.300  28.151  1.00  0.00     0.135 A 
ATOM     91  F   UNL A   1      47.485  30.613  28.468  1.00  0.00    -0.206 F 
ATOM     92  C   UNL A   1      46.362  32.158  27.117  1.00  0.00     0.059 A 
ATOM     93  C   UNL A   1      43.942  32.268  27.156  1.00  0.00     0.059 A 
ATOM     94  F   UNL A   1      42.734  30.887  28.609  1.00  0.00    -0.206 F 
ATOM     95  C   UNL A   1      45.165  32.703  26.652  1.00  0.00     0.060 A 
BRANCH  95  96
ATOM     96  S   UNL A   1      45.207  33.939  25.336  1.00  0.00     0.124 S 
ATOM     97  O   UNL A   1      44.628  33.212  24.213  1.00  0.00    -0.237 OA
ATOM     98  O   UNL A   1      44.387  35.016  25.887  1.00  0.00    -0.237 OA
ATOM     99  O   UNL A   1      46.629  34.254  25.211  1.00  0.00    -0.744 OA
ENDBRANCH  95  96
ENDBRANCH  63  88
ENDBRANCH  37  38
ENDBRANCH  29  32
ENDBRANCH  27  28
ENDBRANCH   1  27
TORSDOF 16
ENDMDL
MODEL 2
REMARK VINA RESULT:     -12.1      3.435     12.171
REMARK SMILES O=C(Cn1cc(NC(=O)N2CC[N@@H+]3CCC[C@@H]3C2)cn1)NCCCNC(=O)c1ccc(-c2c3nc(c(-c4c(F)cc(S(=O)(=O)[O-])cc4F)c4ccc([nH]4)c(-c4c(F)cc(S(=O)(=O)[O-])cc4F)c4nc(c(-c5c(F)cc(S(=O)(=O)[O-])cc5F)c5ccc2[nH]5)C=C4)C=C3)cc1
REMARK SMILES IDX 23 1 22 2 21 3 1 4 2 5 3 7 4 8 5 9 20 10 6 11 19 12 7 13
REMARK SMILES IDX 8 14 9 16 10 17 11 18 18 19 12 20 17 21 13 22 16 23 14 24
REMARK SMILES IDX 15 26 24 27 25 28 26 29 27 31 28 32 29 33 93 34 30 35 92 36
REMARK SMILES IDX 31 37 32 38 33 39 86 40 34 41 91 42 85 43 87 44 35 45 90 46
REMARK SMILES IDX 84 47 83 48 36 50 70 51 49 52 69 53 50 54 53 55 68 56 88 57
REMARK SMILES IDX 51 58 52 59 67 61 89 62 54 63 37 64 38 65 47 66 39 67 40 68
REMARK SMILES IDX 46 69 48 70 41 71 42 72 43 73 44 74 45 75 71 76 72 77 81 78
REMARK SMILES IDX 73 79 74 80 80 81 82 82 75 83 76 84 77 85 78 86 79 87 55 88
REMARK SMILES IDX 56 89 65 90 57 91 58 92 64 93 66 94 59 95 60 96 61 97 62 98
REMARK SMILES IDX 63 99
REMARK H PARENT 21 6 7 15 13 25 25 30 87 49 53 60
REMARK Flexibility Score: inf
ROOT
ATOM      1  C   UNL A   1      41.737  19.182  27.189  1.00  0.00     0.042 C 
ENDROOT
BRANCH   1   2
ATOM      2  C   UNL A   1      42.663  18.499  26.178  1.00  0.00     0.117 C 
BRANCH   2   3
ATOM      3  N   UNL A   1      43.511  19.442  25.464  1.00  0.00    -0.354 N 
ATOM      4  O   UNL A   1      45.359  18.091  25.357  1.00  0.00    -0.273 OA
ATOM      5  C   UNL A   1      44.813  19.158  25.085  1.00  0.00     0.241 C 
ATOM      6  H   UNL A   1      43.141  20.325  25.239  1.00  0.00     0.163 HD
BRANCH   5   7
ATOM      7  C   UNL A   1      45.531  20.281  24.362  1.00  0.00     0.244 C 
BRANCH   7   8
ATOM      8  N   UNL A   1      45.058  21.596  24.759  1.00  0.00    -0.261 N 
ATOM      9  C   UNL A   1      45.501  22.365  25.804  1.00  0.00     0.135 A 
ATOM     10  N   UNL A   1      44.148  22.231  23.992  1.00  0.00    -0.179 NA
ATOM     11  C   UNL A   1      44.729  23.500  25.800  1.00  0.00     0.081 A 
ATOM     12  C   UNL A   1      43.974  23.400  24.612  1.00  0.00     0.161 A 
BRANCH  11  13
ATOM     13  N   UNL A   1      44.791  24.492  26.762  1.00  0.00    -0.305 N 
ATOM     14  C   UNL A   1      45.862  25.296  27.036  1.00  0.00     0.322 C 
ATOM     15  H   UNL A   1      43.982  24.634  27.304  1.00  0.00     0.171 HD
ATOM     16  O   UNL A   1      46.038  25.706  28.183  1.00  0.00    -0.248 OA
BRANCH  14  17
ATOM     17  N   UNL A   1      46.696  25.639  25.995  1.00  0.00    -0.313 N 
ATOM     18  C   UNL A   1      46.352  26.724  25.064  1.00  0.00     0.183 C 
ATOM     19  C   UNL A   1      48.087  25.216  26.033  1.00  0.00     0.186 C 
ATOM     20  C   UNL A   1      47.515  27.185  24.167  1.00  0.00     0.284 C 
ATOM     21  C   UNL A   1      49.081  26.379  25.907  1.00  0.00     0.204 C 
ATOM     22  N   UNL A   1      48.793  27.387  24.858  1.00  0.00    -0.330 N 
ATOM     23  C   UNL A   1      50.495  25.871  25.618  1.00  0.00     0.073 C 
ATOM     24  C   UNL A   1      49.923  27.417  23.923  1.00  0.00     0.262 C 
ATOM     25  H   UNL A   1      48.689  28.293  25.313  1.00  0.00     0.348 HD
ATOM     26  C   UNL A   1      51.105  26.956  24.753  1.00  0.00     0.068 C 
ENDBRANCH  14  17
ENDBRANCH  11  13
ENDBRANCH   7   8
ENDBRANCH   5   7
ENDBRANCH   2   3
ENDBRANCH   1   2
BRANCH   1  27
ATOM     27  C   UNL A   1      41.603  20.686  26.986  1.00  0.00     0.118 C 
BRANCH  27  28
ATOM     28  N   UNL A   1      40.509  21.068  26.090  1.00  0.00    -0.352 N 
ATOM     29  C   UNL A   1      39.605  22.112  26.236  1.00  0.00     0.251 C 
ATOM     30  H   UNL A   1      40.400  20.515  25.282  1.00  0.00     0.163 HD
ATOM     31  O   UNL A   1      38.538  22.100  25.649  1.00  0.00    -0.269 OA
BRANCH  29  32
ATOM     32  C   UNL A   1      39.968  23.242  27.118  1.00  0.00     0.039 A 
ATOM     33  C   UNL A   1      41.220  23.331  27.738  1.00  0.00     0.014 A 
ATOM     34  C   UNL A   1      39.025  24.249  27.284  1.00  0.00     0.014 A 
ATOM     35  C   UNL A   1      41.541  24.493  28.442  1.00  0.00     0.010 A 
ATOM     36  C   UNL A   1      39.408  25.454  27.808  1.00  0.00     0.010 A 
ATOM     37  C   UNL A   1      40.636  25.566  28.450  1.00  0.00    -0.014 A 
BRANCH  37  38
ATOM     38  C   UNL A   1      40.988  26.873  29.005  1.00  0.00     0.031 A 
ATOM     39  C   UNL A   1      42.169  27.506  28.358  1.00  0.00     0.074 A 
ATOM     40  C   UNL A   1      40.152  27.562  29.819  1.00  0.00     0.049 A 
ATOM     41  N   UNL A   1      43.335  27.725  28.870  1.00  0.00    -0.248 NA
ATOM     42  C   UNL A   1      42.100  27.790  26.912  1.00  0.00     0.031 C 
ATOM     43  C   UNL A   1      38.804  27.158  30.253  1.00  0.00     0.029 A 
ATOM     44  N   UNL A   1      40.257  28.822  30.332  1.00  0.00    -0.354 N 
ATOM     45  C   UNL A   1      44.038  28.436  27.899  1.00  0.00     0.074 A 
ATOM     46  C   UNL A   1      43.339  28.224  26.662  1.00  0.00     0.031 C 
ATOM     47  C   UNL A   1      38.136  28.228  30.734  1.00  0.00     0.029 A 
ATOM     48  C   UNL A   1      39.063  29.338  30.836  1.00  0.00     0.049 A 
ATOM     49  H   UNL A   1      41.104  29.323  30.347  1.00  0.00     0.167 HD
ATOM     50  C   UNL A   1      44.926  29.407  28.258  1.00  0.00     0.037 A 
ATOM     51  C   UNL A   1      38.841  30.583  31.326  1.00  0.00     0.037 A 
ATOM     52  C   UNL A   1      45.201  29.341  29.671  1.00  0.00     0.049 A 
ATOM     53  C   UNL A   1      40.155  31.126  31.735  1.00  0.00     0.074 A 
ATOM     54  C   UNL A   1      45.915  28.524  30.519  1.00  0.00     0.029 A 
ATOM     55  N   UNL A   1      44.315  30.054  30.437  1.00  0.00    -0.354 N 
ATOM     56  N   UNL A   1      40.871  30.616  32.700  1.00  0.00    -0.248 NA
ATOM     57  C   UNL A   1      40.866  32.032  30.840  1.00  0.00     0.031 C 
ATOM     58  C   UNL A   1      45.299  28.645  31.800  1.00  0.00     0.029 A 
ATOM     59  C   UNL A   1      44.254  29.561  31.712  1.00  0.00     0.049 A 
ATOM     60  H   UNL A   1      43.789  30.821  30.111  1.00  0.00     0.167 HD
ATOM     61  C   UNL A   1      42.174  30.784  32.281  1.00  0.00     0.074 A 
ATOM     62  C   UNL A   1      42.119  31.805  31.243  1.00  0.00     0.031 C 
ATOM     63  C   UNL A   1      43.124  29.849  32.568  1.00  0.00     0.037 A 
BRANCH  50  64
ATOM     64  C   UNL A   1      45.168  30.698  27.495  1.00  0.00     0.058 A 
ATOM     65  C   UNL A   1      46.448  30.942  26.946  1.00  0.00     0.135 A 
ATOM     66  C   UNL A   1      44.311  31.821  27.538  1.00  0.00     0.135 A 
ATOM     67  F   UNL A   1      47.354  29.955  26.865  1.00  0.00    -0.206 F 
ATOM     68  C   UNL A   1      46.861  32.211  26.533  1.00  0.00     0.059 A 
ATOM     69  C   UNL A   1      44.683  33.081  27.081  1.00  0.00     0.059 A 
ATOM     70  F   UNL A   1      43.106  31.781  28.117  1.00  0.00    -0.206 F 
ATOM     71  C   UNL A   1      45.971  33.278  26.616  1.00  0.00     0.060 A 
BRANCH  71  72
ATOM     72  S   UNL A   1      46.517  34.933  26.161  1.00  0.00     0.124 S 
ATOM     73  O   UNL A   1      47.020  35.436  27.434  1.00  0.00    -0.237 OA
ATOM     74  O   UNL A   1      47.520  34.652  25.140  1.00  0.00    -0.237 OA
ATOM     75  O   UNL A   1      45.295  35.565  25.672  1.00  0.00    -0.744 OA
ENDBRANCH  71  72
ENDBRANCH  50  64
BRANCH  51  76
ATOM     76  C   UNL A   1      37.614  31.416  31.301  1.00  0.00     0.058 A 
ATOM     77  C   UNL A   1      36.659  31.338  32.331  1.00  0.00     0.135 A 
ATOM     78  C   UNL A   1      37.508  32.521  30.434  1.00  0.00     0.135 A 
ATOM     79  F   UNL A   1      36.691  30.320  33.204  1.00  0.00    -0.206 F 
ATOM     80  C   UNL A   1      35.701  32.334  32.537  1.00  0.00     0.059 A 
ATOM     81  C   UNL A   1      36.557  33.526  30.618  1.00  0.00     0.059 A 
ATOM     82  F   UNL A   1      38.395  32.701  29.442  1.00  0.00    -0.206 F 
ATOM     83  C   UNL A   1      35.677  33.442  31.691  1.00  0.00     0.060 A 
BRANCH  83  84
ATOM     84  S   UNL A   1      34.583  34.830  32.084  1.00  0.00     0.124 S 
ATOM     85  O   UNL A   1      33.500  34.168  32.802  1.00  0.00    -0.237 OA
ATOM     86  O   UNL A   1      35.449  35.688  32.886  1.00  0.00    -0.237 OA
ATOM     87  O   UNL A   1      34.229  35.363  30.772  1.00  0.00    -0.744 OA
ENDBRANCH  83  84
ENDBRANCH  51  76
BRANCH  63  88
ATOM     88  C   UNL A   1      42.899  28.981  33.770  1.00  0.00     0.058 A 
ATOM     89  C   UNL A   1      43.050  29.388  35.105  1.00  0.00     0.135 A 
ATOM     90  C   UNL A   1      42.430  27.679  33.541  1.00  0.00     0.135 A 
ATOM     91  F   UNL A   1      43.423  30.639  35.407  1.00  0.00    -0.206 F 
ATOM     92  C   UNL A   1      42.776  28.524  36.167  1.00  0.00     0.059 A 
ATOM     93  C   UNL A   1      42.124  26.812  34.581  1.00  0.00     0.059 A 
ATOM     94  F   UNL A   1      42.225  27.251  32.284  1.00  0.00    -0.206 F 
ATOM     95  C   UNL A   1      42.312  27.236  35.894  1.00  0.00     0.060 A 
BRANCH  95  96
ATOM     96  S   UNL A   1      41.893  26.138  37.264  1.00  0.00     0.124 S 
ATOM     97  O   UNL A   1      41.926  24.826  36.627  1.00  0.00    -0.237 OA
ATOM     98  O   UNL A   1      42.962  26.406  38.223  1.00  0.00    -0.237 OA
ATOM     99  O   UNL A   1      40.569  26.598  37.677  1.00  0.00    -0.744 OA
ENDBRANCH  95  96
ENDBRANCH  63  88
ENDBRANCH  37  38
ENDBRANCH  29  32
ENDBRANCH  27  28
ENDBRANCH   1  27
TORSDOF 16
ENDMDL
MODEL 3
REMARK VINA RESULT:     -12.1      4.177     11.119
REMARK SMILES O=C(Cn1cc(NC(=O)N2CC[N@@H+]3CCC[C@@H]3C2)cn1)NCCCNC(=O)c1ccc(-c2c3nc(c(-c4c(F)cc(S(=O)(=O)[O-])cc4F)c4ccc([nH]4)c(-c4c(F)cc(S(=O)(=O)[O-])cc4F)c4nc(c(-c5c(F)cc(S(=O)(=O)[O-])cc5F)c5ccc2[nH]5)C=C4)C=C3)cc1
REMARK SMILES IDX 23 1 22 2 21 3 1 4 2 5 3 7 4 8 5 9 20 10 6 11 19 12 7 13
REMARK SMILES IDX 8 14 9 16 10 17 11 18 18 19 12 20 17 21 13 22 16 23 14 24
REMARK SMILES IDX 15 26 24 27 25 28 26 29 27 31 28 32 29 33 93 34 30 35 92 36
REMARK SMILES IDX 31 37 32 38 33 39 86 40 34 41 91 42 85 43 87 44 35 45 90 46
REMARK SMILES IDX 84 47 83 48 36 50 70 51 49 52 69 53 50 54 53 55 68 56 88 57
REMARK SMILES IDX 51 58 52 59 67 61 89 62 54 63 37 64 38 65 47 66 39 67 40 68
REMARK SMILES IDX 46 69 48 70 41 71 42 72 43 73 44 74 45 75 71 76 72 77 81 78
REMARK SMILES IDX 73 79 74 80 80 81 82 82 75 83 76 84 77 85 78 86 79 87 55 88
REMARK SMILES IDX 56 89 65 90 57 91 58 92 64 93 66 94 59 95 60 96 61 97 62 98
REMARK SMILES IDX 63 99
REMARK H PARENT 21 6 7 15 13 25 25 30 87 49 53 60
REMARK Flexibility Score: inf
ROOT
ATOM      1  C   UNL A   1      40.085  20.022  26.103  1.00  0.00     0.042 C 
ENDROOT
BRANCH   1   2
ATOM      2  C   UNL A   1      39.354  21.368  26.100  1.00  0.00     0.117 C 
BRANCH   2   3
ATOM      3  N   UNL A   1      38.054  21.303  25.451  1.00  0.00    -0.354 N 
ATOM      4  O   UNL A   1      37.724  23.566  25.314  1.00  0.00    -0.273 OA
ATOM      5  C   UNL A   1      37.330  22.425  25.084  1.00  0.00     0.241 C 
ATOM      6  H   UNL A   1      37.671  20.417  25.262  1.00  0.00     0.163 HD
BRANCH   5   7
ATOM      7  C   UNL A   1      35.991  22.141  24.432  1.00  0.00     0.244 C 
BRANCH   7   8
ATOM      8  N   UNL A   1      34.902  22.075  25.392  1.00  0.00    -0.261 N 
ATOM      9  C   UNL A   1      33.556  22.122  25.134  1.00  0.00     0.135 A 
ATOM     10  N   UNL A   1      35.178  21.841  26.691  1.00  0.00    -0.179 NA
ATOM     11  C   UNL A   1      32.929  22.063  26.355  1.00  0.00     0.081 A 
ATOM     12  C   UNL A   1      33.975  21.804  27.267  1.00  0.00     0.161 A 
BRANCH  11  13
ATOM     13  N   UNL A   1      31.565  22.185  26.541  1.00  0.00    -0.305 N 
ATOM     14  C   UNL A   1      30.855  23.351  26.625  1.00  0.00     0.322 C 
ATOM     15  H   UNL A   1      31.052  21.349  26.620  1.00  0.00     0.171 HD
ATOM     16  O   UNL A   1      29.840  23.396  27.319  1.00  0.00    -0.248 OA
BRANCH  14  17
ATOM     17  N   UNL A   1      31.300  24.433  25.897  1.00  0.00    -0.313 N 
ATOM     18  C   UNL A   1      30.871  24.649  24.508  1.00  0.00     0.183 C 
ATOM     19  C   UNL A   1      31.870  25.572  26.599  1.00  0.00     0.186 C 
ATOM     20  C   UNL A   1      31.198  26.047  23.952  1.00  0.00     0.284 C 
ATOM     21  C   UNL A   1      31.169  26.899  26.276  1.00  0.00     0.204 C 
ATOM     22  N   UNL A   1      30.878  27.165  24.847  1.00  0.00    -0.330 N 
ATOM     23  C   UNL A   1      31.992  28.094  26.761  1.00  0.00     0.073 C 
ATOM     24  C   UNL A   1      31.571  28.396  24.455  1.00  0.00     0.262 C 
ATOM     25  H   UNL A   1      29.870  27.281  24.747  1.00  0.00     0.348 HD
ATOM     26  C   UNL A   1      31.696  29.180  25.746  1.00  0.00     0.068 C 
ENDBRANCH  14  17
ENDBRANCH  11  13
ENDBRANCH   7   8
ENDBRANCH   5   7
ENDBRANCH   2   3
ENDBRANCH   1   2
BRANCH   1  27
ATOM     27  C   UNL A   1      41.352  20.009  26.949  1.00  0.00     0.118 C 
BRANCH  27  28
ATOM     28  N   UNL A   1      42.557  19.630  26.207  1.00  0.00    -0.352 N 
ATOM     29  C   UNL A   1      43.441  20.457  25.526  1.00  0.00     0.251 C 
ATOM     30  H   UNL A   1      42.767  18.668  26.188  1.00  0.00     0.163 HD
ATOM     31  O   UNL A   1      44.166  20.011  24.654  1.00  0.00    -0.269 OA
BRANCH  29  32
ATOM     32  C   UNL A   1      43.485  21.890  25.884  1.00  0.00     0.039 A 
ATOM     33  C   UNL A   1      42.698  22.846  25.234  1.00  0.00     0.014 A 
ATOM     34  C   UNL A   1      44.319  22.259  26.933  1.00  0.00     0.014 A 
ATOM     35  C   UNL A   1      42.689  24.155  25.719  1.00  0.00     0.010 A 
ATOM     36  C   UNL A   1      44.166  23.485  27.520  1.00  0.00     0.010 A 
ATOM     37  C   UNL A   1      43.408  24.462  26.884  1.00  0.00    -0.014 A 
BRANCH  37  38
ATOM     38  C   UNL A   1      43.290  25.760  27.549  1.00  0.00     0.031 A 
ATOM     39  C   UNL A   1      44.377  26.717  27.204  1.00  0.00     0.074 A 
ATOM     40  C   UNL A   1      42.155  26.150  28.178  1.00  0.00     0.049 A 
ATOM     41  N   UNL A   1      45.316  27.165  27.972  1.00  0.00    -0.248 NA
ATOM     42  C   UNL A   1      44.540  27.105  25.790  1.00  0.00     0.031 C 
ATOM     43  C   UNL A   1      40.897  25.394  28.286  1.00  0.00     0.029 A 
ATOM     44  N   UNL A   1      41.825  27.346  28.745  1.00  0.00    -0.354 N 
ATOM     45  C   UNL A   1      45.998  28.110  27.207  1.00  0.00     0.074 A 
ATOM     46  C   UNL A   1      45.650  27.847  25.839  1.00  0.00     0.031 C 
ATOM     47  C   UNL A   1      39.892  26.221  28.642  1.00  0.00     0.029 A 
ATOM     48  C   UNL A   1      40.461  27.510  28.987  1.00  0.00     0.049 A 
ATOM     49  H   UNL A   1      42.493  28.035  28.967  1.00  0.00     0.167 HD
ATOM     50  C   UNL A   1      46.513  29.231  27.790  1.00  0.00     0.037 A 
ATOM     51  C   UNL A   1      39.830  28.614  29.458  1.00  0.00     0.037 A 
ATOM     52  C   UNL A   1      46.496  29.106  29.225  1.00  0.00     0.049 A 
ATOM     53  C   UNL A   1      40.847  29.421  30.168  1.00  0.00     0.074 A 
ATOM     54  C   UNL A   1      47.204  28.415  30.182  1.00  0.00     0.029 A 
ATOM     55  N   UNL A   1      45.318  29.511  29.797  1.00  0.00    -0.354 N 
ATOM     56  N   UNL A   1      41.453  29.015  31.251  1.00  0.00    -0.248 NA
ATOM     57  C   UNL A   1      41.471  30.549  29.487  1.00  0.00     0.031 C 
ATOM     58  C   UNL A   1      46.325  28.266  31.296  1.00  0.00     0.029 A 
ATOM     59  C   UNL A   1      45.122  28.906  31.009  1.00  0.00     0.049 A 
ATOM     60  H   UNL A   1      44.693  30.154  29.389  1.00  0.00     0.167 HD
ATOM     61  C   UNL A   1      42.727  29.531  31.140  1.00  0.00     0.074 A 
ATOM     62  C   UNL A   1      42.628  30.598  30.152  1.00  0.00     0.031 C 
ATOM     63  C   UNL A   1      43.804  28.833  31.600  1.00  0.00     0.037 A 
BRANCH  50  64
ATOM     64  C   UNL A   1      46.569  30.605  27.145  1.00  0.00     0.058 A 
ATOM     65  C   UNL A   1      47.796  31.306  27.127  1.00  0.00     0.135 A 
ATOM     66  C   UNL A   1      45.432  31.380  26.823  1.00  0.00     0.135 A 
ATOM     67  F   UNL A   1      48.945  30.678  27.429  1.00  0.00    -0.206 F 
ATOM     68  C   UNL A   1      47.877  32.677  26.872  1.00  0.00     0.059 A 
ATOM     69  C   UNL A   1      45.496  32.734  26.512  1.00  0.00     0.059 A 
ATOM     70  F   UNL A   1      44.189  30.892  26.892  1.00  0.00    -0.206 F 
ATOM     71  C   UNL A   1      46.716  33.385  26.576  1.00  0.00     0.060 A 
BRANCH  71  72
ATOM     72  S   UNL A   1      46.797  35.167  26.323  1.00  0.00     0.124 S 
ATOM     73  O   UNL A   1      47.329  35.620  27.603  1.00  0.00    -0.237 OA
ATOM     74  O   UNL A   1      47.696  35.271  25.180  1.00  0.00    -0.237 OA
ATOM     75  O   UNL A   1      45.407  35.529  26.054  1.00  0.00    -0.744 OA
ENDBRANCH  71  72
ENDBRANCH  50  64
BRANCH  51  76
ATOM     76  C   UNL A   1      38.464  29.123  29.188  1.00  0.00     0.058 A 
ATOM     77  C   UNL A   1      37.589  29.455  30.239  1.00  0.00     0.135 A 
ATOM     78  C   UNL A   1      38.104  29.585  27.907  1.00  0.00     0.135 A 
ATOM     79  F   UNL A   1      37.859  29.059  31.492  1.00  0.00    -0.206 F 
ATOM     80  C   UNL A   1      36.464  30.262  30.046  1.00  0.00     0.059 A 
ATOM     81  C   UNL A   1      36.983  30.388  27.690  1.00  0.00     0.059 A 
ATOM     82  F   UNL A   1      38.893  29.349  26.846  1.00  0.00    -0.206 F 
ATOM     83  C   UNL A   1      36.185  30.749  28.771  1.00  0.00     0.060 A 
BRANCH  83  84
ATOM     84  S   UNL A   1      34.858  31.962  28.559  1.00  0.00     0.124 S 
ATOM     85  O   UNL A   1      35.504  32.975  27.732  1.00  0.00    -0.237 OA
ATOM     86  O   UNL A   1      33.820  31.173  27.905  1.00  0.00    -0.237 OA
ATOM     87  O   UNL A   1      34.554  32.372  29.927  1.00  0.00    -0.744 OA
ENDBRANCH  83  84
ENDBRANCH  51  76
BRANCH  63  88
ATOM     88  C   UNL A   1      43.564  27.831  32.690  1.00  0.00     0.058 A 
ATOM     89  C   UNL A   1      43.619  26.436  32.537  1.00  0.00     0.135 A 
ATOM     90  C   UNL A   1      43.339  28.330  33.981  1.00  0.00     0.135 A 
ATOM     91  F   UNL A   1      43.902  25.884  31.349  1.00  0.00    -0.206 F 
ATOM     92  C   UNL A   1      43.425  25.575  33.618  1.00  0.00     0.059 A 
ATOM     93  C   UNL A   1      43.173  27.493  35.076  1.00  0.00     0.059 A 
ATOM     94  F   UNL A   1      43.322  29.656  34.195  1.00  0.00    -0.206 F 
ATOM     95  C   UNL A   1      43.203  26.114  34.886  1.00  0.00     0.060 A 
BRANCH  95  96
ATOM     96  S   UNL A   1      43.019  25.006  36.299  1.00  0.00     0.124 S 
ATOM     97  O   UNL A   1      41.655  24.519  36.132  1.00  0.00    -0.237 OA
ATOM     98  O   UNL A   1      44.077  24.024  36.071  1.00  0.00    -0.237 OA
ATOM     99  O   UNL A   1      43.233  25.882  37.449  1.00  0.00    -0.744 OA
ENDBRANCH  95  96
ENDBRANCH  63  88
ENDBRANCH  37  38
ENDBRANCH  29  32
ENDBRANCH  27  28
ENDBRANCH   1  27
TORSDOF 16
ENDMDL
