MODEL 1
REMARK VINA RESULT:     -13.6      0.000      0.000
REMARK SMILES CCc1cccc(C)c1Nc1ccccc1CC(=O)NCCCNC(=O)c1ccc(-c2c3nc(c(-c4c(F)cc(S(=O)(=O)[O-])cc4F)c4ccc([nH]4)c(-c4c(F)cc(S(=O)(=O)[O-])cc4F)c4nc(c(-c5c(F)cc(S(=O)(=O)[O-])cc5F)c5ccc2[nH]5)C=C4)C=C3)cc1
REMARK SMILES IDX 21 1 20 2 18 3 19 4 17 6 16 7 11 8 12 9 13 10 15 11 14 12
REMARK SMILES IDX 10 13 9 15 3 16 4 17 5 18 7 19 6 20 8 21 2 22 1 23 22 24
REMARK SMILES IDX 23 25 24 26 25 27 26 29 27 30 28 31 92 32 29 33 91 34 30 35
REMARK SMILES IDX 31 36 32 37 85 38 33 39 90 40 84 41 86 42 34 43 89 44 83 45
REMARK SMILES IDX 82 46 35 48 69 49 48 50 68 51 49 52 52 53 67 54 87 55 50 56
REMARK SMILES IDX 51 57 66 59 88 60 53 61 36 62 37 63 46 64 38 65 39 66 45 67
REMARK SMILES IDX 47 68 40 69 41 70 42 71 43 72 44 73 70 74 71 75 80 76 72 77
REMARK SMILES IDX 73 78 79 79 81 80 74 81 75 82 76 83 77 84 78 85 54 86 55 87
REMARK SMILES IDX 64 88 56 89 57 90 63 91 65 92 58 93 59 94 60 95 61 96 62 97
REMARK H PARENT 20 5 10 14 24 28 86 47 52 58
REMARK Flexibility Score: inf
ROOT
ATOM      1  C   UNL A   1      33.384  27.558  25.950  1.00  0.00     0.117 C 
ENDROOT
BRANCH   1   2
ATOM      2  N   UNL A   1      33.972  26.920  24.787  1.00  0.00    -0.356 N 
ATOM      3  C   UNL A   1      34.203  25.596  24.540  1.00  0.00     0.224 C 
ATOM      4  O   UNL A   1      34.275  25.232  23.362  1.00  0.00    -0.275 OA
ATOM      5  H   UNL A   1      34.247  27.533  24.068  1.00  0.00     0.163 HD
BRANCH   3   6
ATOM      6  C   UNL A   1      34.251  24.576  25.660  1.00  0.00     0.137 C 
BRANCH   6   7
ATOM      7  C   UNL A   1      35.253  23.448  25.518  1.00  0.00    -0.015 A 
ATOM      8  C   UNL A   1      34.889  22.103  25.289  1.00  0.00     0.042 A 
ATOM      9  C   UNL A   1      35.893  21.120  25.247  1.00  0.00     0.026 A 
ATOM     10  C   UNL A   1      37.241  21.455  25.372  1.00  0.00     0.002 A 
ATOM     11  C   UNL A   1      36.619  23.762  25.669  1.00  0.00     0.006 A 
ATOM     12  C   UNL A   1      37.604  22.778  25.580  1.00  0.00     0.000 A 
BRANCH   8  13
ATOM     13  N   UNL A   1      33.554  21.661  25.217  1.00  0.00    -0.355 N 
ATOM     14  H   UNL A   1      32.988  21.948  25.970  1.00  0.00     0.167 HD
BRANCH  13  15
ATOM     15  C   UNL A   1      32.887  20.872  24.246  1.00  0.00     0.045 A 
ATOM     16  C   UNL A   1      32.337  21.507  23.102  1.00  0.00    -0.024 A 
ATOM     17  C   UNL A   1      31.994  20.722  21.983  1.00  0.00     0.006 A 
ATOM     18  C   UNL A   1      32.057  19.336  22.030  1.00  0.00     0.001 A 
ATOM     19  C   UNL A   1      32.713  19.475  24.364  1.00  0.00    -0.027 A 
ATOM     20  C   UNL A   1      32.361  18.719  23.233  1.00  0.00     0.005 A 
ATOM     21  C   UNL A   1      32.864  18.736  25.660  1.00  0.00     0.046 C 
BRANCH  16  22
ATOM     22  C   UNL A   1      32.070  22.997  22.974  1.00  0.00     0.034 C 
ATOM     23  C   UNL A   1      30.804  23.530  23.645  1.00  0.00     0.009 C 
ENDBRANCH  16  22
ENDBRANCH  13  15
ENDBRANCH   8  13
ENDBRANCH   6   7
ENDBRANCH   3   6
ENDBRANCH   1   2
BRANCH   1  24
ATOM     24  C   UNL A   1      33.977  28.911  26.330  1.00  0.00     0.042 C 
BRANCH  24  25
ATOM     25  C   UNL A   1      34.065  29.157  27.836  1.00  0.00     0.118 C 
BRANCH  25  26
ATOM     26  N   UNL A   1      34.679  30.451  28.130  1.00  0.00    -0.352 N 
ATOM     27  C   UNL A   1      35.958  30.723  28.574  1.00  0.00     0.251 C 
ATOM     28  H   UNL A   1      34.102  31.237  27.993  1.00  0.00     0.163 HD
ATOM     29  O   UNL A   1      36.313  31.843  28.902  1.00  0.00    -0.269 OA
BRANCH  27  30
ATOM     30  C   UNL A   1      36.923  29.612  28.543  1.00  0.00     0.039 A 
ATOM     31  C   UNL A   1      37.107  28.887  29.724  1.00  0.00     0.014 A 
ATOM     32  C   UNL A   1      37.781  29.465  27.457  1.00  0.00     0.014 A 
ATOM     33  C   UNL A   1      38.267  28.137  29.889  1.00  0.00     0.010 A 
ATOM     34  C   UNL A   1      38.953  28.754  27.641  1.00  0.00     0.010 A 
ATOM     35  C   UNL A   1      39.226  28.149  28.878  1.00  0.00    -0.014 A 
BRANCH  35  36
ATOM     36  C   UNL A   1      40.580  27.636  29.053  1.00  0.00     0.031 A 
ATOM     37  C   UNL A   1      40.922  26.262  28.631  1.00  0.00     0.074 A 
ATOM     38  C   UNL A   1      41.545  28.441  29.546  1.00  0.00     0.049 A 
ATOM     39  N   UNL A   1      42.004  25.639  28.958  1.00  0.00    -0.248 NA
ATOM     40  C   UNL A   1      40.000  25.444  27.858  1.00  0.00     0.031 C 
ATOM     41  C   UNL A   1      42.987  28.230  29.492  1.00  0.00     0.029 A 
ATOM     42  N   UNL A   1      41.381  29.519  30.423  1.00  0.00    -0.354 N 
ATOM     43  C   UNL A   1      42.057  24.466  28.241  1.00  0.00     0.074 A 
ATOM     44  C   UNL A   1      40.738  24.348  27.663  1.00  0.00     0.031 C 
ATOM     45  C   UNL A   1      43.562  28.931  30.479  1.00  0.00     0.029 A 
ATOM     46  C   UNL A   1      42.495  29.483  31.293  1.00  0.00     0.049 A 
ATOM     47  H   UNL A   1      40.642  30.169  30.433  1.00  0.00     0.167 HD
ATOM     48  C   UNL A   1      43.252  23.811  28.135  1.00  0.00     0.037 A 
ATOM     49  C   UNL A   1      42.330  29.253  32.629  1.00  0.00     0.037 A 
ATOM     50  C   UNL A   1      44.231  24.350  29.091  1.00  0.00     0.049 A 
ATOM     51  C   UNL A   1      43.014  28.006  33.154  1.00  0.00     0.074 A 
ATOM     52  C   UNL A   1      45.336  25.182  29.011  1.00  0.00     0.029 A 
ATOM     53  N   UNL A   1      43.965  24.212  30.443  1.00  0.00    -0.354 N 
ATOM     54  N   UNL A   1      43.673  27.153  32.417  1.00  0.00    -0.248 NA
ATOM     55  C   UNL A   1      42.938  27.580  34.553  1.00  0.00     0.031 C 
ATOM     56  C   UNL A   1      45.711  25.558  30.336  1.00  0.00     0.029 A 
ATOM     57  C   UNL A   1      44.840  24.949  31.219  1.00  0.00     0.049 A 
ATOM     58  H   UNL A   1      43.239  23.656  30.808  1.00  0.00     0.167 HD
ATOM     59  C   UNL A   1      44.035  26.073  33.180  1.00  0.00     0.074 A 
ATOM     60  C   UNL A   1      43.572  26.396  34.516  1.00  0.00     0.031 C 
ATOM     61  C   UNL A   1      44.643  24.967  32.661  1.00  0.00     0.037 A 
BRANCH  48  62
ATOM     62  C   UNL A   1      43.619  22.828  27.025  1.00  0.00     0.058 A 
ATOM     63  C   UNL A   1      42.911  21.610  26.884  1.00  0.00     0.135 A 
ATOM     64  C   UNL A   1      44.703  22.956  26.133  1.00  0.00     0.135 A 
ATOM     65  F   UNL A   1      41.799  21.359  27.589  1.00  0.00    -0.206 F 
ATOM     66  C   UNL A   1      43.314  20.579  26.025  1.00  0.00     0.059 A 
ATOM     67  C   UNL A   1      45.144  21.933  25.289  1.00  0.00     0.059 A 
ATOM     68  F   UNL A   1      45.382  24.094  25.988  1.00  0.00    -0.206 F 
ATOM     69  C   UNL A   1      44.456  20.736  25.256  1.00  0.00     0.060 A 
BRANCH  69  70
ATOM     70  S   UNL A   1      45.029  19.381  24.218  1.00  0.00     0.124 S 
ATOM     71  O   UNL A   1      44.503  19.756  22.909  1.00  0.00    -0.237 OA
ATOM     72  O   UNL A   1      46.478  19.467  24.372  1.00  0.00    -0.237 OA
ATOM     73  O   UNL A   1      44.409  18.203  24.819  1.00  0.00    -0.744 OA
ENDBRANCH  69  70
ENDBRANCH  48  62
BRANCH  49  74
ATOM     74  C   UNL A   1      41.068  29.837  33.162  1.00  0.00     0.058 A 
ATOM     75  C   UNL A   1      41.032  31.224  33.408  1.00  0.00     0.135 A 
ATOM     76  C   UNL A   1      39.842  29.168  33.049  1.00  0.00     0.135 A 
ATOM     77  F   UNL A   1      42.177  31.915  33.535  1.00  0.00    -0.206 F 
ATOM     78  C   UNL A   1      39.842  31.941  33.391  1.00  0.00     0.059 A 
ATOM     79  C   UNL A   1      38.633  29.867  33.044  1.00  0.00     0.059 A 
ATOM     80  F   UNL A   1      39.811  27.848  32.814  1.00  0.00    -0.206 F 
ATOM     81  C   UNL A   1      38.652  31.259  33.152  1.00  0.00     0.060 A 
BRANCH  81  82
ATOM     82  S   UNL A   1      37.172  32.240  32.809  1.00  0.00     0.124 S 
ATOM     83  O   UNL A   1      37.658  33.177  31.804  1.00  0.00    -0.237 OA
ATOM     84  O   UNL A   1      36.239  31.224  32.322  1.00  0.00    -0.237 OA
ATOM     85  O   UNL A   1      36.843  32.817  34.107  1.00  0.00    -0.744 OA
ENDBRANCH  81  82
ENDBRANCH  49  74
BRANCH  61  86
ATOM     86  C   UNL A   1      45.066  23.789  33.494  1.00  0.00     0.058 A 
ATOM     87  C   UNL A   1      44.157  22.813  33.935  1.00  0.00     0.135 A 
ATOM     88  C   UNL A   1      46.387  23.668  33.977  1.00  0.00     0.135 A 
ATOM     89  F   UNL A   1      42.864  22.869  33.576  1.00  0.00    -0.206 F 
ATOM     90  C   UNL A   1      44.542  21.757  34.765  1.00  0.00     0.059 A 
ATOM     91  C   UNL A   1      46.783  22.653  34.843  1.00  0.00     0.059 A 
ATOM     92  F   UNL A   1      47.349  24.521  33.594  1.00  0.00    -0.206 F 
ATOM     93  C   UNL A   1      45.858  21.686  35.214  1.00  0.00     0.060 A 
BRANCH  93  94
ATOM     94  S   UNL A   1      46.357  20.343  36.310  1.00  0.00     0.124 S 
ATOM     95  O   UNL A   1      45.703  19.182  35.712  1.00  0.00    -0.237 OA
ATOM     96  O   UNL A   1      47.810  20.384  36.178  1.00  0.00    -0.237 OA
ATOM     97  O   UNL A   1      45.829  20.750  37.607  1.00  0.00    -0.744 OA
ENDBRANCH  93  94
ENDBRANCH  61  86
ENDBRANCH  35  36
ENDBRANCH  27  30
ENDBRANCH  25  26
ENDBRANCH  24  25
ENDBRANCH   1  24
TORSDOF 17
ENDMDL
MODEL 2
REMARK VINA RESULT:     -13.5      0.917      2.107
REMARK SMILES CCc1cccc(C)c1Nc1ccccc1CC(=O)NCCCNC(=O)c1ccc(-c2c3nc(c(-c4c(F)cc(S(=O)(=O)[O-])cc4F)c4ccc([nH]4)c(-c4c(F)cc(S(=O)(=O)[O-])cc4F)c4nc(c(-c5c(F)cc(S(=O)(=O)[O-])cc5F)c5ccc2[nH]5)C=C4)C=C3)cc1
REMARK SMILES IDX 21 1 20 2 18 3 19 4 17 6 16 7 11 8 12 9 13 10 15 11 14 12
REMARK SMILES IDX 10 13 9 15 3 16 4 17 5 18 7 19 6 20 8 21 2 22 1 23 22 24
REMARK SMILES IDX 23 25 24 26 25 27 26 29 27 30 28 31 92 32 29 33 91 34 30 35
REMARK SMILES IDX 31 36 32 37 85 38 33 39 90 40 84 41 86 42 34 43 89 44 83 45
REMARK SMILES IDX 82 46 35 48 69 49 48 50 68 51 49 52 52 53 67 54 87 55 50 56
REMARK SMILES IDX 51 57 66 59 88 60 53 61 36 62 37 63 46 64 38 65 39 66 45 67
REMARK SMILES IDX 47 68 40 69 41 70 42 71 43 72 44 73 70 74 71 75 80 76 72 77
REMARK SMILES IDX 73 78 79 79 81 80 74 81 75 82 76 83 77 84 78 85 54 86 55 87
REMARK SMILES IDX 64 88 56 89 57 90 63 91 65 92 58 93 59 94 60 95 61 96 62 97
REMARK H PARENT 20 5 10 14 24 28 86 47 52 58
REMARK Flexibility Score: inf
ROOT
ATOM      1  C   UNL A   1      32.788  29.303  25.600  1.00  0.00     0.117 C 
ENDROOT
BRANCH   1   2
ATOM      2  N   UNL A   1      31.963  28.184  26.014  1.00  0.00    -0.356 N 
ATOM      3  C   UNL A   1      32.282  26.862  26.140  1.00  0.00     0.224 C 
ATOM      4  O   UNL A   1      31.610  26.175  26.916  1.00  0.00    -0.275 OA
ATOM      5  H   UNL A   1      31.031  28.412  26.238  1.00  0.00     0.163 HD
BRANCH   3   6
ATOM      6  C   UNL A   1      33.494  26.268  25.450  1.00  0.00     0.137 C 
BRANCH   6   7
ATOM      7  C   UNL A   1      33.289  25.723  24.051  1.00  0.00    -0.015 A 
ATOM      8  C   UNL A   1      33.281  24.345  23.742  1.00  0.00     0.042 A 
ATOM      9  C   UNL A   1      33.158  23.946  22.400  1.00  0.00     0.026 A 
ATOM     10  C   UNL A   1      32.989  24.880  21.378  1.00  0.00     0.002 A 
ATOM     11  C   UNL A   1      33.144  26.652  23.000  1.00  0.00     0.006 A 
ATOM     12  C   UNL A   1      32.979  26.234  21.680  1.00  0.00     0.000 A 
BRANCH   8  13
ATOM     13  N   UNL A   1      33.511  23.334  24.695  1.00  0.00    -0.355 N 
ATOM     14  H   UNL A   1      33.073  23.486  25.564  1.00  0.00     0.167 HD
BRANCH  13  15
ATOM     15  C   UNL A   1      34.266  22.137  24.616  1.00  0.00     0.045 A 
ATOM     16  C   UNL A   1      35.677  22.204  24.736  1.00  0.00    -0.024 A 
ATOM     17  C   UNL A   1      36.397  21.023  25.011  1.00  0.00     0.006 A 
ATOM     18  C   UNL A   1      35.768  19.786  25.031  1.00  0.00     0.001 A 
ATOM     19  C   UNL A   1      33.688  20.867  24.396  1.00  0.00    -0.027 A 
ATOM     20  C   UNL A   1      34.432  19.706  24.669  1.00  0.00     0.005 A 
ATOM     21  C   UNL A   1      32.303  20.677  23.855  1.00  0.00     0.046 C 
BRANCH  16  22
ATOM     22  C   UNL A   1      36.508  23.466  24.583  1.00  0.00     0.034 C 
ATOM     23  C   UNL A   1      37.537  23.751  25.677  1.00  0.00     0.009 C 
ENDBRANCH  16  22
ENDBRANCH  13  15
ENDBRANCH   8  13
ENDBRANCH   6   7
ENDBRANCH   3   6
ENDBRANCH   1   2
BRANCH   1  24
ATOM     24  C   UNL A   1      34.195  29.338  26.189  1.00  0.00     0.042 C 
BRANCH  24  25
ATOM     25  C   UNL A   1      34.235  29.395  27.716  1.00  0.00     0.118 C 
BRANCH  25  26
ATOM     26  N   UNL A   1      34.834  30.642  28.188  1.00  0.00    -0.352 N 
ATOM     27  C   UNL A   1      36.073  30.846  28.760  1.00  0.00     0.251 C 
ATOM     28  H   UNL A   1      34.277  31.447  28.083  1.00  0.00     0.163 HD
ATOM     29  O   UNL A   1      36.410  31.922  29.227  1.00  0.00    -0.269 OA
BRANCH  27  30
ATOM     30  C   UNL A   1      37.027  29.727  28.697  1.00  0.00     0.039 A 
ATOM     31  C   UNL A   1      37.197  28.960  29.853  1.00  0.00     0.014 A 
ATOM     32  C   UNL A   1      37.892  29.609  27.612  1.00  0.00     0.014 A 
ATOM     33  C   UNL A   1      38.348  28.193  30.000  1.00  0.00     0.010 A 
ATOM     34  C   UNL A   1      39.056  28.881  27.779  1.00  0.00     0.010 A 
ATOM     35  C   UNL A   1      39.314  28.230  28.996  1.00  0.00    -0.014 A 
BRANCH  35  36
ATOM     36  C   UNL A   1      40.661  27.697  29.162  1.00  0.00     0.031 A 
ATOM     37  C   UNL A   1      40.984  26.323  28.728  1.00  0.00     0.074 A 
ATOM     38  C   UNL A   1      41.639  28.485  29.658  1.00  0.00     0.049 A 
ATOM     39  N   UNL A   1      42.058  25.683  29.045  1.00  0.00    -0.248 NA
ATOM     40  C   UNL A   1      40.048  25.523  27.952  1.00  0.00     0.031 C 
ATOM     41  C   UNL A   1      43.078  28.256  29.597  1.00  0.00     0.029 A 
ATOM     42  N   UNL A   1      41.492  29.559  30.545  1.00  0.00    -0.354 N 
ATOM     43  C   UNL A   1      42.093  24.515  28.318  1.00  0.00     0.074 A 
ATOM     44  C   UNL A   1      40.771  24.420  27.745  1.00  0.00     0.031 C 
ATOM     45  C   UNL A   1      43.666  28.941  30.587  1.00  0.00     0.029 A 
ATOM     46  C   UNL A   1      42.609  29.500  31.410  1.00  0.00     0.049 A 
ATOM     47  H   UNL A   1      40.762  30.219  30.562  1.00  0.00     0.167 HD
ATOM     48  C   UNL A   1      43.279  23.845  28.203  1.00  0.00     0.037 A 
ATOM     49  C   UNL A   1      42.445  29.262  32.745  1.00  0.00     0.037 A 
ATOM     50  C   UNL A   1      44.269  24.363  29.160  1.00  0.00     0.049 A 
ATOM     51  C   UNL A   1      43.115  28.001  33.257  1.00  0.00     0.074 A 
ATOM     52  C   UNL A   1      45.384  25.181  29.082  1.00  0.00     0.029 A 
ATOM     53  N   UNL A   1      44.005  24.218  30.512  1.00  0.00    -0.354 N 
ATOM     54  N   UNL A   1      43.759  27.146  32.511  1.00  0.00    -0.248 NA
ATOM     55  C   UNL A   1      43.038  27.565  34.653  1.00  0.00     0.031 C 
ATOM     56  C   UNL A   1      45.769  25.541  30.410  1.00  0.00     0.029 A 
ATOM     57  C   UNL A   1      44.892  24.936  31.291  1.00  0.00     0.049 A 
ATOM     58  H   UNL A   1      43.274  23.669  30.875  1.00  0.00     0.167 HD
ATOM     59  C   UNL A   1      44.110  26.056  33.264  1.00  0.00     0.074 A 
ATOM     60  C   UNL A   1      43.656  26.373  34.604  1.00  0.00     0.031 C 
ATOM     61  C   UNL A   1      44.701  24.946  32.733  1.00  0.00     0.037 A 
BRANCH  48  62
ATOM     62  C   UNL A   1      43.629  22.867  27.084  1.00  0.00     0.058 A 
ATOM     63  C   UNL A   1      42.913  21.652  26.944  1.00  0.00     0.135 A 
ATOM     64  C   UNL A   1      44.704  22.994  26.181  1.00  0.00     0.135 A 
ATOM     65  F   UNL A   1      41.808  21.403  27.661  1.00  0.00    -0.206 F 
ATOM     66  C   UNL A   1      43.301  20.625  26.075  1.00  0.00     0.059 A 
ATOM     67  C   UNL A   1      45.130  21.974  25.326  1.00  0.00     0.059 A 
ATOM     68  F   UNL A   1      45.386  24.130  26.034  1.00  0.00    -0.206 F 
ATOM     69  C   UNL A   1      44.436  20.780  25.294  1.00  0.00     0.060 A 
BRANCH  69  70
ATOM     70  S   UNL A   1      44.991  19.428  24.243  1.00  0.00     0.124 S 
ATOM     71  O   UNL A   1      46.443  19.548  24.332  1.00  0.00    -0.237 OA
ATOM     72  O   UNL A   1      44.405  18.265  24.901  1.00  0.00    -0.237 OA
ATOM     73  O   UNL A   1      44.423  19.755  22.936  1.00  0.00    -0.744 OA
ENDBRANCH  69  70
ENDBRANCH  48  62
BRANCH  49  74
ATOM     74  C   UNL A   1      41.193  29.858  33.287  1.00  0.00     0.058 A 
ATOM     75  C   UNL A   1      41.147  31.256  33.463  1.00  0.00     0.135 A 
ATOM     76  C   UNL A   1      39.974  29.170  33.248  1.00  0.00     0.135 A 
ATOM     77  F   UNL A   1      42.287  31.965  33.516  1.00  0.00    -0.206 F 
ATOM     78  C   UNL A   1      39.948  31.957  33.446  1.00  0.00     0.059 A 
ATOM     79  C   UNL A   1      38.756  29.854  33.245  1.00  0.00     0.059 A 
ATOM     80  F   UNL A   1      39.952  27.840  33.083  1.00  0.00    -0.206 F 
ATOM     81  C   UNL A   1      38.760  31.250  33.281  1.00  0.00     0.060 A 
BRANCH  81  82
ATOM     82  S   UNL A   1      37.257  32.195  32.936  1.00  0.00     0.124 S 
ATOM     83  O   UNL A   1      37.728  33.159  31.948  1.00  0.00    -0.237 OA
ATOM     84  O   UNL A   1      36.357  31.161  32.426  1.00  0.00    -0.237 OA
ATOM     85  O   UNL A   1      36.900  32.746  34.238  1.00  0.00    -0.744 OA
ENDBRANCH  81  82
ENDBRANCH  49  74
BRANCH  61  86
ATOM     86  C   UNL A   1      45.111  23.755  33.556  1.00  0.00     0.058 A 
ATOM     87  C   UNL A   1      44.241  22.683  33.815  1.00  0.00     0.135 A 
ATOM     88  C   UNL A   1      46.361  23.711  34.210  1.00  0.00     0.135 A 
ATOM     89  F   UNL A   1      43.009  22.657  33.283  1.00  0.00    -0.206 F 
ATOM     90  C   UNL A   1      44.603  21.612  34.635  1.00  0.00     0.059 A 
ATOM     91  C   UNL A   1      46.726  22.678  35.070  1.00  0.00     0.059 A 
ATOM     92  F   UNL A   1      47.286  24.662  34.009  1.00  0.00    -0.206 F 
ATOM     93  C   UNL A   1      45.849  21.619  35.258  1.00  0.00     0.060 A 
BRANCH  93  94
ATOM     94  S   UNL A   1      46.313  20.253  36.342  1.00  0.00     0.124 S 
ATOM     95  O   UNL A   1      47.752  20.141  36.118  1.00  0.00    -0.237 OA
ATOM     96  O   UNL A   1      45.918  20.771  37.648  1.00  0.00    -0.237 OA
ATOM     97  O   UNL A   1      45.520  19.137  35.839  1.00  0.00    -0.744 OA
ENDBRANCH  93  94
ENDBRANCH  61  86
ENDBRANCH  35  36
ENDBRANCH  27  30
ENDBRANCH  25  26
ENDBRANCH  24  25
ENDBRANCH   1  24
TORSDOF 17
ENDMDL
MODEL 3
REMARK VINA RESULT:     -13.4      1.830      2.955
REMARK SMILES CCc1cccc(C)c1Nc1ccccc1CC(=O)NCCCNC(=O)c1ccc(-c2c3nc(c(-c4c(F)cc(S(=O)(=O)[O-])cc4F)c4ccc([nH]4)c(-c4c(F)cc(S(=O)(=O)[O-])cc4F)c4nc(c(-c5c(F)cc(S(=O)(=O)[O-])cc5F)c5ccc2[nH]5)C=C4)C=C3)cc1
REMARK SMILES IDX 21 1 20 2 18 3 19 4 17 6 16 7 11 8 12 9 13 10 15 11 14 12
REMARK SMILES IDX 10 13 9 15 3 16 4 17 5 18 7 19 6 20 8 21 2 22 1 23 22 24
REMARK SMILES IDX 23 25 24 26 25 27 26 29 27 30 28 31 92 32 29 33 91 34 30 35
REMARK SMILES IDX 31 36 32 37 85 38 33 39 90 40 84 41 86 42 34 43 89 44 83 45
REMARK SMILES IDX 82 46 35 48 69 49 48 50 68 51 49 52 52 53 67 54 87 55 50 56
REMARK SMILES IDX 51 57 66 59 88 60 53 61 36 62 37 63 46 64 38 65 39 66 45 67
REMARK SMILES IDX 47 68 40 69 41 70 42 71 43 72 44 73 70 74 71 75 80 76 72 77
REMARK SMILES IDX 73 78 79 79 81 80 74 81 75 82 76 83 77 84 78 85 54 86 55 87
REMARK SMILES IDX 64 88 56 89 57 90 63 91 65 92 58 93 59 94 60 95 61 96 62 97
REMARK H PARENT 20 5 10 14 24 28 86 47 52 58
REMARK Flexibility Score: inf
ROOT
ATOM      1  C   UNL A   1      32.258  29.970  26.206  1.00  0.00     0.117 C 
ENDROOT
BRANCH   1   2
ATOM      2  N   UNL A   1      31.577  30.029  24.926  1.00  0.00    -0.356 N 
ATOM      3  C   UNL A   1      30.856  29.069  24.275  1.00  0.00     0.224 C 
ATOM      4  O   UNL A   1      30.005  29.439  23.460  1.00  0.00    -0.275 OA
ATOM      5  H   UNL A   1      31.645  30.892  24.456  1.00  0.00     0.163 HD
BRANCH   3   6
ATOM      6  C   UNL A   1      30.999  27.599  24.617  1.00  0.00     0.137 C 
BRANCH   6   7
ATOM      7  C   UNL A   1      31.653  26.713  23.577  1.00  0.00    -0.015 A 
ATOM      8  C   UNL A   1      32.629  25.738  23.882  1.00  0.00     0.042 A 
ATOM      9  C   UNL A   1      33.228  25.020  22.833  1.00  0.00     0.026 A 
ATOM     10  C   UNL A   1      32.840  25.211  21.508  1.00  0.00     0.002 A 
ATOM     11  C   UNL A   1      31.293  26.909  22.228  1.00  0.00     0.006 A 
ATOM     12  C   UNL A   1      31.868  26.154  21.206  1.00  0.00     0.000 A 
BRANCH   8  13
ATOM     13  N   UNL A   1      33.131  25.523  25.179  1.00  0.00    -0.355 N 
ATOM     14  H   UNL A   1      33.474  26.332  25.624  1.00  0.00     0.167 HD
BRANCH  13  15
ATOM     15  C   UNL A   1      33.229  24.339  25.953  1.00  0.00     0.045 A 
ATOM     16  C   UNL A   1      34.497  23.722  26.111  1.00  0.00    -0.024 A 
ATOM     17  C   UNL A   1      34.673  22.774  27.139  1.00  0.00     0.006 A 
ATOM     18  C   UNL A   1      33.602  22.338  27.906  1.00  0.00     0.001 A 
ATOM     19  C   UNL A   1      32.119  23.715  26.563  1.00  0.00    -0.027 A 
ATOM     20  C   UNL A   1      32.325  22.766  27.580  1.00  0.00     0.005 A 
ATOM     21  C   UNL A   1      30.700  23.994  26.168  1.00  0.00     0.046 C 
BRANCH  16  22
ATOM     22  C   UNL A   1      35.714  23.993  25.243  1.00  0.00     0.034 C 
ATOM     23  C   UNL A   1      37.077  23.945  25.933  1.00  0.00     0.009 C 
ENDBRANCH  16  22
ENDBRANCH  13  15
ENDBRANCH   8  13
ENDBRANCH   6   7
ENDBRANCH   3   6
ENDBRANCH   1   2
BRANCH   1  24
ATOM     24  C   UNL A   1      33.746  29.640  26.147  1.00  0.00     0.042 C 
BRANCH  24  25
ATOM     25  C   UNL A   1      34.430  29.574  27.513  1.00  0.00     0.118 C 
BRANCH  25  26
ATOM     26  N   UNL A   1      35.075  30.842  27.848  1.00  0.00    -0.352 N 
ATOM     27  C   UNL A   1      36.353  31.067  28.318  1.00  0.00     0.251 C 
ATOM     28  H   UNL A   1      34.522  31.647  27.721  1.00  0.00     0.163 HD
ATOM     29  O   UNL A   1      36.734  32.169  28.679  1.00  0.00    -0.269 OA
BRANCH  27  30
ATOM     30  C   UNL A   1      37.287  29.930  28.274  1.00  0.00     0.039 A 
ATOM     31  C   UNL A   1      37.413  29.157  29.432  1.00  0.00     0.014 A 
ATOM     32  C   UNL A   1      38.176  29.800  27.211  1.00  0.00     0.014 A 
ATOM     33  C   UNL A   1      38.546  28.368  29.604  1.00  0.00     0.010 A 
ATOM     34  C   UNL A   1      39.321  29.049  27.403  1.00  0.00     0.010 A 
ATOM     35  C   UNL A   1      39.537  28.390  28.624  1.00  0.00    -0.014 A 
BRANCH  35  36
ATOM     36  C   UNL A   1      40.870  27.831  28.822  1.00  0.00     0.031 A 
ATOM     37  C   UNL A   1      41.158  26.430  28.452  1.00  0.00     0.074 A 
ATOM     38  C   UNL A   1      41.865  28.616  29.285  1.00  0.00     0.049 A 
ATOM     39  N   UNL A   1      42.215  25.779  28.804  1.00  0.00    -0.248 NA
ATOM     40  C   UNL A   1      40.205  25.620  27.709  1.00  0.00     0.031 C 
ATOM     41  C   UNL A   1      43.298  28.347  29.243  1.00  0.00     0.029 A 
ATOM     42  N   UNL A   1      41.742  29.733  30.121  1.00  0.00    -0.354 N 
ATOM     43  C   UNL A   1      42.222  24.578  28.132  1.00  0.00     0.074 A 
ATOM     44  C   UNL A   1      40.900  24.490  27.557  1.00  0.00     0.031 C 
ATOM     45  C   UNL A   1      43.899  29.062  30.203  1.00  0.00     0.029 A 
ATOM     46  C   UNL A   1      42.854  29.685  30.994  1.00  0.00     0.049 A 
ATOM     47  H   UNL A   1      41.030  30.411  30.105  1.00  0.00     0.167 HD
ATOM     48  C   UNL A   1      43.391  23.873  28.053  1.00  0.00     0.037 A 
ATOM     49  C   UNL A   1      42.679  29.513  32.338  1.00  0.00     0.037 A 
ATOM     50  C   UNL A   1      44.390  24.409  28.990  1.00  0.00     0.049 A 
ATOM     51  C   UNL A   1      43.314  28.260  32.910  1.00  0.00     0.074 A 
ATOM     52  C   UNL A   1      45.526  25.194  28.881  1.00  0.00     0.029 A 
ATOM     53  N   UNL A   1      44.117  24.333  30.346  1.00  0.00    -0.354 N 
ATOM     54  N   UNL A   1      43.939  27.356  32.207  1.00  0.00    -0.248 NA
ATOM     55  C   UNL A   1      43.221  27.891  34.325  1.00  0.00     0.031 C 
ATOM     56  C   UNL A   1      45.915  25.604  30.192  1.00  0.00     0.029 A 
ATOM     57  C   UNL A   1      45.020  25.064  31.096  1.00  0.00     0.049 A 
ATOM     58  H   UNL A   1      43.370  23.820  30.731  1.00  0.00     0.167 HD
ATOM     59  C   UNL A   1      44.259  26.292  33.011  1.00  0.00     0.074 A 
ATOM     60  C   UNL A   1      43.808  26.682  34.334  1.00  0.00     0.031 C 
ATOM     61  C   UNL A   1      44.823  25.144  32.535  1.00  0.00     0.037 A 
BRANCH  48  62
ATOM     62  C   UNL A   1      43.720  22.836  26.982  1.00  0.00     0.058 A 
ATOM     63  C   UNL A   1      42.961  21.644  26.881  1.00  0.00     0.135 A 
ATOM     64  C   UNL A   1      44.813  22.885  26.092  1.00  0.00     0.135 A 
ATOM     65  F   UNL A   1      41.836  21.467  27.589  1.00  0.00    -0.206 F 
ATOM     66  C   UNL A   1      43.322  20.567  26.062  1.00  0.00     0.059 A 
ATOM     67  C   UNL A   1      45.212  21.814  25.288  1.00  0.00     0.059 A 
ATOM     68  F   UNL A   1      45.540  23.986  25.910  1.00  0.00    -0.206 F 
ATOM     69  C   UNL A   1      44.474  20.646  25.295  1.00  0.00     0.060 A 
BRANCH  69  70
ATOM     70  S   UNL A   1      44.993  19.231  24.310  1.00  0.00     0.124 S 
ATOM     71  O   UNL A   1      44.446  18.113  25.071  1.00  0.00    -0.237 OA
ATOM     72  O   UNL A   1      44.355  19.501  23.025  1.00  0.00    -0.237 OA
ATOM     73  O   UNL A   1      46.451  19.328  24.313  1.00  0.00    -0.744 OA
ENDBRANCH  69  70
ENDBRANCH  48  62
BRANCH  49  74
ATOM     74  C   UNL A   1      41.441  30.165  32.846  1.00  0.00     0.058 A 
ATOM     75  C   UNL A   1      40.346  29.341  33.175  1.00  0.00     0.135 A 
ATOM     76  C   UNL A   1      41.456  31.463  33.372  1.00  0.00     0.135 A 
ATOM     77  F   UNL A   1      40.275  28.090  32.691  1.00  0.00    -0.206 F 
ATOM     78  C   UNL A   1      39.389  29.731  34.105  1.00  0.00     0.059 A 
ATOM     79  C   UNL A   1      40.495  31.881  34.296  1.00  0.00     0.059 A 
ATOM     80  F   UNL A   1      42.471  32.295  33.095  1.00  0.00    -0.206 F 
ATOM     81  C   UNL A   1      39.505  30.984  34.702  1.00  0.00     0.060 A 
BRANCH  81  82
ATOM     82  S   UNL A   1      38.455  31.338  36.130  1.00  0.00     0.124 S 
ATOM     83  O   UNL A   1      39.290  32.255  36.897  1.00  0.00    -0.237 OA
ATOM     84  O   UNL A   1      37.278  31.937  35.502  1.00  0.00    -0.237 OA
ATOM     85  O   UNL A   1      38.244  30.025  36.726  1.00  0.00    -0.744 OA
ENDBRANCH  81  82
ENDBRANCH  49  74
BRANCH  61  86
ATOM     86  C   UNL A   1      45.199  23.982  33.414  1.00  0.00     0.058 A 
ATOM     87  C   UNL A   1      44.291  22.962  33.743  1.00  0.00     0.135 A 
ATOM     88  C   UNL A   1      46.458  23.922  34.051  1.00  0.00     0.135 A 
ATOM     89  F   UNL A   1      43.050  22.960  33.232  1.00  0.00    -0.206 F 
ATOM     90  C   UNL A   1      44.624  21.921  34.613  1.00  0.00     0.059 A 
ATOM     91  C   UNL A   1      46.795  22.921  34.958  1.00  0.00     0.059 A 
ATOM     92  F   UNL A   1      47.416  24.822  33.785  1.00  0.00    -0.206 F 
ATOM     93  C   UNL A   1      45.880  21.910  35.216  1.00  0.00     0.060 A 
BRANCH  93  94
ATOM     94  S   UNL A   1      46.307  20.586  36.364  1.00  0.00     0.124 S 
ATOM     95  O   UNL A   1      45.644  19.425  35.776  1.00  0.00    -0.237 OA
ATOM     96  O   UNL A   1      47.764  20.588  36.280  1.00  0.00    -0.237 OA
ATOM     97  O   UNL A   1      45.747  21.042  37.631  1.00  0.00    -0.744 OA
ENDBRANCH  93  94
ENDBRANCH  61  86
ENDBRANCH  35  36
ENDBRANCH  27  30
ENDBRANCH  25  26
ENDBRANCH  24  25
ENDBRANCH   1  24
TORSDOF 17
ENDMDL
