MODEL 1
REMARK VINA RESULT:     -11.9      0.000      0.000
REMARK SMILES O=C(NCCCNC(=O)[C@@H]1[C@H](C(=O)NCc2ccccc2Cl)[C@@H]2C=C[C@H]1C2)c1ccc(-c2c3nc(c(-c4c(F)cc(S(=O)(=O)[O-])cc4F)c4ccc([nH]4)c(-c4c(F)cc(S(=O)(=O)[O-])cc4F)c4nc(c(-c5c(F)cc(S(=O)(=O)[O-])cc5F)c5ccc2[nH]5)C=C4)C=C3)cc1
REMARK SMILES IDX 5 1 4 2 3 3 1 4 2 5 28 7 29 8 93 9 30 10 92 11 31 12 32 13
REMARK SMILES IDX 33 14 86 15 34 16 91 17 85 18 87 19 35 20 90 21 84 22 83 23
REMARK SMILES IDX 36 25 70 26 49 27 69 28 50 29 53 30 68 31 88 32 51 33 52 34
REMARK SMILES IDX 67 36 89 37 54 38 37 39 38 40 47 41 39 42 40 43 46 44 48 45
REMARK SMILES IDX 41 46 42 47 43 48 44 49 45 50 71 51 72 52 81 53 73 54 74 55
REMARK SMILES IDX 80 56 82 57 75 58 76 59 77 60 78 61 79 62 55 63 56 64 65 65
REMARK SMILES IDX 57 66 58 67 64 68 66 69 59 70 60 71 61 72 62 73 63 74 6 75
REMARK SMILES IDX 7 76 8 77 9 79 10 80 11 81 26 82 23 83 25 84 27 85 24 86
REMARK SMILES IDX 12 87 13 88 14 89 15 91 16 92 17 93 21 94 18 95 20 96 22 97
REMARK SMILES IDX 19 98
REMARK H PARENT 3 6 87 24 53 35 7 78 14 90
REMARK Flexibility Score: inf
ROOT
ATOM      1  C   UNL A   1      32.264  27.475  27.211  1.00  0.00     0.042 C 
ENDROOT
BRANCH   1   2
ATOM      2  C   UNL A   1      33.513  28.353  27.106  1.00  0.00     0.118 C 
BRANCH   2   3
ATOM      3  N   UNL A   1      33.304  29.752  27.430  1.00  0.00    -0.352 N 
ATOM      4  O   UNL A   1      33.827  31.736  28.379  1.00  0.00    -0.269 OA
ATOM      5  C   UNL A   1      34.190  30.618  28.037  1.00  0.00     0.251 C 
ATOM      6  H   UNL A   1      32.428  30.128  27.185  1.00  0.00     0.163 HD
BRANCH   5   7
ATOM      7  C   UNL A   1      35.591  30.191  28.280  1.00  0.00     0.039 A 
ATOM      8  C   UNL A   1      36.547  30.283  27.265  1.00  0.00     0.014 A 
ATOM      9  C   UNL A   1      35.965  29.752  29.554  1.00  0.00     0.014 A 
ATOM     10  C   UNL A   1      37.864  29.883  27.511  1.00  0.00     0.010 A 
ATOM     11  C   UNL A   1      37.295  29.388  29.808  1.00  0.00     0.010 A 
ATOM     12  C   UNL A   1      38.259  29.446  28.789  1.00  0.00    -0.014 A 
BRANCH  12  13
ATOM     13  C   UNL A   1      39.693  29.139  29.071  1.00  0.00     0.031 A 
ATOM     14  C   UNL A   1      40.616  30.172  29.663  1.00  0.00     0.074 A 
ATOM     15  C   UNL A   1      40.166  27.911  28.774  1.00  0.00     0.049 A 
ATOM     16  N   UNL A   1      41.893  30.074  29.942  1.00  0.00    -0.248 NA
ATOM     17  C   UNL A   1      40.036  31.485  29.975  1.00  0.00     0.031 C 
ATOM     18  C   UNL A   1      39.381  26.830  28.173  1.00  0.00     0.029 A 
ATOM     19  N   UNL A   1      41.415  27.360  28.934  1.00  0.00    -0.354 N 
ATOM     20  C   UNL A   1      42.269  31.307  30.466  1.00  0.00     0.074 A 
ATOM     21  C   UNL A   1      41.093  32.152  30.422  1.00  0.00     0.031 C 
ATOM     22  C   UNL A   1      40.156  25.743  28.037  1.00  0.00     0.029 A 
ATOM     23  C   UNL A   1      41.507  26.062  28.486  1.00  0.00     0.049 A 
ATOM     24  H   UNL A   1      42.173  27.848  29.330  1.00  0.00     0.167 HD
ATOM     25  C   UNL A   1      43.476  31.693  30.950  1.00  0.00     0.037 A 
ATOM     26  C   UNL A   1      42.561  25.226  28.420  1.00  0.00     0.037 A 
ATOM     27  C   UNL A   1      44.647  30.849  30.981  1.00  0.00     0.049 A 
ATOM     28  C   UNL A   1      43.901  25.695  28.920  1.00  0.00     0.074 A 
ATOM     29  C   UNL A   1      45.912  31.147  31.460  1.00  0.00     0.029 A 
ATOM     30  N   UNL A   1      44.701  29.544  30.510  1.00  0.00    -0.354 N 
ATOM     31  N   UNL A   1      44.225  26.852  29.443  1.00  0.00    -0.248 NA
ATOM     32  C   UNL A   1      45.016  24.743  28.826  1.00  0.00     0.031 C 
ATOM     33  C   UNL A   1      46.740  30.041  31.237  1.00  0.00     0.029 A 
ATOM     34  C   UNL A   1      45.979  29.031  30.673  1.00  0.00     0.049 A 
ATOM     35  H   UNL A   1      43.942  29.054  30.119  1.00  0.00     0.167 HD
ATOM     36  C   UNL A   1      45.575  26.760  29.764  1.00  0.00     0.074 A 
ATOM     37  C   UNL A   1      45.999  25.425  29.397  1.00  0.00     0.031 C 
ATOM     38  C   UNL A   1      46.389  27.696  30.311  1.00  0.00     0.037 A 
BRANCH  25  39
ATOM     39  C   UNL A   1      43.602  33.095  31.493  1.00  0.00     0.058 A 
ATOM     40  C   UNL A   1      43.502  33.362  32.868  1.00  0.00     0.135 A 
ATOM     41  C   UNL A   1      43.891  34.175  30.641  1.00  0.00     0.135 A 
ATOM     42  F   UNL A   1      43.221  32.372  33.730  1.00  0.00    -0.206 F 
ATOM     43  C   UNL A   1      43.657  34.649  33.376  1.00  0.00     0.059 A 
ATOM     44  C   UNL A   1      44.078  35.466  31.130  1.00  0.00     0.059 A 
ATOM     45  F   UNL A   1      44.005  33.980  29.318  1.00  0.00    -0.206 F 
ATOM     46  C   UNL A   1      43.946  35.696  32.498  1.00  0.00     0.060 A 
BRANCH  46  47
ATOM     47  S   UNL A   1      44.155  37.356  33.178  1.00  0.00     0.124 S 
ATOM     48  O   UNL A   1      44.250  38.159  31.963  1.00  0.00    -0.237 OA
ATOM     49  O   UNL A   1      42.935  37.529  33.958  1.00  0.00    -0.237 OA
ATOM     50  O   UNL A   1      45.386  37.254  33.957  1.00  0.00    -0.744 OA
ENDBRANCH  46  47
ENDBRANCH  25  39
BRANCH  26  51
ATOM     51  C   UNL A   1      42.399  23.863  27.840  1.00  0.00     0.058 A 
ATOM     52  C   UNL A   1      42.315  22.727  28.659  1.00  0.00     0.135 A 
ATOM     53  C   UNL A   1      42.333  23.670  26.450  1.00  0.00     0.135 A 
ATOM     54  F   UNL A   1      42.378  22.856  29.993  1.00  0.00    -0.206 F 
ATOM     55  C   UNL A   1      42.203  21.448  28.123  1.00  0.00     0.059 A 
ATOM     56  C   UNL A   1      42.186  22.404  25.892  1.00  0.00     0.059 A 
ATOM     57  F   UNL A   1      42.391  24.723  25.620  1.00  0.00    -0.206 F 
ATOM     58  C   UNL A   1      42.140  21.297  26.737  1.00  0.00     0.060 A 
BRANCH  58  59
ATOM     59  S   UNL A   1      41.974  19.635  26.052  1.00  0.00     0.124 S 
ATOM     60  O   UNL A   1      42.898  19.690  24.926  1.00  0.00    -0.237 OA
ATOM     61  O   UNL A   1      42.384  18.798  27.175  1.00  0.00    -0.237 OA
ATOM     62  O   UNL A   1      40.559  19.555  25.704  1.00  0.00    -0.744 OA
ENDBRANCH  58  59
ENDBRANCH  26  51
BRANCH  38  63
ATOM     63  C   UNL A   1      47.815  27.294  30.586  1.00  0.00     0.058 A 
ATOM     64  C   UNL A   1      48.854  27.582  29.688  1.00  0.00     0.135 A 
ATOM     65  C   UNL A   1      48.146  26.631  31.780  1.00  0.00     0.135 A 
ATOM     66  F   UNL A   1      48.593  28.206  28.528  1.00  0.00    -0.206 F 
ATOM     67  C   UNL A   1      50.166  27.199  29.947  1.00  0.00     0.059 A 
ATOM     68  C   UNL A   1      49.457  26.269  32.075  1.00  0.00     0.059 A 
ATOM     69  F   UNL A   1      47.194  26.339  32.679  1.00  0.00    -0.206 F 
ATOM     70  C   UNL A   1      50.459  26.542  31.145  1.00  0.00     0.060 A 
BRANCH  70  71
ATOM     71  S   UNL A   1      52.169  26.069  31.478  1.00  0.00     0.124 S 
ATOM     72  O   UNL A   1      52.602  27.141  32.369  1.00  0.00    -0.237 OA
ATOM     73  O   UNL A   1      52.014  24.756  32.095  1.00  0.00    -0.237 OA
ATOM     74  O   UNL A   1      52.785  26.066  30.154  1.00  0.00    -0.744 OA
ENDBRANCH  70  71
ENDBRANCH  38  63
ENDBRANCH  12  13
ENDBRANCH   5   7
ENDBRANCH   2   3
ENDBRANCH   1   2
BRANCH   1  75
ATOM     75  C   UNL A   1      31.947  26.350  26.201  1.00  0.00     0.117 C 
BRANCH  75  76
ATOM     76  N   UNL A   1      31.398  25.078  26.654  1.00  0.00    -0.356 N 
ATOM     77  C   UNL A   1      31.871  23.796  26.712  1.00  0.00     0.224 C 
ATOM     78  H   UNL A   1      30.478  25.160  26.996  1.00  0.00     0.163 HD
ATOM     79  O   UNL A   1      31.330  23.004  27.485  1.00  0.00    -0.275 OA
BRANCH  77  80
ATOM     80  C   UNL A   1      33.057  23.379  25.886  1.00  0.00     0.098 C 
ATOM     81  C   UNL A   1      32.980  23.554  24.357  1.00  0.00     0.098 C 
ATOM     82  C   UNL A   1      33.583  21.902  26.015  1.00  0.00     0.025 C 
ATOM     83  C   UNL A   1      33.800  22.338  23.828  1.00  0.00     0.025 C 
ATOM     84  C   UNL A   1      32.793  20.858  25.235  1.00  0.00    -0.027 C 
ATOM     85  C   UNL A   1      34.738  22.004  25.008  1.00  0.00     0.017 C 
ATOM     86  C   UNL A   1      32.937  21.115  23.925  1.00  0.00    -0.027 C 
BRANCH  81  87
ATOM     87  C   UNL A   1      31.644  23.800  23.621  1.00  0.00     0.224 C 
ATOM     88  O   UNL A   1      30.622  23.297  24.109  1.00  0.00    -0.275 OA
ATOM     89  N   UNL A   1      31.469  24.482  22.440  1.00  0.00    -0.352 N 
ATOM     90  H   UNL A   1      30.848  24.083  21.788  1.00  0.00     0.163 HD
BRANCH  89  91
ATOM     91  C   UNL A   1      32.099  25.719  22.058  1.00  0.00     0.153 C 
BRANCH  91  92
ATOM     92  C   UNL A   1      31.733  27.110  22.553  1.00  0.00    -0.010 A 
ATOM     93  C   UNL A   1      30.347  27.217  22.836  1.00  0.00     0.007 A 
ATOM     94  C   UNL A   1      32.531  28.166  23.024  1.00  0.00     0.046 A 
ATOM     95  C   UNL A   1      29.801  28.261  23.583  1.00  0.00     0.000 A 
ATOM     96  C   UNL A   1      31.978  29.213  23.788  1.00  0.00     0.021 A 
ATOM     97  Cl  UNL A   1      34.208  28.375  22.767  1.00  0.00    -0.084 Cl
ATOM     98  C   UNL A   1      30.622  29.254  24.082  1.00  0.00     0.002 A 
ENDBRANCH  91  92
ENDBRANCH  89  91
ENDBRANCH  81  87
ENDBRANCH  77  80
ENDBRANCH  75  76
ENDBRANCH   1  75
TORSDOF 16
ENDMDL
MODEL 2
REMARK VINA RESULT:     -11.7      3.137      4.605
REMARK SMILES O=C(NCCCNC(=O)[C@@H]1[C@H](C(=O)NCc2ccccc2Cl)[C@@H]2C=C[C@H]1C2)c1ccc(-c2c3nc(c(-c4c(F)cc(S(=O)(=O)[O-])cc4F)c4ccc([nH]4)c(-c4c(F)cc(S(=O)(=O)[O-])cc4F)c4nc(c(-c5c(F)cc(S(=O)(=O)[O-])cc5F)c5ccc2[nH]5)C=C4)C=C3)cc1
REMARK SMILES IDX 5 1 4 2 3 3 1 4 2 5 28 7 29 8 93 9 30 10 92 11 31 12 32 13
REMARK SMILES IDX 33 14 86 15 34 16 91 17 85 18 87 19 35 20 90 21 84 22 83 23
REMARK SMILES IDX 36 25 70 26 49 27 69 28 50 29 53 30 68 31 88 32 51 33 52 34
REMARK SMILES IDX 67 36 89 37 54 38 37 39 38 40 47 41 39 42 40 43 46 44 48 45
REMARK SMILES IDX 41 46 42 47 43 48 44 49 45 50 71 51 72 52 81 53 73 54 74 55
REMARK SMILES IDX 80 56 82 57 75 58 76 59 77 60 78 61 79 62 55 63 56 64 65 65
REMARK SMILES IDX 57 66 58 67 64 68 66 69 59 70 60 71 61 72 62 73 63 74 6 75
REMARK SMILES IDX 7 76 8 77 9 79 10 80 11 81 26 82 23 83 25 84 27 85 24 86
REMARK SMILES IDX 12 87 13 88 14 89 15 91 16 92 17 93 21 94 18 95 20 96 22 97
REMARK SMILES IDX 19 98
REMARK H PARENT 3 6 87 24 53 35 7 78 14 90
REMARK Flexibility Score: inf
ROOT
ATOM      1  C   UNL A   1      34.790  29.195  27.114  1.00  0.00     0.042 C 
ENDROOT
BRANCH   1   2
ATOM      2  C   UNL A   1      35.562  30.329  27.793  1.00  0.00     0.118 C 
BRANCH   2   3
ATOM      3  N   UNL A   1      35.391  30.407  29.232  1.00  0.00    -0.352 N 
ATOM      4  O   UNL A   1      35.997  30.096  31.387  1.00  0.00    -0.269 OA
ATOM      5  C   UNL A   1      36.324  30.126  30.209  1.00  0.00     0.251 C 
ATOM      6  H   UNL A   1      34.504  30.695  29.549  1.00  0.00     0.163 HD
BRANCH   5   7
ATOM      7  C   UNL A   1      37.733  29.855  29.826  1.00  0.00     0.039 A 
ATOM      8  C   UNL A   1      38.687  29.552  30.801  1.00  0.00     0.014 A 
ATOM      9  C   UNL A   1      38.087  29.843  28.474  1.00  0.00     0.014 A 
ATOM     10  C   UNL A   1      40.009  29.293  30.424  1.00  0.00     0.010 A 
ATOM     11  C   UNL A   1      39.405  29.545  28.097  1.00  0.00     0.010 A 
ATOM     12  C   UNL A   1      40.381  29.270  29.068  1.00  0.00    -0.014 A 
BRANCH  12  13
ATOM     13  C   UNL A   1      41.765  28.871  28.672  1.00  0.00     0.031 A 
ATOM     14  C   UNL A   1      42.886  29.877  28.613  1.00  0.00     0.074 A 
ATOM     15  C   UNL A   1      42.005  27.583  28.350  1.00  0.00     0.049 A 
ATOM     16  N   UNL A   1      44.137  29.700  28.263  1.00  0.00    -0.248 NA
ATOM     17  C   UNL A   1      42.562  31.260  28.989  1.00  0.00     0.031 C 
ATOM     18  C   UNL A   1      41.000  26.518  28.341  1.00  0.00     0.029 A 
ATOM     19  N   UNL A   1      43.162  26.948  27.967  1.00  0.00    -0.354 N 
ATOM     20  C   UNL A   1      44.750  30.943  28.378  1.00  0.00     0.074 A 
ATOM     21  C   UNL A   1      43.721  31.876  28.789  1.00  0.00     0.031 C 
ATOM     22  C   UNL A   1      41.585  25.361  27.997  1.00  0.00     0.029 A 
ATOM     23  C   UNL A   1      42.993  25.607  27.704  1.00  0.00     0.049 A 
ATOM     24  H   UNL A   1      44.029  27.406  27.889  1.00  0.00     0.167 HD
ATOM     25  C   UNL A   1      46.050  31.272  28.176  1.00  0.00     0.037 A 
ATOM     26  C   UNL A   1      43.863  24.681  27.255  1.00  0.00     0.037 A 
ATOM     27  C   UNL A   1      47.069  30.339  27.757  1.00  0.00     0.049 A 
ATOM     28  C   UNL A   1      45.289  25.083  26.993  1.00  0.00     0.074 A 
ATOM     29  C   UNL A   1      48.415  30.574  27.534  1.00  0.00     0.029 A 
ATOM     30  N   UNL A   1      46.855  28.992  27.492  1.00  0.00    -0.354 N 
ATOM     31  N   UNL A   1      45.855  26.256  27.142  1.00  0.00    -0.248 NA
ATOM     32  C   UNL A   1      46.196  24.035  26.506  1.00  0.00     0.031 C 
ATOM     33  C   UNL A   1      49.005  29.385  27.091  1.00  0.00     0.029 A 
ATOM     34  C   UNL A   1      48.040  28.391  27.094  1.00  0.00     0.049 A 
ATOM     35  H   UNL A   1      45.989  28.532  27.577  1.00  0.00     0.167 HD
ATOM     36  C   UNL A   1      47.189  26.082  26.793  1.00  0.00     0.074 A 
ATOM     37  C   UNL A   1      47.350  24.685  26.446  1.00  0.00     0.031 C 
ATOM     38  C   UNL A   1      48.190  26.996  26.759  1.00  0.00     0.037 A 
BRANCH  25  39
ATOM     39  C   UNL A   1      46.459  32.706  28.405  1.00  0.00     0.058 A 
ATOM     40  C   UNL A   1      46.926  33.147  29.654  1.00  0.00     0.135 A 
ATOM     41  C   UNL A   1      46.445  33.637  27.352  1.00  0.00     0.135 A 
ATOM     42  F   UNL A   1      46.956  32.305  30.699  1.00  0.00    -0.206 F 
ATOM     43  C   UNL A   1      47.340  34.460  29.858  1.00  0.00     0.059 A 
ATOM     44  C   UNL A   1      46.882  34.948  27.525  1.00  0.00     0.059 A 
ATOM     45  F   UNL A   1      46.015  33.272  26.134  1.00  0.00    -0.206 F 
ATOM     46  C   UNL A   1      47.316  35.354  28.786  1.00  0.00     0.060 A 
BRANCH  46  47
ATOM     47  S   UNL A   1      47.869  37.050  29.068  1.00  0.00     0.124 S 
ATOM     48  O   UNL A   1      49.173  37.045  28.411  1.00  0.00    -0.237 OA
ATOM     49  O   UNL A   1      46.830  37.831  28.405  1.00  0.00    -0.237 OA
ATOM     50  O   UNL A   1      47.902  37.162  30.523  1.00  0.00    -0.744 OA
ENDBRANCH  46  47
ENDBRANCH  25  39
BRANCH  26  51
ATOM     51  C   UNL A   1      43.406  23.286  27.007  1.00  0.00     0.058 A 
ATOM     52  C   UNL A   1      43.153  22.401  28.066  1.00  0.00     0.135 A 
ATOM     53  C   UNL A   1      43.221  22.806  25.699  1.00  0.00     0.135 A 
ATOM     54  F   UNL A   1      43.320  22.808  29.333  1.00  0.00    -0.206 F 
ATOM     55  C   UNL A   1      42.765  21.084  27.839  1.00  0.00     0.059 A 
ATOM     56  C   UNL A   1      42.799  21.503  25.449  1.00  0.00     0.059 A 
ATOM     57  F   UNL A   1      43.432  23.614  24.648  1.00  0.00    -0.206 F 
ATOM     58  C   UNL A   1      42.591  20.645  26.526  1.00  0.00     0.060 A 
BRANCH  58  59
ATOM     59  S   UNL A   1      42.067  18.940  26.244  1.00  0.00     0.124 S 
ATOM     60  O   UNL A   1      42.246  18.357  27.568  1.00  0.00    -0.237 OA
ATOM     61  O   UNL A   1      40.687  19.112  25.802  1.00  0.00    -0.237 OA
ATOM     62  O   UNL A   1      42.993  18.470  25.217  1.00  0.00    -0.744 OA
ENDBRANCH  58  59
ENDBRANCH  26  51
BRANCH  38  63
ATOM     63  C   UNL A   1      49.561  26.504  26.374  1.00  0.00     0.058 A 
ATOM     64  C   UNL A   1      50.039  26.592  25.057  1.00  0.00     0.135 A 
ATOM     65  C   UNL A   1      50.417  25.958  27.345  1.00  0.00     0.135 A 
ATOM     66  F   UNL A   1      49.260  27.098  24.087  1.00  0.00    -0.206 F 
ATOM     67  C   UNL A   1      51.303  26.127  24.709  1.00  0.00     0.059 A 
ATOM     68  C   UNL A   1      51.697  25.517  27.026  1.00  0.00     0.059 A 
ATOM     69  F   UNL A   1      50.015  25.857  28.621  1.00  0.00    -0.206 F 
ATOM     70  C   UNL A   1      52.127  25.591  25.702  1.00  0.00     0.060 A 
BRANCH  70  71
ATOM     71  S   UNL A   1      53.773  25.010  25.241  1.00  0.00     0.124 S 
ATOM     72  O   UNL A   1      54.004  25.737  23.997  1.00  0.00    -0.237 OA
ATOM     73  O   UNL A   1      54.582  25.430  26.381  1.00  0.00    -0.237 OA
ATOM     74  O   UNL A   1      53.598  23.567  25.102  1.00  0.00    -0.744 OA
ENDBRANCH  70  71
ENDBRANCH  38  63
ENDBRANCH  12  13
ENDBRANCH   5   7
ENDBRANCH   2   3
ENDBRANCH   1   2
BRANCH   1  75
ATOM     75  C   UNL A   1      33.262  29.242  26.892  1.00  0.00     0.117 C 
BRANCH  75  76
ATOM     76  N   UNL A   1      32.701  29.100  25.554  1.00  0.00    -0.356 N 
ATOM     77  C   UNL A   1      31.792  28.254  24.981  1.00  0.00     0.224 C 
ATOM     78  H   UNL A   1      33.057  29.764  24.919  1.00  0.00     0.163 HD
ATOM     79  O   UNL A   1      31.235  28.607  23.940  1.00  0.00    -0.275 OA
BRANCH  77  80
ATOM     80  C   UNL A   1      31.445  26.944  25.634  1.00  0.00     0.098 C 
ATOM     81  C   UNL A   1      32.501  25.822  25.627  1.00  0.00     0.098 C 
ATOM     82  C   UNL A   1      30.158  26.179  25.152  1.00  0.00     0.025 C 
ATOM     83  C   UNL A   1      31.633  24.531  25.514  1.00  0.00     0.025 C 
ATOM     84  C   UNL A   1      30.318  25.383  23.862  1.00  0.00    -0.027 C 
ATOM     85  C   UNL A   1      30.271  24.970  26.092  1.00  0.00     0.017 C 
ATOM     86  C   UNL A   1      31.192  24.389  24.087  1.00  0.00    -0.027 C 
BRANCH  81  87
ATOM     87  C   UNL A   1      33.734  25.855  24.695  1.00  0.00     0.224 C 
ATOM     88  O   UNL A   1      33.838  26.816  23.921  1.00  0.00    -0.275 OA
ATOM     89  N   UNL A   1      34.713  24.896  24.594  1.00  0.00    -0.352 N 
ATOM     90  H   UNL A   1      35.014  24.668  23.685  1.00  0.00     0.163 HD
BRANCH  89  91
ATOM     91  C   UNL A   1      35.344  24.190  25.679  1.00  0.00     0.153 C 
BRANCH  91  92
ATOM     92  C   UNL A   1      36.668  23.444  25.622  1.00  0.00    -0.010 A 
ATOM     93  C   UNL A   1      37.726  24.213  26.171  1.00  0.00     0.007 A 
ATOM     94  C   UNL A   1      36.960  22.089  25.394  1.00  0.00     0.046 A 
ATOM     95  C   UNL A   1      38.961  23.667  26.524  1.00  0.00     0.000 A 
ATOM     96  C   UNL A   1      38.203  21.538  25.764  1.00  0.00     0.021 A 
ATOM     97  Cl  UNL A   1      35.935  20.930  24.664  1.00  0.00    -0.084 Cl
ATOM     98  C   UNL A   1      39.195  22.318  26.342  1.00  0.00     0.002 A 
ENDBRANCH  91  92
ENDBRANCH  89  91
ENDBRANCH  81  87
ENDBRANCH  77  80
ENDBRANCH  75  76
ENDBRANCH   1  75
TORSDOF 16
ENDMDL
MODEL 3
REMARK VINA RESULT:     -11.6      4.623     10.065
REMARK SMILES O=C(NCCCNC(=O)[C@@H]1[C@H](C(=O)NCc2ccccc2Cl)[C@@H]2C=C[C@H]1C2)c1ccc(-c2c3nc(c(-c4c(F)cc(S(=O)(=O)[O-])cc4F)c4ccc([nH]4)c(-c4c(F)cc(S(=O)(=O)[O-])cc4F)c4nc(c(-c5c(F)cc(S(=O)(=O)[O-])cc5F)c5ccc2[nH]5)C=C4)C=C3)cc1
REMARK SMILES IDX 5 1 4 2 3 3 1 4 2 5 28 7 29 8 93 9 30 10 92 11 31 12 32 13
REMARK SMILES IDX 33 14 86 15 34 16 91 17 85 18 87 19 35 20 90 21 84 22 83 23
REMARK SMILES IDX 36 25 70 26 49 27 69 28 50 29 53 30 68 31 88 32 51 33 52 34
REMARK SMILES IDX 67 36 89 37 54 38 37 39 38 40 47 41 39 42 40 43 46 44 48 45
REMARK SMILES IDX 41 46 42 47 43 48 44 49 45 50 71 51 72 52 81 53 73 54 74 55
REMARK SMILES IDX 80 56 82 57 75 58 76 59 77 60 78 61 79 62 55 63 56 64 65 65
REMARK SMILES IDX 57 66 58 67 64 68 66 69 59 70 60 71 61 72 62 73 63 74 6 75
REMARK SMILES IDX 7 76 8 77 9 79 10 80 11 81 26 82 23 83 25 84 27 85 24 86
REMARK SMILES IDX 12 87 13 88 14 89 15 91 16 92 17 93 21 94 18 95 20 96 22 97
REMARK SMILES IDX 19 98
REMARK H PARENT 3 6 87 24 53 35 7 78 14 90
REMARK Flexibility Score: inf
ROOT
ATOM      1  C   UNL A   1      37.540  23.732  25.634  1.00  0.00     0.042 C 
ENDROOT
BRANCH   1   2
ATOM      2  C   UNL A   1      38.619  23.875  26.710  1.00  0.00     0.118 C 
BRANCH   2   3
ATOM      3  N   UNL A   1      39.983  23.821  26.217  1.00  0.00    -0.352 N 
ATOM      4  O   UNL A   1      42.080  24.602  25.902  1.00  0.00    -0.269 OA
ATOM      5  C   UNL A   1      41.018  24.686  26.503  1.00  0.00     0.251 C 
ATOM      6  H   UNL A   1      40.195  23.078  25.606  1.00  0.00     0.163 HD
BRANCH   5   7
ATOM      7  C   UNL A   1      40.841  25.728  27.546  1.00  0.00     0.039 A 
ATOM      8  C   UNL A   1      39.851  25.592  28.524  1.00  0.00     0.014 A 
ATOM      9  C   UNL A   1      41.714  26.819  27.583  1.00  0.00     0.014 A 
ATOM     10  C   UNL A   1      39.701  26.579  29.504  1.00  0.00     0.010 A 
ATOM     11  C   UNL A   1      41.585  27.787  28.590  1.00  0.00     0.010 A 
ATOM     12  C   UNL A   1      40.575  27.679  29.560  1.00  0.00    -0.014 A 
BRANCH  12  13
ATOM     13  C   UNL A   1      40.482  28.660  30.682  1.00  0.00     0.031 A 
ATOM     14  C   UNL A   1      41.362  28.546  31.900  1.00  0.00     0.074 A 
ATOM     15  C   UNL A   1      39.579  29.659  30.601  1.00  0.00     0.049 A 
ATOM     16  N   UNL A   1      41.387  29.299  32.974  1.00  0.00    -0.248 NA
ATOM     17  C   UNL A   1      42.333  27.445  31.921  1.00  0.00     0.031 C 
ATOM     18  C   UNL A   1      38.650  29.863  29.487  1.00  0.00     0.029 A 
ATOM     19  N   UNL A   1      39.289  30.688  31.464  1.00  0.00    -0.354 N 
ATOM     20  C   UNL A   1      42.376  28.766  33.795  1.00  0.00     0.074 A 
ATOM     21  C   UNL A   1      42.896  27.599  33.114  1.00  0.00     0.031 C 
ATOM     22  C   UNL A   1      37.912  30.960  29.722  1.00  0.00     0.029 A 
ATOM     23  C   UNL A   1      38.272  31.506  31.025  1.00  0.00     0.049 A 
ATOM     24  H   UNL A   1      39.762  30.828  32.316  1.00  0.00     0.167 HD
ATOM     25  C   UNL A   1      42.817  29.217  34.996  1.00  0.00     0.037 A 
ATOM     26  C   UNL A   1      37.676  32.562  31.612  1.00  0.00     0.037 A 
ATOM     27  C   UNL A   1      42.287  30.376  35.674  1.00  0.00     0.049 A 
ATOM     28  C   UNL A   1      38.153  33.013  32.966  1.00  0.00     0.074 A 
ATOM     29  C   UNL A   1      42.674  30.916  36.889  1.00  0.00     0.029 A 
ATOM     30  N   UNL A   1      41.251  31.171  35.201  1.00  0.00    -0.354 N 
ATOM     31  N   UNL A   1      39.113  32.517  33.709  1.00  0.00    -0.248 NA
ATOM     32  C   UNL A   1      37.471  34.171  33.560  1.00  0.00     0.031 C 
ATOM     33  C   UNL A   1      41.845  32.007  37.172  1.00  0.00     0.029 A 
ATOM     34  C   UNL A   1      40.978  32.186  36.106  1.00  0.00     0.049 A 
ATOM     35  H   UNL A   1      40.782  31.035  34.347  1.00  0.00     0.167 HD
ATOM     36  C   UNL A   1      39.167  33.316  34.846  1.00  0.00     0.074 A 
ATOM     37  C   UNL A   1      38.157  34.341  34.681  1.00  0.00     0.031 C 
ATOM     38  C   UNL A   1      39.976  33.208  35.928  1.00  0.00     0.037 A 
BRANCH  25  39
ATOM     39  C   UNL A   1      43.936  28.459  35.665  1.00  0.00     0.058 A 
ATOM     40  C   UNL A   1      43.679  27.421  36.576  1.00  0.00     0.135 A 
ATOM     41  C   UNL A   1      45.279  28.725  35.347  1.00  0.00     0.135 A 
ATOM     42  F   UNL A   1      42.417  27.125  36.925  1.00  0.00    -0.206 F 
ATOM     43  C   UNL A   1      44.709  26.694  37.166  1.00  0.00     0.059 A 
ATOM     44  C   UNL A   1      46.325  27.991  35.903  1.00  0.00     0.059 A 
ATOM     45  F   UNL A   1      45.587  29.701  34.478  1.00  0.00    -0.206 F 
ATOM     46  C   UNL A   1      46.031  26.985  36.821  1.00  0.00     0.060 A 
BRANCH  46  47
ATOM     47  S   UNL A   1      47.352  26.022  37.588  1.00  0.00     0.124 S 
ATOM     48  O   UNL A   1      47.033  26.164  39.005  1.00  0.00    -0.237 OA
ATOM     49  O   UNL A   1      47.140  24.695  37.021  1.00  0.00    -0.237 OA
ATOM     50  O   UNL A   1      48.568  26.701  37.150  1.00  0.00    -0.744 OA
ENDBRANCH  46  47
ENDBRANCH  25  39
BRANCH  26  51
ATOM     51  C   UNL A   1      36.549  33.257  30.931  1.00  0.00     0.058 A 
ATOM     52  C   UNL A   1      36.768  34.091  29.824  1.00  0.00     0.135 A 
ATOM     53  C   UNL A   1      35.226  33.107  31.382  1.00  0.00     0.135 A 
ATOM     54  F   UNL A   1      38.012  34.274  29.358  1.00  0.00    -0.206 F 
ATOM     55  C   UNL A   1      35.724  34.775  29.208  1.00  0.00     0.059 A 
ATOM     56  C   UNL A   1      34.162  33.753  30.759  1.00  0.00     0.059 A 
ATOM     57  F   UNL A   1      34.957  32.308  32.426  1.00  0.00    -0.206 F 
ATOM     58  C   UNL A   1      34.424  34.599  29.684  1.00  0.00     0.060 A 
BRANCH  58  59
ATOM     59  S   UNL A   1      33.075  35.475  28.865  1.00  0.00     0.124 S 
ATOM     60  O   UNL A   1      32.439  34.397  28.116  1.00  0.00    -0.237 OA
ATOM     61  O   UNL A   1      32.318  35.999  29.996  1.00  0.00    -0.237 OA
ATOM     62  O   UNL A   1      33.765  36.479  28.062  1.00  0.00    -0.744 OA
ENDBRANCH  58  59
ENDBRANCH  26  51
BRANCH  38  63
ATOM     63  C   UNL A   1      39.833  34.255  37.003  1.00  0.00     0.058 A 
ATOM     64  C   UNL A   1      39.081  34.027  38.166  1.00  0.00     0.135 A 
ATOM     65  C   UNL A   1      40.480  35.495  36.874  1.00  0.00     0.135 A 
ATOM     66  F   UNL A   1      38.435  32.862  38.337  1.00  0.00    -0.206 F 
ATOM     67  C   UNL A   1      38.948  35.002  39.149  1.00  0.00     0.059 A 
ATOM     68  C   UNL A   1      40.387  36.473  37.860  1.00  0.00     0.059 A 
ATOM     69  F   UNL A   1      41.219  35.764  35.787  1.00  0.00    -0.206 F 
ATOM     70  C   UNL A   1      39.606  36.224  38.987  1.00  0.00     0.060 A 
BRANCH  70  71
ATOM     71  S   UNL A   1      39.442  37.473  40.279  1.00  0.00     0.124 S 
ATOM     72  O   UNL A   1      38.706  36.741  41.305  1.00  0.00    -0.237 OA
ATOM     73  O   UNL A   1      40.833  37.780  40.595  1.00  0.00    -0.237 OA
ATOM     74  O   UNL A   1      38.702  38.547  39.622  1.00  0.00    -0.744 OA
ENDBRANCH  70  71
ENDBRANCH  38  63
ENDBRANCH  12  13
ENDBRANCH   5   7
ENDBRANCH   2   3
ENDBRANCH   1   2
BRANCH   1  75
ATOM     75  C   UNL A   1      37.238  22.391  24.929  1.00  0.00     0.117 C 
BRANCH  75  76
ATOM     76  N   UNL A   1      35.983  21.690  25.173  1.00  0.00    -0.356 N 
ATOM     77  C   UNL A   1      34.764  21.663  24.555  1.00  0.00     0.224 C 
ATOM     78  H   UNL A   1      36.023  21.101  25.962  1.00  0.00     0.163 HD
ATOM     79  O   UNL A   1      34.023  20.699  24.758  1.00  0.00    -0.275 OA
BRANCH  77  80
ATOM     80  C   UNL A   1      34.359  22.760  23.609  1.00  0.00     0.098 C 
ATOM     81  C   UNL A   1      34.013  24.141  24.198  1.00  0.00     0.098 C 
ATOM     82  C   UNL A   1      33.147  22.510  22.639  1.00  0.00     0.025 C 
ATOM     83  C   UNL A   1      32.890  24.653  23.245  1.00  0.00     0.025 C 
ATOM     84  C   UNL A   1      31.766  22.673  23.266  1.00  0.00    -0.027 C 
ATOM     85  C   UNL A   1      33.157  23.877  21.938  1.00  0.00     0.017 C 
ATOM     86  C   UNL A   1      31.612  23.960  23.616  1.00  0.00    -0.027 C 
BRANCH  81  87
ATOM     87  C   UNL A   1      33.726  24.348  25.703  1.00  0.00     0.224 C 
ATOM     88  O   UNL A   1      33.903  23.380  26.455  1.00  0.00    -0.275 OA
ATOM     89  N   UNL A   1      33.241  25.487  26.298  1.00  0.00    -0.352 N 
ATOM     90  H   UNL A   1      32.549  25.365  26.988  1.00  0.00     0.163 HD
BRANCH  89  91
ATOM     91  C   UNL A   1      33.639  26.842  26.018  1.00  0.00     0.153 C 
BRANCH  91  92
ATOM     92  C   UNL A   1      32.763  28.082  26.128  1.00  0.00    -0.010 A 
ATOM     93  C   UNL A   1      33.227  28.962  27.138  1.00  0.00     0.007 A 
ATOM     94  C   UNL A   1      31.796  28.614  25.259  1.00  0.00     0.046 A 
ATOM     95  C   UNL A   1      32.809  30.289  27.243  1.00  0.00     0.000 A 
ATOM     96  C   UNL A   1      31.385  29.958  25.360  1.00  0.00     0.021 A 
ATOM     97  Cl  UNL A   1      30.979  27.784  24.006  1.00  0.00    -0.084 Cl
ATOM     98  C   UNL A   1      31.899  30.799  26.336  1.00  0.00     0.002 A 
ENDBRANCH  91  92
ENDBRANCH  89  91
ENDBRANCH  81  87
ENDBRANCH  77  80
ENDBRANCH  75  76
ENDBRANCH   1  75
TORSDOF 16
ENDMDL
