MODEL 1
REMARK VINA RESULT:     -11.6      0.000      0.000
REMARK SMILES Cc1nc(Nc2ccc(F)cc2)nc(OCC(=O)NCCCNC(=O)c2ccc(-c3c4nc(c(-c5c(F)cc(S(=O)(=O)[O-])cc5F)c5ccc([nH]5)c(-c5c(F)cc(S(=O)(=O)[O-])cc5F)c5nc(c(-c6c(F)cc(S(=O)(=O)[O-])cc6F)c6ccc3[nH]6)C=C5)C=C4)cc2)c1CCO
REMARK SMILES IDX 20 1 19 2 17 3 18 4 16 6 15 7 14 8 1 9 2 10 3 11 92 12 4 13
REMARK SMILES IDX 13 14 93 15 94 16 95 17 5 19 6 21 7 22 12 23 8 24 11 25 9 26
REMARK SMILES IDX 10 27 21 28 22 29 23 30 24 31 25 33 26 34 27 35 91 36 28 37
REMARK SMILES IDX 90 38 29 39 30 40 31 41 84 42 32 43 89 44 83 45 85 46 33 47
REMARK SMILES IDX 88 48 82 49 81 50 34 52 68 53 47 54 67 55 48 56 51 57 66 58
REMARK SMILES IDX 86 59 49 60 50 61 65 63 87 64 52 65 35 66 36 67 45 68 37 69
REMARK SMILES IDX 38 70 44 71 46 72 39 73 40 74 41 75 42 76 43 77 69 78 70 79
REMARK SMILES IDX 79 80 71 81 72 82 78 83 80 84 73 85 74 86 75 87 76 88 77 89
REMARK SMILES IDX 53 90 54 91 63 92 55 93 56 94 62 95 64 96 57 97 58 98 59 99
REMARK SMILES IDX 60 100 61 101
REMARK H PARENT 19 5 95 18 5 20 23 32 85 51 51 62
REMARK Flexibility Score: inf
ROOT
ATOM      1  C   UNL A   1      38.664  22.524  26.407  1.00  0.00     0.117 C 
ENDROOT
BRANCH   1   2
ATOM      2  N   UNL A   1      38.185  22.491  25.042  1.00  0.00    -0.353 N 
ATOM      3  C   UNL A   1      37.043  23.015  24.529  1.00  0.00     0.258 C 
ATOM      4  O   UNL A   1      36.853  22.893  23.317  1.00  0.00    -0.271 OA
ATOM      5  H   UNL A   1      38.766  22.026  24.398  1.00  0.00     0.163 HD
BRANCH   3   6
ATOM      6  C   UNL A   1      36.083  23.797  25.436  1.00  0.00     0.331 C 
BRANCH   6   7
ATOM      7  O   UNL A   1      35.140  24.706  24.916  1.00  0.00    -0.467 OA
BRANCH   7   8
ATOM      8  C   UNL A   1      33.799  24.485  24.882  1.00  0.00     0.222 A 
ATOM      9  C   UNL A   1      30.226  25.626  24.496  1.00  0.00     0.067 C 
ATOM     10  C   UNL A   1      31.498  24.852  24.683  1.00  0.00     0.050 A 
ATOM     11  N   UNL A   1      31.278  23.536  24.835  1.00  0.00    -0.218 NA
ATOM     12  C   UNL A   1      32.769  25.416  24.789  1.00  0.00     0.038 A 
ATOM     13  C   UNL A   1      32.303  22.732  25.103  1.00  0.00     0.230 A 
ATOM     14  N   UNL A   1      33.565  23.166  25.091  1.00  0.00    -0.177 NA
BRANCH  12  15
ATOM     15  C   UNL A   1      32.928  26.908  24.913  1.00  0.00     0.071 C 
BRANCH  15  16
ATOM     16  C   UNL A   1      33.655  27.578  23.741  1.00  0.00     0.161 C 
BRANCH  16  17
ATOM     17  O   UNL A   1      33.985  28.941  23.972  1.00  0.00    -0.396 OA
ATOM     18  H   UNL A   1      34.948  29.034  24.035  1.00  0.00     0.210 HD
ENDBRANCH  16  17
ENDBRANCH  15  16
ENDBRANCH  12  15
BRANCH  13  19
ATOM     19  N   UNL A   1      32.043  21.432  25.542  1.00  0.00    -0.324 N 
ATOM     20  H   UNL A   1      31.536  21.347  26.382  1.00  0.00     0.170 HD
BRANCH  19  21
ATOM     21  C   UNL A   1      32.423  20.234  24.919  1.00  0.00     0.041 A 
ATOM     22  C   UNL A   1      32.247  20.048  23.538  1.00  0.00     0.029 A 
ATOM     23  C   UNL A   1      32.853  19.140  25.686  1.00  0.00     0.029 A 
ATOM     24  C   UNL A   1      32.495  18.814  22.935  1.00  0.00     0.041 A 
ATOM     25  C   UNL A   1      33.082  17.895  25.089  1.00  0.00     0.041 A 
ATOM     26  C   UNL A   1      32.899  17.744  23.719  1.00  0.00     0.123 A 
ATOM     27  F   UNL A   1      33.095  16.545  23.154  1.00  0.00    -0.207 F 
ENDBRANCH  19  21
ENDBRANCH  13  19
ENDBRANCH   7   8
ENDBRANCH   6   7
ENDBRANCH   3   6
ENDBRANCH   1   2
BRANCH   1  28
ATOM     28  C   UNL A   1      40.132  22.138  26.502  1.00  0.00     0.042 C 
BRANCH  28  29
ATOM     29  C   UNL A   1      41.035  23.251  27.026  1.00  0.00     0.118 C 
BRANCH  29  30
ATOM     30  N   UNL A   1      41.535  24.124  25.969  1.00  0.00    -0.352 N 
ATOM     31  C   UNL A   1      41.670  25.487  25.932  1.00  0.00     0.251 C 
ATOM     32  H   UNL A   1      41.821  23.658  25.150  1.00  0.00     0.163 HD
ATOM     33  O   UNL A   1      41.923  26.040  24.860  1.00  0.00    -0.269 OA
BRANCH  31  34
ATOM     34  C   UNL A   1      41.496  26.288  27.157  1.00  0.00     0.039 A 
ATOM     35  C   UNL A   1      42.414  27.303  27.439  1.00  0.00     0.014 A 
ATOM     36  C   UNL A   1      40.440  26.033  28.036  1.00  0.00     0.014 A 
ATOM     37  C   UNL A   1      42.231  28.102  28.568  1.00  0.00     0.010 A 
ATOM     38  C   UNL A   1      40.205  26.890  29.104  1.00  0.00     0.010 A 
ATOM     39  C   UNL A   1      41.103  27.927  29.389  1.00  0.00    -0.014 A 
BRANCH  39  40
ATOM     40  C   UNL A   1      40.857  28.816  30.552  1.00  0.00     0.031 A 
ATOM     41  C   UNL A   1      41.694  28.683  31.796  1.00  0.00     0.074 A 
ATOM     42  C   UNL A   1      39.852  29.712  30.500  1.00  0.00     0.049 A 
ATOM     43  N   UNL A   1      41.611  29.347  32.919  1.00  0.00    -0.248 NA
ATOM     44  C   UNL A   1      42.745  27.652  31.789  1.00  0.00     0.031 C 
ATOM     45  C   UNL A   1      38.942  29.895  29.368  1.00  0.00     0.029 A 
ATOM     46  N   UNL A   1      39.428  30.640  31.418  1.00  0.00    -0.354 N 
ATOM     47  C   UNL A   1      42.590  28.814  33.750  1.00  0.00     0.074 A 
ATOM     48  C   UNL A   1      43.210  27.726  33.027  1.00  0.00     0.031 C 
ATOM     49  C   UNL A   1      38.096  30.902  29.641  1.00  0.00     0.029 A 
ATOM     50  C   UNL A   1      38.375  31.408  30.981  1.00  0.00     0.049 A 
ATOM     51  H   UNL A   1      39.840  30.745  32.307  1.00  0.00     0.167 HD
ATOM     52  C   UNL A   1      42.959  29.215  34.988  1.00  0.00     0.037 A 
ATOM     53  C   UNL A   1      37.710  32.410  31.590  1.00  0.00     0.037 A 
ATOM     54  C   UNL A   1      42.350  30.315  35.690  1.00  0.00     0.049 A 
ATOM     55  C   UNL A   1      38.137  32.837  32.967  1.00  0.00     0.074 A 
ATOM     56  C   UNL A   1      42.678  30.829  36.931  1.00  0.00     0.029 A 
ATOM     57  N   UNL A   1      41.289  31.071  35.212  1.00  0.00    -0.354 N 
ATOM     58  N   UNL A   1      39.097  32.353  33.719  1.00  0.00    -0.248 NA
ATOM     59  C   UNL A   1      37.398  33.950  33.577  1.00  0.00     0.031 C 
ATOM     60  C   UNL A   1      41.787  31.864  37.225  1.00  0.00     0.029 A 
ATOM     61  C   UNL A   1      40.940  32.037  36.141  1.00  0.00     0.049 A 
ATOM     62  H   UNL A   1      40.849  30.941  34.341  1.00  0.00     0.167 HD
ATOM     63  C   UNL A   1      39.097  33.120  34.878  1.00  0.00     0.074 A 
ATOM     64  C   UNL A   1      38.048  34.106  34.723  1.00  0.00     0.031 C 
ATOM     65  C   UNL A   1      39.894  33.017  35.970  1.00  0.00     0.037 A 
BRANCH  52  66
ATOM     66  C   UNL A   1      44.084  28.475  35.660  1.00  0.00     0.058 A 
ATOM     67  C   UNL A   1      45.421  28.823  35.409  1.00  0.00     0.135 A 
ATOM     68  C   UNL A   1      43.842  27.383  36.510  1.00  0.00     0.135 A 
ATOM     69  F   UNL A   1      45.713  29.863  34.611  1.00  0.00    -0.206 F 
ATOM     70  C   UNL A   1      46.477  28.106  35.965  1.00  0.00     0.059 A 
ATOM     71  C   UNL A   1      44.882  26.670  37.100  1.00  0.00     0.059 A 
ATOM     72  F   UNL A   1      42.583  27.020  36.802  1.00  0.00    -0.206 F 
ATOM     73  C   UNL A   1      46.197  27.031  36.809  1.00  0.00     0.060 A 
BRANCH  73  74
ATOM     74  S   UNL A   1      47.578  26.132  37.546  1.00  0.00     0.124 S 
ATOM     75  O   UNL A   1      47.173  26.053  38.944  1.00  0.00    -0.237 OA
ATOM     76  O   UNL A   1      47.555  24.875  36.803  1.00  0.00    -0.237 OA
ATOM     77  O   UNL A   1      48.727  26.990  37.270  1.00  0.00    -0.744 OA
ENDBRANCH  73  74
ENDBRANCH  52  66
BRANCH  53  78
ATOM     78  C   UNL A   1      36.607  33.103  30.872  1.00  0.00     0.058 A 
ATOM     79  C   UNL A   1      36.867  34.015  29.838  1.00  0.00     0.135 A 
ATOM     80  C   UNL A   1      35.269  32.903  31.244  1.00  0.00     0.135 A 
ATOM     81  F   UNL A   1      38.130  34.253  29.451  1.00  0.00    -0.206 F 
ATOM     82  C   UNL A   1      35.844  34.723  29.217  1.00  0.00     0.059 A 
ATOM     83  C   UNL A   1      34.225  33.580  30.619  1.00  0.00     0.059 A 
ATOM     84  F   UNL A   1      34.968  32.033  32.221  1.00  0.00    -0.206 F 
ATOM     85  C   UNL A   1      34.525  34.503  29.619  1.00  0.00     0.060 A 
BRANCH  85  86
ATOM     86  S   UNL A   1      33.216  35.454  28.817  1.00  0.00     0.124 S 
ATOM     87  O   UNL A   1      33.987  36.452  28.084  1.00  0.00    -0.237 OA
ATOM     88  O   UNL A   1      32.556  34.437  28.004  1.00  0.00    -0.237 OA
ATOM     89  O   UNL A   1      32.433  35.963  29.938  1.00  0.00    -0.744 OA
ENDBRANCH  85  86
ENDBRANCH  53  78
BRANCH  65  90
ATOM     90  C   UNL A   1      39.694  34.015  37.078  1.00  0.00     0.058 A 
ATOM     91  C   UNL A   1      40.326  35.268  37.025  1.00  0.00     0.135 A 
ATOM     92  C   UNL A   1      38.934  33.712  38.219  1.00  0.00     0.135 A 
ATOM     93  F   UNL A   1      41.072  35.606  35.961  1.00  0.00    -0.206 F 
ATOM     94  C   UNL A   1      40.225  36.179  38.070  1.00  0.00     0.059 A 
ATOM     95  C   UNL A   1      38.793  34.621  39.262  1.00  0.00     0.059 A 
ATOM     96  F   UNL A   1      38.302  32.532  38.314  1.00  0.00    -0.206 F 
ATOM     97  C   UNL A   1      39.455  35.847  39.185  1.00  0.00     0.060 A 
BRANCH  97  98
ATOM     98  S   UNL A   1      39.310  37.055  40.518  1.00  0.00     0.124 S 
ATOM     99  O   UNL A   1      40.701  37.444  40.723  1.00  0.00    -0.237 OA
ATOM    100  O   UNL A   1      38.449  38.071  39.921  1.00  0.00    -0.237 OA
ATOM    101  O   UNL A   1      38.704  36.291  41.604  1.00  0.00    -0.744 OA
ENDBRANCH  97  98
ENDBRANCH  65  90
ENDBRANCH  39  40
ENDBRANCH  31  34
ENDBRANCH  29  30
ENDBRANCH  28  29
ENDBRANCH   1  28
TORSDOF 20
ENDMDL
MODEL 2
REMARK VINA RESULT:     -11.5      6.136     10.802
REMARK SMILES Cc1nc(Nc2ccc(F)cc2)nc(OCC(=O)NCCCNC(=O)c2ccc(-c3c4nc(c(-c5c(F)cc(S(=O)(=O)[O-])cc5F)c5ccc([nH]5)c(-c5c(F)cc(S(=O)(=O)[O-])cc5F)c5nc(c(-c6c(F)cc(S(=O)(=O)[O-])cc6F)c6ccc3[nH]6)C=C5)C=C4)cc2)c1CCO
REMARK SMILES IDX 20 1 19 2 17 3 18 4 16 6 15 7 14 8 1 9 2 10 3 11 92 12 4 13
REMARK SMILES IDX 13 14 93 15 94 16 95 17 5 19 6 21 7 22 12 23 8 24 11 25 9 26
REMARK SMILES IDX 10 27 21 28 22 29 23 30 24 31 25 33 26 34 27 35 91 36 28 37
REMARK SMILES IDX 90 38 29 39 30 40 31 41 84 42 32 43 89 44 83 45 85 46 33 47
REMARK SMILES IDX 88 48 82 49 81 50 34 52 68 53 47 54 67 55 48 56 51 57 66 58
REMARK SMILES IDX 86 59 49 60 50 61 65 63 87 64 52 65 35 66 36 67 45 68 37 69
REMARK SMILES IDX 38 70 44 71 46 72 39 73 40 74 41 75 42 76 43 77 69 78 70 79
REMARK SMILES IDX 79 80 71 81 72 82 78 83 80 84 73 85 74 86 75 87 76 88 77 89
REMARK SMILES IDX 53 90 54 91 63 92 55 93 56 94 62 95 64 96 57 97 58 98 59 99
REMARK SMILES IDX 60 100 61 101
REMARK H PARENT 19 5 95 18 5 20 23 32 85 51 51 62
REMARK Flexibility Score: inf
ROOT
ATOM      1  C   UNL A   1      36.791  20.527  25.234  1.00  0.00     0.117 C 
ENDROOT
BRANCH   1   2
ATOM      2  N   UNL A   1      36.982  21.887  25.691  1.00  0.00    -0.353 N 
ATOM      3  C   UNL A   1      36.767  23.047  25.020  1.00  0.00     0.258 C 
ATOM      4  O   UNL A   1      36.970  24.102  25.625  1.00  0.00    -0.271 OA
ATOM      5  H   UNL A   1      37.313  21.983  26.613  1.00  0.00     0.163 HD
BRANCH   3   6
ATOM      6  C   UNL A   1      36.212  23.014  23.590  1.00  0.00     0.331 C 
BRANCH   6   7
ATOM      7  O   UNL A   1      35.213  23.910  23.158  1.00  0.00    -0.467 OA
BRANCH   7   8
ATOM      8  C   UNL A   1      33.883  23.742  23.379  1.00  0.00     0.222 A 
ATOM      9  C   UNL A   1      30.320  24.972  23.463  1.00  0.00     0.067 C 
ATOM     10  C   UNL A   1      31.589  24.175  23.527  1.00  0.00     0.050 A 
ATOM     11  N   UNL A   1      31.373  22.898  23.879  1.00  0.00    -0.218 NA
ATOM     12  C   UNL A   1      32.870  24.696  23.345  1.00  0.00     0.038 A 
ATOM     13  C   UNL A   1      32.414  22.090  24.068  1.00  0.00     0.230 A 
ATOM     14  N   UNL A   1      33.663  22.469  23.788  1.00  0.00    -0.177 NA
BRANCH  12  15
ATOM     15  C   UNL A   1      33.077  26.184  23.252  1.00  0.00     0.071 C 
BRANCH  15  16
ATOM     16  C   UNL A   1      33.603  26.844  24.534  1.00  0.00     0.161 C 
BRANCH  16  17
ATOM     17  O   UNL A   1      34.354  25.970  25.364  1.00  0.00    -0.396 OA
ATOM     18  H   UNL A   1      35.213  26.373  25.564  1.00  0.00     0.210 HD
ENDBRANCH  16  17
ENDBRANCH  15  16
ENDBRANCH  12  15
BRANCH  13  19
ATOM     19  N   UNL A   1      32.208  20.865  24.705  1.00  0.00    -0.324 N 
ATOM     20  H   UNL A   1      31.709  20.891  25.553  1.00  0.00     0.170 HD
BRANCH  19  21
ATOM     21  C   UNL A   1      32.632  19.601  24.269  1.00  0.00     0.041 A 
ATOM     22  C   UNL A   1      33.533  18.837  25.029  1.00  0.00     0.029 A 
ATOM     23  C   UNL A   1      32.279  19.134  22.993  1.00  0.00     0.029 A 
ATOM     24  C   UNL A   1      34.064  17.643  24.539  1.00  0.00     0.041 A 
ATOM     25  C   UNL A   1      32.826  17.949  22.489  1.00  0.00     0.041 A 
ATOM     26  C   UNL A   1      33.715  17.216  23.267  1.00  0.00     0.123 A 
ATOM     27  F   UNL A   1      34.257  16.094  22.773  1.00  0.00    -0.207 F 
ENDBRANCH  19  21
ENDBRANCH  13  19
ENDBRANCH   7   8
ENDBRANCH   6   7
ENDBRANCH   3   6
ENDBRANCH   1   2
BRANCH   1  28
ATOM     28  C   UNL A   1      38.111  19.849  24.903  1.00  0.00     0.042 C 
BRANCH  28  29
ATOM     29  C   UNL A   1      39.278  20.299  25.778  1.00  0.00     0.118 C 
BRANCH  29  30
ATOM     30  N   UNL A   1      40.268  19.249  25.990  1.00  0.00    -0.352 N 
ATOM     31  C   UNL A   1      41.623  19.330  26.177  1.00  0.00     0.251 C 
ATOM     32  H   UNL A   1      39.904  18.334  26.000  1.00  0.00     0.163 HD
ATOM     33  O   UNL A   1      42.302  18.303  26.134  1.00  0.00    -0.269 OA
BRANCH  31  34
ATOM     34  C   UNL A   1      42.267  20.636  26.411  1.00  0.00     0.039 A 
ATOM     35  C   UNL A   1      42.712  21.378  25.315  1.00  0.00     0.014 A 
ATOM     36  C   UNL A   1      42.446  21.124  27.708  1.00  0.00     0.014 A 
ATOM     37  C   UNL A   1      43.275  22.638  25.519  1.00  0.00     0.010 A 
ATOM     38  C   UNL A   1      42.917  22.417  27.903  1.00  0.00     0.010 A 
ATOM     39  C   UNL A   1      43.348  23.184  26.812  1.00  0.00    -0.014 A 
BRANCH  39  40
ATOM     40  C   UNL A   1      43.878  24.552  27.037  1.00  0.00     0.031 A 
ATOM     41  C   UNL A   1      42.948  25.669  27.427  1.00  0.00     0.074 A 
ATOM     42  C   UNL A   1      45.190  24.794  26.848  1.00  0.00     0.049 A 
ATOM     43  N   UNL A   1      43.219  26.931  27.639  1.00  0.00    -0.248 NA
ATOM     44  C   UNL A   1      41.521  25.333  27.574  1.00  0.00     0.031 C 
ATOM     45  C   UNL A   1      46.178  23.801  26.419  1.00  0.00     0.029 A 
ATOM     46  N   UNL A   1      45.921  25.946  26.994  1.00  0.00    -0.354 N 
ATOM     47  C   UNL A   1      42.004  27.536  27.937  1.00  0.00     0.074 A 
ATOM     48  C   UNL A   1      40.983  26.520  27.814  1.00  0.00     0.031 C 
ATOM     49  C   UNL A   1      47.391  24.377  26.379  1.00  0.00     0.029 A 
ATOM     50  C   UNL A   1      47.263  25.785  26.737  1.00  0.00     0.049 A 
ATOM     51  H   UNL A   1      45.522  26.807  27.258  1.00  0.00     0.167 HD
ATOM     52  C   UNL A   1      41.765  28.814  28.311  1.00  0.00     0.037 A 
ATOM     53  C   UNL A   1      48.276  26.672  26.788  1.00  0.00     0.037 A 
ATOM     54  C   UNL A   1      42.792  29.814  28.454  1.00  0.00     0.049 A 
ATOM     55  C   UNL A   1      47.985  28.088  27.204  1.00  0.00     0.074 A 
ATOM     56  C   UNL A   1      42.660  31.127  28.868  1.00  0.00     0.029 A 
ATOM     57  N   UNL A   1      44.139  29.611  28.189  1.00  0.00    -0.354 N 
ATOM     58  N   UNL A   1      46.837  28.631  27.529  1.00  0.00    -0.248 NA
ATOM     59  C   UNL A   1      49.128  29.009  27.268  1.00  0.00     0.031 C 
ATOM     60  C   UNL A   1      43.919  31.732  28.809  1.00  0.00     0.029 A 
ATOM     61  C   UNL A   1      44.847  30.780  28.415  1.00  0.00     0.049 A 
ATOM     62  H   UNL A   1      44.534  28.762  27.885  1.00  0.00     0.167 HD
ATOM     63  C   UNL A   1      47.121  29.950  27.864  1.00  0.00     0.074 A 
ATOM     64  C   UNL A   1      48.551  30.118  27.712  1.00  0.00     0.031 C 
ATOM     65  C   UNL A   1      46.274  30.931  28.263  1.00  0.00     0.037 A 
BRANCH  52  66
ATOM     66  C   UNL A   1      40.342  29.205  28.611  1.00  0.00     0.058 A 
ATOM     67  C   UNL A   1      39.887  29.292  29.936  1.00  0.00     0.135 A 
ATOM     68  C   UNL A   1      39.412  29.437  27.584  1.00  0.00     0.135 A 
ATOM     69  F   UNL A   1      40.733  29.088  30.958  1.00  0.00    -0.206 F 
ATOM     70  C   UNL A   1      38.558  29.583  30.231  1.00  0.00     0.059 A 
ATOM     71  C   UNL A   1      38.085  29.758  27.857  1.00  0.00     0.059 A 
ATOM     72  F   UNL A   1      39.798  29.388  26.299  1.00  0.00    -0.206 F 
ATOM     73  C   UNL A   1      37.665  29.813  29.185  1.00  0.00     0.060 A 
BRANCH  73  74
ATOM     74  S   UNL A   1      35.952  30.218  29.588  1.00  0.00     0.124 S 
ATOM     75  O   UNL A   1      35.217  29.402  28.627  1.00  0.00    -0.237 OA
ATOM     76  O   UNL A   1      35.859  29.799  30.983  1.00  0.00    -0.237 OA
ATOM     77  O   UNL A   1      35.885  31.660  29.370  1.00  0.00    -0.744 OA
ENDBRANCH  73  74
ENDBRANCH  52  66
BRANCH  53  78
ATOM     78  C   UNL A   1      49.661  26.224  26.481  1.00  0.00     0.058 A 
ATOM     79  C   UNL A   1      50.521  25.764  27.490  1.00  0.00     0.135 A 
ATOM     80  C   UNL A   1      50.169  26.297  25.175  1.00  0.00     0.135 A 
ATOM     81  F   UNL A   1      50.089  25.686  28.759  1.00  0.00    -0.206 F 
ATOM     82  C   UNL A   1      51.841  25.418  27.221  1.00  0.00     0.059 A 
ATOM     83  C   UNL A   1      51.478  25.931  24.876  1.00  0.00     0.059 A 
ATOM     84  F   UNL A   1      49.382  26.722  24.173  1.00  0.00    -0.206 F 
ATOM     85  C   UNL A   1      52.312  25.511  25.911  1.00  0.00     0.060 A 
BRANCH  85  86
ATOM     86  S   UNL A   1      54.036  25.082  25.589  1.00  0.00     0.124 S 
ATOM     87  O   UNL A   1      54.488  26.241  24.826  1.00  0.00    -0.237 OA
ATOM     88  O   UNL A   1      54.577  24.961  26.940  1.00  0.00    -0.237 OA
ATOM     89  O   UNL A   1      53.940  23.834  24.839  1.00  0.00    -0.744 OA
ENDBRANCH  85  86
ENDBRANCH  53  78
BRANCH  65  90
ATOM     90  C   UNL A   1      46.867  32.272  28.600  1.00  0.00     0.058 A 
ATOM     91  C   UNL A   1      46.981  33.264  27.612  1.00  0.00     0.135 A 
ATOM     92  C   UNL A   1      47.383  32.554  29.874  1.00  0.00     0.135 A 
ATOM     93  F   UNL A   1      46.512  33.043  26.373  1.00  0.00    -0.206 F 
ATOM     94  C   UNL A   1      47.598  34.482  27.871  1.00  0.00     0.059 A 
ATOM     95  C   UNL A   1      47.976  33.779  30.165  1.00  0.00     0.059 A 
ATOM     96  F   UNL A   1      47.292  31.644  30.856  1.00  0.00    -0.206 F 
ATOM     97  C   UNL A   1      48.092  34.731  29.152  1.00  0.00     0.060 A 
BRANCH  97  98
ATOM     98  S   UNL A   1      48.862  36.331  29.479  1.00  0.00     0.124 S 
ATOM     99  O   UNL A   1      48.562  37.064  28.253  1.00  0.00    -0.237 OA
ATOM    100  O   UNL A   1      48.153  36.776  30.674  1.00  0.00    -0.237 OA
ATOM    101  O   UNL A   1      50.268  35.995  29.682  1.00  0.00    -0.744 OA
ENDBRANCH  97  98
ENDBRANCH  65  90
ENDBRANCH  39  40
ENDBRANCH  31  34
ENDBRANCH  29  30
ENDBRANCH  28  29
ENDBRANCH   1  28
TORSDOF 20
ENDMDL
MODEL 3
REMARK VINA RESULT:     -11.5      5.907      8.292
REMARK SMILES Cc1nc(Nc2ccc(F)cc2)nc(OCC(=O)NCCCNC(=O)c2ccc(-c3c4nc(c(-c5c(F)cc(S(=O)(=O)[O-])cc5F)c5ccc([nH]5)c(-c5c(F)cc(S(=O)(=O)[O-])cc5F)c5nc(c(-c6c(F)cc(S(=O)(=O)[O-])cc6F)c6ccc3[nH]6)C=C5)C=C4)cc2)c1CCO
REMARK SMILES IDX 20 1 19 2 17 3 18 4 16 6 15 7 14 8 1 9 2 10 3 11 92 12 4 13
REMARK SMILES IDX 13 14 93 15 94 16 95 17 5 19 6 21 7 22 12 23 8 24 11 25 9 26
REMARK SMILES IDX 10 27 21 28 22 29 23 30 24 31 25 33 26 34 27 35 91 36 28 37
REMARK SMILES IDX 90 38 29 39 30 40 31 41 84 42 32 43 89 44 83 45 85 46 33 47
REMARK SMILES IDX 88 48 82 49 81 50 34 52 68 53 47 54 67 55 48 56 51 57 66 58
REMARK SMILES IDX 86 59 49 60 50 61 65 63 87 64 52 65 35 66 36 67 45 68 37 69
REMARK SMILES IDX 38 70 44 71 46 72 39 73 40 74 41 75 42 76 43 77 69 78 70 79
REMARK SMILES IDX 79 80 71 81 72 82 78 83 80 84 73 85 74 86 75 87 76 88 77 89
REMARK SMILES IDX 53 90 54 91 63 92 55 93 56 94 62 95 64 96 57 97 58 98 59 99
REMARK SMILES IDX 60 100 61 101
REMARK H PARENT 19 5 95 18 5 20 23 32 85 51 51 62
REMARK Flexibility Score: inf
ROOT
ATOM      1  C   UNL A   1      36.668  20.627  25.509  1.00  0.00     0.117 C 
ENDROOT
BRANCH   1   2
ATOM      2  N   UNL A   1      36.939  22.018  25.806  1.00  0.00    -0.353 N 
ATOM      3  C   UNL A   1      36.718  23.111  25.033  1.00  0.00     0.258 C 
ATOM      4  O   UNL A   1      37.000  24.213  25.508  1.00  0.00    -0.271 OA
ATOM      5  H   UNL A   1      37.338  22.195  26.689  1.00  0.00     0.163 HD
BRANCH   3   6
ATOM      6  C   UNL A   1      36.062  22.954  23.654  1.00  0.00     0.331 C 
BRANCH   6   7
ATOM      7  O   UNL A   1      34.707  23.274  23.433  1.00  0.00    -0.467 OA
BRANCH   7   8
ATOM      8  C   UNL A   1      33.671  22.765  24.152  1.00  0.00     0.222 A 
ATOM      9  C   UNL A   1      31.113  22.932  26.917  1.00  0.00     0.067 C 
ATOM     10  C   UNL A   1      31.972  22.556  25.745  1.00  0.00     0.050 A 
ATOM     11  N   UNL A   1      31.614  21.380  25.205  1.00  0.00    -0.218 NA
ATOM     12  C   UNL A   1      33.083  23.276  25.306  1.00  0.00     0.038 A 
ATOM     13  C   UNL A   1      32.343  20.870  24.216  1.00  0.00     0.230 A 
ATOM     14  N   UNL A   1      33.340  21.552  23.648  1.00  0.00    -0.177 NA
BRANCH  12  15
ATOM     15  C   UNL A   1      33.619  24.419  26.126  1.00  0.00     0.071 C 
BRANCH  15  16
ATOM     16  C   UNL A   1      33.377  25.810  25.528  1.00  0.00     0.161 C 
BRANCH  16  17
ATOM     17  O   UNL A   1      32.171  26.421  25.965  1.00  0.00    -0.396 OA
ATOM     18  H   UNL A   1      32.177  27.359  25.719  1.00  0.00     0.210 HD
ENDBRANCH  16  17
ENDBRANCH  15  16
ENDBRANCH  12  15
BRANCH  13  19
ATOM     19  N   UNL A   1      32.148  19.535  23.855  1.00  0.00    -0.324 N 
ATOM     20  H   UNL A   1      31.388  19.349  23.258  1.00  0.00     0.170 HD
BRANCH  19  21
ATOM     21  C   UNL A   1      32.916  18.430  24.250  1.00  0.00     0.041 A 
ATOM     22  C   UNL A   1      32.456  17.545  25.240  1.00  0.00     0.029 A 
ATOM     23  C   UNL A   1      34.225  18.267  23.770  1.00  0.00     0.029 A 
ATOM     24  C   UNL A   1      33.270  16.524  25.734  1.00  0.00     0.041 A 
ATOM     25  C   UNL A   1      35.052  17.258  24.280  1.00  0.00     0.041 A 
ATOM     26  C   UNL A   1      34.566  16.399  25.258  1.00  0.00     0.123 A 
ATOM     27  F   UNL A   1      35.368  15.450  25.761  1.00  0.00    -0.207 F 
ENDBRANCH  19  21
ENDBRANCH  13  19
ENDBRANCH   7   8
ENDBRANCH   6   7
ENDBRANCH   3   6
ENDBRANCH   1   2
BRANCH   1  28
ATOM     28  C   UNL A   1      37.923  19.886  25.076  1.00  0.00     0.042 C 
BRANCH  28  29
ATOM     29  C   UNL A   1      39.208  20.417  25.705  1.00  0.00     0.118 C 
BRANCH  29  30
ATOM     30  N   UNL A   1      40.206  19.376  25.925  1.00  0.00    -0.352 N 
ATOM     31  C   UNL A   1      41.555  19.470  26.149  1.00  0.00     0.251 C 
ATOM     32  H   UNL A   1      39.854  18.456  25.910  1.00  0.00     0.163 HD
ATOM     33  O   UNL A   1      42.247  18.452  26.107  1.00  0.00    -0.269 OA
BRANCH  31  34
ATOM     34  C   UNL A   1      42.176  20.780  26.422  1.00  0.00     0.039 A 
ATOM     35  C   UNL A   1      42.540  21.594  25.347  1.00  0.00     0.014 A 
ATOM     36  C   UNL A   1      42.412  21.201  27.733  1.00  0.00     0.014 A 
ATOM     37  C   UNL A   1      43.080  22.857  25.592  1.00  0.00     0.010 A 
ATOM     38  C   UNL A   1      42.858  22.495  27.975  1.00  0.00     0.010 A 
ATOM     39  C   UNL A   1      43.208  23.333  26.908  1.00  0.00    -0.014 A 
BRANCH  39  40
ATOM     40  C   UNL A   1      43.713  24.702  27.181  1.00  0.00     0.031 A 
ATOM     41  C   UNL A   1      45.170  25.023  26.984  1.00  0.00     0.074 A 
ATOM     42  C   UNL A   1      42.866  25.640  27.647  1.00  0.00     0.049 A 
ATOM     43  N   UNL A   1      45.801  26.148  27.196  1.00  0.00    -0.248 NA
ATOM     44  C   UNL A   1      46.039  23.932  26.512  1.00  0.00     0.031 C 
ATOM     45  C   UNL A   1      41.444  25.430  27.927  1.00  0.00     0.029 A 
ATOM     46  N   UNL A   1      43.074  26.958  27.966  1.00  0.00    -0.354 N 
ATOM     47  C   UNL A   1      47.135  25.901  26.890  1.00  0.00     0.074 A 
ATOM     48  C   UNL A   1      47.235  24.501  26.542  1.00  0.00     0.031 C 
ATOM     49  C   UNL A   1      40.899  26.588  28.333  1.00  0.00     0.029 A 
ATOM     50  C   UNL A   1      41.938  27.612  28.384  1.00  0.00     0.049 A 
ATOM     51  H   UNL A   1      43.954  27.396  27.901  1.00  0.00     0.167 HD
ATOM     52  C   UNL A   1      48.173  26.768  26.869  1.00  0.00     0.037 A 
ATOM     53  C   UNL A   1      41.753  28.892  28.762  1.00  0.00     0.037 A 
ATOM     54  C   UNL A   1      48.058  28.166  27.196  1.00  0.00     0.049 A 
ATOM     55  C   UNL A   1      42.923  29.836  28.733  1.00  0.00     0.074 A 
ATOM     56  C   UNL A   1      49.040  29.138  27.166  1.00  0.00     0.029 A 
ATOM     57  N   UNL A   1      46.889  28.790  27.610  1.00  0.00    -0.354 N 
ATOM     58  N   UNL A   1      44.167  29.596  28.394  1.00  0.00    -0.248 NA
ATOM     59  C   UNL A   1      42.664  31.227  29.130  1.00  0.00     0.031 C 
ATOM     60  C   UNL A   1      48.479  30.340  27.606  1.00  0.00     0.029 A 
ATOM     61  C   UNL A   1      47.131  30.132  27.854  1.00  0.00     0.049 A 
ATOM     62  H   UNL A   1      46.017  28.346  27.715  1.00  0.00     0.167 HD
ATOM     63  C   UNL A   1      44.834  30.810  28.508  1.00  0.00     0.074 A 
ATOM     64  C   UNL A   1      43.852  31.785  28.938  1.00  0.00     0.031 C 
ATOM     65  C   UNL A   1      46.141  31.092  28.277  1.00  0.00     0.037 A 
BRANCH  52  66
ATOM     66  C   UNL A   1      49.522  26.239  26.465  1.00  0.00     0.058 A 
ATOM     67  C   UNL A   1      50.361  25.620  27.405  1.00  0.00     0.135 A 
ATOM     68  C   UNL A   1      50.012  26.395  25.157  1.00  0.00     0.135 A 
ATOM     69  F   UNL A   1      49.944  25.437  28.668  1.00  0.00    -0.206 F 
ATOM     70  C   UNL A   1      51.640  25.188  27.067  1.00  0.00     0.059 A 
ATOM     71  C   UNL A   1      51.276  25.943  24.789  1.00  0.00     0.059 A 
ATOM     72  F   UNL A   1      49.244  26.960  24.211  1.00  0.00    -0.206 F 
ATOM     73  C   UNL A   1      52.089  25.354  25.757  1.00  0.00     0.060 A 
BRANCH  73  74
ATOM     74  S   UNL A   1      53.739  24.760  25.329  1.00  0.00     0.124 S 
ATOM     75  O   UNL A   1      54.485  25.040  26.550  1.00  0.00    -0.237 OA
ATOM     76  O   UNL A   1      53.492  23.351  25.041  1.00  0.00    -0.237 OA
ATOM     77  O   UNL A   1      54.102  25.572  24.170  1.00  0.00    -0.744 OA
ENDBRANCH  73  74
ENDBRANCH  52  66
BRANCH  53  78
ATOM     78  C   UNL A   1      40.394  29.354  29.150  1.00  0.00     0.058 A 
ATOM     79  C   UNL A   1      39.422  29.659  28.185  1.00  0.00     0.135 A 
ATOM     80  C   UNL A   1      40.058  29.550  30.499  1.00  0.00     0.135 A 
ATOM     81  F   UNL A   1      39.696  29.503  26.880  1.00  0.00    -0.206 F 
ATOM     82  C   UNL A   1      38.176  30.167  28.540  1.00  0.00     0.059 A 
ATOM     83  C   UNL A   1      38.808  30.031  30.880  1.00  0.00     0.059 A 
ATOM     84  F   UNL A   1      40.950  29.263  31.460  1.00  0.00    -0.206 F 
ATOM     85  C   UNL A   1      37.881  30.355  29.891  1.00  0.00     0.060 A 
BRANCH  85  86
ATOM     86  S   UNL A   1      36.268  31.039  30.327  1.00  0.00     0.124 S 
ATOM     87  O   UNL A   1      35.885  30.190  31.450  1.00  0.00    -0.237 OA
ATOM     88  O   UNL A   1      36.603  32.420  30.660  1.00  0.00    -0.237 OA
ATOM     89  O   UNL A   1      35.485  30.861  29.109  1.00  0.00    -0.744 OA
ENDBRANCH  85  86
ENDBRANCH  53  78
BRANCH  65  90
ATOM     90  C   UNL A   1      46.588  32.518  28.449  1.00  0.00     0.058 A 
ATOM     91  C   UNL A   1      46.549  33.408  27.363  1.00  0.00     0.135 A 
ATOM     92  C   UNL A   1      47.117  32.987  29.662  1.00  0.00     0.135 A 
ATOM     93  F   UNL A   1      46.062  33.008  26.177  1.00  0.00    -0.206 F 
ATOM     94  C   UNL A   1      47.031  34.708  27.468  1.00  0.00     0.059 A 
ATOM     95  C   UNL A   1      47.575  34.294  29.799  1.00  0.00     0.059 A 
ATOM     96  F   UNL A   1      47.168  32.180  30.732  1.00  0.00    -0.206 F 
ATOM     97  C   UNL A   1      47.541  35.142  28.692  1.00  0.00     0.060 A 
BRANCH  97  98
ATOM     98  S   UNL A   1      48.133  36.843  28.819  1.00  0.00     0.124 S 
ATOM     99  O   UNL A   1      47.475  37.300  30.038  1.00  0.00    -0.237 OA
ATOM    100  O   UNL A   1      49.579  36.660  28.909  1.00  0.00    -0.237 OA
ATOM    101  O   UNL A   1      47.663  37.458  27.582  1.00  0.00    -0.744 OA
ENDBRANCH  97  98
ENDBRANCH  65  90
ENDBRANCH  39  40
ENDBRANCH  31  34
ENDBRANCH  29  30
ENDBRANCH  28  29
ENDBRANCH   1  28
TORSDOF 20
ENDMDL
