MODEL 1
REMARK VINA RESULT:     -10.9      0.000      0.000
REMARK SMILES CC[C@@](C)([NH3+])C(=O)N1CC[NH+]([C@H](C)C(=O)NCCCNC(=O)c2ccc(-c3c4nc(c(-c5c(F)cc(S(=O)(=O)[O-])cc5F)c5ccc([nH]5)c(-c5c(F)cc(S(=O)(=O)[O-])cc5F)c5nc(c(-c6c(F)cc(S(=O)(=O)[O-])cc6F)c6ccc3[nH]6)C=C5)C=C4)cc2)CC1
REMARK SMILES IDX 18 1 17 2 16 3 14 4 15 5 12 7 13 8 11 9 6 10 7 11 8 12 9 13
REMARK SMILES IDX 90 14 10 15 89 16 3 18 4 19 2 20 1 21 5 22 19 26 20 27 21 28
REMARK SMILES IDX 22 30 23 31 24 32 88 33 25 34 87 35 26 36 27 37 28 38 81 39
REMARK SMILES IDX 29 40 86 41 80 42 82 43 30 44 85 45 79 46 78 47 31 49 65 50
REMARK SMILES IDX 44 51 64 52 45 53 48 54 63 55 83 56 46 57 47 58 62 60 84 61
REMARK SMILES IDX 49 62 32 63 33 64 42 65 34 66 35 67 41 68 43 69 36 70 37 71
REMARK SMILES IDX 38 72 39 73 40 74 66 75 67 76 76 77 68 78 69 79 75 80 77 81
REMARK SMILES IDX 70 82 71 83 72 84 73 85 74 86 50 87 51 88 60 89 52 90 53 91
REMARK SMILES IDX 59 92 61 93 54 94 55 95 56 96 57 97 58 98
REMARK H PARENT 16 6 11 17 5 23 5 24 5 25 20 29 82 48 48 59
REMARK Flexibility Score: inf
ROOT
ATOM      1  C   UNL A   1      32.997  27.171  26.349  1.00  0.00     0.042 C 
ENDROOT
BRANCH   1   2
ATOM      2  C   UNL A   1      32.246  27.295  25.046  1.00  0.00     0.118 C 
BRANCH   2   3
ATOM      3  N   UNL A   1      33.086  27.442  23.876  1.00  0.00    -0.351 N 
ATOM      4  C   UNL A   1      33.364  26.548  22.877  1.00  0.00     0.278 C 
ATOM      5  O   UNL A   1      33.927  26.995  21.872  1.00  0.00    -0.268 OA
ATOM      6  H   UNL A   1      33.525  28.319  23.783  1.00  0.00     0.163 HD
BRANCH   4   7
ATOM      7  C   UNL A   1      33.044  25.038  23.001  1.00  0.00     0.271 C 
ATOM      8  C   UNL A   1      32.821  24.404  21.615  1.00  0.00     0.086 C 
BRANCH   7   9
ATOM      9  N   UNL A   1      33.846  24.324  24.043  1.00  0.00    -0.322 N 
ATOM     10  C   UNL A   1      35.022  20.573  25.125  1.00  0.00     0.283 C 
ATOM     11  O   UNL A   1      36.167  20.136  24.939  1.00  0.00    -0.268 OA
ATOM     12  N   UNL A   1      34.862  21.933  25.336  1.00  0.00    -0.326 N 
ATOM     13  C   UNL A   1      35.807  22.839  24.697  1.00  0.00     0.181 C 
ATOM     14  C   UNL A   1      33.779  22.670  25.978  1.00  0.00     0.181 C 
ATOM     15  C   UNL A   1      35.041  23.592  23.593  1.00  0.00     0.284 C 
ATOM     16  C   UNL A   1      33.000  23.522  24.954  1.00  0.00     0.284 C 
ATOM     17  H   UNL A   1      34.251  25.096  24.573  1.00  0.00     0.348 HD
BRANCH  10  18
ATOM     18  C   UNL A   1      33.785  19.617  24.899  1.00  0.00     0.171 C 
ATOM     19  C   UNL A   1      32.823  20.255  23.883  1.00  0.00     0.090 C 
BRANCH  18  20
ATOM     20  C   UNL A   1      34.264  18.225  24.380  1.00  0.00     0.075 C 
ATOM     21  C   UNL A   1      33.326  17.501  23.412  1.00  0.00     0.011 C 
ENDBRANCH  18  20
BRANCH  18  22
ATOM     22  N   UNL A   1      33.052  19.363  26.166  1.00  0.00    -0.345 N 
ATOM     23  H   UNL A   1      33.633  19.643  26.957  1.00  0.00     0.345 HD
ATOM     24  H   UNL A   1      32.834  18.370  26.240  1.00  0.00     0.345 HD
ATOM     25  H   UNL A   1      32.187  19.904  26.173  1.00  0.00     0.345 HD
ENDBRANCH  18  22
ENDBRANCH  10  18
ENDBRANCH   7   9
ENDBRANCH   4   7
ENDBRANCH   2   3
ENDBRANCH   1   2
BRANCH   1  26
ATOM     26  C   UNL A   1      34.186  28.104  26.438  1.00  0.00     0.118 C 
BRANCH  26  27
ATOM     27  N   UNL A   1      33.848  29.419  26.975  1.00  0.00    -0.352 N 
ATOM     28  C   UNL A   1      34.554  30.266  27.800  1.00  0.00     0.251 C 
ATOM     29  H   UNL A   1      32.965  29.758  26.700  1.00  0.00     0.163 HD
ATOM     30  O   UNL A   1      34.003  31.252  28.270  1.00  0.00    -0.269 OA
BRANCH  28  31
ATOM     31  C   UNL A   1      35.965  29.967  28.131  1.00  0.00     0.039 A 
ATOM     32  C   UNL A   1      36.284  29.443  29.386  1.00  0.00     0.014 A 
ATOM     33  C   UNL A   1      36.975  30.201  27.200  1.00  0.00     0.014 A 
ATOM     34  C   UNL A   1      37.608  29.095  29.668  1.00  0.00     0.010 A 
ATOM     35  C   UNL A   1      38.247  29.702  27.418  1.00  0.00     0.010 A 
ATOM     36  C   UNL A   1      38.594  29.188  28.671  1.00  0.00    -0.014 A 
BRANCH  36  37
ATOM     37  C   UNL A   1      40.010  28.831  28.932  1.00  0.00     0.031 A 
ATOM     38  C   UNL A   1      40.933  29.852  29.552  1.00  0.00     0.074 A 
ATOM     39  C   UNL A   1      40.479  27.624  28.560  1.00  0.00     0.049 A 
ATOM     40  N   UNL A   1      42.212  29.764  29.808  1.00  0.00    -0.248 NA
ATOM     41  C   UNL A   1      40.352  31.165  29.889  1.00  0.00     0.031 C 
ATOM     42  C   UNL A   1      39.703  26.582  27.882  1.00  0.00     0.029 A 
ATOM     43  N   UNL A   1      41.725  27.067  28.700  1.00  0.00    -0.354 N 
ATOM     44  C   UNL A   1      42.585  31.008  30.306  1.00  0.00     0.074 A 
ATOM     45  C   UNL A   1      41.422  31.861  30.236  1.00  0.00     0.031 C 
ATOM     46  C   UNL A   1      40.478  25.499  27.707  1.00  0.00     0.029 A 
ATOM     47  C   UNL A   1      41.812  25.780  28.225  1.00  0.00     0.049 A 
ATOM     48  H   UNL A   1      42.485  27.545  29.104  1.00  0.00     0.167 HD
ATOM     49  C   UNL A   1      43.775  31.396  30.820  1.00  0.00     0.037 A 
ATOM     50  C   UNL A   1      42.851  24.923  28.218  1.00  0.00     0.037 A 
ATOM     51  C   UNL A   1      44.912  30.523  30.934  1.00  0.00     0.049 A 
ATOM     52  C   UNL A   1      44.154  25.362  28.831  1.00  0.00     0.074 A 
ATOM     53  C   UNL A   1      46.147  30.787  31.497  1.00  0.00     0.029 A 
ATOM     54  N   UNL A   1      44.947  29.212  30.482  1.00  0.00    -0.354 N 
ATOM     55  N   UNL A   1      44.469  26.521  29.361  1.00  0.00    -0.248 NA
ATOM     56  C   UNL A   1      45.235  24.370  28.864  1.00  0.00     0.031 C 
ATOM     57  C   UNL A   1      46.946  29.648  31.346  1.00  0.00     0.029 A 
ATOM     58  C   UNL A   1      46.188  28.656  30.742  1.00  0.00     0.049 A 
ATOM     59  H   UNL A   1      44.200  28.746  30.043  1.00  0.00     0.167 HD
ATOM     60  C   UNL A   1      45.774  26.386  29.821  1.00  0.00     0.074 A 
ATOM     61  C   UNL A   1      46.181  25.028  29.519  1.00  0.00     0.031 C 
ATOM     62  C   UNL A   1      46.567  27.299  30.438  1.00  0.00     0.037 A 
BRANCH  49  63
ATOM     63  C   UNL A   1      43.894  32.815  31.312  1.00  0.00     0.058 A 
ATOM     64  C   UNL A   1      44.398  33.841  30.494  1.00  0.00     0.135 A 
ATOM     65  C   UNL A   1      43.485  33.158  32.609  1.00  0.00     0.135 A 
ATOM     66  F   UNL A   1      44.825  33.570  29.251  1.00  0.00    -0.206 F 
ATOM     67  C   UNL A   1      44.524  35.147  30.957  1.00  0.00     0.059 A 
ATOM     68  C   UNL A   1      43.570  34.465  33.082  1.00  0.00     0.059 A 
ATOM     69  F   UNL A   1      43.000  32.218  33.437  1.00  0.00    -0.206 F 
ATOM     70  C   UNL A   1      44.106  35.448  32.254  1.00  0.00     0.060 A 
BRANCH  70  71
ATOM     71  S   UNL A   1      44.267  37.150  32.835  1.00  0.00     0.124 S 
ATOM     72  O   UNL A   1      43.860  37.902  31.652  1.00  0.00    -0.237 OA
ATOM     73  O   UNL A   1      43.336  37.184  33.958  1.00  0.00    -0.237 OA
ATOM     74  O   UNL A   1      45.678  37.255  33.191  1.00  0.00    -0.744 OA
ENDBRANCH  70  71
ENDBRANCH  49  63
BRANCH  50  75
ATOM     75  C   UNL A   1      42.687  23.555  27.655  1.00  0.00     0.058 A 
ATOM     76  C   UNL A   1      42.997  23.283  26.315  1.00  0.00     0.135 A 
ATOM     77  C   UNL A   1      42.229  22.491  28.448  1.00  0.00     0.135 A 
ATOM     78  F   UNL A   1      43.437  24.266  25.515  1.00  0.00    -0.206 F 
ATOM     79  C   UNL A   1      42.836  22.012  25.770  1.00  0.00     0.059 A 
ATOM     80  C   UNL A   1      42.088  21.205  27.935  1.00  0.00     0.059 A 
ATOM     81  F   UNL A   1      41.941  22.691  29.743  1.00  0.00    -0.206 F 
ATOM     82  C   UNL A   1      42.382  20.979  26.591  1.00  0.00     0.060 A 
BRANCH  82  83
ATOM     83  S   UNL A   1      42.216  19.324  25.886  1.00  0.00     0.124 S 
ATOM     84  O   UNL A   1      43.020  19.437  24.675  1.00  0.00    -0.237 OA
ATOM     85  O   UNL A   1      42.766  18.484  26.945  1.00  0.00    -0.237 OA
ATOM     86  O   UNL A   1      40.776  19.191  25.678  1.00  0.00    -0.744 OA
ENDBRANCH  82  83
ENDBRANCH  50  75
BRANCH  62  87
ATOM     87  C   UNL A   1      47.932  26.841  30.870  1.00  0.00     0.058 A 
ATOM     88  C   UNL A   1      48.173  26.333  32.156  1.00  0.00     0.135 A 
ATOM     89  C   UNL A   1      49.012  26.896  29.974  1.00  0.00     0.135 A 
ATOM     90  F   UNL A   1      47.175  26.259  33.052  1.00  0.00    -0.206 F 
ATOM     91  C   UNL A   1      49.446  25.940  32.554  1.00  0.00     0.059 A 
ATOM     92  C   UNL A   1      50.285  26.476  30.338  1.00  0.00     0.059 A 
ATOM     93  F   UNL A   1      48.832  27.357  28.725  1.00  0.00    -0.206 F 
ATOM     94  C   UNL A   1      50.497  26.021  31.639  1.00  0.00     0.060 A 
BRANCH  94  95
ATOM     95  S   UNL A   1      52.147  25.517  32.169  1.00  0.00     0.124 S 
ATOM     96  O   UNL A   1      52.975  26.060  31.097  1.00  0.00    -0.237 OA
ATOM     97  O   UNL A   1      52.275  26.176  33.464  1.00  0.00    -0.237 OA
ATOM     98  O   UNL A   1      52.058  24.061  32.218  1.00  0.00    -0.744 OA
ENDBRANCH  94  95
ENDBRANCH  62  87
ENDBRANCH  36  37
ENDBRANCH  28  31
ENDBRANCH  26  27
ENDBRANCH   1  26
TORSDOF 17
ENDMDL
MODEL 2
REMARK VINA RESULT:     -10.9      0.929      2.043
REMARK SMILES CC[C@@](C)([NH3+])C(=O)N1CC[NH+]([C@H](C)C(=O)NCCCNC(=O)c2ccc(-c3c4nc(c(-c5c(F)cc(S(=O)(=O)[O-])cc5F)c5ccc([nH]5)c(-c5c(F)cc(S(=O)(=O)[O-])cc5F)c5nc(c(-c6c(F)cc(S(=O)(=O)[O-])cc6F)c6ccc3[nH]6)C=C5)C=C4)cc2)CC1
REMARK SMILES IDX 18 1 17 2 16 3 14 4 15 5 12 7 13 8 11 9 6 10 7 11 8 12 9 13
REMARK SMILES IDX 90 14 10 15 89 16 3 18 4 19 2 20 1 21 5 22 19 26 20 27 21 28
REMARK SMILES IDX 22 30 23 31 24 32 88 33 25 34 87 35 26 36 27 37 28 38 81 39
REMARK SMILES IDX 29 40 86 41 80 42 82 43 30 44 85 45 79 46 78 47 31 49 65 50
REMARK SMILES IDX 44 51 64 52 45 53 48 54 63 55 83 56 46 57 47 58 62 60 84 61
REMARK SMILES IDX 49 62 32 63 33 64 42 65 34 66 35 67 41 68 43 69 36 70 37 71
REMARK SMILES IDX 38 72 39 73 40 74 66 75 67 76 76 77 68 78 69 79 75 80 77 81
REMARK SMILES IDX 70 82 71 83 72 84 73 85 74 86 50 87 51 88 60 89 52 90 53 91
REMARK SMILES IDX 59 92 61 93 54 94 55 95 56 96 57 97 58 98
REMARK H PARENT 16 6 11 17 5 23 5 24 5 25 20 29 82 48 48 59
REMARK Flexibility Score: inf
ROOT
ATOM      1  C   UNL A   1      34.010  27.825  25.835  1.00  0.00     0.042 C 
ENDROOT
BRANCH   1   2
ATOM      2  C   UNL A   1      32.856  27.590  24.893  1.00  0.00     0.118 C 
BRANCH   2   3
ATOM      3  N   UNL A   1      31.605  27.254  25.542  1.00  0.00    -0.351 N 
ATOM      4  C   UNL A   1      31.009  26.035  25.720  1.00  0.00     0.278 C 
ATOM      5  O   UNL A   1      30.057  25.991  26.507  1.00  0.00    -0.268 OA
ATOM      6  H   UNL A   1      31.107  28.019  25.911  1.00  0.00     0.163 HD
BRANCH   4   7
ATOM      7  C   UNL A   1      31.454  24.770  24.945  1.00  0.00     0.271 C 
ATOM      8  C   UNL A   1      31.432  25.016  23.425  1.00  0.00     0.086 C 
BRANCH   7   9
ATOM      9  N   UNL A   1      32.589  24.030  25.579  1.00  0.00    -0.322 N 
ATOM     10  C   UNL A   1      34.675  20.541  25.261  1.00  0.00     0.283 C 
ATOM     11  O   UNL A   1      35.812  20.467  24.773  1.00  0.00    -0.268 OA
ATOM     12  N   UNL A   1      34.308  21.714  25.901  1.00  0.00    -0.326 N 
ATOM     13  C   UNL A   1      34.895  22.961  25.430  1.00  0.00     0.181 C 
ATOM     14  C   UNL A   1      33.274  21.963  26.899  1.00  0.00     0.181 C 
ATOM     15  C   UNL A   1      33.773  23.763  24.745  1.00  0.00     0.284 C 
ATOM     16  C   UNL A   1      32.137  22.832  26.321  1.00  0.00     0.284 C 
ATOM     17  H   UNL A   1      32.946  24.711  26.250  1.00  0.00     0.348 HD
BRANCH  10  18
ATOM     18  C   UNL A   1      33.626  19.402  24.949  1.00  0.00     0.171 C 
ATOM     19  C   UNL A   1      32.551  19.942  23.991  1.00  0.00     0.090 C 
BRANCH  18  20
ATOM     20  C   UNL A   1      34.339  18.169  24.312  1.00  0.00     0.075 C 
ATOM     21  C   UNL A   1      33.458  17.220  23.496  1.00  0.00     0.011 C 
ENDBRANCH  18  20
BRANCH  18  22
ATOM     22  N   UNL A   1      32.968  18.912  26.188  1.00  0.00    -0.345 N 
ATOM     23  H   UNL A   1      32.243  18.237  25.944  1.00  0.00     0.345 HD
ATOM     24  H   UNL A   1      32.547  19.698  26.683  1.00  0.00     0.345 HD
ATOM     25  H   UNL A   1      33.661  18.464  26.788  1.00  0.00     0.345 HD
ENDBRANCH  18  22
ENDBRANCH  10  18
ENDBRANCH   7   9
ENDBRANCH   4   7
ENDBRANCH   2   3
ENDBRANCH   1   2
BRANCH   1  26
ATOM     26  C   UNL A   1      33.568  28.139  27.248  1.00  0.00     0.118 C 
BRANCH  26  27
ATOM     27  N   UNL A   1      33.475  29.570  27.519  1.00  0.00    -0.352 N 
ATOM     28  C   UNL A   1      34.397  30.452  28.037  1.00  0.00     0.251 C 
ATOM     29  H   UNL A   1      32.606  29.975  27.292  1.00  0.00     0.163 HD
ATOM     30  O   UNL A   1      34.047  31.584  28.343  1.00  0.00    -0.269 OA
BRANCH  28  31
ATOM     31  C   UNL A   1      35.797  30.021  28.241  1.00  0.00     0.039 A 
ATOM     32  C   UNL A   1      36.714  30.128  27.193  1.00  0.00     0.014 A 
ATOM     33  C   UNL A   1      36.209  29.513  29.472  1.00  0.00     0.014 A 
ATOM     34  C   UNL A   1      38.051  29.787  27.412  1.00  0.00     0.010 A 
ATOM     35  C   UNL A   1      37.556  29.338  29.734  1.00  0.00     0.010 A 
ATOM     36  C   UNL A   1      38.490  29.425  28.696  1.00  0.00    -0.014 A 
BRANCH  36  37
ATOM     37  C   UNL A   1      39.901  29.053  28.969  1.00  0.00     0.031 A 
ATOM     38  C   UNL A   1      40.828  30.066  29.596  1.00  0.00     0.074 A 
ATOM     39  C   UNL A   1      40.360  27.841  28.602  1.00  0.00     0.049 A 
ATOM     40  N   UNL A   1      42.104  29.965  29.862  1.00  0.00    -0.248 NA
ATOM     41  C   UNL A   1      40.258  31.385  29.927  1.00  0.00     0.031 C 
ATOM     42  C   UNL A   1      39.579  26.807  27.918  1.00  0.00     0.029 A 
ATOM     43  N   UNL A   1      41.599  27.272  28.752  1.00  0.00    -0.354 N 
ATOM     44  C   UNL A   1      42.485  31.207  30.362  1.00  0.00     0.074 A 
ATOM     45  C   UNL A   1      41.332  32.070  30.281  1.00  0.00     0.031 C 
ATOM     46  C   UNL A   1      40.344  25.716  27.750  1.00  0.00     0.029 A 
ATOM     47  C   UNL A   1      41.677  25.984  28.279  1.00  0.00     0.049 A 
ATOM     48  H   UNL A   1      42.361  27.744  29.162  1.00  0.00     0.167 HD
ATOM     49  C   UNL A   1      43.676  31.583  30.886  1.00  0.00     0.037 A 
ATOM     50  C   UNL A   1      42.707  25.117  28.281  1.00  0.00     0.037 A 
ATOM     51  C   UNL A   1      44.803  30.699  31.009  1.00  0.00     0.049 A 
ATOM     52  C   UNL A   1      44.010  25.543  28.905  1.00  0.00     0.074 A 
ATOM     53  C   UNL A   1      46.036  30.951  31.582  1.00  0.00     0.029 A 
ATOM     54  N   UNL A   1      44.828  29.387  30.559  1.00  0.00    -0.354 N 
ATOM     55  N   UNL A   1      44.332  26.700  29.436  1.00  0.00    -0.248 NA
ATOM     56  C   UNL A   1      45.081  24.540  28.948  1.00  0.00     0.031 C 
ATOM     57  C   UNL A   1      46.824  29.803  31.438  1.00  0.00     0.029 A 
ATOM     58  C   UNL A   1      46.061  28.819  30.830  1.00  0.00     0.049 A 
ATOM     59  H   UNL A   1      44.080  28.927  30.114  1.00  0.00     0.167 HD
ATOM     60  C   UNL A   1      45.632  26.552  29.907  1.00  0.00     0.074 A 
ATOM     61  C   UNL A   1      46.028  25.189  29.609  1.00  0.00     0.031 C 
ATOM     62  C   UNL A   1      46.429  27.458  30.529  1.00  0.00     0.037 A 
BRANCH  49  63
ATOM     63  C   UNL A   1      43.805  33.000  31.377  1.00  0.00     0.058 A 
ATOM     64  C   UNL A   1      43.471  33.361  32.694  1.00  0.00     0.135 A 
ATOM     65  C   UNL A   1      44.285  34.009  30.528  1.00  0.00     0.135 A 
ATOM     66  F   UNL A   1      42.987  32.443  33.545  1.00  0.00    -0.206 F 
ATOM     67  C   UNL A   1      43.574  34.675  33.139  1.00  0.00     0.059 A 
ATOM     68  C   UNL A   1      44.429  35.325  30.961  1.00  0.00     0.059 A 
ATOM     69  F   UNL A   1      44.615  33.725  29.257  1.00  0.00    -0.206 F 
ATOM     70  C   UNL A   1      44.056  35.650  32.264  1.00  0.00     0.060 A 
BRANCH  70  71
ATOM     71  S   UNL A   1      44.193  37.348  32.861  1.00  0.00     0.124 S 
ATOM     72  O   UNL A   1      45.477  37.309  33.555  1.00  0.00    -0.237 OA
ATOM     73  O   UNL A   1      44.167  38.117  31.621  1.00  0.00    -0.237 OA
ATOM     74  O   UNL A   1      43.021  37.503  33.716  1.00  0.00    -0.744 OA
ENDBRANCH  70  71
ENDBRANCH  49  63
BRANCH  50  75
ATOM     75  C   UNL A   1      42.534  23.750  27.719  1.00  0.00     0.058 A 
ATOM     76  C   UNL A   1      42.329  22.644  28.557  1.00  0.00     0.135 A 
ATOM     77  C   UNL A   1      42.558  23.523  26.334  1.00  0.00     0.135 A 
ATOM     78  F   UNL A   1      42.299  22.808  29.889  1.00  0.00    -0.206 F 
ATOM     79  C   UNL A   1      42.180  21.358  28.048  1.00  0.00     0.059 A 
ATOM     80  C   UNL A   1      42.381  22.251  25.799  1.00  0.00     0.059 A 
ATOM     81  F   UNL A   1      42.727  24.549  25.486  1.00  0.00    -0.206 F 
ATOM     82  C   UNL A   1      42.206  21.172  26.665  1.00  0.00     0.060 A 
BRANCH  82  83
ATOM     83  S   UNL A   1      41.969  19.505  26.010  1.00  0.00     0.124 S 
ATOM     84  O   UNL A   1      40.530  19.482  25.777  1.00  0.00    -0.237 OA
ATOM     85  O   UNL A   1      42.810  19.522  24.819  1.00  0.00    -0.237 OA
ATOM     86  O   UNL A   1      42.448  18.649  27.093  1.00  0.00    -0.744 OA
ENDBRANCH  82  83
ENDBRANCH  50  75
BRANCH  62  87
ATOM     87  C   UNL A   1      47.786  26.987  30.973  1.00  0.00     0.058 A 
ATOM     88  C   UNL A   1      48.919  27.108  30.154  1.00  0.00     0.135 A 
ATOM     89  C   UNL A   1      47.955  26.423  32.248  1.00  0.00     0.135 A 
ATOM     90  F   UNL A   1      48.812  27.640  28.926  1.00  0.00    -0.206 F 
ATOM     91  C   UNL A   1      50.164  26.641  30.564  1.00  0.00     0.059 A 
ATOM     92  C   UNL A   1      49.196  25.982  32.693  1.00  0.00     0.059 A 
ATOM     93  F   UNL A   1      46.908  26.301  33.079  1.00  0.00    -0.206 F 
ATOM     94  C   UNL A   1      50.291  26.075  31.833  1.00  0.00     0.060 A 
BRANCH  94  95
ATOM     95  S   UNL A   1      51.907  25.465  32.352  1.00  0.00     0.124 S 
ATOM     96  O   UNL A   1      51.703  24.021  32.306  1.00  0.00    -0.237 OA
ATOM     97  O   UNL A   1      52.792  26.013  31.329  1.00  0.00    -0.237 OA
ATOM     98  O   UNL A   1      52.074  26.033  33.686  1.00  0.00    -0.744 OA
ENDBRANCH  94  95
ENDBRANCH  62  87
ENDBRANCH  36  37
ENDBRANCH  28  31
ENDBRANCH  26  27
ENDBRANCH   1  26
TORSDOF 17
ENDMDL
MODEL 3
REMARK VINA RESULT:     -10.8      4.998     10.821
REMARK SMILES CC[C@@](C)([NH3+])C(=O)N1CC[NH+]([C@H](C)C(=O)NCCCNC(=O)c2ccc(-c3c4nc(c(-c5c(F)cc(S(=O)(=O)[O-])cc5F)c5ccc([nH]5)c(-c5c(F)cc(S(=O)(=O)[O-])cc5F)c5nc(c(-c6c(F)cc(S(=O)(=O)[O-])cc6F)c6ccc3[nH]6)C=C5)C=C4)cc2)CC1
REMARK SMILES IDX 18 1 17 2 16 3 14 4 15 5 12 7 13 8 11 9 6 10 7 11 8 12 9 13
REMARK SMILES IDX 90 14 10 15 89 16 3 18 4 19 2 20 1 21 5 22 19 26 20 27 21 28
REMARK SMILES IDX 22 30 23 31 24 32 88 33 25 34 87 35 26 36 27 37 28 38 81 39
REMARK SMILES IDX 29 40 86 41 80 42 82 43 30 44 85 45 79 46 78 47 31 49 65 50
REMARK SMILES IDX 44 51 64 52 45 53 48 54 63 55 83 56 46 57 47 58 62 60 84 61
REMARK SMILES IDX 49 62 32 63 33 64 42 65 34 66 35 67 41 68 43 69 36 70 37 71
REMARK SMILES IDX 38 72 39 73 40 74 66 75 67 76 76 77 68 78 69 79 75 80 77 81
REMARK SMILES IDX 70 82 71 83 72 84 73 85 74 86 50 87 51 88 60 89 52 90 53 91
REMARK SMILES IDX 59 92 61 93 54 94 55 95 56 96 57 97 58 98
REMARK H PARENT 16 6 11 17 5 23 5 24 5 25 20 29 82 48 48 59
REMARK Flexibility Score: inf
ROOT
ATOM      1  C   UNL A   1      37.762  23.133  25.722  1.00  0.00     0.042 C 
ENDROOT
BRANCH   1   2
ATOM      2  C   UNL A   1      36.462  23.666  25.175  1.00  0.00     0.118 C 
BRANCH   2   3
ATOM      3  N   UNL A   1      35.332  23.546  26.074  1.00  0.00    -0.351 N 
ATOM      4  C   UNL A   1      34.001  23.766  25.845  1.00  0.00     0.278 C 
ATOM      5  O   UNL A   1      33.215  23.373  26.713  1.00  0.00    -0.268 OA
ATOM      6  H   UNL A   1      35.556  23.264  26.991  1.00  0.00     0.163 HD
BRANCH   4   7
ATOM      7  C   UNL A   1      33.486  24.515  24.591  1.00  0.00     0.271 C 
ATOM      8  C   UNL A   1      32.185  23.883  24.063  1.00  0.00     0.086 C 
BRANCH   7   9
ATOM      9  N   UNL A   1      33.634  26.002  24.661  1.00  0.00    -0.322 N 
ATOM     10  C   UNL A   1      31.484  29.433  24.174  1.00  0.00     0.283 C 
ATOM     11  O   UNL A   1      31.079  30.125  25.119  1.00  0.00    -0.268 OA
ATOM     12  N   UNL A   1      32.659  28.717  24.337  1.00  0.00    -0.326 N 
ATOM     13  C   UNL A   1      32.993  28.247  25.675  1.00  0.00     0.181 C 
ATOM     14  C   UNL A   1      33.587  28.183  23.346  1.00  0.00     0.181 C 
ATOM     15  C   UNL A   1      32.837  26.715  25.673  1.00  0.00     0.284 C 
ATOM     16  C   UNL A   1      33.557  26.640  23.328  1.00  0.00     0.284 C 
ATOM     17  H   UNL A   1      34.584  26.111  25.017  1.00  0.00     0.348 HD
BRANCH  10  18
ATOM     18  C   UNL A   1      30.548  29.217  22.919  1.00  0.00     0.171 C 
ATOM     19  C   UNL A   1      30.335  27.713  22.690  1.00  0.00     0.090 C 
BRANCH  18  20
ATOM     20  C   UNL A   1      29.174  29.924  23.141  1.00  0.00     0.075 C 
ATOM     21  C   UNL A   1      28.397  30.310  21.882  1.00  0.00     0.011 C 
ENDBRANCH  18  20
BRANCH  18  22
ATOM     22  N   UNL A   1      31.135  29.816  21.692  1.00  0.00    -0.345 N 
ATOM     23  H   UNL A   1      32.022  30.265  21.924  1.00  0.00     0.345 HD
ATOM     24  H   UNL A   1      30.492  30.509  21.312  1.00  0.00     0.345 HD
ATOM     25  H   UNL A   1      31.296  29.084  21.000  1.00  0.00     0.345 HD
ENDBRANCH  18  22
ENDBRANCH  10  18
ENDBRANCH   7   9
ENDBRANCH   4   7
ENDBRANCH   2   3
ENDBRANCH   1   2
BRANCH   1  26
ATOM     26  C   UNL A   1      38.554  24.173  26.486  1.00  0.00     0.118 C 
BRANCH  26  27
ATOM     27  N   UNL A   1      39.974  24.180  26.148  1.00  0.00    -0.352 N 
ATOM     28  C   UNL A   1      40.993  25.014  26.549  1.00  0.00     0.251 C 
ATOM     29  H   UNL A   1      40.250  23.467  25.527  1.00  0.00     0.163 HD
ATOM     30  O   UNL A   1      42.085  24.943  26.001  1.00  0.00    -0.269 OA
BRANCH  28  31
ATOM     31  C   UNL A   1      40.758  26.004  27.623  1.00  0.00     0.039 A 
ATOM     32  C   UNL A   1      39.765  25.766  28.577  1.00  0.00     0.014 A 
ATOM     33  C   UNL A   1      41.520  27.168  27.692  1.00  0.00     0.014 A 
ATOM     34  C   UNL A   1      39.594  26.669  29.630  1.00  0.00     0.010 A 
ATOM     35  C   UNL A   1      41.465  27.967  28.820  1.00  0.00     0.010 A 
ATOM     36  C   UNL A   1      40.469  27.759  29.779  1.00  0.00    -0.014 A 
BRANCH  36  37
ATOM     37  C   UNL A   1      40.320  28.740  30.882  1.00  0.00     0.031 A 
ATOM     38  C   UNL A   1      41.191  28.619  32.109  1.00  0.00     0.074 A 
ATOM     39  C   UNL A   1      39.370  29.693  30.810  1.00  0.00     0.049 A 
ATOM     40  N   UNL A   1      41.181  29.333  33.205  1.00  0.00    -0.248 NA
ATOM     41  C   UNL A   1      42.176  27.521  32.128  1.00  0.00     0.031 C 
ATOM     42  C   UNL A   1      38.416  29.862  29.711  1.00  0.00     0.029 A 
ATOM     43  N   UNL A   1      39.049  30.702  31.682  1.00  0.00    -0.354 N 
ATOM     44  C   UNL A   1      42.131  28.755  34.041  1.00  0.00     0.074 A 
ATOM     45  C   UNL A   1      42.636  27.583  33.366  1.00  0.00     0.031 C 
ATOM     46  C   UNL A   1      37.649  30.938  29.954  1.00  0.00     0.029 A 
ATOM     47  C   UNL A   1      38.030  31.511  31.240  1.00  0.00     0.049 A 
ATOM     48  H   UNL A   1      39.506  30.834  32.545  1.00  0.00     0.167 HD
ATOM     49  C   UNL A   1      42.579  29.186  35.243  1.00  0.00     0.037 A 
ATOM     50  C   UNL A   1      37.474  32.599  31.806  1.00  0.00     0.037 A 
ATOM     51  C   UNL A   1      42.106  30.384  35.883  1.00  0.00     0.049 A 
ATOM     52  C   UNL A   1      38.015  33.084  33.125  1.00  0.00     0.074 A 
ATOM     53  C   UNL A   1      42.533  30.952  37.069  1.00  0.00     0.029 A 
ATOM     54  N   UNL A   1      41.105  31.202  35.381  1.00  0.00    -0.354 N 
ATOM     55  N   UNL A   1      38.962  32.564  33.871  1.00  0.00    -0.248 NA
ATOM     56  C   UNL A   1      37.426  34.313  33.669  1.00  0.00     0.031 C 
ATOM     57  C   UNL A   1      41.758  32.092  37.307  1.00  0.00     0.029 A 
ATOM     58  C   UNL A   1      40.890  32.266  36.241  1.00  0.00     0.049 A 
ATOM     59  H   UNL A   1      40.620  31.050  34.539  1.00  0.00     0.167 HD
ATOM     60  C   UNL A   1      39.105  33.422  34.956  1.00  0.00     0.074 A 
ATOM     61  C   UNL A   1      38.157  34.501  34.758  1.00  0.00     0.031 C 
ATOM     62  C   UNL A   1      39.945  33.331  36.019  1.00  0.00     0.037 A 
BRANCH  49  63
ATOM     63  C   UNL A   1      43.641  28.366  35.927  1.00  0.00     0.058 A 
ATOM     64  C   UNL A   1      43.316  27.294  36.776  1.00  0.00     0.135 A 
ATOM     65  C   UNL A   1      45.001  28.642  35.718  1.00  0.00     0.135 A 
ATOM     66  F   UNL A   1      42.032  26.995  37.030  1.00  0.00    -0.206 F 
ATOM     67  C   UNL A   1      44.300  26.550  37.421  1.00  0.00     0.059 A 
ATOM     68  C   UNL A   1      46.003  27.889  36.326  1.00  0.00     0.059 A 
ATOM     69  F   UNL A   1      45.371  29.657  34.921  1.00  0.00    -0.206 F 
ATOM     70  C   UNL A   1      45.641  26.856  37.188  1.00  0.00     0.060 A 
BRANCH  70  71
ATOM     71  S   UNL A   1      46.904  25.874  38.024  1.00  0.00     0.124 S 
ATOM     72  O   UNL A   1      48.129  26.496  37.532  1.00  0.00    -0.237 OA
ATOM     73  O   UNL A   1      46.597  26.106  39.431  1.00  0.00    -0.237 OA
ATOM     74  O   UNL A   1      46.652  24.518  37.546  1.00  0.00    -0.744 OA
ENDBRANCH  70  71
ENDBRANCH  49  63
BRANCH  50  75
ATOM     75  C   UNL A   1      36.379  33.328  31.109  1.00  0.00     0.058 A 
ATOM     76  C   UNL A   1      36.643  34.125  29.985  1.00  0.00     0.135 A 
ATOM     77  C   UNL A   1      35.048  33.233  31.543  1.00  0.00     0.135 A 
ATOM     78  F   UNL A   1      37.900  34.250  29.532  1.00  0.00    -0.206 F 
ATOM     79  C   UNL A   1      35.633  34.824  29.331  1.00  0.00     0.059 A 
ATOM     80  C   UNL A   1      34.016  33.898  30.888  1.00  0.00     0.059 A 
ATOM     81  F   UNL A   1      34.737  32.465  32.598  1.00  0.00    -0.206 F 
ATOM     82  C   UNL A   1      34.321  34.702  29.790  1.00  0.00     0.060 A 
BRANCH  82  83
ATOM     83  S   UNL A   1      33.010  35.579  28.909  1.00  0.00     0.124 S 
ATOM     84  O   UNL A   1      32.366  34.492  28.182  1.00  0.00    -0.237 OA
ATOM     85  O   UNL A   1      32.242  36.161  30.004  1.00  0.00    -0.237 OA
ATOM     86  O   UNL A   1      33.743  36.540  28.089  1.00  0.00    -0.744 OA
ENDBRANCH  82  83
ENDBRANCH  50  75
BRANCH  62  87
ATOM     87  C   UNL A   1      39.907  34.452  37.021  1.00  0.00     0.058 A 
ATOM     88  C   UNL A   1      40.723  35.587  36.896  1.00  0.00     0.135 A 
ATOM     89  C   UNL A   1      39.025  34.394  38.112  1.00  0.00     0.135 A 
ATOM     90  F   UNL A   1      41.583  35.692  35.871  1.00  0.00    -0.206 F 
ATOM     91  C   UNL A   1      40.700  36.604  37.845  1.00  0.00     0.059 A 
ATOM     92  C   UNL A   1      38.959  35.414  39.053  1.00  0.00     0.059 A 
ATOM     93  F   UNL A   1      38.209  33.338  38.267  1.00  0.00    -0.206 F 
ATOM     94  C   UNL A   1      39.818  36.505  38.923  1.00  0.00     0.060 A 
BRANCH  94  95
ATOM     95  S   UNL A   1      39.804  37.825  40.153  1.00  0.00     0.124 S 
ATOM     96  O   UNL A   1      38.772  38.708  39.620  1.00  0.00    -0.237 OA
ATOM     97  O   UNL A   1      39.456  37.109  41.376  1.00  0.00    -0.237 OA
ATOM     98  O   UNL A   1      41.166  38.349  40.106  1.00  0.00    -0.744 OA
ENDBRANCH  94  95
ENDBRANCH  62  87
ENDBRANCH  36  37
ENDBRANCH  28  31
ENDBRANCH  26  27
ENDBRANCH   1  26
TORSDOF 17
ENDMDL
