MODEL 1
REMARK VINA RESULT:     -11.7      0.000      0.000
REMARK SMILES CC(C)N1C(=O)C[C@@H]([N@@H+]2CC[C@H](C(=O)NCCCNC(=O)c3ccc(-c4c5nc(c(-c6c(F)cc(S(=O)(=O)[O-])cc6F)c6ccc([nH]6)c(-c6c(F)cc(S(=O)(=O)[O-])cc6F)c6nc(c(-c7c(F)cc(S(=O)(=O)[O-])cc7F)c7ccc4[nH]7)C=C6)C=C5)cc3)[C@@H]2C)C1=O
REMARK SMILES IDX 17 1 16 2 15 3 13 4 14 5 12 7 9 8 10 9 88 10 11 12 89 13
REMARK SMILES IDX 8 14 4 15 5 16 90 17 6 18 7 19 91 20 2 21 1 22 3 23 18 24
REMARK SMILES IDX 19 25 20 26 21 28 22 29 23 30 87 31 24 32 86 33 25 34 26 35
REMARK SMILES IDX 27 36 80 37 28 38 85 39 79 40 81 41 29 42 84 43 78 44 77 45
REMARK SMILES IDX 30 47 64 48 43 49 63 50 44 51 47 52 62 53 82 54 45 55 46 56
REMARK SMILES IDX 61 58 83 59 48 60 31 61 32 62 41 63 33 64 34 65 40 66 42 67
REMARK SMILES IDX 35 68 36 69 37 70 38 71 39 72 65 73 66 74 75 75 67 76 68 77
REMARK SMILES IDX 74 78 76 79 69 80 70 81 71 82 72 83 73 84 49 85 50 86 59 87
REMARK SMILES IDX 51 88 52 89 58 90 60 91 53 92 54 93 55 94 56 95 57 96
REMARK H PARENT 15 6 9 11 19 27 81 46 47 57
REMARK Flexibility Score: inf
ROOT
ATOM      1  C   UNL A   1      32.206  28.040  26.659  1.00  0.00     0.042 C 
ENDROOT
BRANCH   1   2
ATOM      2  C   UNL A   1      32.378  27.124  25.455  1.00  0.00     0.117 C 
BRANCH   2   3
ATOM      3  N   UNL A   1      33.638  26.403  25.482  1.00  0.00    -0.356 N 
ATOM      4  C   UNL A   1      33.987  25.194  24.967  1.00  0.00     0.229 C 
ATOM      5  O   UNL A   1      35.164  24.846  25.088  1.00  0.00    -0.275 OA
ATOM      6  H   UNL A   1      34.365  26.870  25.956  1.00  0.00     0.163 HD
BRANCH   4   7
ATOM      7  C   UNL A   1      32.953  24.321  24.268  1.00  0.00     0.142 C 
ATOM      8  N   UNL A   1      33.247  21.937  24.532  1.00  0.00    -0.321 N 
ATOM      9  C   UNL A   1      34.154  22.401  23.482  1.00  0.00     0.264 C 
ATOM     10  C   UNL A   1      32.516  23.092  25.086  1.00  0.00     0.194 C 
ATOM     11  H   UNL A   1      32.537  21.335  24.114  1.00  0.00     0.349 HD
ATOM     12  C   UNL A   1      33.559  23.713  23.006  1.00  0.00     0.081 C 
ATOM     13  C   UNL A   1      32.469  23.309  26.599  1.00  0.00     0.076 C 
BRANCH   8  14
ATOM     14  C   UNL A   1      33.788  20.935  25.463  1.00  0.00     0.284 C 
ATOM     15  N   UNL A   1      34.478  18.840  24.634  1.00  0.00    -0.275 N 
ATOM     16  C   UNL A   1      35.632  19.517  24.921  1.00  0.00     0.236 C 
ATOM     17  C   UNL A   1      33.369  19.523  25.056  1.00  0.00     0.288 C 
ATOM     18  O   UNL A   1      36.771  19.103  24.758  1.00  0.00    -0.274 OA
ATOM     19  C   UNL A   1      35.305  20.831  25.554  1.00  0.00     0.176 C 
ATOM     20  O   UNL A   1      32.223  19.094  25.103  1.00  0.00    -0.267 OA
BRANCH  15  21
ATOM     21  C   UNL A   1      34.513  17.471  24.115  1.00  0.00     0.087 C 
ATOM     22  C   UNL A   1      34.206  16.463  25.223  1.00  0.00     0.031 C 
ATOM     23  C   UNL A   1      33.612  17.233  22.904  1.00  0.00     0.031 C 
ENDBRANCH  15  21
ENDBRANCH   8  14
ENDBRANCH   4   7
ENDBRANCH   2   3
ENDBRANCH   1   2
BRANCH   1  24
ATOM     24  C   UNL A   1      33.519  28.514  27.278  1.00  0.00     0.118 C 
BRANCH  24  25
ATOM     25  N   UNL A   1      33.497  29.925  27.641  1.00  0.00    -0.352 N 
ATOM     26  C   UNL A   1      34.458  30.702  28.241  1.00  0.00     0.251 C 
ATOM     27  H   UNL A   1      32.663  30.397  27.420  1.00  0.00     0.163 HD
ATOM     28  O   UNL A   1      34.167  31.830  28.629  1.00  0.00    -0.269 OA
BRANCH  26  29
ATOM     29  C   UNL A   1      35.827  30.179  28.442  1.00  0.00     0.039 A 
ATOM     30  C   UNL A   1      36.722  30.191  27.369  1.00  0.00     0.014 A 
ATOM     31  C   UNL A   1      36.224  29.667  29.680  1.00  0.00     0.014 A 
ATOM     32  C   UNL A   1      38.040  29.766  27.561  1.00  0.00     0.010 A 
ATOM     33  C   UNL A   1      37.554  29.318  29.889  1.00  0.00     0.010 A 
ATOM     34  C   UNL A   1      38.478  29.368  28.834  1.00  0.00    -0.014 A 
BRANCH  34  35
ATOM     35  C   UNL A   1      39.897  29.011  29.095  1.00  0.00     0.031 A 
ATOM     36  C   UNL A   1      40.853  30.054  29.608  1.00  0.00     0.074 A 
ATOM     37  C   UNL A   1      40.343  27.778  28.785  1.00  0.00     0.049 A 
ATOM     38  N   UNL A   1      42.148  29.978  29.771  1.00  0.00    -0.248 NA
ATOM     39  C   UNL A   1      40.280  31.364  29.955  1.00  0.00     0.031 C 
ATOM     40  C   UNL A   1      39.523  26.691  28.244  1.00  0.00     0.029 A 
ATOM     41  N   UNL A   1      41.602  27.234  28.857  1.00  0.00    -0.354 N 
ATOM     42  C   UNL A   1      42.548  31.231  30.220  1.00  0.00     0.074 A 
ATOM     43  C   UNL A   1      41.365  32.063  30.257  1.00  0.00     0.031 C 
ATOM     44  C   UNL A   1      40.295  25.610  28.047  1.00  0.00     0.029 A 
ATOM     45  C   UNL A   1      41.673  25.939  28.401  1.00  0.00     0.049 A 
ATOM     46  H   UNL A   1      42.381  27.726  29.204  1.00  0.00     0.167 HD
ATOM     47  C   UNL A   1      43.785  31.644  30.584  1.00  0.00     0.037 A 
ATOM     48  C   UNL A   1      42.730  25.113  28.262  1.00  0.00     0.037 A 
ATOM     49  C   UNL A   1      44.952  30.801  30.570  1.00  0.00     0.049 A 
ATOM     50  C   UNL A   1      44.097  25.599  28.661  1.00  0.00     0.074 A 
ATOM     51  C   UNL A   1      46.239  31.109  30.975  1.00  0.00     0.029 A 
ATOM     52  N   UNL A   1      44.977  29.488  30.124  1.00  0.00    -0.354 N 
ATOM     53  N   UNL A   1      44.448  26.771  29.136  1.00  0.00    -0.248 NA
ATOM     54  C   UNL A   1      45.211  24.654  28.510  1.00  0.00     0.031 C 
ATOM     55  C   UNL A   1      47.052  29.997  30.732  1.00  0.00     0.029 A 
ATOM     56  C   UNL A   1      46.261  28.979  30.225  1.00  0.00     0.049 A 
ATOM     57  H   UNL A   1      44.198  28.991  29.787  1.00  0.00     0.167 HD
ATOM     58  C   UNL A   1      45.816  26.693  29.369  1.00  0.00     0.074 A 
ATOM     59  C   UNL A   1      46.229  25.357  28.988  1.00  0.00     0.031 C 
ATOM     60  C   UNL A   1      46.654  27.641  29.857  1.00  0.00     0.037 A 
BRANCH  47  61
ATOM     61  C   UNL A   1      43.941  33.071  31.034  1.00  0.00     0.058 A 
ATOM     62  C   UNL A   1      43.841  33.434  32.387  1.00  0.00     0.135 A 
ATOM     63  C   UNL A   1      44.232  34.084  30.105  1.00  0.00     0.135 A 
ATOM     64  F   UNL A   1      43.551  32.509  33.315  1.00  0.00    -0.206 F 
ATOM     65  C   UNL A   1      43.993  34.754  32.800  1.00  0.00     0.059 A 
ATOM     66  C   UNL A   1      44.418  35.406  30.500  1.00  0.00     0.059 A 
ATOM     67  F   UNL A   1      44.340  33.794  28.799  1.00  0.00    -0.206 F 
ATOM     68  C   UNL A   1      44.282  35.733  31.848  1.00  0.00     0.060 A 
BRANCH  68  69
ATOM     69  S   UNL A   1      44.479  37.439  32.402  1.00  0.00     0.124 S 
ATOM     70  O   UNL A   1      43.497  37.510  33.479  1.00  0.00    -0.237 OA
ATOM     71  O   UNL A   1      45.878  37.473  32.816  1.00  0.00    -0.237 OA
ATOM     72  O   UNL A   1      44.162  38.223  31.212  1.00  0.00    -0.744 OA
ENDBRANCH  68  69
ENDBRANCH  47  61
BRANCH  48  73
ATOM     73  C   UNL A   1      42.533  23.739  27.730  1.00  0.00     0.058 A 
ATOM     74  C   UNL A   1      42.487  23.500  26.349  1.00  0.00     0.135 A 
ATOM     75  C   UNL A   1      42.402  22.635  28.588  1.00  0.00     0.135 A 
ATOM     76  F   UNL A   1      42.601  24.522  25.488  1.00  0.00    -0.206 F 
ATOM     77  C   UNL A   1      42.304  22.220  25.835  1.00  0.00     0.059 A 
ATOM     78  C   UNL A   1      42.244  21.343  28.099  1.00  0.00     0.059 A 
ATOM     79  F   UNL A   1      42.456  22.807  29.918  1.00  0.00    -0.206 F 
ATOM     80  C   UNL A   1      42.186  21.146  26.719  1.00  0.00     0.060 A 
BRANCH  80  81
ATOM     81  S   UNL A   1      42.000  19.483  26.041  1.00  0.00     0.124 S 
ATOM     82  O   UNL A   1      40.567  19.432  25.777  1.00  0.00    -0.237 OA
ATOM     83  O   UNL A   1      42.865  19.532  24.867  1.00  0.00    -0.237 OA
ATOM     84  O   UNL A   1      42.474  18.625  27.124  1.00  0.00    -0.744 OA
ENDBRANCH  80  81
ENDBRANCH  48  73
BRANCH  60  85
ATOM     85  C   UNL A   1      48.097  27.265  30.052  1.00  0.00     0.058 A 
ATOM     86  C   UNL A   1      49.058  27.481  29.053  1.00  0.00     0.135 A 
ATOM     87  C   UNL A   1      48.534  26.758  31.287  1.00  0.00     0.135 A 
ATOM     88  F   UNL A   1      48.690  27.954  27.852  1.00  0.00    -0.206 F 
ATOM     89  C   UNL A   1      50.403  27.199  29.268  1.00  0.00     0.059 A 
ATOM     90  C   UNL A   1      49.877  26.495  31.533  1.00  0.00     0.059 A 
ATOM     91  F   UNL A   1      47.656  26.542  32.278  1.00  0.00    -0.206 F 
ATOM     92  C   UNL A   1      50.805  26.713  30.515  1.00  0.00     0.060 A 
BRANCH  92  93
ATOM     93  S   UNL A   1      52.561  26.412  30.801  1.00  0.00     0.124 S 
ATOM     94  O   UNL A   1      53.059  26.261  29.438  1.00  0.00    -0.237 OA
ATOM     95  O   UNL A   1      52.977  27.625  31.497  1.00  0.00    -0.237 OA
ATOM     96  O   UNL A   1      52.571  25.197  31.611  1.00  0.00    -0.744 OA
ENDBRANCH  92  93
ENDBRANCH  60  85
ENDBRANCH  34  35
ENDBRANCH  26  29
ENDBRANCH  24  25
ENDBRANCH   1  24
TORSDOF 15
ENDMDL
MODEL 2
REMARK VINA RESULT:     -11.6      3.762      7.221
REMARK SMILES CC(C)N1C(=O)C[C@@H]([N@@H+]2CC[C@H](C(=O)NCCCNC(=O)c3ccc(-c4c5nc(c(-c6c(F)cc(S(=O)(=O)[O-])cc6F)c6ccc([nH]6)c(-c6c(F)cc(S(=O)(=O)[O-])cc6F)c6nc(c(-c7c(F)cc(S(=O)(=O)[O-])cc7F)c7ccc4[nH]7)C=C6)C=C5)cc3)[C@@H]2C)C1=O
REMARK SMILES IDX 17 1 16 2 15 3 13 4 14 5 12 7 9 8 10 9 88 10 11 12 89 13
REMARK SMILES IDX 8 14 4 15 5 16 90 17 6 18 7 19 91 20 2 21 1 22 3 23 18 24
REMARK SMILES IDX 19 25 20 26 21 28 22 29 23 30 87 31 24 32 86 33 25 34 26 35
REMARK SMILES IDX 27 36 80 37 28 38 85 39 79 40 81 41 29 42 84 43 78 44 77 45
REMARK SMILES IDX 30 47 64 48 43 49 63 50 44 51 47 52 62 53 82 54 45 55 46 56
REMARK SMILES IDX 61 58 83 59 48 60 31 61 32 62 41 63 33 64 34 65 40 66 42 67
REMARK SMILES IDX 35 68 36 69 37 70 38 71 39 72 65 73 66 74 75 75 67 76 68 77
REMARK SMILES IDX 74 78 76 79 69 80 70 81 71 82 72 83 73 84 49 85 50 86 59 87
REMARK SMILES IDX 51 88 52 89 58 90 60 91 53 92 54 93 55 94 56 95 57 96
REMARK H PARENT 15 6 9 11 19 27 81 46 47 57
REMARK Flexibility Score: inf
ROOT
ATOM      1  C   UNL A   1      34.417  32.865  29.742  1.00  0.00     0.042 C 
ENDROOT
BRANCH   1   2
ATOM      2  C   UNL A   1      34.543  34.367  29.952  1.00  0.00     0.117 C 
BRANCH   2   3
ATOM      3  N   UNL A   1      34.960  34.706  31.302  1.00  0.00    -0.356 N 
ATOM      4  C   UNL A   1      36.138  34.504  31.950  1.00  0.00     0.229 C 
ATOM      5  O   UNL A   1      36.239  34.955  33.093  1.00  0.00    -0.275 OA
ATOM      6  H   UNL A   1      34.269  35.158  31.840  1.00  0.00     0.163 HD
BRANCH   4   7
ATOM      7  C   UNL A   1      37.278  33.754  31.273  1.00  0.00     0.142 C 
ATOM      8  N   UNL A   1      38.849  32.677  32.759  1.00  0.00    -0.321 N 
ATOM      9  C   UNL A   1      39.196  34.096  32.670  1.00  0.00     0.264 C 
ATOM     10  C   UNL A   1      37.641  32.422  31.953  1.00  0.00     0.194 C 
ATOM     11  H   UNL A   1      39.592  32.128  32.326  1.00  0.00     0.349 HD
ATOM     12  C   UNL A   1      38.564  34.569  31.374  1.00  0.00     0.081 C 
ATOM     13  C   UNL A   1      36.460  31.670  32.569  1.00  0.00     0.076 C 
BRANCH   8  14
ATOM     14  C   UNL A   1      38.947  32.067  34.094  1.00  0.00     0.284 C 
ATOM     15  N   UNL A   1      40.904  30.899  34.692  1.00  0.00    -0.275 N 
ATOM     16  C   UNL A   1      40.955  32.077  35.387  1.00  0.00     0.236 C 
ATOM     17  C   UNL A   1      39.710  30.744  34.040  1.00  0.00     0.288 C 
ATOM     18  O   UNL A   1      41.849  32.431  36.142  1.00  0.00    -0.274 OA
ATOM     19  C   UNL A   1      39.700  32.857  35.157  1.00  0.00     0.176 C 
ATOM     20  O   UNL A   1      39.304  29.726  33.494  1.00  0.00    -0.267 OA
BRANCH  15  21
ATOM     21  C   UNL A   1      41.956  29.891  34.834  1.00  0.00     0.087 C 
ATOM     22  C   UNL A   1      41.544  28.816  35.842  1.00  0.00     0.031 C 
ATOM     23  C   UNL A   1      42.401  29.254  33.518  1.00  0.00     0.031 C 
ENDBRANCH  15  21
ENDBRANCH   8  14
ENDBRANCH   4   7
ENDBRANCH   2   3
ENDBRANCH   1   2
BRANCH   1  24
ATOM     24  C   UNL A   1      34.471  32.429  28.280  1.00  0.00     0.118 C 
BRANCH  24  25
ATOM     25  N   UNL A   1      33.887  31.112  28.060  1.00  0.00    -0.352 N 
ATOM     26  C   UNL A   1      34.487  29.881  27.958  1.00  0.00     0.251 C 
ATOM     27  H   UNL A   1      32.907  31.103  27.971  1.00  0.00     0.163 HD
ATOM     28  O   UNL A   1      33.826  28.916  27.585  1.00  0.00    -0.269 OA
BRANCH  26  29
ATOM     29  C   UNL A   1      35.923  29.719  28.272  1.00  0.00     0.039 A 
ATOM     30  C   UNL A   1      36.298  29.370  29.572  1.00  0.00     0.014 A 
ATOM     31  C   UNL A   1      36.898  29.922  27.293  1.00  0.00     0.014 A 
ATOM     32  C   UNL A   1      37.645  29.144  29.868  1.00  0.00     0.010 A 
ATOM     33  C   UNL A   1      38.228  29.621  27.568  1.00  0.00     0.010 A 
ATOM     34  C   UNL A   1      38.616  29.225  28.857  1.00  0.00    -0.014 A 
BRANCH  34  35
ATOM     35  C   UNL A   1      40.041  28.889  29.113  1.00  0.00     0.031 A 
ATOM     36  C   UNL A   1      40.980  29.943  29.638  1.00  0.00     0.074 A 
ATOM     37  C   UNL A   1      40.508  27.668  28.787  1.00  0.00     0.049 A 
ATOM     38  N   UNL A   1      42.276  29.887  29.799  1.00  0.00    -0.248 NA
ATOM     39  C   UNL A   1      40.384  31.238  30.001  1.00  0.00     0.031 C 
ATOM     40  C   UNL A   1      39.706  26.574  28.234  1.00  0.00     0.029 A 
ATOM     41  N   UNL A   1      41.777  27.145  28.852  1.00  0.00    -0.354 N 
ATOM     42  C   UNL A   1      42.655  31.141  30.263  1.00  0.00     0.074 A 
ATOM     43  C   UNL A   1      41.457  31.952  30.311  1.00  0.00     0.031 C 
ATOM     44  C   UNL A   1      40.497  25.510  28.022  1.00  0.00     0.029 A 
ATOM     45  C   UNL A   1      41.869  25.858  28.379  1.00  0.00     0.049 A 
ATOM     46  H   UNL A   1      42.548  27.647  29.204  1.00  0.00     0.167 HD
ATOM     47  C   UNL A   1      43.884  31.571  30.632  1.00  0.00     0.037 A 
ATOM     48  C   UNL A   1      42.940  25.053  28.228  1.00  0.00     0.037 A 
ATOM     49  C   UNL A   1      45.066  30.749  30.606  1.00  0.00     0.049 A 
ATOM     50  C   UNL A   1      44.299  25.557  28.633  1.00  0.00     0.074 A 
ATOM     51  C   UNL A   1      46.348  31.074  31.014  1.00  0.00     0.029 A 
ATOM     52  N   UNL A   1      45.113  29.442  30.144  1.00  0.00    -0.354 N 
ATOM     53  N   UNL A   1      44.630  26.729  29.122  1.00  0.00    -0.248 NA
ATOM     54  C   UNL A   1      45.430  24.634  28.469  1.00  0.00     0.031 C 
ATOM     55  C   UNL A   1      47.179  29.979  30.756  1.00  0.00     0.029 A 
ATOM     56  C   UNL A   1      46.406  28.954  30.237  1.00  0.00     0.049 A 
ATOM     57  H   UNL A   1      44.342  28.935  29.801  1.00  0.00     0.167 HD
ATOM     58  C   UNL A   1      46.000  26.671  29.353  1.00  0.00     0.074 A 
ATOM     59  C   UNL A   1      46.436  25.348  28.955  1.00  0.00     0.031 C 
ATOM     60  C   UNL A   1      46.822  27.628  29.852  1.00  0.00     0.037 A 
BRANCH  47  61
ATOM     61  C   UNL A   1      44.016  32.995  31.099  1.00  0.00     0.058 A 
ATOM     62  C   UNL A   1      44.287  34.044  30.206  1.00  0.00     0.135 A 
ATOM     63  C   UNL A   1      43.830  33.321  32.453  1.00  0.00     0.135 A 
ATOM     64  F   UNL A   1      44.488  33.787  28.903  1.00  0.00    -0.206 F 
ATOM     65  C   UNL A   1      44.402  35.360  30.641  1.00  0.00     0.059 A 
ATOM     66  C   UNL A   1      43.910  34.636  32.905  1.00  0.00     0.059 A 
ATOM     67  F   UNL A   1      43.568  32.359  33.351  1.00  0.00    -0.206 F 
ATOM     68  C   UNL A   1      44.211  35.645  31.994  1.00  0.00     0.060 A 
BRANCH  68  69
ATOM     69  S   UNL A   1      44.359  37.360  32.540  1.00  0.00     0.124 S 
ATOM     70  O   UNL A   1      44.137  38.082  31.291  1.00  0.00    -0.237 OA
ATOM     71  O   UNL A   1      43.293  37.464  33.531  1.00  0.00    -0.237 OA
ATOM     72  O   UNL A   1      45.716  37.431  33.073  1.00  0.00    -0.744 OA
ENDBRANCH  68  69
ENDBRANCH  47  61
BRANCH  48  73
ATOM     73  C   UNL A   1      42.767  23.681  27.680  1.00  0.00     0.058 A 
ATOM     74  C   UNL A   1      42.524  22.591  28.528  1.00  0.00     0.135 A 
ATOM     75  C   UNL A   1      42.826  23.434  26.299  1.00  0.00     0.135 A 
ATOM     76  F   UNL A   1      42.465  22.776  29.856  1.00  0.00    -0.206 F 
ATOM     77  C   UNL A   1      42.359  21.302  28.032  1.00  0.00     0.059 A 
ATOM     78  C   UNL A   1      42.638  22.158  25.776  1.00  0.00     0.059 A 
ATOM     79  F   UNL A   1      43.039  24.445  25.443  1.00  0.00    -0.206 F 
ATOM     80  C   UNL A   1      42.414  21.096  26.652  1.00  0.00     0.060 A 
BRANCH  80  81
ATOM     81  S   UNL A   1      42.148  19.428  26.015  1.00  0.00     0.124 S 
ATOM     82  O   UNL A   1      42.639  18.611  27.118  1.00  0.00    -0.237 OA
ATOM     83  O   UNL A   1      40.706  19.409  25.797  1.00  0.00    -0.237 OA
ATOM     84  O   UNL A   1      42.958  19.401  24.800  1.00  0.00    -0.744 OA
ENDBRANCH  80  81
ENDBRANCH  48  73
BRANCH  60  85
ATOM     85  C   UNL A   1      48.272  27.275  30.041  1.00  0.00     0.058 A 
ATOM     86  C   UNL A   1      49.217  27.466  29.022  1.00  0.00     0.135 A 
ATOM     87  C   UNL A   1      48.730  26.817  31.287  1.00  0.00     0.135 A 
ATOM     88  F   UNL A   1      48.828  27.893  27.810  1.00  0.00    -0.206 F 
ATOM     89  C   UNL A   1      50.567  27.206  29.229  1.00  0.00     0.059 A 
ATOM     90  C   UNL A   1      50.079  26.577  31.524  1.00  0.00     0.059 A 
ATOM     91  F   UNL A   1      47.867  26.626  32.296  1.00  0.00    -0.206 F 
ATOM     92  C   UNL A   1      50.991  26.769  30.487  1.00  0.00     0.060 A 
BRANCH  92  93
ATOM     93  S   UNL A   1      52.754  26.497  30.760  1.00  0.00     0.124 S 
ATOM     94  O   UNL A   1      52.743  25.284  31.571  1.00  0.00    -0.237 OA
ATOM     95  O   UNL A   1      53.261  26.347  29.400  1.00  0.00    -0.237 OA
ATOM     96  O   UNL A   1      53.183  27.709  31.452  1.00  0.00    -0.744 OA
ENDBRANCH  92  93
ENDBRANCH  60  85
ENDBRANCH  34  35
ENDBRANCH  26  29
ENDBRANCH  24  25
ENDBRANCH   1  24
TORSDOF 15
ENDMDL
MODEL 3
REMARK VINA RESULT:     -11.3      4.160     11.160
REMARK SMILES CC(C)N1C(=O)C[C@@H]([N@@H+]2CC[C@H](C(=O)NCCCNC(=O)c3ccc(-c4c5nc(c(-c6c(F)cc(S(=O)(=O)[O-])cc6F)c6ccc([nH]6)c(-c6c(F)cc(S(=O)(=O)[O-])cc6F)c6nc(c(-c7c(F)cc(S(=O)(=O)[O-])cc7F)c7ccc4[nH]7)C=C6)C=C5)cc3)[C@@H]2C)C1=O
REMARK SMILES IDX 17 1 16 2 15 3 13 4 14 5 12 7 9 8 10 9 88 10 11 12 89 13
REMARK SMILES IDX 8 14 4 15 5 16 90 17 6 18 7 19 91 20 2 21 1 22 3 23 18 24
REMARK SMILES IDX 19 25 20 26 21 28 22 29 23 30 87 31 24 32 86 33 25 34 26 35
REMARK SMILES IDX 27 36 80 37 28 38 85 39 79 40 81 41 29 42 84 43 78 44 77 45
REMARK SMILES IDX 30 47 64 48 43 49 63 50 44 51 47 52 62 53 82 54 45 55 46 56
REMARK SMILES IDX 61 58 83 59 48 60 31 61 32 62 41 63 33 64 34 65 40 66 42 67
REMARK SMILES IDX 35 68 36 69 37 70 38 71 39 72 65 73 66 74 75 75 67 76 68 77
REMARK SMILES IDX 74 78 76 79 69 80 70 81 71 82 72 83 73 84 49 85 50 86 59 87
REMARK SMILES IDX 51 88 52 89 58 90 60 91 53 92 54 93 55 94 56 95 57 96
REMARK H PARENT 15 6 9 11 19 27 81 46 47 57
REMARK Flexibility Score: inf
ROOT
ATOM      1  C   UNL A   1      41.734  21.804  25.784  1.00  0.00     0.042 C 
ENDROOT
BRANCH   1   2
ATOM      2  C   UNL A   1      42.832  20.869  26.273  1.00  0.00     0.117 C 
BRANCH   2   3
ATOM      3  N   UNL A   1      44.161  21.352  25.939  1.00  0.00    -0.356 N 
ATOM      4  C   UNL A   1      44.848  22.445  26.366  1.00  0.00     0.229 C 
ATOM      5  O   UNL A   1      46.003  22.582  25.958  1.00  0.00    -0.275 OA
ATOM      6  H   UNL A   1      44.646  20.792  25.290  1.00  0.00     0.163 HD
BRANCH   4   7
ATOM      7  C   UNL A   1      44.202  23.445  27.317  1.00  0.00     0.142 C 
ATOM      8  N   UNL A   1      45.148  25.668  27.295  1.00  0.00    -0.321 N 
ATOM      9  C   UNL A   1      45.994  24.814  28.129  1.00  0.00     0.264 C 
ATOM     10  C   UNL A   1      44.053  24.859  26.728  1.00  0.00     0.194 C 
ATOM     11  H   UNL A   1      44.698  26.367  27.888  1.00  0.00     0.349 HD
ATOM     12  C   UNL A   1      45.100  23.656  28.532  1.00  0.00     0.081 C 
ATOM     13  C   UNL A   1      43.770  24.906  25.226  1.00  0.00     0.076 C 
BRANCH   8  14
ATOM     14  C   UNL A   1      45.848  26.619  26.418  1.00  0.00     0.284 C 
ATOM     15  N   UNL A   1      46.247  28.814  27.175  1.00  0.00    -0.275 N 
ATOM     16  C   UNL A   1      47.462  28.186  27.220  1.00  0.00     0.236 C 
ATOM     17  C   UNL A   1      45.291  28.032  26.583  1.00  0.00     0.288 C 
ATOM     18  O   UNL A   1      48.516  28.680  27.594  1.00  0.00    -0.274 OA
ATOM     19  C   UNL A   1      47.340  26.806  26.660  1.00  0.00     0.176 C 
ATOM     20  O   UNL A   1      44.170  28.386  26.238  1.00  0.00    -0.267 OA
BRANCH  15  21
ATOM     21  C   UNL A   1      46.108  30.221  27.554  1.00  0.00     0.087 C 
ATOM     22  C   UNL A   1      46.089  31.118  26.315  1.00  0.00     0.031 C 
ATOM     23  C   UNL A   1      44.906  30.517  28.451  1.00  0.00     0.031 C 
ENDBRANCH  15  21
ENDBRANCH   8  14
ENDBRANCH   4   7
ENDBRANCH   2   3
ENDBRANCH   1   2
BRANCH   1  24
ATOM     24  C   UNL A   1      40.433  21.713  26.579  1.00  0.00     0.118 C 
BRANCH  24  25
ATOM     25  N   UNL A   1      39.286  22.236  25.848  1.00  0.00    -0.352 N 
ATOM     26  C   UNL A   1      38.642  23.445  25.954  1.00  0.00     0.251 C 
ATOM     27  H   UNL A   1      38.914  21.628  25.170  1.00  0.00     0.163 HD
ATOM     28  O   UNL A   1      37.575  23.615  25.370  1.00  0.00    -0.269 OA
BRANCH  26  29
ATOM     29  C   UNL A   1      39.214  24.528  26.783  1.00  0.00     0.039 A 
ATOM     30  C   UNL A   1      40.091  25.443  26.194  1.00  0.00     0.014 A 
ATOM     31  C   UNL A   1      38.898  24.635  28.140  1.00  0.00     0.014 A 
ATOM     32  C   UNL A   1      40.584  26.513  26.946  1.00  0.00     0.010 A 
ATOM     33  C   UNL A   1      39.326  25.743  28.864  1.00  0.00     0.010 A 
ATOM     34  C   UNL A   1      40.171  26.696  28.274  1.00  0.00    -0.014 A 
BRANCH  34  35
ATOM     35  C   UNL A   1      40.593  27.879  29.068  1.00  0.00     0.031 A 
ATOM     36  C   UNL A   1      41.895  27.854  29.824  1.00  0.00     0.074 A 
ATOM     37  C   UNL A   1      39.764  28.936  29.184  1.00  0.00     0.049 A 
ATOM     38  N   UNL A   1      42.374  28.725  30.673  1.00  0.00    -0.248 NA
ATOM     39  C   UNL A   1      42.757  26.679  29.617  1.00  0.00     0.031 C 
ATOM     40  C   UNL A   1      38.458  29.064  28.533  1.00  0.00     0.029 A 
ATOM     41  N   UNL A   1      39.885  30.097  29.908  1.00  0.00    -0.354 N 
ATOM     42  C   UNL A   1      43.581  28.197  31.116  1.00  0.00     0.074 A 
ATOM     43  C   UNL A   1      43.737  26.907  30.479  1.00  0.00     0.031 C 
ATOM     44  C   UNL A   1      37.907  30.239  28.876  1.00  0.00     0.029 A 
ATOM     45  C   UNL A   1      38.794  30.928  29.808  1.00  0.00     0.049 A 
ATOM     46  H   UNL A   1      40.680  30.313  30.449  1.00  0.00     0.167 HD
ATOM     47  C   UNL A   1      44.484  28.745  31.964  1.00  0.00     0.037 A 
ATOM     48  C   UNL A   1      38.527  32.103  30.413  1.00  0.00     0.037 A 
ATOM     49  C   UNL A   1      44.333  30.041  32.573  1.00  0.00     0.049 A 
ATOM     50  C   UNL A   1      39.541  32.687  31.360  1.00  0.00     0.074 A 
ATOM     51  C   UNL A   1      45.218  30.710  33.400  1.00  0.00     0.029 A 
ATOM     52  N   UNL A   1      43.225  30.862  32.426  1.00  0.00    -0.354 N 
ATOM     53  N   UNL A   1      40.702  32.199  31.726  1.00  0.00    -0.248 NA
ATOM     54  C   UNL A   1      39.211  33.979  31.976  1.00  0.00     0.031 C 
ATOM     55  C   UNL A   1      44.626  31.916  33.789  1.00  0.00     0.029 A 
ATOM     56  C   UNL A   1      43.395  32.022  33.163  1.00  0.00     0.049 A 
ATOM     57  H   UNL A   1      42.434  30.653  31.878  1.00  0.00     0.167 HD
ATOM     58  C   UNL A   1      41.255  33.139  32.589  1.00  0.00     0.074 A 
ATOM     59  C   UNL A   1      40.302  34.226  32.687  1.00  0.00     0.031 C 
ATOM     60  C   UNL A   1      42.444  33.104  33.238  1.00  0.00     0.037 A 
BRANCH  47  61
ATOM     61  C   UNL A   1      45.719  27.947  32.280  1.00  0.00     0.058 A 
ATOM     62  C   UNL A   1      46.884  28.051  31.503  1.00  0.00     0.135 A 
ATOM     63  C   UNL A   1      45.753  27.097  33.398  1.00  0.00     0.135 A 
ATOM     64  F   UNL A   1      46.904  28.837  30.416  1.00  0.00    -0.206 F 
ATOM     65  C   UNL A   1      48.027  27.317  31.803  1.00  0.00     0.059 A 
ATOM     66  C   UNL A   1      46.895  26.377  33.735  1.00  0.00     0.059 A 
ATOM     67  F   UNL A   1      44.668  26.961  34.177  1.00  0.00    -0.206 F 
ATOM     68  C   UNL A   1      48.022  26.482  32.922  1.00  0.00     0.060 A 
BRANCH  68  69
ATOM     69  S   UNL A   1      49.516  25.540  33.298  1.00  0.00     0.124 S 
ATOM     70  O   UNL A   1      50.240  25.626  32.034  1.00  0.00    -0.237 OA
ATOM     71  O   UNL A   1      50.088  26.294  34.409  1.00  0.00    -0.237 OA
ATOM     72  O   UNL A   1      49.006  24.216  33.640  1.00  0.00    -0.744 OA
ENDBRANCH  68  69
ENDBRANCH  47  61
BRANCH  48  73
ATOM     73  C   UNL A   1      37.250  32.810  30.129  1.00  0.00     0.058 A 
ATOM     74  C   UNL A   1      37.160  33.746  29.089  1.00  0.00     0.135 A 
ATOM     75  C   UNL A   1      36.092  32.555  30.881  1.00  0.00     0.135 A 
ATOM     76  F   UNL A   1      38.241  34.029  28.347  1.00  0.00    -0.206 F 
ATOM     77  C   UNL A   1      35.973  34.416  28.811  1.00  0.00     0.059 A 
ATOM     78  C   UNL A   1      34.886  33.193  30.605  1.00  0.00     0.059 A 
ATOM     79  F   UNL A   1      36.120  31.656  31.876  1.00  0.00    -0.206 F 
ATOM     80  C   UNL A   1      34.839  34.129  29.574  1.00  0.00     0.060 A 
BRANCH  80  81
ATOM     81  S   UNL A   1      33.291  34.967  29.171  1.00  0.00     0.124 S 
ATOM     82  O   UNL A   1      33.772  36.254  28.683  1.00  0.00    -0.237 OA
ATOM     83  O   UNL A   1      32.713  34.078  28.169  1.00  0.00    -0.237 OA
ATOM     84  O   UNL A   1      32.587  35.001  30.449  1.00  0.00    -0.744 OA
ENDBRANCH  80  81
ENDBRANCH  48  73
BRANCH  60  85
ATOM     85  C   UNL A   1      42.814  34.292  34.084  1.00  0.00     0.058 A 
ATOM     86  C   UNL A   1      42.488  34.359  35.447  1.00  0.00     0.135 A 
ATOM     87  C   UNL A   1      43.575  35.339  33.537  1.00  0.00     0.135 A 
ATOM     88  F   UNL A   1      41.754  33.389  36.015  1.00  0.00    -0.206 F 
ATOM     89  C   UNL A   1      42.897  35.427  36.238  1.00  0.00     0.059 A 
ATOM     90  C   UNL A   1      44.018  36.402  34.316  1.00  0.00     0.059 A 
ATOM     91  F   UNL A   1      43.920  35.317  32.240  1.00  0.00    -0.206 F 
ATOM     92  C   UNL A   1      43.670  36.441  35.665  1.00  0.00     0.060 A 
BRANCH  92  93
ATOM     93  S   UNL A   1      44.247  37.788  36.718  1.00  0.00     0.124 S 
ATOM     94  O   UNL A   1      44.091  38.939  35.835  1.00  0.00    -0.237 OA
ATOM     95  O   UNL A   1      43.322  37.722  37.845  1.00  0.00    -0.237 OA
ATOM     96  O   UNL A   1      45.625  37.415  37.024  1.00  0.00    -0.744 OA
ENDBRANCH  92  93
ENDBRANCH  60  85
ENDBRANCH  34  35
ENDBRANCH  26  29
ENDBRANCH  24  25
ENDBRANCH   1  24
TORSDOF 15
ENDMDL
