MODEL 1
REMARK VINA RESULT:     -13.0      0.000      0.000
REMARK SMILES O=C(NCCCNC(=O)c1ccc(-n2cnc3ccccc32)nc1)c1ccc(-c2c3nc(c(-c4c(F)cc(S(=O)(=O)[O-])cc4F)c4ccc([nH]4)c(-c4c(F)cc(S(=O)(=O)[O-])cc4F)c4nc(c(-c5c(F)cc(S(=O)(=O)[O-])cc5F)c5ccc2[nH]5)C=C4)C=C3)cc1
REMARK SMILES IDX 4 1 3 2 1 3 2 4 25 6 26 7 90 8 27 9 89 10 28 11 29 12 30 13
REMARK SMILES IDX 83 14 31 15 88 16 82 17 84 18 32 19 87 20 81 21 80 22 33 24
REMARK SMILES IDX 67 25 46 26 66 27 47 28 50 29 65 30 85 31 48 32 49 33 64 35
REMARK SMILES IDX 86 36 51 37 34 38 35 39 44 40 36 41 37 42 43 43 45 44 38 45
REMARK SMILES IDX 39 46 40 47 41 48 42 49 68 50 69 51 78 52 70 53 71 54 77 55
REMARK SMILES IDX 79 56 72 57 73 58 74 59 75 60 76 61 52 62 53 63 62 64 54 65
REMARK SMILES IDX 55 66 61 67 63 68 56 69 57 70 58 71 59 72 60 73 5 74 6 75
REMARK SMILES IDX 7 76 8 77 9 79 10 80 11 81 24 82 12 83 23 84 13 85 14 86
REMARK SMILES IDX 15 87 22 88 16 89 17 90 21 91 18 92 20 93 19 94
REMARK H PARENT 3 5 84 23 50 34 7 78
REMARK Flexibility Score: inf
ROOT
ATOM      1  C   UNL A   1      38.709  22.109  25.871  1.00  0.00     0.118 C 
ENDROOT
BRANCH   1   2
ATOM      2  N   UNL A   1      39.713  21.602  26.819  1.00  0.00    -0.352 N 
ATOM      3  O   UNL A   1      41.602  21.912  28.073  1.00  0.00    -0.269 OA
ATOM      4  C   UNL A   1      40.650  22.381  27.522  1.00  0.00     0.251 C 
ATOM      5  H   UNL A   1      39.731  20.630  26.976  1.00  0.00     0.163 HD
BRANCH   4   6
ATOM      6  C   UNL A   1      40.263  23.806  27.654  1.00  0.00     0.039 A 
ATOM      7  C   UNL A   1      39.111  24.490  27.303  1.00  0.00     0.014 A 
ATOM      8  C   UNL A   1      41.292  24.598  28.094  1.00  0.00     0.014 A 
ATOM      9  C   UNL A   1      39.177  25.909  27.449  1.00  0.00     0.010 A 
ATOM     10  C   UNL A   1      40.944  25.602  28.906  1.00  0.00     0.010 A 
ATOM     11  C   UNL A   1      40.309  26.487  28.117  1.00  0.00    -0.014 A 
BRANCH  11  12
ATOM     12  C   UNL A   1      40.544  27.839  28.666  1.00  0.00     0.031 A 
ATOM     13  C   UNL A   1      41.755  28.316  27.888  1.00  0.00     0.074 A 
ATOM     14  C   UNL A   1      39.709  28.527  29.547  1.00  0.00     0.049 A 
ATOM     15  N   UNL A   1      42.961  28.015  28.255  1.00  0.00    -0.248 NA
ATOM     16  C   UNL A   1      41.747  28.644  26.427  1.00  0.00     0.031 C 
ATOM     17  C   UNL A   1      38.434  28.169  30.247  1.00  0.00     0.029 A 
ATOM     18  N   UNL A   1      39.891  29.788  30.121  1.00  0.00    -0.354 N 
ATOM     19  C   UNL A   1      43.793  28.643  27.347  1.00  0.00     0.074 A 
ATOM     20  C   UNL A   1      43.055  28.693  26.128  1.00  0.00     0.031 C 
ATOM     21  C   UNL A   1      37.865  29.257  30.867  1.00  0.00     0.029 A 
ATOM     22  C   UNL A   1      38.748  30.409  30.749  1.00  0.00     0.049 A 
ATOM     23  H   UNL A   1      40.768  30.237  30.097  1.00  0.00     0.167 HD
ATOM     24  C   UNL A   1      44.773  29.441  27.848  1.00  0.00     0.037 A 
ATOM     25  C   UNL A   1      38.681  31.649  31.391  1.00  0.00     0.037 A 
ATOM     26  C   UNL A   1      44.912  29.160  29.264  1.00  0.00     0.049 A 
ATOM     27  C   UNL A   1      40.105  32.025  31.646  1.00  0.00     0.074 A 
ATOM     28  C   UNL A   1      45.215  28.035  30.005  1.00  0.00     0.029 A 
ATOM     29  N   UNL A   1      44.133  29.964  30.057  1.00  0.00    -0.354 N 
ATOM     30  N   UNL A   1      40.838  31.353  32.497  1.00  0.00    -0.248 NA
ATOM     31  C   UNL A   1      40.790  32.604  30.493  1.00  0.00     0.031 C 
ATOM     32  C   UNL A   1      44.315  28.052  31.114  1.00  0.00     0.029 A 
ATOM     33  C   UNL A   1      43.637  29.269  31.124  1.00  0.00     0.049 A 
ATOM     34  H   UNL A   1      43.956  30.917  29.881  1.00  0.00     0.167 HD
ATOM     35  C   UNL A   1      41.949  30.985  31.754  1.00  0.00     0.074 A 
ATOM     36  C   UNL A   1      41.843  31.777  30.507  1.00  0.00     0.031 C 
ATOM     37  C   UNL A   1      42.622  29.815  31.998  1.00  0.00     0.037 A 
BRANCH  24  38
ATOM     38  C   UNL A   1      45.183  30.777  27.273  1.00  0.00     0.058 A 
ATOM     39  C   UNL A   1      46.550  30.975  27.008  1.00  0.00     0.135 A 
ATOM     40  C   UNL A   1      44.374  31.938  27.223  1.00  0.00     0.135 A 
ATOM     41  F   UNL A   1      47.411  29.947  27.067  1.00  0.00    -0.206 F 
ATOM     42  C   UNL A   1      47.084  32.229  26.730  1.00  0.00     0.059 A 
ATOM     43  C   UNL A   1      44.881  33.197  26.903  1.00  0.00     0.059 A 
ATOM     44  F   UNL A   1      43.078  31.922  27.554  1.00  0.00    -0.206 F 
ATOM     45  C   UNL A   1      46.241  33.334  26.668  1.00  0.00     0.060 A 
BRANCH  45  46
ATOM     46  S   UNL A   1      46.961  34.934  26.265  1.00  0.00     0.124 S 
ATOM     47  O   UNL A   1      47.815  35.178  27.421  1.00  0.00    -0.237 OA
ATOM     48  O   UNL A   1      47.650  34.634  25.013  1.00  0.00    -0.237 OA
ATOM     49  O   UNL A   1      45.798  35.807  26.139  1.00  0.00    -0.744 OA
ENDBRANCH  45  46
ENDBRANCH  24  38
BRANCH  25  50
ATOM     50  C   UNL A   1      37.630  32.771  31.322  1.00  0.00     0.058 A 
ATOM     51  C   UNL A   1      36.941  33.234  30.152  1.00  0.00     0.135 A 
ATOM     52  C   UNL A   1      37.053  33.200  32.522  1.00  0.00     0.135 A 
ATOM     53  F   UNL A   1      37.385  32.912  28.926  1.00  0.00    -0.206 F 
ATOM     54  C   UNL A   1      35.744  34.013  30.201  1.00  0.00     0.059 A 
ATOM     55  C   UNL A   1      35.868  33.949  32.594  1.00  0.00     0.059 A 
ATOM     56  F   UNL A   1      37.590  32.825  33.689  1.00  0.00    -0.206 F 
ATOM     57  C   UNL A   1      35.196  34.334  31.442  1.00  0.00     0.060 A 
BRANCH  57  58
ATOM     58  S   UNL A   1      33.575  35.162  31.596  1.00  0.00     0.124 S 
ATOM     59  O   UNL A   1      33.012  35.017  30.258  1.00  0.00    -0.237 OA
ATOM     60  O   UNL A   1      32.920  34.392  32.648  1.00  0.00    -0.237 OA
ATOM     61  O   UNL A   1      33.932  36.530  31.968  1.00  0.00    -0.744 OA
ENDBRANCH  57  58
ENDBRANCH  25  50
BRANCH  37  62
ATOM     62  C   UNL A   1      42.309  28.994  33.235  1.00  0.00     0.058 A 
ATOM     63  C   UNL A   1      41.408  27.911  33.324  1.00  0.00     0.135 A 
ATOM     64  C   UNL A   1      43.159  29.184  34.330  1.00  0.00     0.135 A 
ATOM     65  F   UNL A   1      40.655  27.555  32.276  1.00  0.00    -0.206 F 
ATOM     66  C   UNL A   1      41.319  27.105  34.472  1.00  0.00     0.059 A 
ATOM     67  C   UNL A   1      43.116  28.378  35.462  1.00  0.00     0.059 A 
ATOM     68  F   UNL A   1      44.115  30.125  34.270  1.00  0.00    -0.206 F 
ATOM     69  C   UNL A   1      42.175  27.357  35.543  1.00  0.00     0.060 A 
BRANCH  69  70
ATOM     70  S   UNL A   1      42.077  26.340  37.036  1.00  0.00     0.124 S 
ATOM     71  O   UNL A   1      42.234  24.992  36.500  1.00  0.00    -0.237 OA
ATOM     72  O   UNL A   1      43.194  26.839  37.833  1.00  0.00    -0.237 OA
ATOM     73  O   UNL A   1      40.753  26.646  37.572  1.00  0.00    -0.744 OA
ENDBRANCH  69  70
ENDBRANCH  37  62
ENDBRANCH  11  12
ENDBRANCH   4   6
ENDBRANCH   1   2
BRANCH   1  74
ATOM     74  C   UNL A   1      37.904  21.054  25.176  1.00  0.00     0.042 C 
BRANCH  74  75
ATOM     75  C   UNL A   1      36.427  21.326  25.350  1.00  0.00     0.118 C 
BRANCH  75  76
ATOM     76  N   UNL A   1      35.584  20.157  25.094  1.00  0.00    -0.352 N 
ATOM     77  C   UNL A   1      34.221  20.095  24.937  1.00  0.00     0.252 C 
ATOM     78  H   UNL A   1      36.058  19.297  25.025  1.00  0.00     0.163 HD
ATOM     79  O   UNL A   1      33.625  19.031  24.838  1.00  0.00    -0.269 OA
BRANCH  77  80
ATOM     80  C   UNL A   1      33.483  21.356  24.904  1.00  0.00     0.058 A 
ATOM     81  C   UNL A   1      33.321  22.041  23.702  1.00  0.00     0.019 A 
ATOM     82  C   UNL A   1      33.066  21.938  26.088  1.00  0.00     0.127 A 
ATOM     83  C   UNL A   1      32.844  23.334  23.737  1.00  0.00     0.048 A 
ATOM     84  N   UNL A   1      32.578  23.202  26.147  1.00  0.00    -0.238 NA
ATOM     85  C   UNL A   1      32.452  23.858  24.966  1.00  0.00     0.138 A 
BRANCH  85  86
ATOM     86  N   UNL A   1      31.806  25.108  24.969  1.00  0.00    -0.283 N 
ATOM     87  C   UNL A   1      30.590  25.391  24.405  1.00  0.00     0.206 A 
ATOM     88  C   UNL A   1      32.328  26.294  25.454  1.00  0.00     0.074 A 
ATOM     89  N   UNL A   1      30.255  26.654  24.566  1.00  0.00    -0.236 NA
ATOM     90  C   UNL A   1      31.344  27.234  25.168  1.00  0.00     0.089 A 
ATOM     91  C   UNL A   1      33.574  26.642  26.005  1.00  0.00     0.029 A 
ATOM     92  C   UNL A   1      31.586  28.581  25.473  1.00  0.00     0.030 A 
ATOM     93  C   UNL A   1      33.799  27.987  26.290  1.00  0.00     0.002 A 
ATOM     94  C   UNL A   1      32.821  28.944  26.028  1.00  0.00     0.002 A 
ENDBRANCH  85  86
ENDBRANCH  77  80
ENDBRANCH  75  76
ENDBRANCH  74  75
ENDBRANCH   1  74
TORSDOF 14
ENDMDL
MODEL 2
REMARK VINA RESULT:     -12.8      4.553     11.420
REMARK SMILES O=C(NCCCNC(=O)c1ccc(-n2cnc3ccccc32)nc1)c1ccc(-c2c3nc(c(-c4c(F)cc(S(=O)(=O)[O-])cc4F)c4ccc([nH]4)c(-c4c(F)cc(S(=O)(=O)[O-])cc4F)c4nc(c(-c5c(F)cc(S(=O)(=O)[O-])cc5F)c5ccc2[nH]5)C=C4)C=C3)cc1
REMARK SMILES IDX 4 1 3 2 1 3 2 4 25 6 26 7 90 8 27 9 89 10 28 11 29 12 30 13
REMARK SMILES IDX 83 14 31 15 88 16 82 17 84 18 32 19 87 20 81 21 80 22 33 24
REMARK SMILES IDX 67 25 46 26 66 27 47 28 50 29 65 30 85 31 48 32 49 33 64 35
REMARK SMILES IDX 86 36 51 37 34 38 35 39 44 40 36 41 37 42 43 43 45 44 38 45
REMARK SMILES IDX 39 46 40 47 41 48 42 49 68 50 69 51 78 52 70 53 71 54 77 55
REMARK SMILES IDX 79 56 72 57 73 58 74 59 75 60 76 61 52 62 53 63 62 64 54 65
REMARK SMILES IDX 55 66 61 67 63 68 56 69 57 70 58 71 59 72 60 73 5 74 6 75
REMARK SMILES IDX 7 76 8 77 9 79 10 80 11 81 24 82 12 83 23 84 13 85 14 86
REMARK SMILES IDX 15 87 22 88 16 89 17 90 21 91 18 92 20 93 19 94
REMARK H PARENT 3 5 84 23 50 34 7 78
REMARK Flexibility Score: inf
ROOT
ATOM      1  C   UNL A   1      35.610  33.256  28.002  1.00  0.00     0.118 C 
ENDROOT
BRANCH   1   2
ATOM      2  N   UNL A   1      34.790  32.036  27.953  1.00  0.00    -0.352 N 
ATOM      3  O   UNL A   1      34.596  29.781  27.618  1.00  0.00    -0.269 OA
ATOM      4  C   UNL A   1      35.278  30.716  27.915  1.00  0.00     0.251 C 
ATOM      5  H   UNL A   1      33.812  32.152  27.947  1.00  0.00     0.163 HD
BRANCH   4   6
ATOM      6  C   UNL A   1      36.661  30.575  28.431  1.00  0.00     0.039 A 
ATOM      7  C   UNL A   1      37.342  31.227  29.446  1.00  0.00     0.014 A 
ATOM      8  C   UNL A   1      37.427  29.728  27.674  1.00  0.00     0.014 A 
ATOM      9  C   UNL A   1      38.733  30.917  29.541  1.00  0.00     0.010 A 
ATOM     10  C   UNL A   1      38.308  28.983  28.351  1.00  0.00     0.010 A 
ATOM     11  C   UNL A   1      39.262  29.844  28.748  1.00  0.00    -0.014 A 
BRANCH  11  12
ATOM     12  C   UNL A   1      40.542  29.108  28.815  1.00  0.00     0.031 A 
ATOM     13  C   UNL A   1      40.716  28.863  30.301  1.00  0.00     0.074 A 
ATOM     14  C   UNL A   1      41.270  28.620  27.729  1.00  0.00     0.049 A 
ATOM     15  N   UNL A   1      41.250  29.753  31.079  1.00  0.00    -0.248 NA
ATOM     16  C   UNL A   1      39.861  27.940  31.113  1.00  0.00     0.031 C 
ATOM     17  C   UNL A   1      41.086  28.708  26.245  1.00  0.00     0.029 A 
ATOM     18  N   UNL A   1      42.493  27.946  27.727  1.00  0.00    -0.354 N 
ATOM     19  C   UNL A   1      41.279  29.178  32.336  1.00  0.00     0.074 A 
ATOM     20  C   UNL A   1      40.162  28.292  32.374  1.00  0.00     0.031 C 
ATOM     21  C   UNL A   1      41.961  27.891  25.569  1.00  0.00     0.029 A 
ATOM     22  C   UNL A   1      42.886  27.274  26.510  1.00  0.00     0.049 A 
ATOM     23  H   UNL A   1      43.067  27.929  28.527  1.00  0.00     0.167 HD
ATOM     24  C   UNL A   1      42.473  29.160  32.985  1.00  0.00     0.037 A 
ATOM     25  C   UNL A   1      44.053  26.547  26.261  1.00  0.00     0.037 A 
ATOM     26  C   UNL A   1      43.373  30.077  32.311  1.00  0.00     0.049 A 
ATOM     27  C   UNL A   1      44.987  26.934  27.361  1.00  0.00     0.074 A 
ATOM     28  C   UNL A   1      43.351  31.430  32.034  1.00  0.00     0.029 A 
ATOM     29  N   UNL A   1      44.127  29.480  31.333  1.00  0.00    -0.354 N 
ATOM     30  N   UNL A   1      45.471  28.147  27.441  1.00  0.00    -0.248 NA
ATOM     31  C   UNL A   1      44.758  26.228  28.620  1.00  0.00     0.031 C 
ATOM     32  C   UNL A   1      43.820  31.553  30.691  1.00  0.00     0.029 A 
ATOM     33  C   UNL A   1      44.296  30.315  30.264  1.00  0.00     0.049 A 
ATOM     34  H   UNL A   1      44.498  28.570  31.393  1.00  0.00     0.167 HD
ATOM     35  C   UNL A   1      45.134  28.552  28.722  1.00  0.00     0.074 A 
ATOM     36  C   UNL A   1      44.670  27.317  29.395  1.00  0.00     0.031 C 
ATOM     37  C   UNL A   1      44.867  29.865  29.014  1.00  0.00     0.037 A 
BRANCH  24  38
ATOM     38  C   UNL A   1      43.003  28.000  33.795  1.00  0.00     0.058 A 
ATOM     39  C   UNL A   1      43.313  28.243  35.146  1.00  0.00     0.135 A 
ATOM     40  C   UNL A   1      43.468  26.770  33.272  1.00  0.00     0.135 A 
ATOM     41  F   UNL A   1      42.952  29.396  35.730  1.00  0.00    -0.206 F 
ATOM     42  C   UNL A   1      44.044  27.346  35.919  1.00  0.00     0.059 A 
ATOM     43  C   UNL A   1      44.163  25.837  34.041  1.00  0.00     0.059 A 
ATOM     44  F   UNL A   1      43.340  26.449  31.979  1.00  0.00    -0.206 F 
ATOM     45  C   UNL A   1      44.455  26.140  35.362  1.00  0.00     0.060 A 
BRANCH  45  46
ATOM     46  S   UNL A   1      45.361  24.985  36.404  1.00  0.00     0.124 S 
ATOM     47  O   UNL A   1      46.351  25.857  37.027  1.00  0.00    -0.237 OA
ATOM     48  O   UNL A   1      44.303  24.494  37.281  1.00  0.00    -0.237 OA
ATOM     49  O   UNL A   1      45.884  24.009  35.454  1.00  0.00    -0.744 OA
ENDBRANCH  45  46
ENDBRANCH  24  38
BRANCH  25  50
ATOM     50  C   UNL A   1      44.276  25.199  25.552  1.00  0.00     0.058 A 
ATOM     51  C   UNL A   1      45.511  24.698  25.023  1.00  0.00     0.135 A 
ATOM     52  C   UNL A   1      43.280  24.223  25.676  1.00  0.00     0.135 A 
ATOM     53  F   UNL A   1      46.557  25.521  24.837  1.00  0.00    -0.206 F 
ATOM     54  C   UNL A   1      45.731  23.323  24.706  1.00  0.00     0.059 A 
ATOM     55  C   UNL A   1      43.480  22.865  25.387  1.00  0.00     0.059 A 
ATOM     56  F   UNL A   1      42.082  24.556  26.171  1.00  0.00    -0.206 F 
ATOM     57  C   UNL A   1      44.707  22.404  24.929  1.00  0.00     0.060 A 
BRANCH  57  58
ATOM     58  S   UNL A   1      44.961  20.607  24.729  1.00  0.00     0.124 S 
ATOM     59  O   UNL A   1      44.630  20.390  23.324  1.00  0.00    -0.237 OA
ATOM     60  O   UNL A   1      46.367  20.440  25.083  1.00  0.00    -0.237 OA
ATOM     61  O   UNL A   1      44.015  20.027  25.681  1.00  0.00    -0.744 OA
ENDBRANCH  57  58
ENDBRANCH  25  50
BRANCH  37  62
ATOM     62  C   UNL A   1      45.151  30.952  27.994  1.00  0.00     0.058 A 
ATOM     63  C   UNL A   1      44.253  31.463  27.033  1.00  0.00     0.135 A 
ATOM     64  C   UNL A   1      46.341  31.666  28.172  1.00  0.00     0.135 A 
ATOM     65  F   UNL A   1      43.030  30.940  26.888  1.00  0.00    -0.206 F 
ATOM     66  C   UNL A   1      44.558  32.589  26.249  1.00  0.00     0.059 A 
ATOM     67  C   UNL A   1      46.650  32.804  27.435  1.00  0.00     0.059 A 
ATOM     68  F   UNL A   1      47.193  31.303  29.144  1.00  0.00    -0.206 F 
ATOM     69  C   UNL A   1      45.770  33.247  26.453  1.00  0.00     0.060 A 
BRANCH  69  70
ATOM     70  S   UNL A   1      46.192  34.695  25.454  1.00  0.00     0.124 S 
ATOM     71  O   UNL A   1      45.773  35.795  26.316  1.00  0.00    -0.237 OA
ATOM     72  O   UNL A   1      47.632  34.545  25.272  1.00  0.00    -0.237 OA
ATOM     73  O   UNL A   1      45.396  34.516  24.242  1.00  0.00    -0.744 OA
ENDBRANCH  69  70
ENDBRANCH  37  62
ENDBRANCH  11  12
ENDBRANCH   4   6
ENDBRANCH   1   2
BRANCH   1  74
ATOM     74  C   UNL A   1      34.862  34.509  28.343  1.00  0.00     0.042 C 
BRANCH  74  75
ATOM     75  C   UNL A   1      33.604  34.171  29.112  1.00  0.00     0.118 C 
BRANCH  75  76
ATOM     76  N   UNL A   1      32.938  35.342  29.685  1.00  0.00    -0.352 N 
ATOM     77  C   UNL A   1      32.999  35.826  30.969  1.00  0.00     0.252 C 
ATOM     78  H   UNL A   1      32.369  35.852  29.066  1.00  0.00     0.163 HD
ATOM     79  O   UNL A   1      32.301  36.755  31.348  1.00  0.00    -0.269 OA
BRANCH  77  80
ATOM     80  C   UNL A   1      33.928  35.180  31.894  1.00  0.00     0.058 A 
ATOM     81  C   UNL A   1      33.757  33.840  32.236  1.00  0.00     0.019 A 
ATOM     82  C   UNL A   1      34.892  35.935  32.538  1.00  0.00     0.127 A 
ATOM     83  C   UNL A   1      34.486  33.327  33.288  1.00  0.00     0.048 A 
ATOM     84  N   UNL A   1      35.633  35.450  33.565  1.00  0.00    -0.238 NA
ATOM     85  C   UNL A   1      35.432  34.149  33.894  1.00  0.00     0.138 A 
BRANCH  85  86
ATOM     86  N   UNL A   1      36.290  33.568  34.846  1.00  0.00    -0.283 N 
ATOM     87  C   UNL A   1      36.236  33.753  36.203  1.00  0.00     0.206 A 
ATOM     88  C   UNL A   1      37.400  32.788  34.575  1.00  0.00     0.074 A 
ATOM     89  N   UNL A   1      37.179  33.082  36.829  1.00  0.00    -0.236 NA
ATOM     90  C   UNL A   1      37.937  32.522  35.830  1.00  0.00     0.089 A 
ATOM     91  C   UNL A   1      38.027  32.389  33.381  1.00  0.00     0.029 A 
ATOM     92  C   UNL A   1      39.133  31.795  35.915  1.00  0.00     0.030 A 
ATOM     93  C   UNL A   1      39.220  31.679  33.486  1.00  0.00     0.002 A 
ATOM     94  C   UNL A   1      39.767  31.385  34.733  1.00  0.00     0.002 A 
ENDBRANCH  85  86
ENDBRANCH  77  80
ENDBRANCH  75  76
ENDBRANCH  74  75
ENDBRANCH   1  74
TORSDOF 14
ENDMDL
MODEL 3
REMARK VINA RESULT:     -12.7      1.453      2.126
REMARK SMILES O=C(NCCCNC(=O)c1ccc(-n2cnc3ccccc32)nc1)c1ccc(-c2c3nc(c(-c4c(F)cc(S(=O)(=O)[O-])cc4F)c4ccc([nH]4)c(-c4c(F)cc(S(=O)(=O)[O-])cc4F)c4nc(c(-c5c(F)cc(S(=O)(=O)[O-])cc5F)c5ccc2[nH]5)C=C4)C=C3)cc1
REMARK SMILES IDX 4 1 3 2 1 3 2 4 25 6 26 7 90 8 27 9 89 10 28 11 29 12 30 13
REMARK SMILES IDX 83 14 31 15 88 16 82 17 84 18 32 19 87 20 81 21 80 22 33 24
REMARK SMILES IDX 67 25 46 26 66 27 47 28 50 29 65 30 85 31 48 32 49 33 64 35
REMARK SMILES IDX 86 36 51 37 34 38 35 39 44 40 36 41 37 42 43 43 45 44 38 45
REMARK SMILES IDX 39 46 40 47 41 48 42 49 68 50 69 51 78 52 70 53 71 54 77 55
REMARK SMILES IDX 79 56 72 57 73 58 74 59 75 60 76 61 52 62 53 63 62 64 54 65
REMARK SMILES IDX 55 66 61 67 63 68 56 69 57 70 58 71 59 72 60 73 5 74 6 75
REMARK SMILES IDX 7 76 8 77 9 79 10 80 11 81 24 82 12 83 23 84 13 85 14 86
REMARK SMILES IDX 15 87 22 88 16 89 17 90 21 91 18 92 20 93 19 94
REMARK H PARENT 3 5 84 23 50 34 7 78
REMARK Flexibility Score: inf
ROOT
ATOM      1  C   UNL A   1      37.610  23.921  26.165  1.00  0.00     0.118 C 
ENDROOT
BRANCH   1   2
ATOM      2  N   UNL A   1      38.534  23.007  26.855  1.00  0.00    -0.352 N 
ATOM      3  O   UNL A   1      40.659  22.394  27.442  1.00  0.00    -0.269 OA
ATOM      4  C   UNL A   1      39.894  23.253  27.118  1.00  0.00     0.251 C 
ATOM      5  H   UNL A   1      38.168  22.145  27.161  1.00  0.00     0.163 HD
BRANCH   4   6
ATOM      6  C   UNL A   1      40.251  24.693  27.115  1.00  0.00     0.039 A 
ATOM      7  C   UNL A   1      40.573  25.566  26.089  1.00  0.00     0.014 A 
ATOM      8  C   UNL A   1      40.407  25.204  28.377  1.00  0.00     0.014 A 
ATOM      9  C   UNL A   1      41.019  26.856  26.507  1.00  0.00     0.010 A 
ATOM     10  C   UNL A   1      40.001  26.467  28.544  1.00  0.00     0.010 A 
ATOM     11  C   UNL A   1      40.910  27.216  27.892  1.00  0.00    -0.014 A 
BRANCH  11  12
ATOM     12  C   UNL A   1      41.009  28.518  28.583  1.00  0.00     0.031 A 
ATOM     13  C   UNL A   1      42.269  29.121  27.995  1.00  0.00     0.074 A 
ATOM     14  C   UNL A   1      40.045  29.081  29.422  1.00  0.00     0.049 A 
ATOM     15  N   UNL A   1      43.443  28.841  28.469  1.00  0.00    -0.248 NA
ATOM     16  C   UNL A   1      42.403  29.586  26.577  1.00  0.00     0.031 C 
ATOM     17  C   UNL A   1      38.723  28.602  29.936  1.00  0.00     0.029 A 
ATOM     18  N   UNL A   1      40.094  30.289  30.123  1.00  0.00    -0.354 N 
ATOM     19  C   UNL A   1      44.333  29.589  27.721  1.00  0.00     0.074 A 
ATOM     20  C   UNL A   1      43.731  29.722  26.436  1.00  0.00     0.031 C 
ATOM     21  C   UNL A   1      38.031  29.599  30.582  1.00  0.00     0.029 A 
ATOM     22  C   UNL A   1      38.856  30.795  30.670  1.00  0.00     0.049 A 
ATOM     23  H   UNL A   1      40.941  30.777  30.240  1.00  0.00     0.167 HD
ATOM     24  C   UNL A   1      45.206  30.379  28.400  1.00  0.00     0.037 A 
ATOM     25  C   UNL A   1      38.651  31.964  31.407  1.00  0.00     0.037 A 
ATOM     26  C   UNL A   1      45.205  29.971  29.792  1.00  0.00     0.049 A 
ATOM     27  C   UNL A   1      40.015  32.378  31.857  1.00  0.00     0.074 A 
ATOM     28  C   UNL A   1      45.486  28.795  30.459  1.00  0.00     0.029 A 
ATOM     29  N   UNL A   1      44.301  30.660  30.559  1.00  0.00    -0.354 N 
ATOM     30  N   UNL A   1      40.687  31.661  32.722  1.00  0.00    -0.248 NA
ATOM     31  C   UNL A   1      40.789  33.094  30.845  1.00  0.00     0.031 C 
ATOM     32  C   UNL A   1      44.471  28.666  31.454  1.00  0.00     0.029 A 
ATOM     33  C   UNL A   1      43.729  29.845  31.497  1.00  0.00     0.049 A 
ATOM     34  H   UNL A   1      44.091  31.616  30.451  1.00  0.00     0.167 HD
ATOM     35  C   UNL A   1      41.891  31.416  32.080  1.00  0.00     0.074 A 
ATOM     36  C   UNL A   1      41.879  32.317  30.906  1.00  0.00     0.031 C 
ATOM     37  C   UNL A   1      42.596  30.260  32.294  1.00  0.00     0.037 A 
BRANCH  24  38
ATOM     38  C   UNL A   1      45.602  31.780  27.997  1.00  0.00     0.058 A 
ATOM     39  C   UNL A   1      46.975  32.085  27.979  1.00  0.00     0.135 A 
ATOM     40  C   UNL A   1      44.728  32.889  27.895  1.00  0.00     0.135 A 
ATOM     41  F   UNL A   1      47.890  31.111  28.108  1.00  0.00    -0.206 F 
ATOM     42  C   UNL A   1      47.452  33.388  27.884  1.00  0.00     0.059 A 
ATOM     43  C   UNL A   1      45.184  34.199  27.754  1.00  0.00     0.059 A 
ATOM     44  F   UNL A   1      43.400  32.764  28.003  1.00  0.00    -0.206 F 
ATOM     45  C   UNL A   1      46.549  34.440  27.760  1.00  0.00     0.060 A 
BRANCH  45  46
ATOM     46  S   UNL A   1      47.202  36.109  27.597  1.00  0.00     0.124 S 
ATOM     47  O   UNL A   1      46.858  36.431  26.217  1.00  0.00    -0.237 OA
ATOM     48  O   UNL A   1      46.447  36.818  28.625  1.00  0.00    -0.237 OA
ATOM     49  O   UNL A   1      48.626  35.946  27.873  1.00  0.00    -0.744 OA
ENDBRANCH  45  46
ENDBRANCH  24  38
BRANCH  25  50
ATOM     50  C   UNL A   1      37.553  33.039  31.320  1.00  0.00     0.058 A 
ATOM     51  C   UNL A   1      36.904  33.513  30.131  1.00  0.00     0.135 A 
ATOM     52  C   UNL A   1      36.896  33.400  32.501  1.00  0.00     0.135 A 
ATOM     53  F   UNL A   1      37.426  33.254  28.920  1.00  0.00    -0.206 F 
ATOM     54  C   UNL A   1      35.672  34.234  30.142  1.00  0.00     0.059 A 
ATOM     55  C   UNL A   1      35.675  34.091  32.534  1.00  0.00     0.059 A 
ATOM     56  F   UNL A   1      37.389  33.008  33.682  1.00  0.00    -0.206 F 
ATOM     57  C   UNL A   1      35.046  34.486  31.361  1.00  0.00     0.060 A 
BRANCH  57  58
ATOM     58  S   UNL A   1      33.382  35.234  31.456  1.00  0.00     0.124 S 
ATOM     59  O   UNL A   1      33.677  36.649  31.653  1.00  0.00    -0.237 OA
ATOM     60  O   UNL A   1      32.796  34.880  30.168  1.00  0.00    -0.237 OA
ATOM     61  O   UNL A   1      32.780  34.566  32.610  1.00  0.00    -0.744 OA
ENDBRANCH  57  58
ENDBRANCH  25  50
BRANCH  37  62
ATOM     62  C   UNL A   1      42.196  29.311  33.409  1.00  0.00     0.058 A 
ATOM     63  C   UNL A   1      41.399  28.152  33.286  1.00  0.00     0.135 A 
ATOM     64  C   UNL A   1      42.864  29.478  34.627  1.00  0.00     0.135 A 
ATOM     65  F   UNL A   1      40.836  27.826  32.117  1.00  0.00    -0.206 F 
ATOM     66  C   UNL A   1      41.230  27.246  34.346  1.00  0.00     0.059 A 
ATOM     67  C   UNL A   1      42.743  28.576  35.678  1.00  0.00     0.059 A 
ATOM     68  F   UNL A   1      43.725  30.497  34.776  1.00  0.00    -0.206 F 
ATOM     69  C   UNL A   1      41.902  27.476  35.546  1.00  0.00     0.060 A 
BRANCH  69  70
ATOM     70  S   UNL A   1      41.697  26.329  36.930  1.00  0.00     0.124 S 
ATOM     71  O   UNL A   1      42.857  26.639  37.759  1.00  0.00    -0.237 OA
ATOM     72  O   UNL A   1      40.403  26.722  37.479  1.00  0.00    -0.237 OA
ATOM     73  O   UNL A   1      41.722  25.015  36.292  1.00  0.00    -0.744 OA
ENDBRANCH  69  70
ENDBRANCH  37  62
ENDBRANCH  11  12
ENDBRANCH   4   6
ENDBRANCH   1   2
BRANCH   1  74
ATOM     74  C   UNL A   1      36.844  23.310  25.032  1.00  0.00     0.042 C 
BRANCH  74  75
ATOM     75  C   UNL A   1      35.471  22.882  25.501  1.00  0.00     0.118 C 
BRANCH  75  76
ATOM     76  N   UNL A   1      34.528  22.644  24.407  1.00  0.00    -0.352 N 
ATOM     77  C   UNL A   1      33.511  23.448  23.956  1.00  0.00     0.252 C 
ATOM     78  H   UNL A   1      34.639  21.791  23.929  1.00  0.00     0.163 HD
ATOM     79  O   UNL A   1      32.720  23.078  23.100  1.00  0.00    -0.269 OA
BRANCH  77  80
ATOM     80  C   UNL A   1      33.384  24.779  24.547  1.00  0.00     0.058 A 
ATOM     81  C   UNL A   1      32.637  24.960  25.709  1.00  0.00     0.019 A 
ATOM     82  C   UNL A   1      33.889  25.879  23.878  1.00  0.00     0.127 A 
ATOM     83  C   UNL A   1      32.329  26.245  26.104  1.00  0.00     0.048 A 
ATOM     84  N   UNL A   1      33.615  27.152  24.254  1.00  0.00    -0.238 NA
ATOM     85  C   UNL A   1      32.865  27.303  25.375  1.00  0.00     0.138 A 
BRANCH  85  86
ATOM     86  N   UNL A   1      32.691  28.603  25.884  1.00  0.00    -0.283 N 
ATOM     87  C   UNL A   1      31.677  29.468  25.565  1.00  0.00     0.206 A 
ATOM     88  C   UNL A   1      33.565  29.275  26.720  1.00  0.00     0.074 A 
ATOM     89  N   UNL A   1      31.792  30.616  26.198  1.00  0.00    -0.236 NA
ATOM     90  C   UNL A   1      32.983  30.528  26.876  1.00  0.00     0.089 A 
ATOM     91  C   UNL A   1      34.826  28.953  27.253  1.00  0.00     0.029 A 
ATOM     92  C   UNL A   1      33.659  31.501  27.626  1.00  0.00     0.030 A 
ATOM     93  C   UNL A   1      35.487  29.937  27.985  1.00  0.00     0.002 A 
ATOM     94  C   UNL A   1      34.914  31.193  28.169  1.00  0.00     0.002 A 
ENDBRANCH  85  86
ENDBRANCH  77  80
ENDBRANCH  75  76
ENDBRANCH  74  75
ENDBRANCH   1  74
TORSDOF 14
ENDMDL
