MODEL 1
REMARK VINA RESULT:     -12.9      0.000      0.000
REMARK SMILES O=C(NCCCNC(=O)c1n[nH]c2cc(Br)cc(Cl)c12)c1ccc(-c2c3nc(c(-c4c(F)cc(S(=O)(=O)[O-])cc4F)c4ccc([nH]4)c(-c4c(F)cc(S(=O)(=O)[O-])cc4F)c4nc(c(-c5c(F)cc(S(=O)(=O)[O-])cc5F)c5ccc2[nH]5)C=C4)C=C3)cc1
REMARK SMILES IDX 1 1 2 2 3 3 21 5 22 6 86 7 23 8 85 9 24 10 25 11 26 12 79 13
REMARK SMILES IDX 27 14 84 15 78 16 80 17 28 18 83 19 77 20 76 21 29 23 63 24
REMARK SMILES IDX 42 25 62 26 43 27 46 28 61 29 81 30 44 31 45 32 60 34 82 35
REMARK SMILES IDX 47 36 30 37 31 38 40 39 32 40 33 41 39 42 41 43 34 44 35 45
REMARK SMILES IDX 36 46 37 47 38 48 64 49 65 50 74 51 66 52 67 53 73 54 75 55
REMARK SMILES IDX 68 56 69 57 70 58 71 59 72 60 48 61 49 62 58 63 50 64 51 65
REMARK SMILES IDX 57 66 59 67 52 68 53 69 54 70 55 71 56 72 4 73 5 74 6 75
REMARK SMILES IDX 7 76 8 77 9 79 10 80 11 81 20 82 12 83 13 84 18 85 14 87
REMARK SMILES IDX 17 88 19 89 15 90 16 91
REMARK H PARENT 3 4 80 22 46 33 7 78 12 86
REMARK Flexibility Score: inf
ROOT
ATOM      1  O   UNL A   1      40.706  21.358  26.237  1.00  0.00    -0.269 OA
ATOM      2  C   UNL A   1      39.791  22.185  26.200  1.00  0.00     0.251 C 
ATOM      3  N   UNL A   1      38.671  21.797  25.516  1.00  0.00    -0.352 N 
ATOM      4  H   UNL A   1      38.801  20.948  25.034  1.00  0.00     0.163 HD
ENDROOT
BRANCH   2   5
ATOM      5  C   UNL A   1      39.997  23.512  26.847  1.00  0.00     0.039 A 
ATOM      6  C   UNL A   1      39.174  24.625  26.694  1.00  0.00     0.014 A 
ATOM      7  C   UNL A   1      41.133  23.634  27.674  1.00  0.00     0.014 A 
ATOM      8  C   UNL A   1      39.505  25.841  27.291  1.00  0.00     0.010 A 
ATOM      9  C   UNL A   1      41.454  24.841  28.297  1.00  0.00     0.010 A 
ATOM     10  C   UNL A   1      40.647  25.955  28.089  1.00  0.00    -0.014 A 
BRANCH  10  11
ATOM     11  C   UNL A   1      40.856  27.223  28.791  1.00  0.00     0.031 A 
ATOM     12  C   UNL A   1      41.985  28.061  28.288  1.00  0.00     0.074 A 
ATOM     13  C   UNL A   1      40.033  27.735  29.727  1.00  0.00     0.049 A 
ATOM     14  N   UNL A   1      43.037  28.470  28.922  1.00  0.00    -0.248 NA
ATOM     15  C   UNL A   1      41.955  28.444  26.868  1.00  0.00     0.031 C 
ATOM     16  C   UNL A   1      38.709  27.255  30.117  1.00  0.00     0.029 A 
ATOM     17  N   UNL A   1      40.184  28.878  30.461  1.00  0.00    -0.354 N 
ATOM     18  C   UNL A   1      43.706  29.323  28.043  1.00  0.00     0.074 A 
ATOM     19  C   UNL A   1      43.065  29.173  26.762  1.00  0.00     0.031 C 
ATOM     20  C   UNL A   1      38.096  28.205  30.859  1.00  0.00     0.029 A 
ATOM     21  C   UNL A   1      39.026  29.296  31.100  1.00  0.00     0.049 A 
ATOM     22  H   UNL A   1      41.038  29.362  30.531  1.00  0.00     0.167 HD
ATOM     23  C   UNL A   1      44.621  30.241  28.466  1.00  0.00     0.037 A 
ATOM     24  C   UNL A   1      38.825  30.483  31.723  1.00  0.00     0.037 A 
ATOM     25  C   UNL A   1      45.120  29.943  29.780  1.00  0.00     0.049 A 
ATOM     26  C   UNL A   1      40.155  31.048  32.071  1.00  0.00     0.074 A 
ATOM     27  C   UNL A   1      45.784  28.879  30.358  1.00  0.00     0.029 A 
ATOM     28  N   UNL A   1      44.703  30.731  30.823  1.00  0.00    -0.354 N 
ATOM     29  N   UNL A   1      40.969  30.546  32.959  1.00  0.00    -0.248 NA
ATOM     30  C   UNL A   1      40.739  32.044  31.185  1.00  0.00     0.031 C 
ATOM     31  C   UNL A   1      45.334  28.844  31.710  1.00  0.00     0.029 A 
ATOM     32  C   UNL A   1      44.432  29.896  31.875  1.00  0.00     0.049 A 
ATOM     33  H   UNL A   1      44.615  31.712  30.816  1.00  0.00     0.167 HD
ATOM     34  C   UNL A   1      42.236  30.860  32.497  1.00  0.00     0.074 A 
ATOM     35  C   UNL A   1      42.029  31.890  31.488  1.00  0.00     0.031 C 
ATOM     36  C   UNL A   1      43.310  30.066  32.776  1.00  0.00     0.037 A 
BRANCH  23  37
ATOM     37  C   UNL A   1      44.825  31.594  27.819  1.00  0.00     0.058 A 
ATOM     38  C   UNL A   1      46.051  31.890  27.184  1.00  0.00     0.135 A 
ATOM     39  C   UNL A   1      43.980  32.702  28.055  1.00  0.00     0.135 A 
ATOM     40  F   UNL A   1      46.936  30.916  26.921  1.00  0.00    -0.206 F 
ATOM     41  C   UNL A   1      46.440  33.195  26.881  1.00  0.00     0.059 A 
ATOM     42  C   UNL A   1      44.324  34.005  27.709  1.00  0.00     0.059 A 
ATOM     43  F   UNL A   1      42.827  32.585  28.725  1.00  0.00    -0.206 F 
ATOM     44  C   UNL A   1      45.576  34.248  27.169  1.00  0.00     0.060 A 
BRANCH  44  45
ATOM     45  S   UNL A   1      46.130  35.944  26.912  1.00  0.00     0.124 S 
ATOM     46  O   UNL A   1      46.933  36.166  28.109  1.00  0.00    -0.237 OA
ATOM     47  O   UNL A   1      46.868  35.839  25.657  1.00  0.00    -0.237 OA
ATOM     48  O   UNL A   1      44.880  36.696  26.838  1.00  0.00    -0.744 OA
ENDBRANCH  44  45
ENDBRANCH  23  37
BRANCH  24  49
ATOM     49  C   UNL A   1      37.578  31.290  31.797  1.00  0.00     0.058 A 
ATOM     50  C   UNL A   1      37.015  31.645  33.038  1.00  0.00     0.135 A 
ATOM     51  C   UNL A   1      37.066  31.964  30.669  1.00  0.00     0.135 A 
ATOM     52  F   UNL A   1      37.454  31.072  34.168  1.00  0.00    -0.206 F 
ATOM     53  C   UNL A   1      36.047  32.647  33.158  1.00  0.00     0.059 A 
ATOM     54  C   UNL A   1      36.087  32.951  30.764  1.00  0.00     0.059 A 
ATOM     55  F   UNL A   1      37.570  31.752  29.445  1.00  0.00    -0.206 F 
ATOM     56  C   UNL A   1      35.604  33.310  32.015  1.00  0.00     0.060 A 
BRANCH  56  57
ATOM     57  S   UNL A   1      34.490  34.723  32.185  1.00  0.00     0.124 S 
ATOM     58  O   UNL A   1      35.303  35.658  32.953  1.00  0.00    -0.237 OA
ATOM     59  O   UNL A   1      34.242  35.085  30.794  1.00  0.00    -0.237 OA
ATOM     60  O   UNL A   1      33.341  34.165  32.895  1.00  0.00    -0.744 OA
ENDBRANCH  56  57
ENDBRANCH  24  49
BRANCH  36  61
ATOM     61  C   UNL A   1      43.208  29.084  33.911  1.00  0.00     0.058 A 
ATOM     62  C   UNL A   1      43.432  29.412  35.259  1.00  0.00     0.135 A 
ATOM     63  C   UNL A   1      42.688  27.809  33.636  1.00  0.00     0.135 A 
ATOM     64  F   UNL A   1      43.834  30.641  35.612  1.00  0.00    -0.206 F 
ATOM     65  C   UNL A   1      43.168  28.505  36.285  1.00  0.00     0.059 A 
ATOM     66  C   UNL A   1      42.388  26.900  34.648  1.00  0.00     0.059 A 
ATOM     67  F   UNL A   1      42.399  27.458  32.372  1.00  0.00    -0.206 F 
ATOM     68  C   UNL A   1      42.634  27.254  35.972  1.00  0.00     0.060 A 
BRANCH  68  69
ATOM     69  S   UNL A   1      42.161  26.143  37.316  1.00  0.00     0.124 S 
ATOM     70  O   UNL A   1      40.804  26.584  37.618  1.00  0.00    -0.237 OA
ATOM     71  O   UNL A   1      42.276  24.825  36.694  1.00  0.00    -0.237 OA
ATOM     72  O   UNL A   1      43.154  26.419  38.352  1.00  0.00    -0.744 OA
ENDBRANCH  68  69
ENDBRANCH  36  61
ENDBRANCH  10  11
ENDBRANCH   2   5
BRANCH   3  73
ATOM     73  C   UNL A   1      37.337  22.337  25.331  1.00  0.00     0.118 C 
BRANCH  73  74
ATOM     74  C   UNL A   1      36.783  22.238  23.910  1.00  0.00     0.042 C 
BRANCH  74  75
ATOM     75  C   UNL A   1      35.899  23.401  23.477  1.00  0.00     0.118 C 
BRANCH  75  76
ATOM     76  N   UNL A   1      34.525  23.019  23.200  1.00  0.00    -0.351 N 
ATOM     77  C   UNL A   1      33.432  23.815  22.911  1.00  0.00     0.272 C 
ATOM     78  H   UNL A   1      34.345  22.051  23.221  1.00  0.00     0.163 HD
ATOM     79  O   UNL A   1      32.357  23.269  22.689  1.00  0.00    -0.267 OA
BRANCH  77  80
ATOM     80  C   UNL A   1      33.597  25.274  22.926  1.00  0.00     0.159 A 
ATOM     81  N   UNL A   1      33.697  25.951  21.764  1.00  0.00    -0.169 NA
ATOM     82  C   UNL A   1      33.643  26.163  24.048  1.00  0.00     0.051 A 
ATOM     83  N   UNL A   1      33.717  27.238  22.131  1.00  0.00    -0.277 N 
ATOM     84  C   UNL A   1      33.647  27.438  23.482  1.00  0.00     0.068 A 
ATOM     85  C   UNL A   1      33.641  26.086  25.455  1.00  0.00     0.054 A 
ATOM     86  H   UNL A   1      33.776  27.978  21.484  1.00  0.00     0.190 HD
ATOM     87  C   UNL A   1      33.584  28.617  24.236  1.00  0.00     0.044 A 
ATOM     88  C   UNL A   1      33.558  27.235  26.242  1.00  0.00     0.037 A 
ATOM     89  Cl  UNL A   1      33.789  24.541  26.170  1.00  0.00    -0.083 Cl
ATOM     90  C   UNL A   1      33.517  28.481  25.628  1.00  0.00     0.021 A 
ATOM     91  Br  UNL A   1      33.386  30.038  26.697  1.00  0.00    -0.051 Br
ENDBRANCH  77  80
ENDBRANCH  75  76
ENDBRANCH  74  75
ENDBRANCH  73  74
ENDBRANCH   3  73
TORSDOF 13
ENDMDL
MODEL 2
REMARK VINA RESULT:     -12.8      1.858      2.426
REMARK SMILES O=C(NCCCNC(=O)c1n[nH]c2cc(Br)cc(Cl)c12)c1ccc(-c2c3nc(c(-c4c(F)cc(S(=O)(=O)[O-])cc4F)c4ccc([nH]4)c(-c4c(F)cc(S(=O)(=O)[O-])cc4F)c4nc(c(-c5c(F)cc(S(=O)(=O)[O-])cc5F)c5ccc2[nH]5)C=C4)C=C3)cc1
REMARK SMILES IDX 1 1 2 2 3 3 21 5 22 6 86 7 23 8 85 9 24 10 25 11 26 12 79 13
REMARK SMILES IDX 27 14 84 15 78 16 80 17 28 18 83 19 77 20 76 21 29 23 63 24
REMARK SMILES IDX 42 25 62 26 43 27 46 28 61 29 81 30 44 31 45 32 60 34 82 35
REMARK SMILES IDX 47 36 30 37 31 38 40 39 32 40 33 41 39 42 41 43 34 44 35 45
REMARK SMILES IDX 36 46 37 47 38 48 64 49 65 50 74 51 66 52 67 53 73 54 75 55
REMARK SMILES IDX 68 56 69 57 70 58 71 59 72 60 48 61 49 62 58 63 50 64 51 65
REMARK SMILES IDX 57 66 59 67 52 68 53 69 54 70 55 71 56 72 4 73 5 74 6 75
REMARK SMILES IDX 7 76 8 77 9 79 10 80 11 81 20 82 12 83 13 84 18 85 14 87
REMARK SMILES IDX 17 88 19 89 15 90 16 91
REMARK H PARENT 3 4 80 22 46 33 7 78 12 86
REMARK Flexibility Score: inf
ROOT
ATOM      1  O   UNL A   1      40.119  21.091  26.128  1.00  0.00    -0.269 OA
ATOM      2  C   UNL A   1      39.340  22.044  26.227  1.00  0.00     0.251 C 
ATOM      3  N   UNL A   1      38.116  21.870  25.640  1.00  0.00    -0.352 N 
ATOM      4  H   UNL A   1      38.071  21.046  25.103  1.00  0.00     0.163 HD
ENDROOT
BRANCH   2   5
ATOM      5  C   UNL A   1      39.804  23.280  26.918  1.00  0.00     0.039 A 
ATOM      6  C   UNL A   1      40.958  23.392  27.692  1.00  0.00     0.014 A 
ATOM      7  C   UNL A   1      38.987  24.420  26.775  1.00  0.00     0.014 A 
ATOM      8  C   UNL A   1      41.256  24.582  28.354  1.00  0.00     0.010 A 
ATOM      9  C   UNL A   1      39.296  25.623  27.412  1.00  0.00     0.010 A 
ATOM     10  C   UNL A   1      40.425  25.698  28.222  1.00  0.00    -0.014 A 
BRANCH  10  11
ATOM     11  C   UNL A   1      40.873  26.950  28.837  1.00  0.00     0.031 A 
ATOM     12  C   UNL A   1      42.090  27.567  28.231  1.00  0.00     0.074 A 
ATOM     13  C   UNL A   1      40.196  27.636  29.779  1.00  0.00     0.049 A 
ATOM     14  N   UNL A   1      43.228  27.832  28.789  1.00  0.00    -0.248 NA
ATOM     15  C   UNL A   1      42.041  27.875  26.794  1.00  0.00     0.031 C 
ATOM     16  C   UNL A   1      38.836  27.397  30.260  1.00  0.00     0.029 A 
ATOM     17  N   UNL A   1      40.568  28.776  30.435  1.00  0.00    -0.354 N 
ATOM     18  C   UNL A   1      43.974  28.518  27.829  1.00  0.00     0.074 A 
ATOM     19  C   UNL A   1      43.246  28.408  26.592  1.00  0.00     0.031 C 
ATOM     20  C   UNL A   1      38.426  28.471  30.971  1.00  0.00     0.029 A 
ATOM     21  C   UNL A   1      39.530  29.408  31.102  1.00  0.00     0.049 A 
ATOM     22  H   UNL A   1      41.491  29.117  30.435  1.00  0.00     0.167 HD
ATOM     23  C   UNL A   1      45.045  29.296  28.153  1.00  0.00     0.037 A 
ATOM     24  C   UNL A   1      39.557  30.643  31.662  1.00  0.00     0.037 A 
ATOM     25  C   UNL A   1      45.564  28.989  29.457  1.00  0.00     0.049 A 
ATOM     26  C   UNL A   1      40.976  31.001  31.912  1.00  0.00     0.074 A 
ATOM     27  C   UNL A   1      46.082  27.862  30.066  1.00  0.00     0.029 A 
ATOM     28  N   UNL A   1      45.338  29.886  30.470  1.00  0.00    -0.354 N 
ATOM     29  N   UNL A   1      41.750  30.420  32.788  1.00  0.00    -0.248 NA
ATOM     30  C   UNL A   1      41.661  31.843  30.941  1.00  0.00     0.031 C 
ATOM     31  C   UNL A   1      45.709  27.970  31.437  1.00  0.00     0.029 A 
ATOM     32  C   UNL A   1      44.997  29.162  31.582  1.00  0.00     0.049 A 
ATOM     33  H   UNL A   1      45.408  30.867  30.409  1.00  0.00     0.167 HD
ATOM     34  C   UNL A   1      43.022  30.500  32.249  1.00  0.00     0.074 A 
ATOM     35  C   UNL A   1      42.925  31.496  31.191  1.00  0.00     0.031 C 
ATOM     36  C   UNL A   1      43.970  29.558  32.523  1.00  0.00     0.037 A 
BRANCH  23  37
ATOM     37  C   UNL A   1      45.426  30.563  27.418  1.00  0.00     0.058 A 
ATOM     38  C   UNL A   1      46.748  30.734  26.953  1.00  0.00     0.135 A 
ATOM     39  C   UNL A   1      44.625  31.727  27.413  1.00  0.00     0.135 A 
ATOM     40  F   UNL A   1      47.601  29.697  26.925  1.00  0.00    -0.206 F 
ATOM     41  C   UNL A   1      47.258  31.981  26.588  1.00  0.00     0.059 A 
ATOM     42  C   UNL A   1      45.096  32.969  27.000  1.00  0.00     0.059 A 
ATOM     43  F   UNL A   1      43.380  31.734  27.905  1.00  0.00    -0.206 F 
ATOM     44  C   UNL A   1      46.427  33.097  26.636  1.00  0.00     0.060 A 
BRANCH  44  45
ATOM     45  S   UNL A   1      47.116  34.729  26.306  1.00  0.00     0.124 S 
ATOM     46  O   UNL A   1      47.855  34.982  27.536  1.00  0.00    -0.237 OA
ATOM     47  O   UNL A   1      47.922  34.486  25.114  1.00  0.00    -0.237 OA
ATOM     48  O   UNL A   1      45.930  35.556  26.096  1.00  0.00    -0.744 OA
ENDBRANCH  44  45
ENDBRANCH  23  37
BRANCH  24  49
ATOM     49  C   UNL A   1      38.460  31.644  31.747  1.00  0.00     0.058 A 
ATOM     50  C   UNL A   1      38.001  32.316  30.598  1.00  0.00     0.135 A 
ATOM     51  C   UNL A   1      37.653  31.761  32.897  1.00  0.00     0.135 A 
ATOM     52  F   UNL A   1      38.692  32.245  29.451  1.00  0.00    -0.206 F 
ATOM     53  C   UNL A   1      36.788  33.012  30.576  1.00  0.00     0.059 A 
ATOM     54  C   UNL A   1      36.451  32.465  32.903  1.00  0.00     0.059 A 
ATOM     55  F   UNL A   1      37.959  31.112  34.029  1.00  0.00    -0.206 F 
ATOM     56  C   UNL A   1      36.009  33.063  31.730  1.00  0.00     0.060 A 
BRANCH  56  57
ATOM     57  S   UNL A   1      34.362  33.805  31.657  1.00  0.00     0.124 S 
ATOM     58  O   UNL A   1      34.013  33.626  30.252  1.00  0.00    -0.237 OA
ATOM     59  O   UNL A   1      33.617  32.990  32.610  1.00  0.00    -0.237 OA
ATOM     60  O   UNL A   1      34.594  35.187  32.071  1.00  0.00    -0.744 OA
ENDBRANCH  56  57
ENDBRANCH  24  49
BRANCH  36  61
ATOM     61  C   UNL A   1      43.777  28.665  33.718  1.00  0.00     0.058 A 
ATOM     62  C   UNL A   1      44.152  29.010  35.028  1.00  0.00     0.135 A 
ATOM     63  C   UNL A   1      43.020  27.494  33.553  1.00  0.00     0.135 A 
ATOM     64  F   UNL A   1      44.790  30.161  35.282  1.00  0.00    -0.206 F 
ATOM     65  C   UNL A   1      43.805  28.215  36.121  1.00  0.00     0.059 A 
ATOM     66  C   UNL A   1      42.637  26.702  34.633  1.00  0.00     0.059 A 
ATOM     67  F   UNL A   1      42.584  27.142  32.332  1.00  0.00    -0.206 F 
ATOM     68  C   UNL A   1      43.037  27.068  35.916  1.00  0.00     0.060 A 
BRANCH  68  69
ATOM     69  S   UNL A   1      42.472  26.125  37.350  1.00  0.00     0.124 S 
ATOM     70  O   UNL A   1      43.364  26.600  38.401  1.00  0.00    -0.237 OA
ATOM     71  O   UNL A   1      41.074  26.535  37.470  1.00  0.00    -0.237 OA
ATOM     72  O   UNL A   1      42.668  24.735  36.943  1.00  0.00    -0.744 OA
ENDBRANCH  68  69
ENDBRANCH  36  61
ENDBRANCH  10  11
ENDBRANCH   2   5
BRANCH   3  73
ATOM     73  C   UNL A   1      36.868  22.611  25.618  1.00  0.00     0.118 C 
BRANCH  73  74
ATOM     74  C   UNL A   1      35.615  21.789  25.921  1.00  0.00     0.042 C 
BRANCH  74  75
ATOM     75  C   UNL A   1      35.317  20.673  24.928  1.00  0.00     0.118 C 
BRANCH  75  76
ATOM     76  N   UNL A   1      34.223  19.807  25.332  1.00  0.00    -0.351 N 
ATOM     77  C   UNL A   1      32.883  19.868  24.996  1.00  0.00     0.272 C 
ATOM     78  H   UNL A   1      34.471  19.069  25.935  1.00  0.00     0.163 HD
ATOM     79  O   UNL A   1      32.131  19.010  25.444  1.00  0.00    -0.267 OA
BRANCH  77  80
ATOM     80  C   UNL A   1      32.415  20.978  24.156  1.00  0.00     0.159 A 
ATOM     81  N   UNL A   1      32.348  20.826  22.818  1.00  0.00    -0.169 NA
ATOM     82  C   UNL A   1      31.958  22.276  24.552  1.00  0.00     0.051 A 
ATOM     83  N   UNL A   1      31.784  21.959  22.383  1.00  0.00    -0.277 N 
ATOM     84  C   UNL A   1      31.487  22.854  23.373  1.00  0.00     0.068 A 
ATOM     85  C   UNL A   1      31.833  23.034  25.734  1.00  0.00     0.054 A 
ATOM     86  H   UNL A   1      31.596  22.133  21.432  1.00  0.00     0.190 HD
ATOM     87  C   UNL A   1      30.850  24.101  23.327  1.00  0.00     0.044 A 
ATOM     88  C   UNL A   1      31.186  24.271  25.733  1.00  0.00     0.037 A 
ATOM     89  Cl  UNL A   1      32.537  22.413  27.160  1.00  0.00    -0.083 Cl
ATOM     90  C   UNL A   1      30.692  24.783  24.539  1.00  0.00     0.021 A 
ATOM     91  Br  UNL A   1      29.799  26.452  24.544  1.00  0.00    -0.051 Br
ENDBRANCH  77  80
ENDBRANCH  75  76
ENDBRANCH  74  75
ENDBRANCH  73  74
ENDBRANCH   3  73
TORSDOF 13
ENDMDL
MODEL 3
REMARK VINA RESULT:     -12.8      3.370      9.469
REMARK SMILES O=C(NCCCNC(=O)c1n[nH]c2cc(Br)cc(Cl)c12)c1ccc(-c2c3nc(c(-c4c(F)cc(S(=O)(=O)[O-])cc4F)c4ccc([nH]4)c(-c4c(F)cc(S(=O)(=O)[O-])cc4F)c4nc(c(-c5c(F)cc(S(=O)(=O)[O-])cc5F)c5ccc2[nH]5)C=C4)C=C3)cc1
REMARK SMILES IDX 1 1 2 2 3 3 21 5 22 6 86 7 23 8 85 9 24 10 25 11 26 12 79 13
REMARK SMILES IDX 27 14 84 15 78 16 80 17 28 18 83 19 77 20 76 21 29 23 63 24
REMARK SMILES IDX 42 25 62 26 43 27 46 28 61 29 81 30 44 31 45 32 60 34 82 35
REMARK SMILES IDX 47 36 30 37 31 38 40 39 32 40 33 41 39 42 41 43 34 44 35 45
REMARK SMILES IDX 36 46 37 47 38 48 64 49 65 50 74 51 66 52 67 53 73 54 75 55
REMARK SMILES IDX 68 56 69 57 70 58 71 59 72 60 48 61 49 62 58 63 50 64 51 65
REMARK SMILES IDX 57 66 59 67 52 68 53 69 54 70 55 71 56 72 4 73 5 74 6 75
REMARK SMILES IDX 7 76 8 77 9 79 10 80 11 81 20 82 12 83 13 84 18 85 14 87
REMARK SMILES IDX 17 88 19 89 15 90 16 91
REMARK H PARENT 3 4 80 22 46 33 7 78 12 86
REMARK Flexibility Score: inf
ROOT
ATOM      1  O   UNL A   1      34.298  32.817  28.213  1.00  0.00    -0.269 OA
ATOM      2  C   UNL A   1      34.477  31.630  27.927  1.00  0.00     0.251 C 
ATOM      3  N   UNL A   1      33.386  30.972  27.426  1.00  0.00    -0.352 N 
ATOM      4  H   UNL A   1      32.564  31.511  27.483  1.00  0.00     0.163 HD
ENDROOT
BRANCH   2   5
ATOM      5  C   UNL A   1      35.814  31.024  28.185  1.00  0.00     0.039 A 
ATOM      6  C   UNL A   1      36.170  29.702  27.921  1.00  0.00     0.014 A 
ATOM      7  C   UNL A   1      36.785  31.872  28.754  1.00  0.00     0.014 A 
ATOM      8  C   UNL A   1      37.431  29.223  28.272  1.00  0.00     0.010 A 
ATOM      9  C   UNL A   1      38.059  31.405  29.082  1.00  0.00     0.010 A 
ATOM     10  C   UNL A   1      38.377  30.069  28.858  1.00  0.00    -0.014 A 
BRANCH  10  11
ATOM     11  C   UNL A   1      39.722  29.531  29.074  1.00  0.00     0.031 A 
ATOM     12  C   UNL A   1      40.100  29.290  30.499  1.00  0.00     0.074 A 
ATOM     13  C   UNL A   1      40.553  29.110  28.101  1.00  0.00     0.049 A 
ATOM     14  N   UNL A   1      41.076  29.802  31.176  1.00  0.00    -0.248 NA
ATOM     15  C   UNL A   1      39.231  28.397  31.281  1.00  0.00     0.031 C 
ATOM     16  C   UNL A   1      40.257  28.935  26.680  1.00  0.00     0.029 A 
ATOM     17  N   UNL A   1      41.835  28.647  28.215  1.00  0.00    -0.354 N 
ATOM     18  C   UNL A   1      41.067  29.153  32.412  1.00  0.00     0.074 A 
ATOM     19  C   UNL A   1      39.844  28.394  32.464  1.00  0.00     0.031 C 
ATOM     20  C   UNL A   1      41.250  28.219  26.107  1.00  0.00     0.029 A 
ATOM     21  C   UNL A   1      42.304  27.997  27.085  1.00  0.00     0.049 A 
ATOM     22  H   UNL A   1      42.376  28.765  29.029  1.00  0.00     0.167 HD
ATOM     23  C   UNL A   1      42.153  29.128  33.235  1.00  0.00     0.037 A 
ATOM     24  C   UNL A   1      43.444  27.271  26.979  1.00  0.00     0.037 A 
ATOM     25  C   UNL A   1      43.100  30.160  32.914  1.00  0.00     0.049 A 
ATOM     26  C   UNL A   1      44.358  27.694  28.070  1.00  0.00     0.074 A 
ATOM     27  C   UNL A   1      43.064  31.539  32.852  1.00  0.00     0.029 A 
ATOM     28  N   UNL A   1      44.274  29.792  32.305  1.00  0.00    -0.354 N 
ATOM     29  N   UNL A   1      44.930  28.864  28.153  1.00  0.00    -0.248 NA
ATOM     30  C   UNL A   1      44.410  26.891  29.283  1.00  0.00     0.031 C 
ATOM     31  C   UNL A   1      43.976  31.894  31.815  1.00  0.00     0.029 A 
ATOM     32  C   UNL A   1      44.520  30.709  31.317  1.00  0.00     0.049 A 
ATOM     33  H   UNL A   1      44.834  29.016  32.535  1.00  0.00     0.167 HD
ATOM     34  C   UNL A   1      45.060  29.103  29.510  1.00  0.00     0.074 A 
ATOM     35  C   UNL A   1      44.851  27.809  30.145  1.00  0.00     0.031 C 
ATOM     36  C   UNL A   1      45.050  30.371  30.012  1.00  0.00     0.037 A 
BRANCH  23  37
ATOM     37  C   UNL A   1      42.512  27.961  34.129  1.00  0.00     0.058 A 
ATOM     38  C   UNL A   1      42.528  28.131  35.530  1.00  0.00     0.135 A 
ATOM     39  C   UNL A   1      43.121  26.778  33.653  1.00  0.00     0.135 A 
ATOM     40  F   UNL A   1      41.988  29.224  36.092  1.00  0.00    -0.206 F 
ATOM     41  C   UNL A   1      43.170  27.233  36.385  1.00  0.00     0.059 A 
ATOM     42  C   UNL A   1      43.717  25.842  34.492  1.00  0.00     0.059 A 
ATOM     43  F   UNL A   1      43.256  26.526  32.345  1.00  0.00    -0.206 F 
ATOM     44  C   UNL A   1      43.781  26.102  35.851  1.00  0.00     0.060 A 
BRANCH  44  45
ATOM     45  S   UNL A   1      44.733  25.016  36.930  1.00  0.00     0.124 S 
ATOM     46  O   UNL A   1      46.080  25.547  36.753  1.00  0.00    -0.237 OA
ATOM     47  O   UNL A   1      44.116  25.259  38.230  1.00  0.00    -0.237 OA
ATOM     48  O   UNL A   1      44.493  23.691  36.366  1.00  0.00    -0.744 OA
ENDBRANCH  44  45
ENDBRANCH  23  37
BRANCH  24  49
ATOM     49  C   UNL A   1      43.691  26.049  26.167  1.00  0.00     0.058 A 
ATOM     50  C   UNL A   1      44.911  25.861  25.491  1.00  0.00     0.135 A 
ATOM     51  C   UNL A   1      42.854  24.918  26.261  1.00  0.00     0.135 A 
ATOM     52  F   UNL A   1      45.781  26.875  25.370  1.00  0.00    -0.206 F 
ATOM     53  C   UNL A   1      45.302  24.615  24.990  1.00  0.00     0.059 A 
ATOM     54  C   UNL A   1      43.214  23.672  25.752  1.00  0.00     0.059 A 
ATOM     55  F   UNL A   1      41.697  24.964  26.937  1.00  0.00    -0.206 F 
ATOM     56  C   UNL A   1      44.454  23.520  25.145  1.00  0.00     0.060 A 
BRANCH  56  57
ATOM     57  S   UNL A   1      45.030  21.876  24.662  1.00  0.00     0.124 S 
ATOM     58  O   UNL A   1      44.630  21.816  23.261  1.00  0.00    -0.237 OA
ATOM     59  O   UNL A   1      46.464  21.968  24.914  1.00  0.00    -0.237 OA
ATOM     60  O   UNL A   1      44.299  20.984  25.559  1.00  0.00    -0.744 OA
ENDBRANCH  56  57
ENDBRANCH  24  49
BRANCH  36  61
ATOM     61  C   UNL A   1      45.311  31.521  29.078  1.00  0.00     0.058 A 
ATOM     62  C   UNL A   1      46.592  32.010  28.770  1.00  0.00     0.135 A 
ATOM     63  C   UNL A   1      44.233  32.022  28.330  1.00  0.00     0.135 A 
ATOM     64  F   UNL A   1      47.683  31.512  29.368  1.00  0.00    -0.206 F 
ATOM     65  C   UNL A   1      46.788  32.970  27.776  1.00  0.00     0.059 A 
ATOM     66  C   UNL A   1      44.411  32.957  27.314  1.00  0.00     0.059 A 
ATOM     67  F   UNL A   1      42.993  31.551  28.539  1.00  0.00    -0.206 F 
ATOM     68  C   UNL A   1      45.693  33.429  27.043  1.00  0.00     0.060 A 
BRANCH  68  69
ATOM     69  S   UNL A   1      45.975  34.563  25.665  1.00  0.00     0.124 S 
ATOM     70  O   UNL A   1      47.379  34.323  25.351  1.00  0.00    -0.237 OA
ATOM     71  O   UNL A   1      45.013  34.097  24.668  1.00  0.00    -0.237 OA
ATOM     72  O   UNL A   1      45.677  35.875  26.235  1.00  0.00    -0.744 OA
ENDBRANCH  68  69
ENDBRANCH  36  61
ENDBRANCH  10  11
ENDBRANCH   2   5
BRANCH   3  73
ATOM     73  C   UNL A   1      33.151  29.669  26.831  1.00  0.00     0.118 C 
BRANCH  73  74
ATOM     74  C   UNL A   1      32.740  29.687  25.359  1.00  0.00     0.042 C 
BRANCH  74  75
ATOM     75  C   UNL A   1      31.237  29.661  25.107  1.00  0.00     0.118 C 
BRANCH  75  76
ATOM     76  N   UNL A   1      30.875  29.865  23.714  1.00  0.00    -0.351 N 
ATOM     77  C   UNL A   1      30.324  28.977  22.809  1.00  0.00     0.272 C 
ATOM     78  H   UNL A   1      31.048  30.768  23.363  1.00  0.00     0.163 HD
ATOM     79  O   UNL A   1      30.080  29.376  21.677  1.00  0.00    -0.267 OA
BRANCH  77  80
ATOM     80  C   UNL A   1      30.097  27.588  23.232  1.00  0.00     0.159 A 
ATOM     81  N   UNL A   1      28.905  27.229  23.749  1.00  0.00    -0.169 NA
ATOM     82  C   UNL A   1      30.984  26.467  23.151  1.00  0.00     0.051 A 
ATOM     83  N   UNL A   1      28.999  25.904  23.911  1.00  0.00    -0.277 N 
ATOM     84  C   UNL A   1      30.203  25.377  23.535  1.00  0.00     0.068 A 
ATOM     85  C   UNL A   1      32.316  26.201  22.773  1.00  0.00     0.054 A 
ATOM     86  H   UNL A   1      28.265  25.355  24.270  1.00  0.00     0.190 HD
ATOM     87  C   UNL A   1      30.658  24.052  23.498  1.00  0.00     0.044 A 
ATOM     88  C   UNL A   1      32.801  24.895  22.704  1.00  0.00     0.037 A 
ATOM     89  Cl  UNL A   1      33.334  27.533  22.445  1.00  0.00    -0.083 Cl
ATOM     90  C   UNL A   1      31.967  23.838  23.052  1.00  0.00     0.021 A 
ATOM     91  Br  UNL A   1      32.621  22.065  22.940  1.00  0.00    -0.051 Br
ENDBRANCH  77  80
ENDBRANCH  75  76
ENDBRANCH  74  75
ENDBRANCH  73  74
ENDBRANCH   3  73
TORSDOF 13
ENDMDL
