MODEL 1
REMARK VINA RESULT:     -12.9      0.000      0.000
REMARK SMILES Cc1ccc(F)cc1NS(=O)(=O)c1ccc(C(=O)NCCCNC(=O)c2ccc(-c3c4nc(c(-c5c(F)cc(S(=O)(=O)[O-])cc5F)c5ccc([nH]5)c(-c5c(F)cc(S(=O)(=O)[O-])cc5F)c5nc(c(-c6c(F)cc(S(=O)(=O)[O-])cc6F)c6ccc3[nH]6)C=C5)C=C4)cc2)cc1
REMARK SMILES IDX 21 1 20 2 19 3 17 4 18 5 16 7 13 8 14 9 93 10 15 11 92 12
REMARK SMILES IDX 10 13 11 14 12 15 9 16 8 18 1 19 2 20 3 21 4 22 7 23 5 24
REMARK SMILES IDX 6 25 22 26 23 27 24 28 25 30 26 31 27 32 91 33 28 34 90 35
REMARK SMILES IDX 29 36 30 37 31 38 84 39 32 40 89 41 83 42 85 43 33 44 88 45
REMARK SMILES IDX 82 46 81 47 34 49 68 50 47 51 67 52 48 53 51 54 66 55 86 56
REMARK SMILES IDX 49 57 50 58 65 60 87 61 52 62 35 63 36 64 45 65 37 66 38 67
REMARK SMILES IDX 44 68 46 69 39 70 40 71 41 72 42 73 43 74 69 75 70 76 79 77
REMARK SMILES IDX 71 78 72 79 78 80 80 81 73 82 74 83 75 84 76 85 77 86 53 87
REMARK SMILES IDX 54 88 63 89 55 90 56 91 62 92 64 93 57 94 58 95 59 96 60 97
REMARK SMILES IDX 61 98
REMARK H PARENT 19 6 9 17 23 29 85 48 51 59
REMARK Flexibility Score: inf
ROOT
ATOM      1  C   UNL A   1      38.433  23.532  26.505  1.00  0.00     0.042 C 
ENDROOT
BRANCH   1   2
ATOM      2  C   UNL A   1      37.964  22.255  25.817  1.00  0.00     0.118 C 
BRANCH   2   3
ATOM      3  N   UNL A   1      37.763  22.462  24.394  1.00  0.00    -0.352 N 
ATOM      4  C   UNL A   1      36.615  22.744  23.705  1.00  0.00     0.251 C 
ATOM      5  O   UNL A   1      36.675  23.026  22.511  1.00  0.00    -0.269 OA
ATOM      6  H   UNL A   1      38.574  22.388  23.843  1.00  0.00     0.163 HD
BRANCH   4   7
ATOM      7  C   UNL A   1      35.302  22.763  24.383  1.00  0.00     0.039 A 
ATOM      8  C   UNL A   1      32.766  23.028  25.511  1.00  0.00     0.087 A 
ATOM      9  C   UNL A   1      33.746  23.994  25.771  1.00  0.00     0.023 A 
ATOM     10  C   UNL A   1      33.076  21.884  24.765  1.00  0.00     0.023 A 
ATOM     11  C   UNL A   1      34.999  23.879  25.171  1.00  0.00     0.015 A 
ATOM     12  C   UNL A   1      34.346  21.758  24.191  1.00  0.00     0.015 A 
BRANCH   8  13
ATOM     13  S   UNL A   1      31.131  23.256  26.162  1.00  0.00     0.261 S 
ATOM     14  O   UNL A   1      31.270  23.851  27.478  1.00  0.00    -0.201 OA
ATOM     15  O   UNL A   1      30.412  22.009  26.007  1.00  0.00    -0.201 OA
BRANCH  13  16
ATOM     16  N   UNL A   1      30.287  24.396  25.201  1.00  0.00    -0.279 N 
ATOM     17  H   UNL A   1      29.302  24.398  25.217  1.00  0.00     0.180 HD
BRANCH  16  18
ATOM     18  C   UNL A   1      30.975  25.352  24.366  1.00  0.00     0.055 A 
ATOM     19  C   UNL A   1      31.180  27.129  26.238  1.00  0.00     0.046 C 
ATOM     20  C   UNL A   1      31.443  26.591  24.856  1.00  0.00    -0.027 A 
ATOM     21  C   UNL A   1      32.103  27.474  23.970  1.00  0.00     0.008 A 
ATOM     22  C   UNL A   1      32.258  27.161  22.624  1.00  0.00     0.039 A 
ATOM     23  C   UNL A   1      31.033  25.115  22.990  1.00  0.00     0.066 A 
ATOM     24  C   UNL A   1      31.698  25.992  22.142  1.00  0.00     0.125 A 
ATOM     25  F   UNL A   1      31.784  25.709  20.837  1.00  0.00    -0.207 F 
ENDBRANCH  16  18
ENDBRANCH  13  16
ENDBRANCH   8  13
ENDBRANCH   4   7
ENDBRANCH   2   3
ENDBRANCH   1   2
BRANCH   1  26
ATOM     26  C   UNL A   1      39.853  23.440  27.055  1.00  0.00     0.118 C 
BRANCH  26  27
ATOM     27  N   UNL A   1      40.824  24.036  26.149  1.00  0.00    -0.352 N 
ATOM     28  C   UNL A   1      41.352  25.301  26.134  1.00  0.00     0.251 C 
ATOM     29  H   UNL A   1      41.153  23.439  25.440  1.00  0.00     0.163 HD
ATOM     30  O   UNL A   1      41.956  25.685  25.134  1.00  0.00    -0.269 OA
BRANCH  28  31
ATOM     31  C   UNL A   1      41.206  26.196  27.302  1.00  0.00     0.039 A 
ATOM     32  C   UNL A   1      40.172  25.952  28.210  1.00  0.00     0.014 A 
ATOM     33  C   UNL A   1      42.033  27.311  27.471  1.00  0.00     0.014 A 
ATOM     34  C   UNL A   1      39.982  26.812  29.294  1.00  0.00     0.010 A 
ATOM     35  C   UNL A   1      41.896  28.119  28.596  1.00  0.00     0.010 A 
ATOM     36  C   UNL A   1      40.851  27.895  29.503  1.00  0.00    -0.014 A 
BRANCH  36  37
ATOM     37  C   UNL A   1      40.649  28.824  30.644  1.00  0.00     0.031 A 
ATOM     38  C   UNL A   1      41.498  28.695  31.882  1.00  0.00     0.074 A 
ATOM     39  C   UNL A   1      39.681  29.758  30.578  1.00  0.00     0.049 A 
ATOM     40  N   UNL A   1      41.463  29.397  32.985  1.00  0.00    -0.248 NA
ATOM     41  C   UNL A   1      42.503  27.619  31.891  1.00  0.00     0.031 C 
ATOM     42  C   UNL A   1      38.760  29.943  29.453  1.00  0.00     0.029 A 
ATOM     43  N   UNL A   1      39.308  30.728  31.473  1.00  0.00    -0.354 N 
ATOM     44  C   UNL A   1      42.426  28.841  33.821  1.00  0.00     0.074 A 
ATOM     45  C   UNL A   1      42.988  27.707  33.121  1.00  0.00     0.031 C 
ATOM     46  C   UNL A   1      37.950  30.981  29.713  1.00  0.00     0.029 A 
ATOM     47  C   UNL A   1      38.271  31.516  31.033  1.00  0.00     0.049 A 
ATOM     48  H   UNL A   1      39.742  30.848  32.348  1.00  0.00     0.167 HD
ATOM     49  C   UNL A   1      42.825  29.254  35.047  1.00  0.00     0.037 A 
ATOM     50  C   UNL A   1      37.652  32.555  31.626  1.00  0.00     0.037 A 
ATOM     51  C   UNL A   1      42.277  30.402  35.725  1.00  0.00     0.049 A 
ATOM     52  C   UNL A   1      38.130  33.011  32.978  1.00  0.00     0.074 A 
ATOM     53  C   UNL A   1      42.642  30.936  36.947  1.00  0.00     0.029 A 
ATOM     54  N   UNL A   1      41.249  31.194  35.233  1.00  0.00    -0.354 N 
ATOM     55  N   UNL A   1      39.082  32.509  33.729  1.00  0.00    -0.248 NA
ATOM     56  C   UNL A   1      37.461  34.184  33.555  1.00  0.00     0.031 C 
ATOM     57  C   UNL A   1      41.807  32.028  37.213  1.00  0.00     0.029 A 
ATOM     58  C   UNL A   1      40.959  32.206  36.132  1.00  0.00     0.049 A 
ATOM     59  H   UNL A   1      40.793  31.056  34.371  1.00  0.00     0.167 HD
ATOM     60  C   UNL A   1      39.149  33.326  34.853  1.00  0.00     0.074 A 
ATOM     61  C   UNL A   1      38.148  34.360  34.675  1.00  0.00     0.031 C 
ATOM     62  C   UNL A   1      39.965  33.231  35.933  1.00  0.00     0.037 A 
BRANCH  49  63
ATOM     63  C   UNL A   1      43.910  28.465  35.731  1.00  0.00     0.058 A 
ATOM     64  C   UNL A   1      43.614  27.410  36.610  1.00  0.00     0.135 A 
ATOM     65  C   UNL A   1      45.264  28.747  35.485  1.00  0.00     0.135 A 
ATOM     66  F   UNL A   1      42.338  27.105  36.896  1.00  0.00    -0.206 F 
ATOM     67  C   UNL A   1      44.617  26.686  37.246  1.00  0.00     0.059 A 
ATOM     68  C   UNL A   1      46.285  28.015  36.087  1.00  0.00     0.059 A 
ATOM     69  F   UNL A   1      45.607  29.743  34.654  1.00  0.00    -0.206 F 
ATOM     70  C   UNL A   1      45.952  26.997  36.978  1.00  0.00     0.060 A 
BRANCH  70  71
ATOM     71  S   UNL A   1      47.242  26.045  37.808  1.00  0.00     0.124 S 
ATOM     72  O   UNL A   1      46.945  26.317  39.212  1.00  0.00    -0.237 OA
ATOM     73  O   UNL A   1      46.968  24.686  37.355  1.00  0.00    -0.237 OA
ATOM     74  O   UNL A   1      48.477  26.635  37.303  1.00  0.00    -0.744 OA
ENDBRANCH  70  71
ENDBRANCH  49  63
BRANCH  50  75
ATOM     75  C   UNL A   1      36.545  33.258  30.925  1.00  0.00     0.058 A 
ATOM     76  C   UNL A   1      35.215  33.109  31.345  1.00  0.00     0.135 A 
ATOM     77  C   UNL A   1      36.795  34.103  29.832  1.00  0.00     0.135 A 
ATOM     78  F   UNL A   1      34.925  32.311  32.383  1.00  0.00    -0.206 F 
ATOM     79  C   UNL A   1      34.168  33.756  30.695  1.00  0.00     0.059 A 
ATOM     80  C   UNL A   1      35.768  34.781  29.183  1.00  0.00     0.059 A 
ATOM     81  F   UNL A   1      38.052  34.294  29.404  1.00  0.00    -0.206 F 
ATOM     82  C   UNL A   1      34.455  34.592  29.615  1.00  0.00     0.060 A 
BRANCH  82  83
ATOM     83  S   UNL A   1      33.095  35.462  28.807  1.00  0.00     0.124 S 
ATOM     84  O   UNL A   1      33.811  36.453  28.012  1.00  0.00    -0.237 OA
ATOM     85  O   UNL A   1      32.446  34.390  28.059  1.00  0.00    -0.237 OA
ATOM     86  O   UNL A   1      32.323  35.990  29.928  1.00  0.00    -0.744 OA
ENDBRANCH  82  83
ENDBRANCH  50  75
BRANCH  62  87
ATOM     87  C   UNL A   1      39.841  34.302  36.983  1.00  0.00     0.058 A 
ATOM     88  C   UNL A   1      39.019  34.145  38.110  1.00  0.00     0.135 A 
ATOM     89  C   UNL A   1      40.574  35.494  36.865  1.00  0.00     0.135 A 
ATOM     90  F   UNL A   1      38.295  33.027  38.269  1.00  0.00    -0.206 F 
ATOM     91  C   UNL A   1      38.897  35.151  39.064  1.00  0.00     0.059 A 
ATOM     92  C   UNL A   1      40.491  36.500  37.822  1.00  0.00     0.059 A 
ATOM     93  F   UNL A   1      41.385  35.689  35.813  1.00  0.00    -0.206 F 
ATOM     94  C   UNL A   1      39.634  36.327  38.908  1.00  0.00     0.060 A 
BRANCH  94  95
ATOM     95  S   UNL A   1      39.469  37.624  40.152  1.00  0.00     0.124 S 
ATOM     96  O   UNL A   1      40.772  38.274  40.072  1.00  0.00    -0.237 OA
ATOM     97  O   UNL A   1      38.340  38.401  39.647  1.00  0.00    -0.237 OA
ATOM     98  O   UNL A   1      39.210  36.883  41.382  1.00  0.00    -0.744 OA
ENDBRANCH  94  95
ENDBRANCH  62  87
ENDBRANCH  36  37
ENDBRANCH  28  31
ENDBRANCH  26  27
ENDBRANCH   1  26
TORSDOF 16
ENDMDL
MODEL 2
REMARK VINA RESULT:     -12.6      1.650      2.528
REMARK SMILES Cc1ccc(F)cc1NS(=O)(=O)c1ccc(C(=O)NCCCNC(=O)c2ccc(-c3c4nc(c(-c5c(F)cc(S(=O)(=O)[O-])cc5F)c5ccc([nH]5)c(-c5c(F)cc(S(=O)(=O)[O-])cc5F)c5nc(c(-c6c(F)cc(S(=O)(=O)[O-])cc6F)c6ccc3[nH]6)C=C5)C=C4)cc2)cc1
REMARK SMILES IDX 21 1 20 2 19 3 17 4 18 5 16 7 13 8 14 9 93 10 15 11 92 12
REMARK SMILES IDX 10 13 11 14 12 15 9 16 8 18 1 19 2 20 3 21 4 22 7 23 5 24
REMARK SMILES IDX 6 25 22 26 23 27 24 28 25 30 26 31 27 32 91 33 28 34 90 35
REMARK SMILES IDX 29 36 30 37 31 38 84 39 32 40 89 41 83 42 85 43 33 44 88 45
REMARK SMILES IDX 82 46 81 47 34 49 68 50 47 51 67 52 48 53 51 54 66 55 86 56
REMARK SMILES IDX 49 57 50 58 65 60 87 61 52 62 35 63 36 64 45 65 37 66 38 67
REMARK SMILES IDX 44 68 46 69 39 70 40 71 41 72 42 73 43 74 69 75 70 76 79 77
REMARK SMILES IDX 71 78 72 79 78 80 80 81 73 82 74 83 75 84 76 85 77 86 53 87
REMARK SMILES IDX 54 88 63 89 55 90 56 91 62 92 64 93 57 94 58 95 59 96 60 97
REMARK SMILES IDX 61 98
REMARK H PARENT 19 6 9 17 23 29 85 48 51 59
REMARK Flexibility Score: inf
ROOT
ATOM      1  C   UNL A   1      40.906  22.414  27.758  1.00  0.00     0.042 C 
ENDROOT
BRANCH   1   2
ATOM      2  C   UNL A   1      39.825  22.644  26.707  1.00  0.00     0.118 C 
BRANCH   2   3
ATOM      3  N   UNL A   1      39.343  21.390  26.159  1.00  0.00    -0.352 N 
ATOM      4  C   UNL A   1      38.261  21.144  25.358  1.00  0.00     0.251 C 
ATOM      5  O   UNL A   1      38.099  20.024  24.879  1.00  0.00    -0.269 OA
ATOM      6  H   UNL A   1      39.874  20.597  26.399  1.00  0.00     0.163 HD
BRANCH   4   7
ATOM      7  C   UNL A   1      37.303  22.217  25.017  1.00  0.00     0.039 A 
ATOM      8  C   UNL A   1      35.304  24.039  24.339  1.00  0.00     0.087 A 
ATOM      9  C   UNL A   1      35.774  23.134  23.379  1.00  0.00     0.023 A 
ATOM     10  C   UNL A   1      35.894  24.097  25.608  1.00  0.00     0.023 A 
ATOM     11  C   UNL A   1      36.743  22.197  23.735  1.00  0.00     0.015 A 
ATOM     12  C   UNL A   1      36.889  23.175  25.950  1.00  0.00     0.015 A 
BRANCH   8  13
ATOM     13  S   UNL A   1      33.971  25.131  23.921  1.00  0.00     0.261 S 
ATOM     14  O   UNL A   1      34.082  25.425  22.505  1.00  0.00    -0.201 OA
ATOM     15  O   UNL A   1      33.962  26.213  24.883  1.00  0.00    -0.201 OA
BRANCH  13  16
ATOM     16  N   UNL A   1      32.478  24.317  24.131  1.00  0.00    -0.279 N 
ATOM     17  H   UNL A   1      31.675  24.843  24.355  1.00  0.00     0.180 HD
BRANCH  16  18
ATOM     18  C   UNL A   1      32.360  22.885  23.991  1.00  0.00     0.055 A 
ATOM     19  C   UNL A   1      32.868  22.406  26.484  1.00  0.00     0.046 C 
ATOM     20  C   UNL A   1      32.479  22.002  25.086  1.00  0.00    -0.027 A 
ATOM     21  C   UNL A   1      32.356  20.611  24.863  1.00  0.00     0.008 A 
ATOM     22  C   UNL A   1      32.163  20.101  23.583  1.00  0.00     0.039 A 
ATOM     23  C   UNL A   1      32.289  22.345  22.704  1.00  0.00     0.066 A 
ATOM     24  C   UNL A   1      32.156  20.975  22.512  1.00  0.00     0.125 A 
ATOM     25  F   UNL A   1      32.035  20.493  21.269  1.00  0.00    -0.207 F 
ENDBRANCH  16  18
ENDBRANCH  13  16
ENDBRANCH   8  13
ENDBRANCH   4   7
ENDBRANCH   2   3
ENDBRANCH   1   2
BRANCH   1  26
ATOM     26  C   UNL A   1      42.169  23.235  27.520  1.00  0.00     0.118 C 
BRANCH  26  27
ATOM     27  N   UNL A   1      42.066  24.053  26.321  1.00  0.00    -0.352 N 
ATOM     28  C   UNL A   1      41.618  25.341  26.170  1.00  0.00     0.251 C 
ATOM     29  H   UNL A   1      42.365  23.616  25.491  1.00  0.00     0.163 HD
ATOM     30  O   UNL A   1      41.366  25.757  25.042  1.00  0.00    -0.269 OA
BRANCH  28  31
ATOM     31  C   UNL A   1      41.444  26.223  27.344  1.00  0.00     0.039 A 
ATOM     32  C   UNL A   1      40.331  26.033  28.168  1.00  0.00     0.014 A 
ATOM     33  C   UNL A   1      42.327  27.278  27.597  1.00  0.00     0.014 A 
ATOM     34  C   UNL A   1      40.117  26.885  29.253  1.00  0.00     0.010 A 
ATOM     35  C   UNL A   1      42.158  28.074  28.727  1.00  0.00     0.010 A 
ATOM     36  C   UNL A   1      41.037  27.905  29.550  1.00  0.00    -0.014 A 
BRANCH  36  37
ATOM     37  C   UNL A   1      40.810  28.825  30.693  1.00  0.00     0.031 A 
ATOM     38  C   UNL A   1      41.654  28.707  31.935  1.00  0.00     0.074 A 
ATOM     39  C   UNL A   1      39.825  29.742  30.623  1.00  0.00     0.049 A 
ATOM     40  N   UNL A   1      41.599  29.404  33.041  1.00  0.00    -0.248 NA
ATOM     41  C   UNL A   1      42.679  27.650  31.947  1.00  0.00     0.031 C 
ATOM     42  C   UNL A   1      38.908  29.914  29.494  1.00  0.00     0.029 A 
ATOM     43  N   UNL A   1      39.429  30.701  31.520  1.00  0.00    -0.354 N 
ATOM     44  C   UNL A   1      42.567  28.863  33.880  1.00  0.00     0.074 A 
ATOM     45  C   UNL A   1      43.154  27.742  33.180  1.00  0.00     0.031 C 
ATOM     46  C   UNL A   1      38.078  30.936  29.752  1.00  0.00     0.029 A 
ATOM     47  C   UNL A   1      38.380  31.471  31.076  1.00  0.00     0.049 A 
ATOM     48  H   UNL A   1      39.856  30.825  32.398  1.00  0.00     0.167 HD
ATOM     49  C   UNL A   1      42.951  29.279  35.111  1.00  0.00     0.037 A 
ATOM     50  C   UNL A   1      37.740  32.497  31.669  1.00  0.00     0.037 A 
ATOM     51  C   UNL A   1      42.378  30.414  35.789  1.00  0.00     0.049 A 
ATOM     52  C   UNL A   1      38.200  32.956  33.025  1.00  0.00     0.074 A 
ATOM     53  C   UNL A   1      42.725  30.951  37.015  1.00  0.00     0.029 A 
ATOM     54  N   UNL A   1      41.338  31.189  35.293  1.00  0.00    -0.354 N 
ATOM     55  N   UNL A   1      39.157  32.470  33.781  1.00  0.00    -0.248 NA
ATOM     56  C   UNL A   1      37.507  34.115  33.603  1.00  0.00     0.031 C 
ATOM     57  C   UNL A   1      41.869  32.026  37.280  1.00  0.00     0.029 A 
ATOM     58  C   UNL A   1      41.025  32.192  36.195  1.00  0.00     0.049 A 
ATOM     59  H   UNL A   1      40.891  31.046  34.428  1.00  0.00     0.167 HD
ATOM     60  C   UNL A   1      39.202  33.283  34.908  1.00  0.00     0.074 A 
ATOM     61  C   UNL A   1      38.184  34.299  34.727  1.00  0.00     0.031 C 
ATOM     62  C   UNL A   1      40.013  33.200  35.993  1.00  0.00     0.037 A 
BRANCH  49  63
ATOM     63  C   UNL A   1      44.046  28.507  35.798  1.00  0.00     0.058 A 
ATOM     64  C   UNL A   1      45.402  28.824  35.611  1.00  0.00     0.135 A 
ATOM     65  C   UNL A   1      43.738  27.456  36.676  1.00  0.00     0.135 A 
ATOM     66  F   UNL A   1      45.757  29.809  34.771  1.00  0.00    -0.206 F 
ATOM     67  C   UNL A   1      46.413  28.105  36.242  1.00  0.00     0.059 A 
ATOM     68  C   UNL A   1      44.733  26.743  37.342  1.00  0.00     0.059 A 
ATOM     69  F   UNL A   1      42.460  27.109  36.894  1.00  0.00    -0.206 F 
ATOM     70  C   UNL A   1      46.068  27.065  37.106  1.00  0.00     0.060 A 
BRANCH  70  71
ATOM     71  S   UNL A   1      47.391  26.146  37.920  1.00  0.00     0.124 S 
ATOM     72  O   UNL A   1      48.450  26.213  36.918  1.00  0.00    -0.237 OA
ATOM     73  O   UNL A   1      47.615  26.927  39.132  1.00  0.00    -0.237 OA
ATOM     74  O   UNL A   1      46.808  24.824  38.129  1.00  0.00    -0.744 OA
ENDBRANCH  70  71
ENDBRANCH  49  63
BRANCH  50  75
ATOM     75  C   UNL A   1      36.624  33.182  30.964  1.00  0.00     0.058 A 
ATOM     76  C   UNL A   1      36.873  34.063  29.901  1.00  0.00     0.135 A 
ATOM     77  C   UNL A   1      35.286  32.959  31.328  1.00  0.00     0.135 A 
ATOM     78  F   UNL A   1      38.134  34.311  29.518  1.00  0.00    -0.206 F 
ATOM     79  C   UNL A   1      35.839  34.715  29.236  1.00  0.00     0.059 A 
ATOM     80  C   UNL A   1      34.234  33.578  30.660  1.00  0.00     0.059 A 
ATOM     81  F   UNL A   1      34.993  32.109  32.324  1.00  0.00    -0.206 F 
ATOM     82  C   UNL A   1      34.522  34.464  29.623  1.00  0.00     0.060 A 
BRANCH  82  83
ATOM     83  S   UNL A   1      33.185  35.281  28.724  1.00  0.00     0.124 S 
ATOM     84  O   UNL A   1      33.927  36.194  27.862  1.00  0.00    -0.237 OA
ATOM     85  O   UNL A   1      32.534  34.159  28.056  1.00  0.00    -0.237 OA
ATOM     86  O   UNL A   1      32.404  35.909  29.785  1.00  0.00    -0.744 OA
ENDBRANCH  82  83
ENDBRANCH  50  75
BRANCH  62  87
ATOM     87  C   UNL A   1      39.863  34.264  37.045  1.00  0.00     0.058 A 
ATOM     88  C   UNL A   1      39.054  34.080  38.178  1.00  0.00     0.135 A 
ATOM     89  C   UNL A   1      40.558  35.478  36.925  1.00  0.00     0.135 A 
ATOM     90  F   UNL A   1      38.366  32.939  38.339  1.00  0.00    -0.206 F 
ATOM     91  C   UNL A   1      38.907  35.080  39.134  1.00  0.00     0.059 A 
ATOM     92  C   UNL A   1      40.450  36.479  37.884  1.00  0.00     0.059 A 
ATOM     93  F   UNL A   1      41.355  35.701  35.868  1.00  0.00    -0.206 F 
ATOM     94  C   UNL A   1      39.606  36.278  38.976  1.00  0.00     0.060 A 
BRANCH  94  95
ATOM     95  S   UNL A   1      39.409  37.567  40.224  1.00  0.00     0.124 S 
ATOM     96  O   UNL A   1      38.330  38.365  39.652  1.00  0.00    -0.237 OA
ATOM     97  O   UNL A   1      39.067  36.799  41.417  1.00  0.00    -0.237 OA
ATOM     98  O   UNL A   1      40.718  38.212  40.255  1.00  0.00    -0.744 OA
ENDBRANCH  94  95
ENDBRANCH  62  87
ENDBRANCH  36  37
ENDBRANCH  28  31
ENDBRANCH  26  27
ENDBRANCH   1  26
TORSDOF 16
ENDMDL
MODEL 3
REMARK VINA RESULT:     -12.6      0.256      1.712
REMARK SMILES Cc1ccc(F)cc1NS(=O)(=O)c1ccc(C(=O)NCCCNC(=O)c2ccc(-c3c4nc(c(-c5c(F)cc(S(=O)(=O)[O-])cc5F)c5ccc([nH]5)c(-c5c(F)cc(S(=O)(=O)[O-])cc5F)c5nc(c(-c6c(F)cc(S(=O)(=O)[O-])cc6F)c6ccc3[nH]6)C=C5)C=C4)cc2)cc1
REMARK SMILES IDX 21 1 20 2 19 3 17 4 18 5 16 7 13 8 14 9 93 10 15 11 92 12
REMARK SMILES IDX 10 13 11 14 12 15 9 16 8 18 1 19 2 20 3 21 4 22 7 23 5 24
REMARK SMILES IDX 6 25 22 26 23 27 24 28 25 30 26 31 27 32 91 33 28 34 90 35
REMARK SMILES IDX 29 36 30 37 31 38 84 39 32 40 89 41 83 42 85 43 33 44 88 45
REMARK SMILES IDX 82 46 81 47 34 49 68 50 47 51 67 52 48 53 51 54 66 55 86 56
REMARK SMILES IDX 49 57 50 58 65 60 87 61 52 62 35 63 36 64 45 65 37 66 38 67
REMARK SMILES IDX 44 68 46 69 39 70 40 71 41 72 42 73 43 74 69 75 70 76 79 77
REMARK SMILES IDX 71 78 72 79 78 80 80 81 73 82 74 83 75 84 76 85 77 86 53 87
REMARK SMILES IDX 54 88 63 89 55 90 56 91 62 92 64 93 57 94 58 95 59 96 60 97
REMARK SMILES IDX 61 98
REMARK H PARENT 19 6 9 17 23 29 85 48 51 59
REMARK Flexibility Score: inf
ROOT
ATOM      1  C   UNL A   1      39.340  22.020  26.381  1.00  0.00     0.042 C 
ENDROOT
BRANCH   1   2
ATOM      2  C   UNL A   1      37.876  22.014  25.954  1.00  0.00     0.118 C 
BRANCH   2   3
ATOM      3  N   UNL A   1      37.733  22.330  24.545  1.00  0.00    -0.352 N 
ATOM      4  C   UNL A   1      36.622  22.705  23.841  1.00  0.00     0.251 C 
ATOM      5  O   UNL A   1      36.734  23.069  22.674  1.00  0.00    -0.269 OA
ATOM      6  H   UNL A   1      38.561  22.264  24.016  1.00  0.00     0.163 HD
BRANCH   4   7
ATOM      7  C   UNL A   1      35.287  22.728  24.476  1.00  0.00     0.039 A 
ATOM      8  C   UNL A   1      32.735  23.025  25.560  1.00  0.00     0.087 A 
ATOM      9  C   UNL A   1      33.777  23.850  26.000  1.00  0.00     0.023 A 
ATOM     10  C   UNL A   1      32.985  21.992  24.647  1.00  0.00     0.023 A 
ATOM     11  C   UNL A   1      35.041  23.726  25.425  1.00  0.00     0.015 A 
ATOM     12  C   UNL A   1      34.263  21.851  24.096  1.00  0.00     0.015 A 
BRANCH   8  13
ATOM     13  S   UNL A   1      31.098  23.285  26.192  1.00  0.00     0.261 S 
ATOM     14  O   UNL A   1      31.234  23.852  27.520  1.00  0.00    -0.201 OA
ATOM     15  O   UNL A   1      30.349  22.061  26.004  1.00  0.00    -0.201 OA
BRANCH  13  16
ATOM     16  N   UNL A   1      30.298  24.464  25.240  1.00  0.00    -0.279 N 
ATOM     17  H   UNL A   1      29.314  24.504  25.258  1.00  0.00     0.180 HD
BRANCH  16  18
ATOM     18  C   UNL A   1      31.022  25.400  24.412  1.00  0.00     0.055 A 
ATOM     19  C   UNL A   1      31.276  27.163  26.291  1.00  0.00     0.046 C 
ATOM     20  C   UNL A   1      31.528  26.621  24.909  1.00  0.00    -0.027 A 
ATOM     21  C   UNL A   1      32.222  27.484  24.030  1.00  0.00     0.008 A 
ATOM     22  C   UNL A   1      32.375  27.171  22.683  1.00  0.00     0.039 A 
ATOM     23  C   UNL A   1      31.080  25.165  23.036  1.00  0.00     0.066 A 
ATOM     24  C   UNL A   1      31.779  26.023  22.195  1.00  0.00     0.125 A 
ATOM     25  F   UNL A   1      31.863  25.741  20.889  1.00  0.00    -0.207 F 
ENDBRANCH  16  18
ENDBRANCH  13  16
ENDBRANCH   8  13
ENDBRANCH   4   7
ENDBRANCH   2   3
ENDBRANCH   1   2
BRANCH   1  26
ATOM     26  C   UNL A   1      39.819  23.376  26.891  1.00  0.00     0.118 C 
BRANCH  26  27
ATOM     27  N   UNL A   1      40.996  23.840  26.173  1.00  0.00    -0.352 N 
ATOM     28  C   UNL A   1      41.645  25.046  26.234  1.00  0.00     0.251 C 
ATOM     29  H   UNL A   1      41.388  23.187  25.549  1.00  0.00     0.163 HD
ATOM     30  O   UNL A   1      42.459  25.332  25.358  1.00  0.00    -0.269 OA
BRANCH  28  31
ATOM     31  C   UNL A   1      41.379  25.994  27.337  1.00  0.00     0.039 A 
ATOM     32  C   UNL A   1      42.215  27.105  27.484  1.00  0.00     0.014 A 
ATOM     33  C   UNL A   1      40.360  25.761  28.266  1.00  0.00     0.014 A 
ATOM     34  C   UNL A   1      42.015  27.988  28.548  1.00  0.00     0.010 A 
ATOM     35  C   UNL A   1      40.110  26.685  29.276  1.00  0.00     0.010 A 
ATOM     36  C   UNL A   1      40.952  27.793  29.445  1.00  0.00    -0.014 A 
BRANCH  36  37
ATOM     37  C   UNL A   1      40.740  28.717  30.587  1.00  0.00     0.031 A 
ATOM     38  C   UNL A   1      41.584  28.589  31.828  1.00  0.00     0.074 A 
ATOM     39  C   UNL A   1      39.769  29.649  30.518  1.00  0.00     0.049 A 
ATOM     40  N   UNL A   1      41.541  29.287  32.933  1.00  0.00    -0.248 NA
ATOM     41  C   UNL A   1      42.593  27.516  31.840  1.00  0.00     0.031 C 
ATOM     42  C   UNL A   1      38.853  29.833  29.389  1.00  0.00     0.029 A 
ATOM     43  N   UNL A   1      39.388  30.615  31.413  1.00  0.00    -0.354 N 
ATOM     44  C   UNL A   1      42.501  28.733  33.772  1.00  0.00     0.074 A 
ATOM     45  C   UNL A   1      43.070  27.603  33.073  1.00  0.00     0.031 C 
ATOM     46  C   UNL A   1      38.038  30.868  29.648  1.00  0.00     0.029 A 
ATOM     47  C   UNL A   1      38.351  31.400  30.970  1.00  0.00     0.049 A 
ATOM     48  H   UNL A   1      39.818  30.734  32.291  1.00  0.00     0.167 HD
ATOM     49  C   UNL A   1      42.893  29.144  35.002  1.00  0.00     0.037 A 
ATOM     50  C   UNL A   1      37.726  32.436  31.563  1.00  0.00     0.037 A 
ATOM     51  C   UNL A   1      42.337  30.288  35.679  1.00  0.00     0.049 A 
ATOM     52  C   UNL A   1      38.195  32.890  32.918  1.00  0.00     0.074 A 
ATOM     53  C   UNL A   1      42.695  30.821  36.905  1.00  0.00     0.029 A 
ATOM     54  N   UNL A   1      41.309  31.078  35.184  1.00  0.00    -0.354 N 
ATOM     55  N   UNL A   1      39.145  32.390  33.673  1.00  0.00    -0.248 NA
ATOM     56  C   UNL A   1      37.520  34.059  33.495  1.00  0.00     0.031 C 
ATOM     57  C   UNL A   1      41.855  31.909  37.170  1.00  0.00     0.029 A 
ATOM     58  C   UNL A   1      41.012  32.087  36.085  1.00  0.00     0.049 A 
ATOM     59  H   UNL A   1      40.858  30.941  34.319  1.00  0.00     0.167 HD
ATOM     60  C   UNL A   1      39.204  33.204  34.799  1.00  0.00     0.074 A 
ATOM     61  C   UNL A   1      38.201  34.235  34.619  1.00  0.00     0.031 C 
ATOM     62  C   UNL A   1      40.015  33.110  35.883  1.00  0.00     0.037 A 
BRANCH  49  63
ATOM     63  C   UNL A   1      43.977  28.357  35.689  1.00  0.00     0.058 A 
ATOM     64  C   UNL A   1      45.338  28.649  35.494  1.00  0.00     0.135 A 
ATOM     65  C   UNL A   1      43.655  27.316  36.574  1.00  0.00     0.135 A 
ATOM     66  F   UNL A   1      45.707  29.623  34.647  1.00  0.00    -0.206 F 
ATOM     67  C   UNL A   1      46.339  27.916  36.125  1.00  0.00     0.059 A 
ATOM     68  C   UNL A   1      44.639  26.590  37.240  1.00  0.00     0.059 A 
ATOM     69  F   UNL A   1      42.371  26.993  36.800  1.00  0.00    -0.206 F 
ATOM     70  C   UNL A   1      45.979  26.887  36.996  1.00  0.00     0.060 A 
BRANCH  70  71
ATOM     71  S   UNL A   1      47.289  25.948  37.809  1.00  0.00     0.124 S 
ATOM     72  O   UNL A   1      48.482  26.647  37.339  1.00  0.00    -0.237 OA
ATOM     73  O   UNL A   1      46.969  26.124  39.222  1.00  0.00    -0.237 OA
ATOM     74  O   UNL A   1      47.110  24.595  37.292  1.00  0.00    -0.744 OA
ENDBRANCH  70  71
ENDBRANCH  49  63
BRANCH  50  75
ATOM     75  C   UNL A   1      36.620  33.137  30.858  1.00  0.00     0.058 A 
ATOM     76  C   UNL A   1      36.884  34.068  29.844  1.00  0.00     0.135 A 
ATOM     77  C   UNL A   1      35.276  32.879  31.174  1.00  0.00     0.135 A 
ATOM     78  F   UNL A   1      38.152  34.350  29.507  1.00  0.00    -0.206 F 
ATOM     79  C   UNL A   1      35.860  34.736  29.180  1.00  0.00     0.059 A 
ATOM     80  C   UNL A   1      34.234  33.513  30.506  1.00  0.00     0.059 A 
ATOM     81  F   UNL A   1      34.969  31.981  32.123  1.00  0.00    -0.206 F 
ATOM     82  C   UNL A   1      34.536  34.449  29.518  1.00  0.00     0.060 A 
BRANCH  82  83
ATOM     83  S   UNL A   1      33.212  35.287  28.620  1.00  0.00     0.124 S 
ATOM     84  O   UNL A   1      32.511  34.162  28.013  1.00  0.00    -0.237 OA
ATOM     85  O   UNL A   1      32.504  35.979  29.692  1.00  0.00    -0.237 OA
ATOM     86  O   UNL A   1      33.933  36.155  27.694  1.00  0.00    -0.744 OA
ENDBRANCH  82  83
ENDBRANCH  50  75
BRANCH  62  87
ATOM     87  C   UNL A   1      39.882  34.177  36.935  1.00  0.00     0.058 A 
ATOM     88  C   UNL A   1      40.576  35.394  36.849  1.00  0.00     0.135 A 
ATOM     89  C   UNL A   1      39.028  33.984  38.032  1.00  0.00     0.135 A 
ATOM     90  F   UNL A   1      41.407  35.628  35.822  1.00  0.00    -0.206 F 
ATOM     91  C   UNL A   1      40.460  36.366  37.838  1.00  0.00     0.059 A 
ATOM     92  C   UNL A   1      38.873  34.954  39.017  1.00  0.00     0.059 A 
ATOM     93  F   UNL A   1      38.330  32.844  38.155  1.00  0.00    -0.206 F 
ATOM     94  C   UNL A   1      39.609  36.134  38.920  1.00  0.00     0.060 A 
BRANCH  94  95
ATOM     95  S   UNL A   1      39.465  37.403  40.197  1.00  0.00     0.124 S 
ATOM     96  O   UNL A   1      40.849  37.847  40.324  1.00  0.00    -0.237 OA
ATOM     97  O   UNL A   1      38.545  38.358  39.587  1.00  0.00    -0.237 OA
ATOM     98  O   UNL A   1      38.932  36.672  41.342  1.00  0.00    -0.744 OA
ENDBRANCH  94  95
ENDBRANCH  62  87
ENDBRANCH  36  37
ENDBRANCH  28  31
ENDBRANCH  26  27
ENDBRANCH   1  26
TORSDOF 16
ENDMDL
