MODEL 1
REMARK VINA RESULT:     -11.4      0.000      0.000
REMARK SMILES COc1cc(C(=O)NCCCNC(=O)c2ccc(-c3c4nc(c(-c5c(F)cc(S(=O)(=O)[O-])cc5F)c5ccc([nH]5)c(-c5c(F)cc(S(=O)(=O)[O-])cc5F)c5nc(c(-c6c(F)cc(S(=O)(=O)[O-])cc6F)c6ccc3[nH]6)C=C5)C=C4)cc2)cc(-c2cc(Cl)ccc2OC)c1
REMARK SMILES IDX 10 1 9 2 8 3 6 4 7 5 5 7 3 8 4 9 92 10 82 11 81 12 2 13 1 14
REMARK SMILES IDX 83 15 84 16 89 17 85 18 88 19 86 20 87 21 90 22 91 23 11 24
REMARK SMILES IDX 12 25 13 26 14 28 15 29 16 30 80 31 17 32 79 33 18 34 19 35
REMARK SMILES IDX 20 36 73 37 21 38 78 39 72 40 74 41 22 42 77 43 71 44 70 45
REMARK SMILES IDX 23 47 57 48 36 49 56 50 37 51 40 52 55 53 75 54 38 55 39 56
REMARK SMILES IDX 54 58 76 59 41 60 24 61 25 62 34 63 26 64 27 65 33 66 35 67
REMARK SMILES IDX 28 68 29 69 30 70 31 71 32 72 58 73 59 74 68 75 60 76 61 77
REMARK SMILES IDX 67 78 69 79 62 80 63 81 64 82 65 83 66 84 42 85 43 86 52 87
REMARK SMILES IDX 44 88 45 89 51 90 53 91 46 92 47 93 48 94 49 95 50 96
REMARK H PARENT 8 6 12 27 74 46 40 57
REMARK Flexibility Score: inf
ROOT
ATOM      1  C   UNL A   1      34.168  28.700  24.267  1.00  0.00     0.042 C 
ENDROOT
BRANCH   1   2
ATOM      2  C   UNL A   1      32.959  28.385  23.408  1.00  0.00     0.118 C 
BRANCH   2   3
ATOM      3  N   UNL A   1      33.110  27.244  22.509  1.00  0.00    -0.352 N 
ATOM      4  C   UNL A   1      33.283  25.893  22.726  1.00  0.00     0.251 C 
ATOM      5  O   UNL A   1      33.350  25.155  21.744  1.00  0.00    -0.269 OA
ATOM      6  H   UNL A   1      33.083  27.489  21.555  1.00  0.00     0.163 HD
BRANCH   4   7
ATOM      7  C   UNL A   1      33.453  25.298  24.083  1.00  0.00     0.044 A 
ATOM      8  C   UNL A   1      32.453  24.526  26.154  1.00  0.00     0.120 A 
ATOM      9  C   UNL A   1      32.345  25.190  24.927  1.00  0.00     0.060 A 
ATOM     10  C   UNL A   1      33.632  23.843  26.474  1.00  0.00     0.055 A 
ATOM     11  C   UNL A   1      34.721  23.883  25.601  1.00  0.00    -0.010 A 
ATOM     12  C   UNL A   1      34.663  24.779  24.523  1.00  0.00     0.023 A 
BRANCH   8  13
ATOM     13  O   UNL A   1      31.311  24.495  26.909  1.00  0.00    -0.497 OA
ATOM     14  C   UNL A   1      30.488  23.349  26.710  1.00  0.00     0.278 C 
ENDBRANCH   8  13
BRANCH  11  15
ATOM     15  C   UNL A   1      35.835  22.912  25.627  1.00  0.00     0.025 A 
ATOM     16  C   UNL A   1      37.105  23.376  26.042  1.00  0.00     0.033 A 
ATOM     17  C   UNL A   1      35.759  21.593  25.115  1.00  0.00     0.126 A 
ATOM     18  C   UNL A   1      38.252  22.590  25.923  1.00  0.00     0.041 A 
ATOM     19  C   UNL A   1      36.926  20.811  25.019  1.00  0.00     0.048 A 
ATOM     20  Cl  UNL A   1      39.776  23.228  26.400  1.00  0.00    -0.084 Cl
ATOM     21  C   UNL A   1      38.169  21.309  25.400  1.00  0.00     0.024 A 
BRANCH  17  22
ATOM     22  O   UNL A   1      34.646  20.885  24.744  1.00  0.00    -0.496 OA
ATOM     23  C   UNL A   1      34.667  19.465  24.762  1.00  0.00     0.278 C 
ENDBRANCH  17  22
ENDBRANCH  11  15
ENDBRANCH   4   7
ENDBRANCH   2   3
ENDBRANCH   1   2
BRANCH   1  24
ATOM     24  C   UNL A   1      33.931  28.677  25.763  1.00  0.00     0.118 C 
BRANCH  24  25
ATOM     25  N   UNL A   1      33.687  29.995  26.330  1.00  0.00    -0.352 N 
ATOM     26  C   UNL A   1      34.329  30.684  27.336  1.00  0.00     0.251 C 
ATOM     27  H   UNL A   1      32.932  30.479  25.925  1.00  0.00     0.163 HD
ATOM     28  O   UNL A   1      33.841  31.731  27.746  1.00  0.00    -0.269 OA
BRANCH  26  29
ATOM     29  C   UNL A   1      35.574  30.159  27.948  1.00  0.00     0.039 A 
ATOM     30  C   UNL A   1      36.784  30.316  27.264  1.00  0.00     0.014 A 
ATOM     31  C   UNL A   1      35.564  29.504  29.180  1.00  0.00     0.014 A 
ATOM     32  C   UNL A   1      37.979  29.900  27.856  1.00  0.00     0.010 A 
ATOM     33  C   UNL A   1      36.762  29.200  29.819  1.00  0.00     0.010 A 
ATOM     34  C   UNL A   1      37.986  29.387  29.164  1.00  0.00    -0.014 A 
BRANCH  34  35
ATOM     35  C   UNL A   1      39.254  29.041  29.861  1.00  0.00     0.031 A 
ATOM     36  C   UNL A   1      39.705  29.837  31.059  1.00  0.00     0.074 A 
ATOM     37  C   UNL A   1      40.038  28.060  29.369  1.00  0.00     0.049 A 
ATOM     38  N   UNL A   1      40.812  29.735  31.750  1.00  0.00    -0.248 NA
ATOM     39  C   UNL A   1      38.810  30.911  31.524  1.00  0.00     0.031 C 
ATOM     40  C   UNL A   1      39.745  27.258  28.179  1.00  0.00     0.029 A 
ATOM     41  N   UNL A   1      41.248  27.574  29.801  1.00  0.00    -0.354 N 
ATOM     42  C   UNL A   1      40.754  30.737  32.711  1.00  0.00     0.074 A 
ATOM     43  C   UNL A   1      39.533  31.475  32.480  1.00  0.00     0.031 C 
ATOM     44  C   UNL A   1      40.730  26.364  27.994  1.00  0.00     0.029 A 
ATOM     45  C   UNL A   1      41.748  26.558  29.020  1.00  0.00     0.049 A 
ATOM     46  H   UNL A   1      41.714  27.921  30.596  1.00  0.00     0.167 HD
ATOM     47  C   UNL A   1      41.626  31.002  33.714  1.00  0.00     0.037 A 
ATOM     48  C   UNL A   1      42.901  25.866  29.112  1.00  0.00     0.037 A 
ATOM     49  C   UNL A   1      42.826  30.243  33.957  1.00  0.00     0.049 A 
ATOM     50  C   UNL A   1      43.851  26.174  30.238  1.00  0.00     0.074 A 
ATOM     51  C   UNL A   1      43.738  30.384  34.988  1.00  0.00     0.029 A 
ATOM     52  N   UNL A   1      43.283  29.203  33.159  1.00  0.00    -0.354 N 
ATOM     53  N   UNL A   1      43.740  27.075  31.186  1.00  0.00    -0.248 NA
ATOM     54  C   UNL A   1      45.077  25.370  30.313  1.00  0.00     0.031 C 
ATOM     55  C   UNL A   1      44.774  29.469  34.783  1.00  0.00     0.029 A 
ATOM     56  C   UNL A   1      44.478  28.714  33.660  1.00  0.00     0.049 A 
ATOM     57  H   UNL A   1      42.825  28.863  32.357  1.00  0.00     0.167 HD
ATOM     58  C   UNL A   1      44.868  26.927  31.985  1.00  0.00     0.074 A 
ATOM     59  C   UNL A   1      45.639  25.839  31.418  1.00  0.00     0.031 C 
ATOM     60  C   UNL A   1      45.233  27.627  33.087  1.00  0.00     0.037 A 
BRANCH  47  61
ATOM     61  C   UNL A   1      41.318  32.157  34.629  1.00  0.00     0.058 A 
ATOM     62  C   UNL A   1      41.826  33.445  34.393  1.00  0.00     0.135 A 
ATOM     63  C   UNL A   1      40.461  31.986  35.730  1.00  0.00     0.135 A 
ATOM     64  F   UNL A   1      42.662  33.665  33.366  1.00  0.00    -0.206 F 
ATOM     65  C   UNL A   1      41.519  34.514  35.229  1.00  0.00     0.059 A 
ATOM     66  C   UNL A   1      40.114  33.048  36.560  1.00  0.00     0.059 A 
ATOM     67  F   UNL A   1      39.947  30.777  36.004  1.00  0.00    -0.206 F 
ATOM     68  C   UNL A   1      40.658  34.306  36.308  1.00  0.00     0.060 A 
BRANCH  68  69
ATOM     69  S   UNL A   1      40.255  35.710  37.369  1.00  0.00     0.124 S 
ATOM     70  O   UNL A   1      39.243  35.129  38.248  1.00  0.00    -0.237 OA
ATOM     71  O   UNL A   1      41.540  36.006  37.994  1.00  0.00    -0.237 OA
ATOM     72  O   UNL A   1      39.768  36.717  36.433  1.00  0.00    -0.744 OA
ENDBRANCH  68  69
ENDBRANCH  47  61
BRANCH  48  73
ATOM     73  C   UNL A   1      43.213  24.804  28.116  1.00  0.00     0.058 A 
ATOM     74  C   UNL A   1      42.895  23.461  28.363  1.00  0.00     0.135 A 
ATOM     75  C   UNL A   1      43.830  25.112  26.892  1.00  0.00     0.135 A 
ATOM     76  F   UNL A   1      42.311  23.113  29.522  1.00  0.00    -0.206 F 
ATOM     77  C   UNL A   1      43.192  22.458  27.446  1.00  0.00     0.059 A 
ATOM     78  C   UNL A   1      44.110  24.131  25.946  1.00  0.00     0.059 A 
ATOM     79  F   UNL A   1      44.139  26.384  26.596  1.00  0.00    -0.206 F 
ATOM     80  C   UNL A   1      43.798  22.805  26.237  1.00  0.00     0.060 A 
BRANCH  80  81
ATOM     81  S   UNL A   1      44.139  21.502  25.034  1.00  0.00     0.124 S 
ATOM     82  O   UNL A   1      44.028  22.228  23.774  1.00  0.00    -0.237 OA
ATOM     83  O   UNL A   1      45.483  21.080  25.413  1.00  0.00    -0.237 OA
ATOM     84  O   UNL A   1      43.086  20.523  25.294  1.00  0.00    -0.744 OA
ENDBRANCH  80  81
ENDBRANCH  48  73
BRANCH  60  85
ATOM     85  C   UNL A   1      46.505  27.218  33.780  1.00  0.00     0.058 A 
ATOM     86  C   UNL A   1      47.733  27.835  33.499  1.00  0.00     0.135 A 
ATOM     87  C   UNL A   1      46.481  26.229  34.778  1.00  0.00     0.135 A 
ATOM     88  F   UNL A   1      47.812  28.782  32.551  1.00  0.00    -0.206 F 
ATOM     89  C   UNL A   1      48.899  27.469  34.163  1.00  0.00     0.059 A 
ATOM     90  C   UNL A   1      47.629  25.870  35.477  1.00  0.00     0.059 A 
ATOM     91  F   UNL A   1      45.331  25.614  35.095  1.00  0.00    -0.206 F 
ATOM     92  C   UNL A   1      48.836  26.487  35.153  1.00  0.00     0.060 A 
BRANCH  92  93
ATOM     93  S   UNL A   1      50.351  26.043  36.029  1.00  0.00     0.124 S 
ATOM     94  O   UNL A   1      51.342  26.857  35.332  1.00  0.00    -0.237 OA
ATOM     95  O   UNL A   1      50.049  26.447  37.398  1.00  0.00    -0.237 OA
ATOM     96  O   UNL A   1      50.459  24.604  35.816  1.00  0.00    -0.744 OA
ENDBRANCH  92  93
ENDBRANCH  60  85
ENDBRANCH  34  35
ENDBRANCH  26  29
ENDBRANCH  24  25
ENDBRANCH   1  24
TORSDOF 16
ENDMDL
MODEL 2
REMARK VINA RESULT:     -11.4      4.828      6.049
REMARK SMILES COc1cc(C(=O)NCCCNC(=O)c2ccc(-c3c4nc(c(-c5c(F)cc(S(=O)(=O)[O-])cc5F)c5ccc([nH]5)c(-c5c(F)cc(S(=O)(=O)[O-])cc5F)c5nc(c(-c6c(F)cc(S(=O)(=O)[O-])cc6F)c6ccc3[nH]6)C=C5)C=C4)cc2)cc(-c2cc(Cl)ccc2OC)c1
REMARK SMILES IDX 10 1 9 2 8 3 6 4 7 5 5 7 3 8 4 9 92 10 82 11 81 12 2 13 1 14
REMARK SMILES IDX 83 15 84 16 89 17 85 18 88 19 86 20 87 21 90 22 91 23 11 24
REMARK SMILES IDX 12 25 13 26 14 28 15 29 16 30 80 31 17 32 79 33 18 34 19 35
REMARK SMILES IDX 20 36 73 37 21 38 78 39 72 40 74 41 22 42 77 43 71 44 70 45
REMARK SMILES IDX 23 47 57 48 36 49 56 50 37 51 40 52 55 53 75 54 38 55 39 56
REMARK SMILES IDX 54 58 76 59 41 60 24 61 25 62 34 63 26 64 27 65 33 66 35 67
REMARK SMILES IDX 28 68 29 69 30 70 31 71 32 72 58 73 59 74 68 75 60 76 61 77
REMARK SMILES IDX 67 78 69 79 62 80 63 81 64 82 65 83 66 84 42 85 43 86 52 87
REMARK SMILES IDX 44 88 45 89 51 90 53 91 46 92 47 93 48 94 49 95 50 96
REMARK H PARENT 8 6 12 27 74 46 40 57
REMARK Flexibility Score: inf
ROOT
ATOM      1  C   UNL A   1      33.956  30.903  27.299  1.00  0.00     0.042 C 
ENDROOT
BRANCH   1   2
ATOM      2  C   UNL A   1      33.076  29.698  27.033  1.00  0.00     0.118 C 
BRANCH   2   3
ATOM      3  N   UNL A   1      32.739  29.466  25.631  1.00  0.00    -0.352 N 
ATOM      4  C   UNL A   1      32.447  28.326  24.910  1.00  0.00     0.251 C 
ATOM      5  O   UNL A   1      32.165  28.453  23.719  1.00  0.00    -0.269 OA
ATOM      6  H   UNL A   1      32.716  30.289  25.090  1.00  0.00     0.163 HD
BRANCH   4   7
ATOM      7  C   UNL A   1      32.518  26.953  25.489  1.00  0.00     0.044 A 
ATOM      8  C   UNL A   1      31.367  25.007  26.369  1.00  0.00     0.120 A 
ATOM      9  C   UNL A   1      31.346  26.338  25.937  1.00  0.00     0.060 A 
ATOM     10  C   UNL A   1      32.531  24.245  26.217  1.00  0.00     0.055 A 
ATOM     11  C   UNL A   1      33.687  24.831  25.699  1.00  0.00    -0.010 A 
ATOM     12  C   UNL A   1      33.698  26.225  25.538  1.00  0.00     0.023 A 
BRANCH   8  13
ATOM     13  O   UNL A   1      30.168  24.511  26.804  1.00  0.00    -0.497 OA
ATOM     14  C   UNL A   1      30.083  23.089  26.848  1.00  0.00     0.278 C 
ENDBRANCH   8  13
BRANCH  11  15
ATOM     15  C   UNL A   1      34.817  24.065  25.132  1.00  0.00     0.025 A 
ATOM     16  C   UNL A   1      35.995  23.956  25.907  1.00  0.00     0.033 A 
ATOM     17  C   UNL A   1      34.862  23.571  23.805  1.00  0.00     0.126 A 
ATOM     18  C   UNL A   1      37.173  23.418  25.385  1.00  0.00     0.041 A 
ATOM     19  C   UNL A   1      36.055  23.018  23.303  1.00  0.00     0.048 A 
ATOM     20  Cl  UNL A   1      38.587  23.356  26.362  1.00  0.00    -0.084 Cl
ATOM     21  C   UNL A   1      37.211  22.958  24.078  1.00  0.00     0.024 A 
BRANCH  17  22
ATOM     22  O   UNL A   1      33.841  23.472  22.896  1.00  0.00    -0.496 OA
ATOM     23  C   UNL A   1      32.923  22.390  22.971  1.00  0.00     0.278 C 
ENDBRANCH  17  22
ENDBRANCH  11  15
ENDBRANCH   4   7
ENDBRANCH   2   3
ENDBRANCH   1   2
BRANCH   1  24
ATOM     24  C   UNL A   1      35.307  30.603  27.916  1.00  0.00     0.118 C 
BRANCH  24  25
ATOM     25  N   UNL A   1      35.388  30.953  29.326  1.00  0.00    -0.352 N 
ATOM     26  C   UNL A   1      36.374  30.728  30.262  1.00  0.00     0.251 C 
ATOM     27  H   UNL A   1      34.603  31.435  29.672  1.00  0.00     0.163 HD
ATOM     28  O   UNL A   1      36.149  30.986  31.439  1.00  0.00    -0.269 OA
BRANCH  26  29
ATOM     29  C   UNL A   1      37.682  30.147  29.871  1.00  0.00     0.039 A 
ATOM     30  C   UNL A   1      38.061  30.178  28.525  1.00  0.00     0.014 A 
ATOM     31  C   UNL A   1      38.533  29.562  30.810  1.00  0.00     0.014 A 
ATOM     32  C   UNL A   1      39.321  29.708  28.145  1.00  0.00     0.010 A 
ATOM     33  C   UNL A   1      39.829  29.206  30.451  1.00  0.00     0.010 A 
ATOM     34  C   UNL A   1      40.239  29.267  29.113  1.00  0.00    -0.014 A 
BRANCH  34  35
ATOM     35  C   UNL A   1      41.626  28.867  28.748  1.00  0.00     0.031 A 
ATOM     36  C   UNL A   1      42.726  29.896  28.702  1.00  0.00     0.074 A 
ATOM     37  C   UNL A   1      41.878  27.593  28.386  1.00  0.00     0.049 A 
ATOM     38  N   UNL A   1      43.975  29.755  28.336  1.00  0.00    -0.248 NA
ATOM     39  C   UNL A   1      42.371  31.273  29.086  1.00  0.00     0.031 C 
ATOM     40  C   UNL A   1      40.886  26.516  28.328  1.00  0.00     0.029 A 
ATOM     41  N   UNL A   1      43.044  26.986  27.987  1.00  0.00    -0.354 N 
ATOM     42  C   UNL A   1      44.544  31.020  28.428  1.00  0.00     0.074 A 
ATOM     43  C   UNL A   1      43.492  31.929  28.826  1.00  0.00     0.031 C 
ATOM     44  C   UNL A   1      41.489  25.379  27.947  1.00  0.00     0.029 A 
ATOM     45  C   UNL A   1      42.898  25.651  27.686  1.00  0.00     0.049 A 
ATOM     46  H   UNL A   1      43.903  27.461  27.922  1.00  0.00     0.167 HD
ATOM     47  C   UNL A   1      45.833  31.387  28.225  1.00  0.00     0.037 A 
ATOM     48  C   UNL A   1      43.795  24.749  27.241  1.00  0.00     0.037 A 
ATOM     49  C   UNL A   1      46.881  30.470  27.858  1.00  0.00     0.049 A 
ATOM     50  C   UNL A   1      45.221  25.180  27.028  1.00  0.00     0.074 A 
ATOM     51  C   UNL A   1      48.231  30.729  27.700  1.00  0.00     0.029 A 
ATOM     52  N   UNL A   1      46.698  29.121  27.590  1.00  0.00    -0.354 N 
ATOM     53  N   UNL A   1      45.758  26.365  27.197  1.00  0.00    -0.248 NA
ATOM     54  C   UNL A   1      46.166  24.151  26.574  1.00  0.00     0.031 C 
ATOM     55  C   UNL A   1      48.855  29.550  27.281  1.00  0.00     0.029 A 
ATOM     56  C   UNL A   1      47.906  28.541  27.240  1.00  0.00     0.049 A 
ATOM     57  H   UNL A   1      45.837  28.646  27.642  1.00  0.00     0.167 HD
ATOM     58  C   UNL A   1      47.107  26.218  26.895  1.00  0.00     0.074 A 
ATOM     59  C   UNL A   1      47.307  24.826  26.550  1.00  0.00     0.031 C 
ATOM     60  C   UNL A   1      48.091  27.151  26.903  1.00  0.00     0.037 A 
BRANCH  47  61
ATOM     61  C   UNL A   1      46.186  32.840  28.398  1.00  0.00     0.058 A 
ATOM     62  C   UNL A   1      46.601  33.359  29.636  1.00  0.00     0.135 A 
ATOM     63  C   UNL A   1      46.158  33.717  27.300  1.00  0.00     0.135 A 
ATOM     64  F   UNL A   1      46.633  32.572  30.723  1.00  0.00    -0.206 F 
ATOM     65  C   UNL A   1      46.949  34.698  29.785  1.00  0.00     0.059 A 
ATOM     66  C   UNL A   1      46.533  35.052  27.420  1.00  0.00     0.059 A 
ATOM     67  F   UNL A   1      45.768  33.276  26.094  1.00  0.00    -0.206 F 
ATOM     68  C   UNL A   1      46.915  35.536  28.669  1.00  0.00     0.060 A 
BRANCH  68  69
ATOM     69  S   UNL A   1      47.389  37.265  28.878  1.00  0.00     0.124 S 
ATOM     70  O   UNL A   1      47.073  37.486  30.286  1.00  0.00    -0.237 OA
ATOM     71  O   UNL A   1      48.810  37.240  28.546  1.00  0.00    -0.237 OA
ATOM     72  O   UNL A   1      46.537  37.970  27.926  1.00  0.00    -0.744 OA
ENDBRANCH  68  69
ENDBRANCH  47  61
BRANCH  48  73
ATOM     73  C   UNL A   1      43.372  23.346  26.978  1.00  0.00     0.058 A 
ATOM     74  C   UNL A   1      43.116  22.457  28.032  1.00  0.00     0.135 A 
ATOM     75  C   UNL A   1      43.206  22.867  25.668  1.00  0.00     0.135 A 
ATOM     76  F   UNL A   1      43.266  22.863  29.303  1.00  0.00    -0.206 F 
ATOM     77  C   UNL A   1      42.731  21.140  27.801  1.00  0.00     0.059 A 
ATOM     78  C   UNL A   1      42.794  21.563  25.411  1.00  0.00     0.059 A 
ATOM     79  F   UNL A   1      43.420  23.681  24.623  1.00  0.00    -0.206 F 
ATOM     80  C   UNL A   1      42.570  20.704  26.484  1.00  0.00     0.060 A 
BRANCH  80  81
ATOM     81  S   UNL A   1      42.027  19.006  26.195  1.00  0.00     0.124 S 
ATOM     82  O   UNL A   1      42.269  18.393  27.496  1.00  0.00    -0.237 OA
ATOM     83  O   UNL A   1      40.627  19.191  25.826  1.00  0.00    -0.237 OA
ATOM     84  O   UNL A   1      42.897  18.556  25.112  1.00  0.00    -0.744 OA
ENDBRANCH  80  81
ENDBRANCH  48  73
BRANCH  60  85
ATOM     85  C   UNL A   1      49.484  26.694  26.564  1.00  0.00     0.058 A 
ATOM     86  C   UNL A   1      50.353  26.181  27.538  1.00  0.00     0.135 A 
ATOM     87  C   UNL A   1      49.935  26.722  25.233  1.00  0.00     0.135 A 
ATOM     88  F   UNL A   1      49.975  26.136  28.825  1.00  0.00    -0.206 F 
ATOM     89  C   UNL A   1      51.630  25.736  27.212  1.00  0.00     0.059 A 
ATOM     90  C   UNL A   1      51.196  26.252  24.879  1.00  0.00     0.059 A 
ATOM     91  F   UNL A   1      49.140  27.193  24.259  1.00  0.00    -0.206 F 
ATOM     92  C   UNL A   1      52.041  25.773  25.877  1.00  0.00     0.060 A 
BRANCH  92  93
ATOM     93  S   UNL A   1      53.688  25.164  25.463  1.00  0.00     0.124 S 
ATOM     94  O   UNL A   1      53.450  23.729  25.343  1.00  0.00    -0.237 OA
ATOM     95  O   UNL A   1      53.975  25.865  24.215  1.00  0.00    -0.237 OA
ATOM     96  O   UNL A   1      54.500  25.572  26.605  1.00  0.00    -0.744 OA
ENDBRANCH  92  93
ENDBRANCH  60  85
ENDBRANCH  34  35
ENDBRANCH  26  29
ENDBRANCH  24  25
ENDBRANCH   1  24
TORSDOF 16
ENDMDL
MODEL 3
REMARK VINA RESULT:     -11.4      3.379      9.399
REMARK SMILES COc1cc(C(=O)NCCCNC(=O)c2ccc(-c3c4nc(c(-c5c(F)cc(S(=O)(=O)[O-])cc5F)c5ccc([nH]5)c(-c5c(F)cc(S(=O)(=O)[O-])cc5F)c5nc(c(-c6c(F)cc(S(=O)(=O)[O-])cc6F)c6ccc3[nH]6)C=C5)C=C4)cc2)cc(-c2cc(Cl)ccc2OC)c1
REMARK SMILES IDX 10 1 9 2 8 3 6 4 7 5 5 7 3 8 4 9 92 10 82 11 81 12 2 13 1 14
REMARK SMILES IDX 83 15 84 16 89 17 85 18 88 19 86 20 87 21 90 22 91 23 11 24
REMARK SMILES IDX 12 25 13 26 14 28 15 29 16 30 80 31 17 32 79 33 18 34 19 35
REMARK SMILES IDX 20 36 73 37 21 38 78 39 72 40 74 41 22 42 77 43 71 44 70 45
REMARK SMILES IDX 23 47 57 48 36 49 56 50 37 51 40 52 55 53 75 54 38 55 39 56
REMARK SMILES IDX 54 58 76 59 41 60 24 61 25 62 34 63 26 64 27 65 33 66 35 67
REMARK SMILES IDX 28 68 29 69 30 70 31 71 32 72 58 73 59 74 68 75 60 76 61 77
REMARK SMILES IDX 67 78 69 79 62 80 63 81 64 82 65 83 66 84 42 85 43 86 52 87
REMARK SMILES IDX 44 88 45 89 51 90 53 91 46 92 47 93 48 94 49 95 50 96
REMARK H PARENT 8 6 12 27 74 46 40 57
REMARK Flexibility Score: inf
ROOT
ATOM      1  C   UNL A   1      38.765  22.451  26.210  1.00  0.00     0.042 C 
ENDROOT
BRANCH   1   2
ATOM      2  C   UNL A   1      37.517  23.263  25.922  1.00  0.00     0.118 C 
BRANCH   2   3
ATOM      3  N   UNL A   1      36.254  22.552  26.091  1.00  0.00    -0.352 N 
ATOM      4  C   UNL A   1      34.977  22.776  25.616  1.00  0.00     0.251 C 
ATOM      5  O   UNL A   1      34.101  21.964  25.911  1.00  0.00    -0.269 OA
ATOM      6  H   UNL A   1      36.327  21.750  26.658  1.00  0.00     0.163 HD
BRANCH   4   7
ATOM      7  C   UNL A   1      34.601  23.980  24.821  1.00  0.00     0.044 A 
ATOM      8  C   UNL A   1      33.763  24.923  22.749  1.00  0.00     0.120 A 
ATOM      9  C   UNL A   1      34.237  23.829  23.480  1.00  0.00     0.060 A 
ATOM     10  C   UNL A   1      33.516  26.139  23.398  1.00  0.00     0.055 A 
ATOM     11  C   UNL A   1      33.806  26.277  24.756  1.00  0.00    -0.010 A 
ATOM     12  C   UNL A   1      34.530  25.249  25.378  1.00  0.00     0.023 A 
BRANCH   8  13
ATOM     13  O   UNL A   1      33.452  24.667  21.441  1.00  0.00    -0.497 OA
ATOM     14  C   UNL A   1      32.592  25.622  20.826  1.00  0.00     0.278 C 
ENDBRANCH   8  13
BRANCH  11  15
ATOM     15  C   UNL A   1      33.238  27.335  25.617  1.00  0.00     0.025 A 
ATOM     16  C   UNL A   1      34.118  28.323  26.117  1.00  0.00     0.033 A 
ATOM     17  C   UNL A   1      31.908  27.339  26.107  1.00  0.00     0.126 A 
ATOM     18  C   UNL A   1      33.716  29.247  27.083  1.00  0.00     0.041 A 
ATOM     19  C   UNL A   1      31.519  28.291  27.069  1.00  0.00     0.048 A 
ATOM     20  Cl  UNL A   1      34.846  30.395  27.687  1.00  0.00    -0.084 Cl
ATOM     21  C   UNL A   1      32.419  29.228  27.571  1.00  0.00     0.024 A 
BRANCH  17  22
ATOM     22  O   UNL A   1      30.852  26.560  25.715  1.00  0.00    -0.496 OA
ATOM     23  C   UNL A   1      30.778  25.201  26.123  1.00  0.00     0.278 C 
ENDBRANCH  17  22
ENDBRANCH  11  15
ENDBRANCH   4   7
ENDBRANCH   2   3
ENDBRANCH   1   2
BRANCH   1  24
ATOM     24  C   UNL A   1      39.851  23.172  26.981  1.00  0.00     0.118 C 
BRANCH  24  25
ATOM     25  N   UNL A   1      40.884  23.741  26.128  1.00  0.00    -0.352 N 
ATOM     26  C   UNL A   1      41.607  24.910  26.234  1.00  0.00     0.251 C 
ATOM     27  H   UNL A   1      41.106  23.197  25.339  1.00  0.00     0.163 HD
ATOM     28  O   UNL A   1      42.324  25.253  25.301  1.00  0.00    -0.269 OA
BRANCH  26  29
ATOM     29  C   UNL A   1      41.500  25.769  27.438  1.00  0.00     0.039 A 
ATOM     30  C   UNL A   1      42.502  26.713  27.688  1.00  0.00     0.014 A 
ATOM     31  C   UNL A   1      40.434  25.650  28.330  1.00  0.00     0.014 A 
ATOM     32  C   UNL A   1      42.383  27.586  28.773  1.00  0.00     0.010 A 
ATOM     33  C   UNL A   1      40.256  26.594  29.336  1.00  0.00     0.010 A 
ATOM     34  C   UNL A   1      41.230  27.571  29.576  1.00  0.00    -0.014 A 
BRANCH  34  35
ATOM     35  C   UNL A   1      41.027  28.562  30.667  1.00  0.00     0.031 A 
ATOM     36  C   UNL A   1      41.846  28.482  31.929  1.00  0.00     0.074 A 
ATOM     37  C   UNL A   1      40.052  29.488  30.552  1.00  0.00     0.049 A 
ATOM     38  N   UNL A   1      41.761  29.206  33.017  1.00  0.00    -0.248 NA
ATOM     39  C   UNL A   1      42.873  27.429  31.995  1.00  0.00     0.031 C 
ATOM     40  C   UNL A   1      39.149  29.630  29.408  1.00  0.00     0.029 A 
ATOM     41  N   UNL A   1      39.650  30.480  31.413  1.00  0.00    -0.354 N 
ATOM     42  C   UNL A   1      42.706  28.686  33.895  1.00  0.00     0.074 A 
ATOM     43  C   UNL A   1      43.311  27.549  33.239  1.00  0.00     0.031 C 
ATOM     44  C   UNL A   1      38.321  30.664  29.624  1.00  0.00     0.029 A 
ATOM     45  C   UNL A   1      38.598  31.231  30.939  1.00  0.00     0.049 A 
ATOM     46  H   UNL A   1      40.074  30.640  32.286  1.00  0.00     0.167 HD
ATOM     47  C   UNL A   1      43.057  29.133  35.125  1.00  0.00     0.037 A 
ATOM     48  C   UNL A   1      37.925  32.252  31.504  1.00  0.00     0.037 A 
ATOM     49  C   UNL A   1      42.470  30.286  35.759  1.00  0.00     0.049 A 
ATOM     50  C   UNL A   1      38.336  32.734  32.869  1.00  0.00     0.074 A 
ATOM     51  C   UNL A   1      42.805  30.862  36.971  1.00  0.00     0.029 A 
ATOM     52  N   UNL A   1      41.427  31.035  35.234  1.00  0.00    -0.354 N 
ATOM     53  N   UNL A   1      39.287  32.278  33.651  1.00  0.00    -0.248 NA
ATOM     54  C   UNL A   1      37.593  33.872  33.425  1.00  0.00     0.031 C 
ATOM     55  C   UNL A   1      41.928  31.925  37.206  1.00  0.00     0.029 A 
ATOM     56  C   UNL A   1      41.087  32.051  36.112  1.00  0.00     0.049 A 
ATOM     57  H   UNL A   1      40.992  30.869  34.367  1.00  0.00     0.167 HD
ATOM     58  C   UNL A   1      39.272  33.091  34.779  1.00  0.00     0.074 A 
ATOM     59  C   UNL A   1      38.230  34.075  34.570  1.00  0.00     0.031 C 
ATOM     60  C   UNL A   1      40.050  33.027  35.888  1.00  0.00     0.037 A 
BRANCH  47  61
ATOM     61  C   UNL A   1      44.126  28.378  35.869  1.00  0.00     0.058 A 
ATOM     62  C   UNL A   1      45.488  28.690  35.725  1.00  0.00     0.135 A 
ATOM     63  C   UNL A   1      43.782  27.363  36.777  1.00  0.00     0.135 A 
ATOM     64  F   UNL A   1      45.878  29.640  34.861  1.00  0.00    -0.206 F 
ATOM     65  C   UNL A   1      46.471  28.005  36.433  1.00  0.00     0.059 A 
ATOM     66  C   UNL A   1      44.747  26.687  37.519  1.00  0.00     0.059 A 
ATOM     67  F   UNL A   1      42.496  27.022  36.954  1.00  0.00    -0.206 F 
ATOM     68  C   UNL A   1      46.090  27.007  37.331  1.00  0.00     0.060 A 
BRANCH  68  69
ATOM     69  S   UNL A   1      47.377  26.144  38.255  1.00  0.00     0.124 S 
ATOM     70  O   UNL A   1      46.976  26.412  39.633  1.00  0.00    -0.237 OA
ATOM     71  O   UNL A   1      47.211  24.765  37.805  1.00  0.00    -0.237 OA
ATOM     72  O   UNL A   1      48.607  26.799  37.821  1.00  0.00    -0.744 OA
ENDBRANCH  68  69
ENDBRANCH  47  61
BRANCH  48  73
ATOM     73  C   UNL A   1      36.799  32.897  30.772  1.00  0.00     0.058 A 
ATOM     74  C   UNL A   1      37.037  33.804  29.729  1.00  0.00     0.135 A 
ATOM     75  C   UNL A   1      35.462  32.613  31.095  1.00  0.00     0.135 A 
ATOM     76  F   UNL A   1      38.298  34.114  29.385  1.00  0.00    -0.206 F 
ATOM     77  C   UNL A   1      35.995  34.422  29.045  1.00  0.00     0.059 A 
ATOM     78  C   UNL A   1      34.403  33.196  30.407  1.00  0.00     0.059 A 
ATOM     79  F   UNL A   1      35.178  31.739  32.073  1.00  0.00    -0.206 F 
ATOM     80  C   UNL A   1      34.680  34.107  29.390  1.00  0.00     0.060 A 
BRANCH  80  81
ATOM     81  S   UNL A   1      33.334  34.881  28.466  1.00  0.00     0.124 S 
ATOM     82  O   UNL A   1      34.057  35.834  27.635  1.00  0.00    -0.237 OA
ATOM     83  O   UNL A   1      32.747  33.740  27.769  1.00  0.00    -0.237 OA
ATOM     84  O   UNL A   1      32.499  35.461  29.515  1.00  0.00    -0.744 OA
ENDBRANCH  80  81
ENDBRANCH  48  73
BRANCH  60  85
ATOM     85  C   UNL A   1      39.833  34.073  36.949  1.00  0.00     0.058 A 
ATOM     86  C   UNL A   1      39.061  33.819  38.092  1.00  0.00     0.135 A 
ATOM     87  C   UNL A   1      40.452  35.330  36.842  1.00  0.00     0.135 A 
ATOM     88  F   UNL A   1      38.443  32.637  38.242  1.00  0.00    -0.206 F 
ATOM     89  C   UNL A   1      38.888  34.782  39.081  1.00  0.00     0.059 A 
ATOM     90  C   UNL A   1      40.319  36.296  37.833  1.00  0.00     0.059 A 
ATOM     91  F   UNL A   1      41.211  35.622  35.773  1.00  0.00    -0.206 F 
ATOM     92  C   UNL A   1      39.524  36.018  38.943  1.00  0.00     0.060 A 
BRANCH  92  93
ATOM     93  S   UNL A   1      39.315  37.247  40.247  1.00  0.00     0.124 S 
ATOM     94  O   UNL A   1      38.581  36.487  41.254  1.00  0.00    -0.237 OA
ATOM     95  O   UNL A   1      40.696  37.580  40.587  1.00  0.00    -0.237 OA
ATOM     96  O   UNL A   1      38.563  38.313  39.595  1.00  0.00    -0.744 OA
ENDBRANCH  92  93
ENDBRANCH  60  85
ENDBRANCH  34  35
ENDBRANCH  26  29
ENDBRANCH  24  25
ENDBRANCH   1  24
TORSDOF 16
ENDMDL
