MODEL 1
REMARK VINA RESULT:     -12.0      0.000      0.000
REMARK SMILES O=C(NCCCNC(=O)[C@@H]1O[C@H](OC(=O)c2cccnc2)[C@@H](O)[C@H](O)[C@H]1O)c1ccc(-c2c3nc(c(-c4c(F)cc(S(=O)(=O)[O-])cc4F)c4ccc([nH]4)c(-c4c(F)cc(S(=O)(=O)[O-])cc4F)c4nc(c(-c5c(F)cc(S(=O)(=O)[O-])cc5F)c5ccc2[nH]5)C=C4)C=C3)cc1
REMARK SMILES IDX 5 1 4 2 3 3 1 4 2 5 28 7 29 8 93 9 30 10 92 11 31 12 32 13
REMARK SMILES IDX 33 14 86 15 34 16 91 17 85 18 87 19 35 20 90 21 84 22 83 23
REMARK SMILES IDX 36 25 70 26 49 27 69 28 50 29 53 30 68 31 88 32 51 33 52 34
REMARK SMILES IDX 67 36 89 37 54 38 37 39 38 40 47 41 39 42 40 43 46 44 48 45
REMARK SMILES IDX 41 46 42 47 43 48 44 49 45 50 71 51 72 52 81 53 73 54 74 55
REMARK SMILES IDX 80 56 82 57 75 58 76 59 77 60 78 61 79 62 55 63 56 64 65 65
REMARK SMILES IDX 57 66 58 67 64 68 66 69 59 70 60 71 61 72 62 73 63 74 6 75
REMARK SMILES IDX 7 76 8 77 9 79 10 80 11 81 26 82 12 83 24 84 22 85 27 86
REMARK SMILES IDX 13 88 14 89 15 90 16 91 17 92 21 93 18 94 20 95 19 96 25 97
REMARK SMILES IDX 23 99
REMARK H PARENT 3 6 87 24 53 35 7 78 27 87 25 98 23 100
REMARK Flexibility Score: inf
ROOT
ATOM      1  C   UNL A   1      44.912  23.614  27.602  1.00  0.00     0.042 C 
ENDROOT
BRANCH   1   2
ATOM      2  C   UNL A   1      43.404  23.494  27.452  1.00  0.00     0.118 C 
BRANCH   2   3
ATOM      3  N   UNL A   1      42.897  24.162  26.261  1.00  0.00    -0.352 N 
ATOM      4  O   UNL A   1      41.686  25.603  25.034  1.00  0.00    -0.269 OA
ATOM      5  C   UNL A   1      42.174  25.322  26.126  1.00  0.00     0.251 C 
ATOM      6  H   UNL A   1      43.107  23.707  25.414  1.00  0.00     0.163 HD
BRANCH   5   7
ATOM      7  C   UNL A   1      41.956  26.217  27.285  1.00  0.00     0.039 A 
ATOM      8  C   UNL A   1      40.995  25.924  28.255  1.00  0.00     0.014 A 
ATOM      9  C   UNL A   1      42.757  27.354  27.423  1.00  0.00     0.014 A 
ATOM     10  C   UNL A   1      40.721  26.841  29.263  1.00  0.00     0.010 A 
ATOM     11  C   UNL A   1      42.550  28.225  28.495  1.00  0.00     0.010 A 
ATOM     12  C   UNL A   1      41.509  27.993  29.406  1.00  0.00    -0.014 A 
BRANCH  12  13
ATOM     13  C   UNL A   1      41.275  28.909  30.550  1.00  0.00     0.031 A 
ATOM     14  C   UNL A   1      42.113  28.821  31.793  1.00  0.00     0.074 A 
ATOM     15  C   UNL A   1      40.281  29.814  30.464  1.00  0.00     0.049 A 
ATOM     16  N   UNL A   1      42.000  29.492  32.911  1.00  0.00    -0.248 NA
ATOM     17  C   UNL A   1      43.214  27.847  31.786  1.00  0.00     0.031 C 
ATOM     18  C   UNL A   1      39.393  29.982  29.310  1.00  0.00     0.029 A 
ATOM     19  N   UNL A   1      39.842  30.755  31.359  1.00  0.00    -0.354 N 
ATOM     20  C   UNL A   1      42.991  29.000  33.752  1.00  0.00     0.074 A 
ATOM     21  C   UNL A   1      43.687  27.963  33.019  1.00  0.00     0.031 C 
ATOM     22  C   UNL A   1      38.528  30.973  29.561  1.00  0.00     0.029 A 
ATOM     23  C   UNL A   1      38.754  31.467  30.914  1.00  0.00     0.049 A 
ATOM     24  H   UNL A   1      40.265  30.907  32.235  1.00  0.00     0.167 HD
ATOM     25  C   UNL A   1      43.289  29.380  35.018  1.00  0.00     0.037 A 
ATOM     26  C   UNL A   1      37.995  32.389  31.534  1.00  0.00     0.037 A 
ATOM     27  C   UNL A   1      42.599  30.426  35.729  1.00  0.00     0.049 A 
ATOM     28  C   UNL A   1      38.336  32.792  32.936  1.00  0.00     0.074 A 
ATOM     29  C   UNL A   1      42.855  30.922  36.996  1.00  0.00     0.029 A 
ATOM     30  N   UNL A   1      41.508  31.131  35.238  1.00  0.00    -0.354 N 
ATOM     31  N   UNL A   1      39.300  32.344  33.705  1.00  0.00    -0.248 NA
ATOM     32  C   UNL A   1      37.493  33.819  33.560  1.00  0.00     0.031 C 
ATOM     33  C   UNL A   1      41.896  31.897  37.285  1.00  0.00     0.029 A 
ATOM     34  C   UNL A   1      41.066  32.041  36.184  1.00  0.00     0.049 A 
ATOM     35  H   UNL A   1      41.107  31.003  34.348  1.00  0.00     0.167 HD
ATOM     36  C   UNL A   1      39.187  33.042  34.900  1.00  0.00     0.074 A 
ATOM     37  C   UNL A   1      38.067  33.948  34.749  1.00  0.00     0.031 C 
ATOM     38  C   UNL A   1      39.949  32.939  36.017  1.00  0.00     0.037 A 
BRANCH  25  39
ATOM     39  C   UNL A   1      44.389  28.636  35.724  1.00  0.00     0.058 A 
ATOM     40  C   UNL A   1      44.130  27.513  36.525  1.00  0.00     0.135 A 
ATOM     41  C   UNL A   1      45.723  29.057  35.599  1.00  0.00     0.135 A 
ATOM     42  F   UNL A   1      42.872  27.074  36.689  1.00  0.00    -0.206 F 
ATOM     43  C   UNL A   1      45.148  26.862  37.215  1.00  0.00     0.059 A 
ATOM     44  C   UNL A   1      46.761  28.406  36.260  1.00  0.00     0.059 A 
ATOM     45  F   UNL A   1      46.028  30.122  34.841  1.00  0.00    -0.206 F 
ATOM     46  C   UNL A   1      46.460  27.324  37.085  1.00  0.00     0.060 A 
BRANCH  46  47
ATOM     47  S   UNL A   1      47.766  26.503  38.024  1.00  0.00     0.124 S 
ATOM     48  O   UNL A   1      48.233  27.589  38.879  1.00  0.00    -0.237 OA
ATOM     49  O   UNL A   1      47.042  25.432  38.702  1.00  0.00    -0.237 OA
ATOM     50  O   UNL A   1      48.702  26.067  36.993  1.00  0.00    -0.744 OA
ENDBRANCH  46  47
ENDBRANCH  25  39
BRANCH  26  51
ATOM     51  C   UNL A   1      36.832  32.961  30.810  1.00  0.00     0.058 A 
ATOM     52  C   UNL A   1      35.524  32.556  31.107  1.00  0.00     0.135 A 
ATOM     53  C   UNL A   1      37.004  34.006  29.886  1.00  0.00     0.135 A 
ATOM     54  F   UNL A   1      35.312  31.562  31.982  1.00  0.00    -0.206 F 
ATOM     55  C   UNL A   1      34.423  33.177  30.526  1.00  0.00     0.059 A 
ATOM     56  C   UNL A   1      35.920  34.656  29.309  1.00  0.00     0.059 A 
ATOM     57  F   UNL A   1      38.238  34.440  29.587  1.00  0.00    -0.206 F 
ATOM     58  C   UNL A   1      34.631  34.236  29.638  1.00  0.00     0.060 A 
BRANCH  58  59
ATOM     59  S   UNL A   1      33.195  35.111  28.979  1.00  0.00     0.124 S 
ATOM     60  O   UNL A   1      32.415  35.346  30.188  1.00  0.00    -0.237 OA
ATOM     61  O   UNL A   1      33.806  36.291  28.373  1.00  0.00    -0.237 OA
ATOM     62  O   UNL A   1      32.627  34.156  28.033  1.00  0.00    -0.744 OA
ENDBRANCH  58  59
ENDBRANCH  26  51
BRANCH  38  63
ATOM     63  C   UNL A   1      39.614  33.844  37.167  1.00  0.00     0.058 A 
ATOM     64  C   UNL A   1      38.782  33.421  38.214  1.00  0.00     0.135 A 
ATOM     65  C   UNL A   1      40.204  35.114  37.264  1.00  0.00     0.135 A 
ATOM     66  F   UNL A   1      38.187  32.220  38.162  1.00  0.00    -0.206 F 
ATOM     67  C   UNL A   1      38.550  34.227  39.324  1.00  0.00     0.059 A 
ATOM     68  C   UNL A   1      40.001  35.928  38.373  1.00  0.00     0.059 A 
ATOM     69  F   UNL A   1      41.011  35.560  36.288  1.00  0.00    -0.206 F 
ATOM     70  C   UNL A   1      39.170  35.476  39.398  1.00  0.00     0.060 A 
BRANCH  70  71
ATOM     71  S   UNL A   1      38.923  36.481  40.877  1.00  0.00     0.124 S 
ATOM     72  O   UNL A   1      37.867  35.742  41.562  1.00  0.00    -0.237 OA
ATOM     73  O   UNL A   1      40.239  36.437  41.509  1.00  0.00    -0.237 OA
ATOM     74  O   UNL A   1      38.535  37.783  40.342  1.00  0.00    -0.744 OA
ENDBRANCH  70  71
ENDBRANCH  38  63
ENDBRANCH  12  13
ENDBRANCH   5   7
ENDBRANCH   2   3
ENDBRANCH   1   2
BRANCH   1  75
ATOM     75  C   UNL A   1      45.701  22.616  26.772  1.00  0.00     0.117 C 
BRANCH  75  76
ATOM     76  N   UNL A   1      45.764  22.971  25.364  1.00  0.00    -0.354 N 
ATOM     77  C   UNL A   1      45.148  22.375  24.299  1.00  0.00     0.252 C 
ATOM     78  H   UNL A   1      46.328  23.749  25.147  1.00  0.00     0.163 HD
ATOM     79  O   UNL A   1      45.234  22.940  23.206  1.00  0.00    -0.272 OA
BRANCH  77  80
ATOM     80  C   UNL A   1      44.428  21.030  24.488  1.00  0.00     0.242 C 
ATOM     81  O   UNL A   1      43.273  21.239  25.310  1.00  0.00    -0.324 OA
ATOM     82  C   UNL A   1      45.355  20.004  25.160  1.00  0.00     0.184 C 
ATOM     83  C   UNL A   1      42.489  20.076  25.549  1.00  0.00     0.343 C 
ATOM     84  C   UNL A   1      44.585  18.690  25.273  1.00  0.00     0.181 C 
ATOM     85  C   UNL A   1      43.292  18.857  26.058  1.00  0.00     0.214 C 
BRANCH  82  86
ATOM     86  O   UNL A   1      46.550  19.726  24.427  1.00  0.00    -0.387 OA
ATOM     87  H   UNL A   1      46.751  20.473  23.840  1.00  0.00     0.211 HD
ENDBRANCH  82  86
BRANCH  83  88
ATOM     88  O   UNL A   1      41.408  20.367  26.461  1.00  0.00    -0.429 OA
BRANCH  88  89
ATOM     89  C   UNL A   1      40.161  20.090  26.018  1.00  0.00     0.342 C 
ATOM     90  O   UNL A   1      39.743  19.023  25.588  1.00  0.00    -0.246 OA
BRANCH  89  91
ATOM     91  C   UNL A   1      39.333  21.302  26.056  1.00  0.00     0.078 A 
ATOM     92  C   UNL A   1      39.741  22.468  26.706  1.00  0.00     0.019 A 
ATOM     93  C   UNL A   1      38.138  21.323  25.350  1.00  0.00     0.126 A 
ATOM     94  C   UNL A   1      38.939  23.603  26.627  1.00  0.00     0.021 A 
ATOM     95  N   UNL A   1      37.335  22.413  25.266  1.00  0.00    -0.264 NA
ATOM     96  C   UNL A   1      37.757  23.527  25.906  1.00  0.00     0.111 A 
ENDBRANCH  89  91
ENDBRANCH  88  89
ENDBRANCH  83  88
BRANCH  84  97
ATOM     97  O   UNL A   1      45.412  17.690  25.901  1.00  0.00    -0.387 OA
ATOM     98  H   UNL A   1      45.144  16.810  25.594  1.00  0.00     0.211 HD
ENDBRANCH  84  97
BRANCH  85  99
ATOM     99  O   UNL A   1      42.514  17.653  25.945  1.00  0.00    -0.384 OA
ATOM    100  H   UNL A   1      42.231  17.366  26.827  1.00  0.00     0.211 HD
ENDBRANCH  85  99
ENDBRANCH  77  80
ENDBRANCH  75  76
ENDBRANCH   1  75
TORSDOF 19
ENDMDL
MODEL 2
REMARK VINA RESULT:     -11.7      1.151      3.157
REMARK SMILES O=C(NCCCNC(=O)[C@@H]1O[C@H](OC(=O)c2cccnc2)[C@@H](O)[C@H](O)[C@H]1O)c1ccc(-c2c3nc(c(-c4c(F)cc(S(=O)(=O)[O-])cc4F)c4ccc([nH]4)c(-c4c(F)cc(S(=O)(=O)[O-])cc4F)c4nc(c(-c5c(F)cc(S(=O)(=O)[O-])cc5F)c5ccc2[nH]5)C=C4)C=C3)cc1
REMARK SMILES IDX 5 1 4 2 3 3 1 4 2 5 28 7 29 8 93 9 30 10 92 11 31 12 32 13
REMARK SMILES IDX 33 14 86 15 34 16 91 17 85 18 87 19 35 20 90 21 84 22 83 23
REMARK SMILES IDX 36 25 70 26 49 27 69 28 50 29 53 30 68 31 88 32 51 33 52 34
REMARK SMILES IDX 67 36 89 37 54 38 37 39 38 40 47 41 39 42 40 43 46 44 48 45
REMARK SMILES IDX 41 46 42 47 43 48 44 49 45 50 71 51 72 52 81 53 73 54 74 55
REMARK SMILES IDX 80 56 82 57 75 58 76 59 77 60 78 61 79 62 55 63 56 64 65 65
REMARK SMILES IDX 57 66 58 67 64 68 66 69 59 70 60 71 61 72 62 73 63 74 6 75
REMARK SMILES IDX 7 76 8 77 9 79 10 80 11 81 26 82 12 83 24 84 22 85 27 86
REMARK SMILES IDX 13 88 14 89 15 90 16 91 17 92 21 93 18 94 20 95 19 96 25 97
REMARK SMILES IDX 23 99
REMARK H PARENT 3 6 87 24 53 35 7 78 27 87 25 98 23 100
REMARK Flexibility Score: inf
ROOT
ATOM      1  C   UNL A   1      41.480  22.831  28.239  1.00  0.00     0.042 C 
ENDROOT
BRANCH   1   2
ATOM      2  C   UNL A   1      40.434  23.335  27.258  1.00  0.00     0.118 C 
BRANCH   2   3
ATOM      3  N   UNL A   1      41.011  24.062  26.136  1.00  0.00    -0.352 N 
ATOM      4  O   UNL A   1      41.565  25.823  24.855  1.00  0.00    -0.269 OA
ATOM      5  C   UNL A   1      41.240  25.406  25.964  1.00  0.00     0.251 C 
ATOM      6  H   UNL A   1      41.281  23.498  25.375  1.00  0.00     0.163 HD
BRANCH   5   7
ATOM      7  C   UNL A   1      41.074  26.351  27.090  1.00  0.00     0.039 A 
ATOM      8  C   UNL A   1      41.852  27.508  27.185  1.00  0.00     0.014 A 
ATOM      9  C   UNL A   1      40.093  26.094  28.052  1.00  0.00     0.014 A 
ATOM     10  C   UNL A   1      41.767  28.312  28.315  1.00  0.00     0.010 A 
ATOM     11  C   UNL A   1      39.938  26.960  29.137  1.00  0.00     0.010 A 
ATOM     12  C   UNL A   1      40.796  28.058  29.295  1.00  0.00    -0.014 A 
BRANCH  12  13
ATOM     13  C   UNL A   1      40.645  28.988  30.442  1.00  0.00     0.031 A 
ATOM     14  C   UNL A   1      41.501  28.848  31.668  1.00  0.00     0.074 A 
ATOM     15  C   UNL A   1      39.709  29.955  30.375  1.00  0.00     0.049 A 
ATOM     16  N   UNL A   1      41.454  29.525  32.787  1.00  0.00    -0.248 NA
ATOM     17  C   UNL A   1      42.538  27.805  31.640  1.00  0.00     0.031 C 
ATOM     18  C   UNL A   1      38.810  30.177  29.239  1.00  0.00     0.029 A 
ATOM     19  N   UNL A   1      39.349  30.922  31.277  1.00  0.00    -0.354 N 
ATOM     20  C   UNL A   1      42.428  28.971  33.609  1.00  0.00     0.074 A 
ATOM     21  C   UNL A   1      43.042  27.892  32.863  1.00  0.00     0.031 C 
ATOM     22  C   UNL A   1      38.015  31.221  29.505  1.00  0.00     0.029 A 
ATOM     23  C   UNL A   1      38.300  31.701  30.853  1.00  0.00     0.049 A 
ATOM     24  H   UNL A   1      39.799  31.047  32.144  1.00  0.00     0.167 HD
ATOM     25  C   UNL A   1      42.776  29.333  34.867  1.00  0.00     0.037 A 
ATOM     26  C   UNL A   1      37.613  32.670  31.486  1.00  0.00     0.037 A 
ATOM     27  C   UNL A   1      42.168  30.420  35.590  1.00  0.00     0.049 A 
ATOM     28  C   UNL A   1      38.008  33.051  32.881  1.00  0.00     0.074 A 
ATOM     29  C   UNL A   1      42.482  30.899  36.850  1.00  0.00     0.029 A 
ATOM     30  N   UNL A   1      41.115  31.193  35.121  1.00  0.00    -0.354 N 
ATOM     31  N   UNL A   1      38.957  32.543  33.630  1.00  0.00    -0.248 NA
ATOM     32  C   UNL A   1      37.245  34.129  33.520  1.00  0.00     0.031 C 
ATOM     33  C   UNL A   1      41.592  31.934  37.158  1.00  0.00     0.029 A 
ATOM     34  C   UNL A   1      40.751  32.130  36.074  1.00  0.00     0.049 A 
ATOM     35  H   UNL A   1      40.688  31.091  34.239  1.00  0.00     0.167 HD
ATOM     36  C   UNL A   1      38.914  33.247  34.826  1.00  0.00     0.074 A 
ATOM     37  C   UNL A   1      37.850  34.223  34.697  1.00  0.00     0.031 C 
ATOM     38  C   UNL A   1      39.690  33.097  35.928  1.00  0.00     0.037 A 
BRANCH  25  39
ATOM     39  C   UNL A   1      43.841  28.520  35.552  1.00  0.00     0.058 A 
ATOM     40  C   UNL A   1      45.206  28.812  35.406  1.00  0.00     0.135 A 
ATOM     41  C   UNL A   1      43.488  27.430  36.364  1.00  0.00     0.135 A 
ATOM     42  F   UNL A   1      45.600  29.837  34.633  1.00  0.00    -0.206 F 
ATOM     43  C   UNL A   1      46.185  28.024  36.002  1.00  0.00     0.059 A 
ATOM     44  C   UNL A   1      44.450  26.642  36.990  1.00  0.00     0.059 A 
ATOM     45  F   UNL A   1      42.197  27.109  36.542  1.00  0.00    -0.206 F 
ATOM     46  C   UNL A   1      45.797  26.933  36.783  1.00  0.00     0.060 A 
BRANCH  46  47
ATOM     47  S   UNL A   1      47.078  25.888  37.511  1.00  0.00     0.124 S 
ATOM     48  O   UNL A   1      46.278  24.814  38.090  1.00  0.00    -0.237 OA
ATOM     49  O   UNL A   1      47.883  25.520  36.350  1.00  0.00    -0.237 OA
ATOM     50  O   UNL A   1      47.733  26.771  38.469  1.00  0.00    -0.744 OA
ENDBRANCH  46  47
ENDBRANCH  25  39
BRANCH  26  51
ATOM     51  C   UNL A   1      36.475  33.314  30.786  1.00  0.00     0.058 A 
ATOM     52  C   UNL A   1      35.155  33.112  31.211  1.00  0.00     0.135 A 
ATOM     53  C   UNL A   1      36.698  34.233  29.746  1.00  0.00     0.135 A 
ATOM     54  F   UNL A   1      34.894  32.243  32.198  1.00  0.00    -0.206 F 
ATOM     55  C   UNL A   1      34.095  33.811  30.642  1.00  0.00     0.059 A 
ATOM     56  C   UNL A   1      35.658  34.959  29.177  1.00  0.00     0.059 A 
ATOM     57  F   UNL A   1      37.947  34.474  29.321  1.00  0.00    -0.206 F 
ATOM     58  C   UNL A   1      34.359  34.743  29.635  1.00  0.00     0.060 A 
BRANCH  58  59
ATOM     59  S   UNL A   1      32.992  35.728  28.984  1.00  0.00     0.124 S 
ATOM     60  O   UNL A   1      33.702  36.834  28.354  1.00  0.00    -0.237 OA
ATOM     61  O   UNL A   1      32.340  34.788  28.078  1.00  0.00    -0.237 OA
ATOM     62  O   UNL A   1      32.224  36.066  30.179  1.00  0.00    -0.744 OA
ENDBRANCH  58  59
ENDBRANCH  26  51
BRANCH  38  63
ATOM     63  C   UNL A   1      39.437  34.021  37.083  1.00  0.00     0.058 A 
ATOM     64  C   UNL A   1      38.679  33.619  38.192  1.00  0.00     0.135 A 
ATOM     65  C   UNL A   1      40.035  35.291  37.118  1.00  0.00     0.135 A 
ATOM     66  F   UNL A   1      38.079  32.418  38.201  1.00  0.00    -0.206 F 
ATOM     67  C   UNL A   1      38.525  34.444  39.301  1.00  0.00     0.059 A 
ATOM     68  C   UNL A   1      39.910  36.124  38.223  1.00  0.00     0.059 A 
ATOM     69  F   UNL A   1      40.772  35.719  36.080  1.00  0.00    -0.206 F 
ATOM     70  C   UNL A   1      39.151  35.692  39.311  1.00  0.00     0.060 A 
BRANCH  70  71
ATOM     71  S   UNL A   1      39.008  36.722  40.787  1.00  0.00     0.124 S 
ATOM     72  O   UNL A   1      40.399  36.814  41.217  1.00  0.00    -0.237 OA
ATOM     73  O   UNL A   1      38.426  37.951  40.256  1.00  0.00    -0.237 OA
ATOM     74  O   UNL A   1      38.130  35.946  41.659  1.00  0.00    -0.744 OA
ENDBRANCH  70  71
ENDBRANCH  38  63
ENDBRANCH  12  13
ENDBRANCH   5   7
ENDBRANCH   2   3
ENDBRANCH   1   2
BRANCH   1  75
ATOM     75  C   UNL A   1      41.504  21.321  28.402  1.00  0.00     0.117 C 
BRANCH  75  76
ATOM     76  N   UNL A   1      40.890  20.618  27.287  1.00  0.00    -0.354 N 
ATOM     77  C   UNL A   1      41.487  20.038  26.203  1.00  0.00     0.252 C 
ATOM     78  H   UNL A   1      39.909  20.551  27.318  1.00  0.00     0.163 HD
ATOM     79  O   UNL A   1      40.772  19.370  25.452  1.00  0.00    -0.272 OA
BRANCH  77  80
ATOM     80  C   UNL A   1      42.983  20.274  25.938  1.00  0.00     0.242 C 
ATOM     81  O   UNL A   1      43.151  21.592  25.398  1.00  0.00    -0.324 OA
ATOM     82  C   UNL A   1      43.531  19.240  24.942  1.00  0.00     0.184 C 
ATOM     83  C   UNL A   1      44.498  21.961  25.127  1.00  0.00     0.343 C 
ATOM     84  C   UNL A   1      45.024  19.515  24.765  1.00  0.00     0.181 C 
ATOM     85  C   UNL A   1      45.284  20.934  24.281  1.00  0.00     0.214 C 
BRANCH  82  86
ATOM     86  O   UNL A   1      43.405  17.885  25.377  1.00  0.00    -0.387 OA
ATOM     87  H   UNL A   1      43.535  17.839  26.337  1.00  0.00     0.211 HD
ENDBRANCH  82  86
BRANCH  83  88
ATOM     88  O   UNL A   1      44.555  23.261  24.499  1.00  0.00    -0.429 OA
BRANCH  88  89
ATOM     89  C   UNL A   1      45.684  23.975  24.707  1.00  0.00     0.342 C 
ATOM     90  O   UNL A   1      46.608  24.152  23.924  1.00  0.00    -0.246 OA
BRANCH  89  91
ATOM     91  C   UNL A   1      45.705  24.494  26.080  1.00  0.00     0.078 A 
ATOM     92  C   UNL A   1      44.686  25.299  26.593  1.00  0.00     0.019 A 
ATOM     93  C   UNL A   1      46.730  24.105  26.931  1.00  0.00     0.126 A 
ATOM     94  C   UNL A   1      44.734  25.683  27.930  1.00  0.00     0.021 A 
ATOM     95  N   UNL A   1      46.805  24.474  28.234  1.00  0.00    -0.264 NA
ATOM     96  C   UNL A   1      45.803  25.253  28.701  1.00  0.00     0.111 A 
ENDBRANCH  89  91
ENDBRANCH  88  89
ENDBRANCH  83  88
BRANCH  84  97
ATOM     97  O   UNL A   1      45.589  18.570  23.835  1.00  0.00    -0.387 OA
ATOM     98  H   UNL A   1      45.528  18.926  22.935  1.00  0.00     0.211 HD
ENDBRANCH  84  97
BRANCH  85  99
ATOM     99  O   UNL A   1      46.697  21.200  24.343  1.00  0.00    -0.384 OA
ATOM    100  H   UNL A   1      46.920  21.910  23.721  1.00  0.00     0.211 HD
ENDBRANCH  85  99
ENDBRANCH  77  80
ENDBRANCH  75  76
ENDBRANCH   1  75
TORSDOF 19
ENDMDL
MODEL 3
REMARK VINA RESULT:     -11.6      6.598     12.773
REMARK SMILES O=C(NCCCNC(=O)[C@@H]1O[C@H](OC(=O)c2cccnc2)[C@@H](O)[C@H](O)[C@H]1O)c1ccc(-c2c3nc(c(-c4c(F)cc(S(=O)(=O)[O-])cc4F)c4ccc([nH]4)c(-c4c(F)cc(S(=O)(=O)[O-])cc4F)c4nc(c(-c5c(F)cc(S(=O)(=O)[O-])cc5F)c5ccc2[nH]5)C=C4)C=C3)cc1
REMARK SMILES IDX 5 1 4 2 3 3 1 4 2 5 28 7 29 8 93 9 30 10 92 11 31 12 32 13
REMARK SMILES IDX 33 14 86 15 34 16 91 17 85 18 87 19 35 20 90 21 84 22 83 23
REMARK SMILES IDX 36 25 70 26 49 27 69 28 50 29 53 30 68 31 88 32 51 33 52 34
REMARK SMILES IDX 67 36 89 37 54 38 37 39 38 40 47 41 39 42 40 43 46 44 48 45
REMARK SMILES IDX 41 46 42 47 43 48 44 49 45 50 71 51 72 52 81 53 73 54 74 55
REMARK SMILES IDX 80 56 82 57 75 58 76 59 77 60 78 61 79 62 55 63 56 64 65 65
REMARK SMILES IDX 57 66 58 67 64 68 66 69 59 70 60 71 61 72 62 73 63 74 6 75
REMARK SMILES IDX 7 76 8 77 9 79 10 80 11 81 26 82 12 83 24 84 22 85 27 86
REMARK SMILES IDX 13 88 14 89 15 90 16 91 17 92 21 93 18 94 20 95 19 96 25 97
REMARK SMILES IDX 23 99
REMARK H PARENT 3 6 87 24 53 35 7 78 27 87 25 98 23 100
REMARK Flexibility Score: inf
ROOT
ATOM      1  C   UNL A   1      33.746  29.080  26.931  1.00  0.00     0.042 C 
ENDROOT
BRANCH   1   2
ATOM      2  C   UNL A   1      35.135  29.287  27.514  1.00  0.00     0.118 C 
BRANCH   2   3
ATOM      3  N   UNL A   1      35.123  30.064  28.745  1.00  0.00    -0.352 N 
ATOM      4  O   UNL A   1      35.830  30.825  30.738  1.00  0.00    -0.269 OA
ATOM      5  C   UNL A   1      36.115  30.291  29.669  1.00  0.00     0.251 C 
ATOM      6  H   UNL A   1      34.263  30.497  28.950  1.00  0.00     0.163 HD
BRANCH   5   7
ATOM      7  C   UNL A   1      37.509  29.875  29.400  1.00  0.00     0.039 A 
ATOM      8  C   UNL A   1      38.355  29.466  30.433  1.00  0.00     0.014 A 
ATOM      9  C   UNL A   1      37.967  29.858  28.079  1.00  0.00     0.014 A 
ATOM     10  C   UNL A   1      39.695  29.203  30.172  1.00  0.00     0.010 A 
ATOM     11  C   UNL A   1      39.288  29.494  27.806  1.00  0.00     0.010 A 
ATOM     12  C   UNL A   1      40.172  29.195  28.854  1.00  0.00    -0.014 A 
BRANCH  12  13
ATOM     13  C   UNL A   1      41.578  28.807  28.581  1.00  0.00     0.031 A 
ATOM     14  C   UNL A   1      42.683  29.824  28.624  1.00  0.00     0.074 A 
ATOM     15  C   UNL A   1      41.849  27.524  28.271  1.00  0.00     0.049 A 
ATOM     16  N   UNL A   1      43.952  29.673  28.343  1.00  0.00    -0.248 NA
ATOM     17  C   UNL A   1      42.315  31.190  29.025  1.00  0.00     0.031 C 
ATOM     18  C   UNL A   1      40.854  26.452  28.186  1.00  0.00     0.029 A 
ATOM     19  N   UNL A   1      43.032  26.903  27.964  1.00  0.00    -0.354 N 
ATOM     20  C   UNL A   1      44.529  30.928  28.499  1.00  0.00     0.074 A 
ATOM     21  C   UNL A   1      43.466  31.833  28.888  1.00  0.00     0.031 C 
ATOM     22  C   UNL A   1      41.468  25.306  27.864  1.00  0.00     0.029 A 
ATOM     23  C   UNL A   1      42.886  25.572  27.656  1.00  0.00     0.049 A 
ATOM     24  H   UNL A   1      43.901  27.366  27.965  1.00  0.00     0.167 HD
ATOM     25  C   UNL A   1      45.824  31.288  28.334  1.00  0.00     0.037 A 
ATOM     26  C   UNL A   1      43.783  24.669  27.218  1.00  0.00     0.037 A 
ATOM     27  C   UNL A   1      46.874  30.374  27.964  1.00  0.00     0.049 A 
ATOM     28  C   UNL A   1      45.210  25.088  27.034  1.00  0.00     0.074 A 
ATOM     29  C   UNL A   1      48.227  30.628  27.819  1.00  0.00     0.029 A 
ATOM     30  N   UNL A   1      46.687  29.029  27.672  1.00  0.00    -0.354 N 
ATOM     31  N   UNL A   1      45.746  26.271  27.223  1.00  0.00    -0.248 NA
ATOM     32  C   UNL A   1      46.154  24.062  26.578  1.00  0.00     0.031 C 
ATOM     33  C   UNL A   1      48.850  29.447  27.400  1.00  0.00     0.029 A 
ATOM     34  C   UNL A   1      47.894  28.446  27.324  1.00  0.00     0.049 A 
ATOM     35  H   UNL A   1      45.822  28.559  27.705  1.00  0.00     0.167 HD
ATOM     36  C   UNL A   1      47.094  26.128  26.919  1.00  0.00     0.074 A 
ATOM     37  C   UNL A   1      47.292  24.743  26.543  1.00  0.00     0.031 C 
ATOM     38  C   UNL A   1      48.075  27.063  26.954  1.00  0.00     0.037 A 
BRANCH  25  39
ATOM     39  C   UNL A   1      46.168  32.741  28.519  1.00  0.00     0.058 A 
ATOM     40  C   UNL A   1      46.548  33.260  29.766  1.00  0.00     0.135 A 
ATOM     41  C   UNL A   1      46.112  33.627  27.431  1.00  0.00     0.135 A 
ATOM     42  F   UNL A   1      46.607  32.460  30.843  1.00  0.00    -0.206 F 
ATOM     43  C   UNL A   1      46.815  34.615  29.939  1.00  0.00     0.059 A 
ATOM     44  C   UNL A   1      46.400  34.981  27.575  1.00  0.00     0.059 A 
ATOM     45  F   UNL A   1      45.760  33.182  26.214  1.00  0.00    -0.206 F 
ATOM     46  C   UNL A   1      46.726  35.470  28.838  1.00  0.00     0.060 A 
BRANCH  46  47
ATOM     47  S   UNL A   1      47.026  37.234  29.084  1.00  0.00     0.124 S 
ATOM     48  O   UNL A   1      47.217  37.688  27.711  1.00  0.00    -0.237 OA
ATOM     49  O   UNL A   1      45.794  37.677  29.730  1.00  0.00    -0.237 OA
ATOM     50  O   UNL A   1      48.216  37.262  29.928  1.00  0.00    -0.744 OA
ENDBRANCH  46  47
ENDBRANCH  25  39
BRANCH  26  51
ATOM     51  C   UNL A   1      43.320  23.293  26.913  1.00  0.00     0.058 A 
ATOM     52  C   UNL A   1      43.253  22.827  25.594  1.00  0.00     0.135 A 
ATOM     53  C   UNL A   1      43.044  22.382  27.947  1.00  0.00     0.135 A 
ATOM     54  F   UNL A   1      43.507  23.660  24.574  1.00  0.00    -0.206 F 
ATOM     55  C   UNL A   1      42.944  21.500  25.307  1.00  0.00     0.059 A 
ATOM     56  C   UNL A   1      42.754  21.048  27.688  1.00  0.00     0.059 A 
ATOM     57  F   UNL A   1      43.116  22.779  29.227  1.00  0.00    -0.206 F 
ATOM     58  C   UNL A   1      42.710  20.615  26.363  1.00  0.00     0.060 A 
BRANCH  58  59
ATOM     59  S   UNL A   1      42.424  18.872  25.986  1.00  0.00     0.124 S 
ATOM     60  O   UNL A   1      43.345  18.657  24.877  1.00  0.00    -0.237 OA
ATOM     61  O   UNL A   1      42.778  18.224  27.245  1.00  0.00    -0.237 OA
ATOM     62  O   UNL A   1      41.004  18.831  25.649  1.00  0.00    -0.744 OA
ENDBRANCH  58  59
ENDBRANCH  26  51
BRANCH  38  63
ATOM     63  C   UNL A   1      49.464  26.622  26.595  1.00  0.00     0.058 A 
ATOM     64  C   UNL A   1      50.309  26.020  27.539  1.00  0.00     0.135 A 
ATOM     65  C   UNL A   1      49.919  26.723  25.271  1.00  0.00     0.135 A 
ATOM     66  F   UNL A   1      49.923  25.910  28.820  1.00  0.00    -0.206 F 
ATOM     67  C   UNL A   1      51.559  25.528  27.180  1.00  0.00     0.059 A 
ATOM     68  C   UNL A   1      51.157  26.222  24.887  1.00  0.00     0.059 A 
ATOM     69  F   UNL A   1      49.144  27.289  24.332  1.00  0.00    -0.206 F 
ATOM     70  C   UNL A   1      51.972  25.626  25.850  1.00  0.00     0.060 A 
BRANCH  70  71
ATOM     71  S   UNL A   1      53.563  24.915  25.380  1.00  0.00     0.124 S 
ATOM     72  O   UNL A   1      53.840  25.614  24.130  1.00  0.00    -0.237 OA
ATOM     73  O   UNL A   1      54.414  25.276  26.510  1.00  0.00    -0.237 OA
ATOM     74  O   UNL A   1      53.273  23.489  25.252  1.00  0.00    -0.744 OA
ENDBRANCH  70  71
ENDBRANCH  38  63
ENDBRANCH  12  13
ENDBRANCH   5   7
ENDBRANCH   2   3
ENDBRANCH   1   2
BRANCH   1  75
ATOM     75  C   UNL A   1      33.451  27.648  26.519  1.00  0.00     0.117 C 
BRANCH  75  76
ATOM     76  N   UNL A   1      32.532  27.555  25.397  1.00  0.00    -0.354 N 
ATOM     77  C   UNL A   1      31.780  26.490  24.986  1.00  0.00     0.252 C 
ATOM     78  H   UNL A   1      32.436  28.374  24.859  1.00  0.00     0.163 HD
ATOM     79  O   UNL A   1      30.959  26.688  24.088  1.00  0.00    -0.272 OA
BRANCH  77  80
ATOM     80  C   UNL A   1      32.015  25.104  25.610  1.00  0.00     0.242 C 
ATOM     81  O   UNL A   1      32.927  24.375  24.778  1.00  0.00    -0.324 OA
ATOM     82  C   UNL A   1      30.695  24.327  25.727  1.00  0.00     0.184 C 
ATOM     83  C   UNL A   1      33.260  23.075  25.250  1.00  0.00     0.343 C 
ATOM     84  C   UNL A   1      31.006  22.986  26.391  1.00  0.00     0.181 C 
ATOM     85  C   UNL A   1      32.042  22.193  25.608  1.00  0.00     0.214 C 
BRANCH  82  86
ATOM     86  O   UNL A   1      29.705  24.971  26.531  1.00  0.00    -0.387 OA
ATOM     87  H   UNL A   1      28.909  25.128  26.000  1.00  0.00     0.211 HD
ENDBRANCH  82  86
BRANCH  83  88
ATOM     88  O   UNL A   1      34.102  22.386  24.300  1.00  0.00    -0.429 OA
BRANCH  88  89
ATOM     89  C   UNL A   1      35.112  23.108  23.763  1.00  0.00     0.342 C 
ATOM     90  O   UNL A   1      35.073  23.814  22.765  1.00  0.00    -0.246 OA
BRANCH  89  91
ATOM     91  C   UNL A   1      36.347  22.887  24.524  1.00  0.00     0.078 A 
ATOM     92  C   UNL A   1      36.888  23.856  25.373  1.00  0.00     0.019 A 
ATOM     93  C   UNL A   1      36.959  21.643  24.469  1.00  0.00     0.126 A 
ATOM     94  C   UNL A   1      38.016  23.542  26.126  1.00  0.00     0.021 A 
ATOM     95  N   UNL A   1      38.063  21.316  25.186  1.00  0.00    -0.264 NA
ATOM     96  C   UNL A   1      38.563  22.275  25.998  1.00  0.00     0.111 A 
ENDBRANCH  89  91
ENDBRANCH  88  89
ENDBRANCH  83  88
BRANCH  84  97
ATOM     97  O   UNL A   1      29.796  22.213  26.523  1.00  0.00    -0.387 OA
ATOM     98  H   UNL A   1      29.814  21.475  25.895  1.00  0.00     0.211 HD
ENDBRANCH  84  97
BRANCH  85  99
ATOM     99  O   UNL A   1      32.450  21.055  26.386  1.00  0.00    -0.384 OA
ATOM    100  H   UNL A   1      33.400  20.903  26.264  1.00  0.00     0.211 HD
ENDBRANCH  85  99
ENDBRANCH  77  80
ENDBRANCH  75  76
ENDBRANCH   1  75
TORSDOF 19
ENDMDL
