MODEL 1
REMARK VINA RESULT:     -12.5      0.000      0.000
REMARK SMILES Cc1cc(=O)cc(C)n1C[C@H]1CCCC[C@@H]1C(=O)NCCCNC(=O)c1ccc(-c2c3nc(c(-c4c(F)cc(S(=O)(=O)[O-])cc4F)c4ccc([nH]4)c(-c4c(F)cc(S(=O)(=O)[O-])cc4F)c4nc(c(-c5c(F)cc(S(=O)(=O)[O-])cc5F)c5ccc2[nH]5)C=C4)C=C3)cc1
REMARK SMILES IDX 21 1 20 2 19 3 17 4 18 5 16 7 11 8 12 9 13 10 15 11 14 12
REMARK SMILES IDX 10 13 9 14 1 15 2 16 3 17 4 18 7 19 5 20 6 21 8 22 22 23
REMARK SMILES IDX 23 24 24 25 25 27 26 28 27 29 91 30 28 31 90 32 29 33 30 34
REMARK SMILES IDX 31 35 84 36 32 37 89 38 83 39 85 40 33 41 88 42 82 43 81 44
REMARK SMILES IDX 34 46 68 47 47 48 67 49 48 50 51 51 66 52 86 53 49 54 50 55
REMARK SMILES IDX 65 57 87 58 52 59 35 60 36 61 45 62 37 63 38 64 44 65 46 66
REMARK SMILES IDX 39 67 40 68 41 69 42 70 43 71 69 72 70 73 79 74 71 75 72 76
REMARK SMILES IDX 78 77 80 78 73 79 74 80 75 81 76 82 77 83 53 84 54 85 63 86
REMARK SMILES IDX 55 87 56 88 62 89 64 90 57 91 58 92 59 93 60 94 61 95
REMARK H PARENT 19 6 23 26 85 45 51 56
REMARK Flexibility Score: inf
ROOT
ATOM      1  C   UNL A   1      34.494  31.122  27.639  1.00  0.00     0.042 C 
ENDROOT
BRANCH   1   2
ATOM      2  C   UNL A   1      34.449  29.636  27.358  1.00  0.00     0.117 C 
BRANCH   2   3
ATOM      3  N   UNL A   1      33.214  29.015  27.806  1.00  0.00    -0.356 N 
ATOM      4  C   UNL A   1      32.310  28.171  27.249  1.00  0.00     0.223 C 
ATOM      5  O   UNL A   1      31.414  27.790  28.012  1.00  0.00    -0.275 OA
ATOM      6  H   UNL A   1      32.979  29.263  28.730  1.00  0.00     0.163 HD
BRANCH   4   7
ATOM      7  C   UNL A   1      32.285  27.743  25.761  1.00  0.00     0.083 C 
ATOM      8  C   UNL A   1      31.010  26.863  25.479  1.00  0.00     0.021 C 
ATOM      9  C   UNL A   1      31.189  25.512  26.209  1.00  0.00     0.006 C 
ATOM     10  C   UNL A   1      32.528  24.799  25.975  1.00  0.00     0.000 C 
ATOM     11  C   UNL A   1      33.500  26.994  25.214  1.00  0.00     0.014 C 
ATOM     12  C   UNL A   1      33.748  25.706  25.990  1.00  0.00     0.001 C 
BRANCH   8  13
ATOM     13  C   UNL A   1      30.753  26.779  23.946  1.00  0.00     0.126 C 
BRANCH  13  14
ATOM     14  N   UNL A   1      29.963  27.890  23.341  1.00  0.00    -0.349 N 
ATOM     15  C   UNL A   1      32.122  28.969  22.508  1.00  0.00     0.064 C 
ATOM     16  C   UNL A   1      30.615  28.924  22.614  1.00  0.00     0.018 A 
ATOM     17  C   UNL A   1      29.939  29.880  21.946  1.00  0.00     0.073 A 
ATOM     18  C   UNL A   1      28.470  29.871  21.938  1.00  0.00     0.182 A 
ATOM     19  C   UNL A   1      28.539  27.852  23.299  1.00  0.00     0.018 A 
ATOM     20  O   UNL A   1      27.822  30.719  21.334  1.00  0.00    -0.290 OA
ATOM     21  C   UNL A   1      27.806  28.779  22.658  1.00  0.00     0.073 A 
ATOM     22  C   UNL A   1      27.742  26.743  23.934  1.00  0.00     0.064 C 
ENDBRANCH  13  14
ENDBRANCH   8  13
ENDBRANCH   4   7
ENDBRANCH   2   3
ENDBRANCH   1   2
BRANCH   1  23
ATOM     23  C   UNL A   1      35.753  31.513  28.388  1.00  0.00     0.118 C 
BRANCH  23  24
ATOM     24  N   UNL A   1      35.661  31.197  29.815  1.00  0.00    -0.352 N 
ATOM     25  C   UNL A   1      36.453  30.389  30.592  1.00  0.00     0.251 C 
ATOM     26  H   UNL A   1      34.915  31.632  30.289  1.00  0.00     0.163 HD
ATOM     27  O   UNL A   1      36.063  30.033  31.702  1.00  0.00    -0.269 OA
BRANCH  25  28
ATOM     28  C   UNL A   1      37.761  29.943  30.078  1.00  0.00     0.039 A 
ATOM     29  C   UNL A   1      38.004  29.944  28.703  1.00  0.00     0.014 A 
ATOM     30  C   UNL A   1      38.755  29.541  30.970  1.00  0.00     0.014 A 
ATOM     31  C   UNL A   1      39.277  29.617  28.236  1.00  0.00     0.010 A 
ATOM     32  C   UNL A   1      40.049  29.342  30.516  1.00  0.00     0.010 A 
ATOM     33  C   UNL A   1      40.320  29.357  29.142  1.00  0.00    -0.014 A 
BRANCH  33  34
ATOM     34  C   UNL A   1      41.693  29.045  28.683  1.00  0.00     0.031 A 
ATOM     35  C   UNL A   1      42.034  27.632  28.290  1.00  0.00     0.074 A 
ATOM     36  C   UNL A   1      42.630  30.012  28.665  1.00  0.00     0.049 A 
ATOM     37  N   UNL A   1      43.188  27.132  27.935  1.00  0.00    -0.248 NA
ATOM     38  C   UNL A   1      40.941  26.642  28.327  1.00  0.00     0.031 C 
ATOM     39  C   UNL A   1      42.418  31.409  29.057  1.00  0.00     0.029 A 
ATOM     40  N   UNL A   1      43.950  29.973  28.295  1.00  0.00    -0.354 N 
ATOM     41  C   UNL A   1      42.956  25.783  27.699  1.00  0.00     0.074 A 
ATOM     42  C   UNL A   1      41.577  25.518  28.035  1.00  0.00     0.031 C 
ATOM     43  C   UNL A   1      43.551  32.101  28.855  1.00  0.00     0.029 A 
ATOM     44  C   UNL A   1      44.582  31.193  28.367  1.00  0.00     0.049 A 
ATOM     45  H   UNL A   1      44.403  29.149  28.004  1.00  0.00     0.167 HD
ATOM     46  C   UNL A   1      43.803  24.857  27.196  1.00  0.00     0.037 A 
ATOM     47  C   UNL A   1      45.851  31.534  28.067  1.00  0.00     0.037 A 
ATOM     48  C   UNL A   1      45.165  25.134  26.834  1.00  0.00     0.049 A 
ATOM     49  C   UNL A   1      46.788  30.465  27.569  1.00  0.00     0.074 A 
ATOM     50  C   UNL A   1      46.106  24.269  26.306  1.00  0.00     0.029 A 
ATOM     51  N   UNL A   1      45.774  26.375  26.943  1.00  0.00    -0.354 N 
ATOM     52  N   UNL A   1      46.543  29.199  27.326  1.00  0.00    -0.248 NA
ATOM     53  C   UNL A   1      48.176  30.869  27.306  1.00  0.00     0.031 C 
ATOM     54  C   UNL A   1      47.297  24.978  26.131  1.00  0.00     0.029 A 
ATOM     55  C   UNL A   1      47.083  26.296  26.504  1.00  0.00     0.049 A 
ATOM     56  H   UNL A   1      45.340  27.191  27.284  1.00  0.00     0.167 HD
ATOM     57  C   UNL A   1      47.735  28.666  26.847  1.00  0.00     0.074 A 
ATOM     58  C   UNL A   1      48.695  29.749  26.823  1.00  0.00     0.031 C 
ATOM     59  C   UNL A   1      48.013  27.396  26.464  1.00  0.00     0.037 A 
BRANCH  46  60
ATOM     60  C   UNL A   1      43.271  23.472  26.957  1.00  0.00     0.058 A 
ATOM     61  C   UNL A   1      43.003  23.015  25.656  1.00  0.00     0.135 A 
ATOM     62  C   UNL A   1      43.104  22.568  28.018  1.00  0.00     0.135 A 
ATOM     63  F   UNL A   1      43.120  23.847  24.609  1.00  0.00    -0.206 F 
ATOM     64  C   UNL A   1      42.589  21.710  25.414  1.00  0.00     0.059 A 
ATOM     65  C   UNL A   1      42.717  21.250  27.796  1.00  0.00     0.059 A 
ATOM     66  F   UNL A   1      43.336  22.958  29.280  1.00  0.00    -0.206 F 
ATOM     67  C   UNL A   1      42.462  20.831  26.491  1.00  0.00     0.060 A 
BRANCH  67  68
ATOM     68  S   UNL A   1      41.982  19.126  26.146  1.00  0.00     0.124 S 
ATOM     69  O   UNL A   1      42.855  18.798  25.022  1.00  0.00    -0.237 OA
ATOM     70  O   UNL A   1      42.293  18.458  27.405  1.00  0.00    -0.237 OA
ATOM     71  O   UNL A   1      40.562  19.229  25.825  1.00  0.00    -0.744 OA
ENDBRANCH  67  68
ENDBRANCH  46  60
BRANCH  47  72
ATOM     72  C   UNL A   1      46.308  32.945  28.189  1.00  0.00     0.058 A 
ATOM     73  C   UNL A   1      46.169  33.836  27.113  1.00  0.00     0.135 A 
ATOM     74  C   UNL A   1      46.917  33.427  29.358  1.00  0.00     0.135 A 
ATOM     75  F   UNL A   1      45.595  33.424  25.972  1.00  0.00    -0.206 F 
ATOM     76  C   UNL A   1      46.650  35.140  27.176  1.00  0.00     0.059 A 
ATOM     77  C   UNL A   1      47.379  34.736  29.456  1.00  0.00     0.059 A 
ATOM     78  F   UNL A   1      47.059  32.624  30.424  1.00  0.00    -0.206 F 
ATOM     79  C   UNL A   1      47.257  35.580  28.352  1.00  0.00     0.060 A 
BRANCH  79  80
ATOM     80  S   UNL A   1      47.879  37.274  28.422  1.00  0.00     0.124 S 
ATOM     81  O   UNL A   1      46.667  38.016  28.750  1.00  0.00    -0.237 OA
ATOM     82  O   UNL A   1      48.882  37.187  29.478  1.00  0.00    -0.237 OA
ATOM     83  O   UNL A   1      48.408  37.493  27.080  1.00  0.00    -0.744 OA
ENDBRANCH  79  80
ENDBRANCH  47  72
BRANCH  59  84
ATOM     84  C   UNL A   1      49.395  27.109  25.951  1.00  0.00     0.058 A 
ATOM     85  C   UNL A   1      50.398  26.601  26.789  1.00  0.00     0.135 A 
ATOM     86  C   UNL A   1      49.689  27.258  24.585  1.00  0.00     0.135 A 
ATOM     87  F   UNL A   1      50.167  26.445  28.102  1.00  0.00    -0.206 F 
ATOM     88  C   UNL A   1      51.652  26.265  26.294  1.00  0.00     0.059 A 
ATOM     89  C   UNL A   1      50.927  26.899  24.064  1.00  0.00     0.059 A 
ATOM     90  F   UNL A   1      48.758  27.727  23.739  1.00  0.00    -0.206 F 
ATOM     91  C   UNL A   1      51.905  26.408  24.928  1.00  0.00     0.060 A 
BRANCH  91  92
ATOM     92  S   UNL A   1      53.521  25.914  24.297  1.00  0.00     0.124 S 
ATOM     93  O   UNL A   1      53.313  26.001  22.855  1.00  0.00    -0.237 OA
ATOM     94  O   UNL A   1      54.401  26.926  24.873  1.00  0.00    -0.237 OA
ATOM     95  O   UNL A   1      53.695  24.563  24.824  1.00  0.00    -0.744 OA
ENDBRANCH  91  92
ENDBRANCH  59  84
ENDBRANCH  33  34
ENDBRANCH  25  28
ENDBRANCH  23  24
ENDBRANCH   1  23
TORSDOF 15
ENDMDL
MODEL 2
REMARK VINA RESULT:     -12.4      0.603      8.383
REMARK SMILES Cc1cc(=O)cc(C)n1C[C@H]1CCCC[C@@H]1C(=O)NCCCNC(=O)c1ccc(-c2c3nc(c(-c4c(F)cc(S(=O)(=O)[O-])cc4F)c4ccc([nH]4)c(-c4c(F)cc(S(=O)(=O)[O-])cc4F)c4nc(c(-c5c(F)cc(S(=O)(=O)[O-])cc5F)c5ccc2[nH]5)C=C4)C=C3)cc1
REMARK SMILES IDX 21 1 20 2 19 3 17 4 18 5 16 7 11 8 12 9 13 10 15 11 14 12
REMARK SMILES IDX 10 13 9 14 1 15 2 16 3 17 4 18 7 19 5 20 6 21 8 22 22 23
REMARK SMILES IDX 23 24 24 25 25 27 26 28 27 29 91 30 28 31 90 32 29 33 30 34
REMARK SMILES IDX 31 35 84 36 32 37 89 38 83 39 85 40 33 41 88 42 82 43 81 44
REMARK SMILES IDX 34 46 68 47 47 48 67 49 48 50 51 51 66 52 86 53 49 54 50 55
REMARK SMILES IDX 65 57 87 58 52 59 35 60 36 61 45 62 37 63 38 64 44 65 46 66
REMARK SMILES IDX 39 67 40 68 41 69 42 70 43 71 69 72 70 73 79 74 71 75 72 76
REMARK SMILES IDX 78 77 80 78 73 79 74 80 75 81 76 82 77 83 53 84 54 85 63 86
REMARK SMILES IDX 55 87 56 88 62 89 64 90 57 91 58 92 59 93 60 94 61 95
REMARK H PARENT 19 6 23 26 85 45 51 56
REMARK Flexibility Score: inf
ROOT
ATOM      1  C   UNL A   1      34.803  30.069  27.518  1.00  0.00     0.042 C 
ENDROOT
BRANCH   1   2
ATOM      2  C   UNL A   1      33.387  30.473  27.170  1.00  0.00     0.117 C 
BRANCH   2   3
ATOM      3  N   UNL A   1      32.398  29.518  27.643  1.00  0.00    -0.356 N 
ATOM      4  C   UNL A   1      31.800  28.421  27.117  1.00  0.00     0.223 C 
ATOM      5  O   UNL A   1      31.058  27.809  27.896  1.00  0.00    -0.275 OA
ATOM      6  H   UNL A   1      32.091  29.713  28.558  1.00  0.00     0.163 HD
BRANCH   4   7
ATOM      7  C   UNL A   1      31.918  27.956  25.645  1.00  0.00     0.083 C 
ATOM      8  C   UNL A   1      30.779  26.919  25.318  1.00  0.00     0.021 C 
ATOM      9  C   UNL A   1      31.075  25.619  26.100  1.00  0.00     0.006 C 
ATOM     10  C   UNL A   1      32.502  25.071  25.966  1.00  0.00     0.000 C 
ATOM     11  C   UNL A   1      33.246  27.349  25.193  1.00  0.00     0.014 C 
ATOM     12  C   UNL A   1      33.601  26.121  26.023  1.00  0.00     0.001 C 
BRANCH   8  13
ATOM     13  C   UNL A   1      30.628  26.767  23.776  1.00  0.00     0.126 C 
BRANCH  13  14
ATOM     14  N   UNL A   1      29.843  27.824  23.076  1.00  0.00    -0.349 N 
ATOM     15  C   UNL A   1      27.676  26.778  23.931  1.00  0.00     0.064 C 
ATOM     16  C   UNL A   1      28.425  27.856  23.181  1.00  0.00     0.018 A 
ATOM     17  C   UNL A   1      27.682  28.857  22.671  1.00  0.00     0.073 A 
ATOM     18  C   UNL A   1      28.333  29.982  21.987  1.00  0.00     0.182 A 
ATOM     19  C   UNL A   1      30.483  28.934  22.453  1.00  0.00     0.018 A 
ATOM     20  O   UNL A   1      27.690  30.914  21.519  1.00  0.00    -0.290 OA
ATOM     21  C   UNL A   1      29.798  29.960  21.918  1.00  0.00     0.073 A 
ATOM     22  C   UNL A   1      31.981  29.068  22.383  1.00  0.00     0.064 C 
ENDBRANCH  13  14
ENDBRANCH   8  13
ENDBRANCH   4   7
ENDBRANCH   2   3
ENDBRANCH   1   2
BRANCH   1  23
ATOM     23  C   UNL A   1      35.549  31.190  28.216  1.00  0.00     0.118 C 
BRANCH  23  24
ATOM     24  N   UNL A   1      35.519  31.043  29.672  1.00  0.00    -0.352 N 
ATOM     25  C   UNL A   1      36.352  30.336  30.505  1.00  0.00     0.251 C 
ATOM     26  H   UNL A   1      34.789  31.525  30.124  1.00  0.00     0.163 HD
ATOM     27  O   UNL A   1      36.011  30.111  31.664  1.00  0.00    -0.269 OA
BRANCH  25  28
ATOM     28  C   UNL A   1      37.642  29.843  29.992  1.00  0.00     0.039 A 
ATOM     29  C   UNL A   1      37.998  30.078  28.662  1.00  0.00     0.014 A 
ATOM     30  C   UNL A   1      38.511  29.158  30.844  1.00  0.00     0.014 A 
ATOM     31  C   UNL A   1      39.264  29.694  28.217  1.00  0.00     0.010 A 
ATOM     32  C   UNL A   1      39.809  28.895  30.438  1.00  0.00     0.010 A 
ATOM     33  C   UNL A   1      40.193  29.141  29.114  1.00  0.00    -0.014 A 
BRANCH  33  34
ATOM     34  C   UNL A   1      41.558  28.758  28.686  1.00  0.00     0.031 A 
ATOM     35  C   UNL A   1      42.652  29.794  28.699  1.00  0.00     0.074 A 
ATOM     36  C   UNL A   1      41.798  27.506  28.249  1.00  0.00     0.049 A 
ATOM     37  N   UNL A   1      43.889  29.689  28.295  1.00  0.00    -0.248 NA
ATOM     38  C   UNL A   1      42.301  31.133  29.207  1.00  0.00     0.031 C 
ATOM     39  C   UNL A   1      40.805  26.431  28.164  1.00  0.00     0.029 A 
ATOM     40  N   UNL A   1      42.954  26.921  27.802  1.00  0.00    -0.354 N 
ATOM     41  C   UNL A   1      44.461  30.937  28.509  1.00  0.00     0.074 A 
ATOM     42  C   UNL A   1      43.418  31.810  28.993  1.00  0.00     0.031 C 
ATOM     43  C   UNL A   1      41.407  25.306  27.744  1.00  0.00     0.029 A 
ATOM     44  C   UNL A   1      42.814  25.589  27.484  1.00  0.00     0.049 A 
ATOM     45  H   UNL A   1      43.805  27.407  27.715  1.00  0.00     0.167 HD
ATOM     46  C   UNL A   1      45.753  31.309  28.365  1.00  0.00     0.037 A 
ATOM     47  C   UNL A   1      43.724  24.701  27.039  1.00  0.00     0.037 A 
ATOM     48  C   UNL A   1      46.792  30.426  27.912  1.00  0.00     0.049 A 
ATOM     49  C   UNL A   1      45.143  25.163  26.828  1.00  0.00     0.074 A 
ATOM     50  C   UNL A   1      48.137  30.700  27.741  1.00  0.00     0.029 A 
ATOM     51  N   UNL A   1      46.606  29.093  27.579  1.00  0.00    -0.354 N 
ATOM     52  N   UNL A   1      45.671  26.341  27.062  1.00  0.00    -0.248 NA
ATOM     53  C   UNL A   1      46.090  24.177  26.290  1.00  0.00     0.031 C 
ATOM     54  C   UNL A   1      48.757  29.542  27.267  1.00  0.00     0.029 A 
ATOM     55  C   UNL A   1      47.810  28.533  27.191  1.00  0.00     0.049 A 
ATOM     56  H   UNL A   1      45.745  28.616  27.614  1.00  0.00     0.167 HD
ATOM     57  C   UNL A   1      47.018  26.225  26.735  1.00  0.00     0.074 A 
ATOM     58  C   UNL A   1      47.225  24.861  26.300  1.00  0.00     0.031 C 
ATOM     59  C   UNL A   1      47.995  27.163  26.787  1.00  0.00     0.037 A 
BRANCH  46  60
ATOM     60  C   UNL A   1      46.128  32.712  28.749  1.00  0.00     0.058 A 
ATOM     61  C   UNL A   1      46.598  33.008  30.039  1.00  0.00     0.135 A 
ATOM     62  C   UNL A   1      46.098  33.752  27.806  1.00  0.00     0.135 A 
ATOM     63  F   UNL A   1      46.621  32.056  30.985  1.00  0.00    -0.206 F 
ATOM     64  C   UNL A   1      47.026  34.285  30.382  1.00  0.00     0.059 A 
ATOM     65  C   UNL A   1      46.548  35.032  28.120  1.00  0.00     0.059 A 
ATOM     66  F   UNL A   1      45.649  33.525  26.563  1.00  0.00    -0.206 F 
ATOM     67  C   UNL A   1      47.010  35.287  29.411  1.00  0.00     0.060 A 
BRANCH  67  68
ATOM     68  S   UNL A   1      47.627  36.922  29.863  1.00  0.00     0.124 S 
ATOM     69  O   UNL A   1      48.086  36.693  31.230  1.00  0.00    -0.237 OA
ATOM     70  O   UNL A   1      48.675  37.140  28.871  1.00  0.00    -0.237 OA
ATOM     71  O   UNL A   1      46.453  37.778  29.732  1.00  0.00    -0.744 OA
ENDBRANCH  67  68
ENDBRANCH  46  60
BRANCH  47  72
ATOM     72  C   UNL A   1      43.347  23.282  26.796  1.00  0.00     0.058 A 
ATOM     73  C   UNL A   1      43.135  22.405  27.872  1.00  0.00     0.135 A 
ATOM     74  C   UNL A   1      43.220  22.762  25.499  1.00  0.00     0.135 A 
ATOM     75  F   UNL A   1      43.246  22.852  29.132  1.00  0.00    -0.206 F 
ATOM     76  C   UNL A   1      42.849  21.059  27.672  1.00  0.00     0.059 A 
ATOM     77  C   UNL A   1      42.905  21.425  25.273  1.00  0.00     0.059 A 
ATOM     78  F   UNL A   1      43.394  23.560  24.433  1.00  0.00    -0.206 F 
ATOM     79  C   UNL A   1      42.739  20.577  26.368  1.00  0.00     0.060 A 
BRANCH  79  80
ATOM     80  S   UNL A   1      42.369  18.827  26.122  1.00  0.00     0.124 S 
ATOM     81  O   UNL A   1      42.650  18.280  27.444  1.00  0.00    -0.237 OA
ATOM     82  O   UNL A   1      40.963  18.866  25.731  1.00  0.00    -0.237 OA
ATOM     83  O   UNL A   1      43.296  18.432  25.066  1.00  0.00    -0.744 OA
ENDBRANCH  79  80
ENDBRANCH  47  72
BRANCH  59  84
ATOM     84  C   UNL A   1      49.385  26.744  26.401  1.00  0.00     0.058 A 
ATOM     85  C   UNL A   1      50.215  26.046  27.292  1.00  0.00     0.135 A 
ATOM     86  C   UNL A   1      49.856  26.963  25.096  1.00  0.00     0.135 A 
ATOM     87  F   UNL A   1      49.812  25.817  28.551  1.00  0.00    -0.206 F 
ATOM     88  C   UNL A   1      51.471  25.594  26.906  1.00  0.00     0.059 A 
ATOM     89  C   UNL A   1      51.096  26.492  24.680  1.00  0.00     0.059 A 
ATOM     90  F   UNL A   1      49.093  27.614  24.202  1.00  0.00    -0.206 F 
ATOM     91  C   UNL A   1      51.899  25.813  25.595  1.00  0.00     0.060 A 
BRANCH  91  92
ATOM     92  S   UNL A   1      53.509  25.168  25.098  1.00  0.00     0.124 S 
ATOM     93  O   UNL A   1      54.411  25.953  25.936  1.00  0.00    -0.237 OA
ATOM     94  O   UNL A   1      53.394  23.754  25.441  1.00  0.00    -0.237 OA
ATOM     95  O   UNL A   1      53.568  25.460  23.669  1.00  0.00    -0.744 OA
ENDBRANCH  91  92
ENDBRANCH  59  84
ENDBRANCH  33  34
ENDBRANCH  25  28
ENDBRANCH  23  24
ENDBRANCH   1  23
TORSDOF 15
ENDMDL
MODEL 3
REMARK VINA RESULT:     -12.2      6.377      9.061
REMARK SMILES Cc1cc(=O)cc(C)n1C[C@H]1CCCC[C@@H]1C(=O)NCCCNC(=O)c1ccc(-c2c3nc(c(-c4c(F)cc(S(=O)(=O)[O-])cc4F)c4ccc([nH]4)c(-c4c(F)cc(S(=O)(=O)[O-])cc4F)c4nc(c(-c5c(F)cc(S(=O)(=O)[O-])cc5F)c5ccc2[nH]5)C=C4)C=C3)cc1
REMARK SMILES IDX 21 1 20 2 19 3 17 4 18 5 16 7 11 8 12 9 13 10 15 11 14 12
REMARK SMILES IDX 10 13 9 14 1 15 2 16 3 17 4 18 7 19 5 20 6 21 8 22 22 23
REMARK SMILES IDX 23 24 24 25 25 27 26 28 27 29 91 30 28 31 90 32 29 33 30 34
REMARK SMILES IDX 31 35 84 36 32 37 89 38 83 39 85 40 33 41 88 42 82 43 81 44
REMARK SMILES IDX 34 46 68 47 47 48 67 49 48 50 51 51 66 52 86 53 49 54 50 55
REMARK SMILES IDX 65 57 87 58 52 59 35 60 36 61 45 62 37 63 38 64 44 65 46 66
REMARK SMILES IDX 39 67 40 68 41 69 42 70 43 71 69 72 70 73 79 74 71 75 72 76
REMARK SMILES IDX 78 77 80 78 73 79 74 80 75 81 76 82 77 83 53 84 54 85 63 86
REMARK SMILES IDX 55 87 56 88 62 89 64 90 57 91 58 92 59 93 60 94 61 95
REMARK H PARENT 19 6 23 26 85 45 51 56
REMARK Flexibility Score: inf
ROOT
ATOM      1  C   UNL A   1      31.409  32.157  26.502  1.00  0.00     0.042 C 
ENDROOT
BRANCH   1   2
ATOM      2  C   UNL A   1      31.549  30.772  25.909  1.00  0.00     0.117 C 
BRANCH   2   3
ATOM      3  N   UNL A   1      31.597  29.729  26.921  1.00  0.00    -0.356 N 
ATOM      4  C   UNL A   1      31.577  28.373  26.899  1.00  0.00     0.223 C 
ATOM      5  O   UNL A   1      31.734  27.833  28.001  1.00  0.00    -0.275 OA
ATOM      6  H   UNL A   1      31.660  30.091  27.834  1.00  0.00     0.163 HD
BRANCH   4   7
ATOM      7  C   UNL A   1      31.297  27.502  25.649  1.00  0.00     0.083 C 
ATOM      8  C   UNL A   1      31.628  25.995  25.962  1.00  0.00     0.021 C 
ATOM      9  C   UNL A   1      33.160  25.864  26.121  1.00  0.00     0.006 C 
ATOM     10  C   UNL A   1      34.002  26.489  25.000  1.00  0.00     0.000 C 
ATOM     11  C   UNL A   1      32.004  27.876  24.347  1.00  0.00     0.014 C 
ATOM     12  C   UNL A   1      33.519  27.847  24.516  1.00  0.00     0.001 C 
BRANCH   8  13
ATOM     13  C   UNL A   1      30.973  25.076  24.891  1.00  0.00     0.126 C 
BRANCH  13  14
ATOM     14  N   UNL A   1      31.602  23.739  24.685  1.00  0.00    -0.349 N 
ATOM     15  C   UNL A   1      30.481  22.887  26.816  1.00  0.00     0.064 C 
ATOM     16  C   UNL A   1      31.335  22.672  25.588  1.00  0.00     0.018 A 
ATOM     17  C   UNL A   1      31.778  21.417  25.378  1.00  0.00     0.073 A 
ATOM     18  C   UNL A   1      32.557  21.103  24.173  1.00  0.00     0.182 A 
ATOM     19  C   UNL A   1      32.319  23.430  23.494  1.00  0.00     0.018 A 
ATOM     20  O   UNL A   1      32.968  19.971  23.946  1.00  0.00    -0.290 OA
ATOM     21  C   UNL A   1      32.794  22.200  23.230  1.00  0.00     0.073 A 
ATOM     22  C   UNL A   1      32.563  24.449  22.411  1.00  0.00     0.064 C 
ENDBRANCH  13  14
ENDBRANCH   8  13
ENDBRANCH   4   7
ENDBRANCH   2   3
ENDBRANCH   1   2
BRANCH   1  23
ATOM     23  C   UNL A   1      32.657  32.572  27.256  1.00  0.00     0.118 C 
BRANCH  23  24
ATOM     24  N   UNL A   1      32.625  33.987  27.631  1.00  0.00    -0.352 N 
ATOM     25  C   UNL A   1      33.291  34.649  28.632  1.00  0.00     0.251 C 
ATOM     26  H   UNL A   1      32.034  34.549  27.080  1.00  0.00     0.163 HD
ATOM     27  O   UNL A   1      32.932  35.777  28.964  1.00  0.00    -0.269 OA
BRANCH  25  28
ATOM     28  C   UNL A   1      34.423  33.992  29.309  1.00  0.00     0.039 A 
ATOM     29  C   UNL A   1      35.732  34.302  28.937  1.00  0.00     0.014 A 
ATOM     30  C   UNL A   1      34.179  33.075  30.334  1.00  0.00     0.014 A 
ATOM     31  C   UNL A   1      36.794  33.748  29.652  1.00  0.00     0.010 A 
ATOM     32  C   UNL A   1      35.227  32.630  31.123  1.00  0.00     0.010 A 
ATOM     33  C   UNL A   1      36.547  32.944  30.778  1.00  0.00    -0.014 A 
BRANCH  33  34
ATOM     34  C   UNL A   1      37.650  32.372  31.585  1.00  0.00     0.031 A 
ATOM     35  C   UNL A   1      38.425  31.199  31.046  1.00  0.00     0.074 A 
ATOM     36  C   UNL A   1      37.918  32.875  32.806  1.00  0.00     0.049 A 
ATOM     37  N   UNL A   1      39.371  30.504  31.619  1.00  0.00    -0.248 NA
ATOM     38  C   UNL A   1      38.071  30.724  29.696  1.00  0.00     0.031 C 
ATOM     39  C   UNL A   1      37.209  33.990  33.440  1.00  0.00     0.029 A 
ATOM     40  N   UNL A   1      38.866  32.521  33.731  1.00  0.00    -0.354 N 
ATOM     41  C   UNL A   1      39.728  29.526  30.700  1.00  0.00     0.074 A 
ATOM     42  C   UNL A   1      38.840  29.655  29.568  1.00  0.00     0.031 C 
ATOM     43  C   UNL A   1      37.781  34.261  34.625  1.00  0.00     0.029 A 
ATOM     44  C   UNL A   1      38.864  33.311  34.857  1.00  0.00     0.049 A 
ATOM     45  H   UNL A   1      39.490  31.771  33.602  1.00  0.00     0.167 HD
ATOM     46  C   UNL A   1      40.740  28.632  30.770  1.00  0.00     0.037 A 
ATOM     47  C   UNL A   1      39.653  33.272  35.949  1.00  0.00     0.037 A 
ATOM     48  C   UNL A   1      41.640  28.530  31.886  1.00  0.00     0.049 A 
ATOM     49  C   UNL A   1      40.732  32.223  36.024  1.00  0.00     0.074 A 
ATOM     50  C   UNL A   1      42.706  27.664  32.052  1.00  0.00     0.029 A 
ATOM     51  N   UNL A   1      41.590  29.332  33.016  1.00  0.00    -0.354 N 
ATOM     52  N   UNL A   1      41.072  31.323  35.132  1.00  0.00    -0.248 NA
ATOM     53  C   UNL A   1      41.533  32.182  37.255  1.00  0.00     0.031 C 
ATOM     54  C   UNL A   1      43.278  27.919  33.301  1.00  0.00     0.029 A 
ATOM     55  C   UNL A   1      42.600  28.974  33.890  1.00  0.00     0.049 A 
ATOM     56  H   UNL A   1      40.933  30.049  33.172  1.00  0.00     0.167 HD
ATOM     57  C   UNL A   1      42.150  30.635  35.679  1.00  0.00     0.074 A 
ATOM     58  C   UNL A   1      42.412  31.230  36.972  1.00  0.00     0.031 C 
ATOM     59  C   UNL A   1      42.857  29.601  35.161  1.00  0.00     0.037 A 
BRANCH  46  60
ATOM     60  C   UNL A   1      40.965  27.730  29.589  1.00  0.00     0.058 A 
ATOM     61  C   UNL A   1      42.062  27.920  28.732  1.00  0.00     0.135 A 
ATOM     62  C   UNL A   1      40.134  26.623  29.356  1.00  0.00     0.135 A 
ATOM     63  F   UNL A   1      42.871  28.979  28.895  1.00  0.00    -0.206 F 
ATOM     64  C   UNL A   1      42.328  27.045  27.686  1.00  0.00     0.059 A 
ATOM     65  C   UNL A   1      40.398  25.718  28.332  1.00  0.00     0.059 A 
ATOM     66  F   UNL A   1      39.068  26.402  30.140  1.00  0.00    -0.206 F 
ATOM     67  C   UNL A   1      41.497  25.939  27.502  1.00  0.00     0.060 A 
BRANCH  67  68
ATOM     68  S   UNL A   1      41.898  24.784  26.175  1.00  0.00     0.124 S 
ATOM     69  O   UNL A   1      41.808  25.646  25.000  1.00  0.00    -0.237 OA
ATOM     70  O   UNL A   1      43.241  24.349  26.541  1.00  0.00    -0.237 OA
ATOM     71  O   UNL A   1      40.859  23.765  26.284  1.00  0.00    -0.744 OA
ENDBRANCH  67  68
ENDBRANCH  46  60
BRANCH  47  72
ATOM     72  C   UNL A   1      39.489  34.268  37.042  1.00  0.00     0.058 A 
ATOM     73  C   UNL A   1      40.098  35.530  36.957  1.00  0.00     0.135 A 
ATOM     74  C   UNL A   1      38.753  33.979  38.202  1.00  0.00     0.135 A 
ATOM     75  F   UNL A   1      40.814  35.856  35.870  1.00  0.00    -0.206 F 
ATOM     76  C   UNL A   1      40.017  36.453  37.994  1.00  0.00     0.059 A 
ATOM     77  C   UNL A   1      38.632  34.898  39.241  1.00  0.00     0.059 A 
ATOM     78  F   UNL A   1      38.133  32.795  38.329  1.00  0.00    -0.206 F 
ATOM     79  C   UNL A   1      39.284  36.126  39.135  1.00  0.00     0.060 A 
BRANCH  79  80
ATOM     80  S   UNL A   1      39.188  37.332  40.475  1.00  0.00     0.124 S 
ATOM     81  O   UNL A   1      38.182  38.256  39.964  1.00  0.00    -0.237 OA
ATOM     82  O   UNL A   1      38.779  36.501  41.603  1.00  0.00    -0.237 OA
ATOM     83  O   UNL A   1      40.547  37.858  40.552  1.00  0.00    -0.744 OA
ENDBRANCH  79  80
ENDBRANCH  47  72
BRANCH  59  84
ATOM     84  C   UNL A   1      44.006  29.069  35.969  1.00  0.00     0.058 A 
ATOM     85  C   UNL A   1      45.276  29.662  35.919  1.00  0.00     0.135 A 
ATOM     86  C   UNL A   1      43.809  28.009  36.871  1.00  0.00     0.135 A 
ATOM     87  F   UNL A   1      45.515  30.674  35.070  1.00  0.00    -0.206 F 
ATOM     88  C   UNL A   1      46.316  29.215  36.724  1.00  0.00     0.059 A 
ATOM     89  C   UNL A   1      44.827  27.567  37.708  1.00  0.00     0.059 A 
ATOM     90  F   UNL A   1      42.608  27.417  36.966  1.00  0.00    -0.206 F 
ATOM     91  C   UNL A   1      46.079  28.172  37.623  1.00  0.00     0.060 A 
BRANCH  91  92
ATOM     92  S   UNL A   1      47.427  27.644  38.699  1.00  0.00     0.124 S 
ATOM     93  O   UNL A   1      47.862  28.914  39.271  1.00  0.00    -0.237 OA
ATOM     94  O   UNL A   1      46.751  26.733  39.617  1.00  0.00    -0.237 OA
ATOM     95  O   UNL A   1      48.372  27.014  37.780  1.00  0.00    -0.744 OA
ENDBRANCH  91  92
ENDBRANCH  59  84
ENDBRANCH  33  34
ENDBRANCH  25  28
ENDBRANCH  23  24
ENDBRANCH   1  23
TORSDOF 15
ENDMDL
