MODEL 1
REMARK VINA RESULT:     -11.7      0.000      0.000
REMARK SMILES CC(C)[C@@H](NC(=O)N[C@H]1CCS(=O)(=O)C1)C(=O)NCCCNC(=O)c1ccc(-c2c3nc(c(-c4c(F)cc(S(=O)(=O)[O-])cc4F)c4ccc([nH]4)c(-c4c(F)cc(S(=O)(=O)[O-])cc4F)c4nc(c(-c5c(F)cc(S(=O)(=O)[O-])cc5F)c5ccc2[nH]5)C=C4)C=C3)cc1
REMARK SMILES IDX 20 1 19 2 18 3 16 4 17 5 4 7 2 8 1 9 3 10 5 11 6 12 7 14
REMARK SMILES IDX 8 15 9 17 10 18 15 19 11 20 12 21 13 22 14 23 21 24 22 25
REMARK SMILES IDX 23 26 24 28 25 29 26 30 90 31 27 32 89 33 28 34 29 35 30 36
REMARK SMILES IDX 83 37 31 38 88 39 82 40 84 41 32 42 87 43 81 44 80 45 33 47
REMARK SMILES IDX 67 48 46 49 66 50 47 51 50 52 65 53 85 54 48 55 49 56 64 58
REMARK SMILES IDX 86 59 51 60 34 61 35 62 44 63 36 64 37 65 43 66 45 67 38 68
REMARK SMILES IDX 39 69 40 70 41 71 42 72 68 73 69 74 78 75 70 76 71 77 77 78
REMARK SMILES IDX 79 79 72 80 73 81 74 82 75 83 76 84 52 85 53 86 62 87 54 88
REMARK SMILES IDX 55 89 61 90 63 91 56 92 57 93 58 94 59 95 60 96
REMARK H PARENT 18 6 5 13 8 16 22 27 84 46 50 57
REMARK Flexibility Score: inf
ROOT
ATOM      1  C   UNL A   1      37.496  23.240  25.662  1.00  0.00     0.042 C 
ENDROOT
BRANCH   1   2
ATOM      2  C   UNL A   1      36.197  23.086  26.419  1.00  0.00     0.117 C 
BRANCH   2   3
ATOM      3  N   UNL A   1      35.246  22.158  25.866  1.00  0.00    -0.354 N 
ATOM      4  C   UNL A   1      34.002  21.926  26.418  1.00  0.00     0.242 C 
ATOM      5  O   UNL A   1      33.807  21.739  27.614  1.00  0.00    -0.273 OA
ATOM      6  H   UNL A   1      35.495  21.663  25.051  1.00  0.00     0.163 HD
BRANCH   4   7
ATOM      7  C   UNL A   1      32.842  22.175  25.449  1.00  0.00     0.175 C 
BRANCH   7   8
ATOM      8  C   UNL A   1      32.952  20.977  24.441  1.00  0.00     0.015 C 
ATOM      9  C   UNL A   1      32.511  19.611  24.959  1.00  0.00     0.010 C 
ATOM     10  C   UNL A   1      32.166  21.291  23.154  1.00  0.00     0.010 C 
ENDBRANCH   7   8
BRANCH   7  11
ATOM     11  N   UNL A   1      31.589  22.240  26.213  1.00  0.00    -0.326 N 
ATOM     12  C   UNL A   1      30.918  23.227  26.817  1.00  0.00     0.315 C 
ATOM     13  H   UNL A   1      31.147  21.364  26.301  1.00  0.00     0.166 HD
ATOM     14  O   UNL A   1      29.997  22.896  27.566  1.00  0.00    -0.249 OA
ATOM     15  N   UNL A   1      31.253  24.521  26.799  1.00  0.00    -0.334 N 
ATOM     16  H   UNL A   1      31.000  24.963  27.640  1.00  0.00     0.165 HD
BRANCH  15  17
ATOM     17  C   UNL A   1      31.891  25.468  25.876  1.00  0.00     0.099 C 
ATOM     18  C   UNL A   1      33.408  25.631  26.011  1.00  0.00     0.042 C 
ATOM     19  C   UNL A   1      31.402  25.424  24.443  1.00  0.00     0.161 C 
ATOM     20  C   UNL A   1      34.060  25.831  24.651  1.00  0.00     0.139 C 
ATOM     21  S   UNL A   1      32.797  25.745  23.405  1.00  0.00     0.152 S 
ATOM     22  O   UNL A   1      32.622  27.070  22.835  1.00  0.00    -0.229 OA
ATOM     23  O   UNL A   1      33.015  24.583  22.577  1.00  0.00    -0.229 OA
ENDBRANCH  15  17
ENDBRANCH   7  11
ENDBRANCH   4   7
ENDBRANCH   2   3
ENDBRANCH   1   2
BRANCH   1  24
ATOM     24  C   UNL A   1      38.371  24.364  26.196  1.00  0.00     0.118 C 
BRANCH  24  25
ATOM     25  N   UNL A   1      39.790  24.037  26.135  1.00  0.00    -0.352 N 
ATOM     26  C   UNL A   1      40.851  24.724  26.663  1.00  0.00     0.251 C 
ATOM     27  H   UNL A   1      40.016  23.211  25.650  1.00  0.00     0.163 HD
ATOM     28  O   UNL A   1      42.002  24.454  26.340  1.00  0.00    -0.269 OA
BRANCH  26  29
ATOM     29  C   UNL A   1      40.560  25.817  27.606  1.00  0.00     0.039 A 
ATOM     30  C   UNL A   1      39.588  25.634  28.586  1.00  0.00     0.014 A 
ATOM     31  C   UNL A   1      41.338  26.977  27.569  1.00  0.00     0.014 A 
ATOM     32  C   UNL A   1      39.445  26.598  29.585  1.00  0.00     0.010 A 
ATOM     33  C   UNL A   1      41.271  27.874  28.624  1.00  0.00     0.010 A 
ATOM     34  C   UNL A   1      40.314  27.701  29.635  1.00  0.00    -0.014 A 
BRANCH  34  35
ATOM     35  C   UNL A   1      40.231  28.699  30.727  1.00  0.00     0.031 A 
ATOM     36  C   UNL A   1      41.114  28.553  31.937  1.00  0.00     0.074 A 
ATOM     37  C   UNL A   1      39.323  29.692  30.658  1.00  0.00     0.049 A 
ATOM     38  N   UNL A   1      41.159  29.285  33.019  1.00  0.00    -0.248 NA
ATOM     39  C   UNL A   1      42.048  27.413  31.947  1.00  0.00     0.031 C 
ATOM     40  C   UNL A   1      38.369  29.895  29.565  1.00  0.00     0.029 A 
ATOM     41  N   UNL A   1      39.045  30.714  31.530  1.00  0.00    -0.354 N 
ATOM     42  C   UNL A   1      42.108  28.688  33.838  1.00  0.00     0.074 A 
ATOM     43  C   UNL A   1      42.568  27.498  33.161  1.00  0.00     0.031 C 
ATOM     44  C   UNL A   1      37.633  30.989  29.818  1.00  0.00     0.029 A 
ATOM     45  C   UNL A   1      38.032  31.543  31.108  1.00  0.00     0.049 A 
ATOM     46  H   UNL A   1      39.527  30.844  32.379  1.00  0.00     0.167 HD
ATOM     47  C   UNL A   1      42.575  29.111  35.036  1.00  0.00     0.037 A 
ATOM     48  C   UNL A   1      37.483  32.622  31.700  1.00  0.00     0.037 A 
ATOM     49  C   UNL A   1      42.128  30.313  35.688  1.00  0.00     0.049 A 
ATOM     50  C   UNL A   1      38.023  33.076  33.029  1.00  0.00     0.074 A 
ATOM     51  C   UNL A   1      42.585  30.869  36.869  1.00  0.00     0.029 A 
ATOM     52  N   UNL A   1      41.119  31.141  35.217  1.00  0.00    -0.354 N 
ATOM     53  N   UNL A   1      38.982  32.547  33.752  1.00  0.00    -0.248 NA
ATOM     54  C   UNL A   1      37.417  34.277  33.618  1.00  0.00     0.031 C 
ATOM     55  C   UNL A   1      41.814  32.004  37.141  1.00  0.00     0.029 A 
ATOM     56  C   UNL A   1      40.921  32.190  36.098  1.00  0.00     0.049 A 
ATOM     57  H   UNL A   1      40.619  31.003  34.380  1.00  0.00     0.167 HD
ATOM     58  C   UNL A   1      39.112  33.367  34.869  1.00  0.00     0.074 A 
ATOM     59  C   UNL A   1      38.145  34.434  34.716  1.00  0.00     0.031 C 
ATOM     60  C   UNL A   1      39.957  33.249  35.924  1.00  0.00     0.037 A 
BRANCH  47  61
ATOM     61  C   UNL A   1      43.623  28.271  35.714  1.00  0.00     0.058 A 
ATOM     62  C   UNL A   1      43.284  27.247  36.612  1.00  0.00     0.135 A 
ATOM     63  C   UNL A   1      44.985  28.469  35.434  1.00  0.00     0.135 A 
ATOM     64  F   UNL A   1      41.999  27.026  36.933  1.00  0.00    -0.206 F 
ATOM     65  C   UNL A   1      44.256  26.468  37.231  1.00  0.00     0.059 A 
ATOM     66  C   UNL A   1      45.973  27.681  36.016  1.00  0.00     0.059 A 
ATOM     67  F   UNL A   1      45.368  29.437  34.586  1.00  0.00    -0.206 F 
ATOM     68  C   UNL A   1      45.599  26.691  36.922  1.00  0.00     0.060 A 
BRANCH  68  69
ATOM     69  S   UNL A   1      46.846  25.658  37.720  1.00  0.00     0.124 S 
ATOM     70  O   UNL A   1      46.597  24.363  37.093  1.00  0.00    -0.237 OA
ATOM     71  O   UNL A   1      48.089  26.319  37.335  1.00  0.00    -0.237 OA
ATOM     72  O   UNL A   1      46.505  25.744  39.136  1.00  0.00    -0.744 OA
ENDBRANCH  68  69
ENDBRANCH  47  61
BRANCH  48  73
ATOM     73  C   UNL A   1      36.375  33.357  31.030  1.00  0.00     0.058 A 
ATOM     74  C   UNL A   1      36.604  34.116  29.872  1.00  0.00     0.135 A 
ATOM     75  C   UNL A   1      35.063  33.310  31.528  1.00  0.00     0.135 A 
ATOM     76  F   UNL A   1      37.841  34.197  29.357  1.00  0.00    -0.206 F 
ATOM     77  C   UNL A   1      35.579  34.817  29.243  1.00  0.00     0.059 A 
ATOM     78  C   UNL A   1      34.017  33.979  30.903  1.00  0.00     0.059 A 
ATOM     79  F   UNL A   1      34.786  32.584  32.623  1.00  0.00    -0.206 F 
ATOM     80  C   UNL A   1      34.287  34.740  29.765  1.00  0.00     0.060 A 
BRANCH  80  81
ATOM     81  S   UNL A   1      32.956  35.619  28.917  1.00  0.00     0.124 S 
ATOM     82  O   UNL A   1      32.117  36.032  30.036  1.00  0.00    -0.237 OA
ATOM     83  O   UNL A   1      33.682  36.685  28.234  1.00  0.00    -0.237 OA
ATOM     84  O   UNL A   1      32.386  34.600  28.042  1.00  0.00    -0.744 OA
ENDBRANCH  80  81
ENDBRANCH  48  73
BRANCH  60  85
ATOM     85  C   UNL A   1      39.902  34.319  36.980  1.00  0.00     0.058 A 
ATOM     86  C   UNL A   1      40.578  35.539  36.832  1.00  0.00     0.135 A 
ATOM     87  C   UNL A   1      39.113  34.140  38.127  1.00  0.00     0.135 A 
ATOM     88  F   UNL A   1      41.351  35.760  35.757  1.00  0.00    -0.206 F 
ATOM     89  C   UNL A   1      40.492  36.537  37.799  1.00  0.00     0.059 A 
ATOM     90  C   UNL A   1      38.987  35.136  39.090  1.00  0.00     0.059 A 
ATOM     91  F   UNL A   1      38.436  32.995  38.312  1.00  0.00    -0.206 F 
ATOM     92  C   UNL A   1      39.691  36.326  38.922  1.00  0.00     0.060 A 
BRANCH  92  93
ATOM     93  S   UNL A   1      39.561  37.642  40.150  1.00  0.00     0.124 S 
ATOM     94  O   UNL A   1      38.505  38.473  39.581  1.00  0.00    -0.237 OA
ATOM     95  O   UNL A   1      39.207  36.906  41.361  1.00  0.00    -0.237 OA
ATOM     96  O   UNL A   1      40.894  38.238  40.153  1.00  0.00    -0.744 OA
ENDBRANCH  92  93
ENDBRANCH  60  85
ENDBRANCH  34  35
ENDBRANCH  26  29
ENDBRANCH  24  25
ENDBRANCH   1  24
TORSDOF 16
ENDMDL
MODEL 2
REMARK VINA RESULT:     -11.5      5.041     10.680
REMARK SMILES CC(C)[C@@H](NC(=O)N[C@H]1CCS(=O)(=O)C1)C(=O)NCCCNC(=O)c1ccc(-c2c3nc(c(-c4c(F)cc(S(=O)(=O)[O-])cc4F)c4ccc([nH]4)c(-c4c(F)cc(S(=O)(=O)[O-])cc4F)c4nc(c(-c5c(F)cc(S(=O)(=O)[O-])cc5F)c5ccc2[nH]5)C=C4)C=C3)cc1
REMARK SMILES IDX 20 1 19 2 18 3 16 4 17 5 4 7 2 8 1 9 3 10 5 11 6 12 7 14
REMARK SMILES IDX 8 15 9 17 10 18 15 19 11 20 12 21 13 22 14 23 21 24 22 25
REMARK SMILES IDX 23 26 24 28 25 29 26 30 90 31 27 32 89 33 28 34 29 35 30 36
REMARK SMILES IDX 83 37 31 38 88 39 82 40 84 41 32 42 87 43 81 44 80 45 33 47
REMARK SMILES IDX 67 48 46 49 66 50 47 51 50 52 65 53 85 54 48 55 49 56 64 58
REMARK SMILES IDX 86 59 51 60 34 61 35 62 44 63 36 64 37 65 43 66 45 67 38 68
REMARK SMILES IDX 39 69 40 70 41 71 42 72 68 73 69 74 78 75 70 76 71 77 77 78
REMARK SMILES IDX 79 79 72 80 73 81 74 82 75 83 76 84 52 85 53 86 62 87 54 88
REMARK SMILES IDX 55 89 61 90 63 91 56 92 57 93 58 94 59 95 60 96
REMARK H PARENT 18 6 5 13 8 16 22 27 84 46 50 57
REMARK Flexibility Score: inf
ROOT
ATOM      1  C   UNL A   1      33.253  28.409  26.179  1.00  0.00     0.042 C 
ENDROOT
BRANCH   1   2
ATOM      2  C   UNL A   1      33.097  29.683  25.379  1.00  0.00     0.117 C 
BRANCH   2   3
ATOM      3  N   UNL A   1      32.068  29.678  24.371  1.00  0.00    -0.354 N 
ATOM      4  C   UNL A   1      32.159  28.957  23.197  1.00  0.00     0.242 C 
ATOM      5  O   UNL A   1      33.154  28.937  22.481  1.00  0.00    -0.273 OA
ATOM      6  H   UNL A   1      31.258  30.215  24.529  1.00  0.00     0.163 HD
BRANCH   4   7
ATOM      7  C   UNL A   1      31.002  27.976  22.986  1.00  0.00     0.175 C 
BRANCH   7   8
ATOM      8  C   UNL A   1      29.739  28.908  22.965  1.00  0.00     0.015 C 
ATOM      9  C   UNL A   1      29.593  29.828  21.757  1.00  0.00     0.010 C 
ATOM     10  C   UNL A   1      28.456  28.066  23.100  1.00  0.00     0.010 C 
ENDBRANCH   7   8
BRANCH   7  11
ATOM     11  N   UNL A   1      31.242  27.217  21.751  1.00  0.00    -0.326 N 
ATOM     12  C   UNL A   1      31.664  25.975  21.491  1.00  0.00     0.315 C 
ATOM     13  H   UNL A   1      31.051  27.737  20.938  1.00  0.00     0.166 HD
ATOM     14  O   UNL A   1      31.967  25.724  20.322  1.00  0.00    -0.249 OA
ATOM     15  N   UNL A   1      31.930  25.035  22.404  1.00  0.00    -0.334 N 
ATOM     16  H   UNL A   1      32.662  24.449  22.105  1.00  0.00     0.165 HD
BRANCH  15  17
ATOM     17  C   UNL A   1      31.436  24.630  23.726  1.00  0.00     0.099 C 
ATOM     18  C   UNL A   1      31.023  23.162  23.876  1.00  0.00     0.042 C 
ATOM     19  C   UNL A   1      32.200  25.179  24.912  1.00  0.00     0.161 C 
ATOM     20  C   UNL A   1      31.384  22.631  25.255  1.00  0.00     0.139 C 
ATOM     21  S   UNL A   1      32.205  23.923  26.157  1.00  0.00     0.152 S 
ATOM     22  O   UNL A   1      31.329  24.365  27.228  1.00  0.00    -0.229 OA
ATOM     23  O   UNL A   1      33.576  23.542  26.403  1.00  0.00    -0.229 OA
ENDBRANCH  15  17
ENDBRANCH   7  11
ENDBRANCH   4   7
ENDBRANCH   2   3
ENDBRANCH   1   2
BRANCH   1  24
ATOM     24  C   UNL A   1      33.651  28.656  27.625  1.00  0.00     0.118 C 
BRANCH  24  25
ATOM     25  N   UNL A   1      33.647  30.073  27.967  1.00  0.00    -0.352 N 
ATOM     26  C   UNL A   1      34.641  30.819  28.542  1.00  0.00     0.251 C 
ATOM     27  H   UNL A   1      32.817  30.559  27.755  1.00  0.00     0.163 HD
ATOM     28  O   UNL A   1      34.417  31.942  28.979  1.00  0.00    -0.269 OA
BRANCH  26  29
ATOM     29  C   UNL A   1      35.979  30.214  28.647  1.00  0.00     0.039 A 
ATOM     30  C   UNL A   1      36.827  30.232  27.542  1.00  0.00     0.014 A 
ATOM     31  C   UNL A   1      36.416  29.728  29.882  1.00  0.00     0.014 A 
ATOM     32  C   UNL A   1      38.152  29.824  27.700  1.00  0.00     0.010 A 
ATOM     33  C   UNL A   1      37.758  29.433  30.061  1.00  0.00     0.010 A 
ATOM     34  C   UNL A   1      38.637  29.464  28.968  1.00  0.00    -0.014 A 
BRANCH  34  35
ATOM     35  C   UNL A   1      40.058  29.097  29.176  1.00  0.00     0.031 A 
ATOM     36  C   UNL A   1      41.018  30.121  29.717  1.00  0.00     0.074 A 
ATOM     37  C   UNL A   1      40.492  27.873  28.818  1.00  0.00     0.049 A 
ATOM     38  N   UNL A   1      42.305  30.018  29.922  1.00  0.00    -0.248 NA
ATOM     39  C   UNL A   1      40.465  31.448  30.042  1.00  0.00     0.031 C 
ATOM     40  C   UNL A   1      39.666  26.820  28.221  1.00  0.00     0.029 A 
ATOM     41  N   UNL A   1      41.740  27.307  28.896  1.00  0.00    -0.354 N 
ATOM     42  C   UNL A   1      42.714  31.264  30.382  1.00  0.00     0.074 A 
ATOM     43  C   UNL A   1      41.555  32.126  30.364  1.00  0.00     0.031 C 
ATOM     44  C   UNL A   1      40.421  25.730  28.014  1.00  0.00     0.029 A 
ATOM     45  C   UNL A   1      41.792  26.016  28.425  1.00  0.00     0.049 A 
ATOM     46  H   UNL A   1      42.524  27.780  29.256  1.00  0.00     0.167 HD
ATOM     47  C   UNL A   1      43.940  31.646  30.808  1.00  0.00     0.037 A 
ATOM     48  C   UNL A   1      42.832  25.164  28.327  1.00  0.00     0.037 A 
ATOM     49  C   UNL A   1      45.080  30.770  30.846  1.00  0.00     0.049 A 
ATOM     50  C   UNL A   1      44.185  25.610  28.813  1.00  0.00     0.074 A 
ATOM     51  C   UNL A   1      46.350  31.035  31.324  1.00  0.00     0.029 A 
ATOM     52  N   UNL A   1      45.089  29.460  30.385  1.00  0.00    -0.354 N 
ATOM     53  N   UNL A   1      44.537  26.766  29.324  1.00  0.00    -0.248 NA
ATOM     54  C   UNL A   1      45.279  24.635  28.719  1.00  0.00     0.031 C 
ATOM     55  C   UNL A   1      47.143  29.904  31.102  1.00  0.00     0.029 A 
ATOM     56  C   UNL A   1      46.351  28.914  30.543  1.00  0.00     0.049 A 
ATOM     57  H   UNL A   1      44.313  28.991  30.003  1.00  0.00     0.167 HD
ATOM     58  C   UNL A   1      45.887  26.648  29.638  1.00  0.00     0.074 A 
ATOM     59  C   UNL A   1      46.283  25.304  29.273  1.00  0.00     0.031 C 
ATOM     60  C   UNL A   1      46.724  27.568  30.181  1.00  0.00     0.037 A 
BRANCH  47  61
ATOM     61  C   UNL A   1      44.109  33.068  31.268  1.00  0.00     0.058 A 
ATOM     62  C   UNL A   1      44.462  34.096  30.380  1.00  0.00     0.135 A 
ATOM     63  C   UNL A   1      43.881  33.414  32.610  1.00  0.00     0.135 A 
ATOM     64  F   UNL A   1      44.712  33.821  29.089  1.00  0.00    -0.206 F 
ATOM     65  C   UNL A   1      44.609  35.412  30.808  1.00  0.00     0.059 A 
ATOM     66  C   UNL A   1      43.991  34.728  33.055  1.00  0.00     0.059 A 
ATOM     67  F   UNL A   1      43.546  32.471  33.504  1.00  0.00    -0.206 F 
ATOM     68  C   UNL A   1      44.367  35.718  32.148  1.00  0.00     0.060 A 
BRANCH  68  69
ATOM     69  S   UNL A   1      44.545  37.432  32.683  1.00  0.00     0.124 S 
ATOM     70  O   UNL A   1      45.989  37.622  32.578  1.00  0.00    -0.237 OA
ATOM     71  O   UNL A   1      43.739  38.150  31.701  1.00  0.00    -0.237 OA
ATOM     72  O   UNL A   1      44.012  37.422  34.042  1.00  0.00    -0.744 OA
ENDBRANCH  68  69
ENDBRANCH  47  61
BRANCH  48  73
ATOM     73  C   UNL A   1      42.628  23.800  27.766  1.00  0.00     0.058 A 
ATOM     74  C   UNL A   1      42.445  22.691  28.606  1.00  0.00     0.135 A 
ATOM     75  C   UNL A   1      42.605  23.578  26.380  1.00  0.00     0.135 A 
ATOM     76  F   UNL A   1      42.464  22.849  29.938  1.00  0.00    -0.206 F 
ATOM     77  C   UNL A   1      42.266  21.409  28.094  1.00  0.00     0.059 A 
ATOM     78  C   UNL A   1      42.400  22.311  25.844  1.00  0.00     0.059 A 
ATOM     79  F   UNL A   1      42.758  24.607  25.532  1.00  0.00    -0.206 F 
ATOM     80  C   UNL A   1      42.242  21.230  26.710  1.00  0.00     0.060 A 
BRANCH  80  81
ATOM     81  S   UNL A   1      41.966  19.569  26.056  1.00  0.00     0.124 S 
ATOM     82  O   UNL A   1      40.535  19.596  25.780  1.00  0.00    -0.237 OA
ATOM     83  O   UNL A   1      42.843  19.552  24.889  1.00  0.00    -0.237 OA
ATOM     84  O   UNL A   1      42.382  18.703  27.155  1.00  0.00    -0.744 OA
ENDBRANCH  80  81
ENDBRANCH  48  73
BRANCH  60  85
ATOM     85  C   UNL A   1      48.141  27.144  30.451  1.00  0.00     0.058 A 
ATOM     86  C   UNL A   1      49.163  27.333  29.508  1.00  0.00     0.135 A 
ATOM     87  C   UNL A   1      48.490  26.596  31.696  1.00  0.00     0.135 A 
ATOM     88  F   UNL A   1      48.883  27.848  28.300  1.00  0.00    -0.206 F 
ATOM     89  C   UNL A   1      50.478  26.969  29.781  1.00  0.00     0.059 A 
ATOM     90  C   UNL A   1      49.803  26.255  32.002  1.00  0.00     0.059 A 
ATOM     91  F   UNL A   1      47.552  26.404  32.638  1.00  0.00    -0.206 F 
ATOM     92  C   UNL A   1      50.788  26.435  31.033  1.00  0.00     0.060 A 
BRANCH  92  93
ATOM     93  S   UNL A   1      52.504  26.001  31.386  1.00  0.00     0.124 S 
ATOM     94  O   UNL A   1      53.096  26.035  30.053  1.00  0.00    -0.237 OA
ATOM     95  O   UNL A   1      52.916  27.070  32.292  1.00  0.00    -0.237 OA
ATOM     96  O   UNL A   1      52.403  24.677  31.993  1.00  0.00    -0.744 OA
ENDBRANCH  92  93
ENDBRANCH  60  85
ENDBRANCH  34  35
ENDBRANCH  26  29
ENDBRANCH  24  25
ENDBRANCH   1  24
TORSDOF 16
ENDMDL
MODEL 3
REMARK VINA RESULT:     -11.4      4.688     10.252
REMARK SMILES CC(C)[C@@H](NC(=O)N[C@H]1CCS(=O)(=O)C1)C(=O)NCCCNC(=O)c1ccc(-c2c3nc(c(-c4c(F)cc(S(=O)(=O)[O-])cc4F)c4ccc([nH]4)c(-c4c(F)cc(S(=O)(=O)[O-])cc4F)c4nc(c(-c5c(F)cc(S(=O)(=O)[O-])cc5F)c5ccc2[nH]5)C=C4)C=C3)cc1
REMARK SMILES IDX 20 1 19 2 18 3 16 4 17 5 4 7 2 8 1 9 3 10 5 11 6 12 7 14
REMARK SMILES IDX 8 15 9 17 10 18 15 19 11 20 12 21 13 22 14 23 21 24 22 25
REMARK SMILES IDX 23 26 24 28 25 29 26 30 90 31 27 32 89 33 28 34 29 35 30 36
REMARK SMILES IDX 83 37 31 38 88 39 82 40 84 41 32 42 87 43 81 44 80 45 33 47
REMARK SMILES IDX 67 48 46 49 66 50 47 51 50 52 65 53 85 54 48 55 49 56 64 58
REMARK SMILES IDX 86 59 51 60 34 61 35 62 44 63 36 64 37 65 43 66 45 67 38 68
REMARK SMILES IDX 39 69 40 70 41 71 42 72 68 73 69 74 78 75 70 76 71 77 77 78
REMARK SMILES IDX 79 79 72 80 73 81 74 82 75 83 76 84 52 85 53 86 62 87 54 88
REMARK SMILES IDX 55 89 61 90 63 91 56 92 57 93 58 94 59 95 60 96
REMARK H PARENT 18 6 5 13 8 16 22 27 84 46 50 57
REMARK Flexibility Score: inf
ROOT
ATOM      1  C   UNL A   1      33.776  27.963  26.062  1.00  0.00     0.042 C 
ENDROOT
BRANCH   1   2
ATOM      2  C   UNL A   1      33.389  26.534  25.754  1.00  0.00     0.117 C 
BRANCH   2   3
ATOM      3  N   UNL A   1      34.475  25.616  25.529  1.00  0.00    -0.354 N 
ATOM      4  C   UNL A   1      34.385  24.260  25.772  1.00  0.00     0.242 C 
ATOM      5  O   UNL A   1      33.910  23.777  26.794  1.00  0.00    -0.273 OA
ATOM      6  H   UNL A   1      35.326  25.974  25.183  1.00  0.00     0.163 HD
BRANCH   4   7
ATOM      7  C   UNL A   1      34.696  23.393  24.548  1.00  0.00     0.175 C 
BRANCH   7   8
ATOM      8  C   UNL A   1      36.265  23.356  24.523  1.00  0.00     0.015 C 
ATOM      9  C   UNL A   1      36.946  22.619  25.672  1.00  0.00     0.010 C 
ATOM     10  C   UNL A   1      36.761  22.757  23.193  1.00  0.00     0.010 C 
ENDBRANCH   7   8
BRANCH   7  11
ATOM     11  N   UNL A   1      34.040  22.089  24.711  1.00  0.00    -0.326 N 
ATOM     12  C   UNL A   1      32.825  21.616  24.412  1.00  0.00     0.315 C 
ATOM     13  H   UNL A   1      34.622  21.416  25.132  1.00  0.00     0.166 HD
ATOM     14  O   UNL A   1      32.523  20.519  24.888  1.00  0.00    -0.249 OA
ATOM     15  N   UNL A   1      31.861  22.290  23.776  1.00  0.00    -0.334 N 
ATOM     16  H   UNL A   1      30.971  22.019  24.096  1.00  0.00     0.165 HD
BRANCH  15  17
ATOM     17  C   UNL A   1      31.757  23.319  22.734  1.00  0.00     0.099 C 
ATOM     18  C   UNL A   1      30.964  24.578  23.100  1.00  0.00     0.042 C 
ATOM     19  C   UNL A   1      33.024  23.595  21.952  1.00  0.00     0.161 C 
ATOM     20  C   UNL A   1      31.588  25.817  22.476  1.00  0.00     0.139 C 
ATOM     21  S   UNL A   1      33.050  25.327  21.594  1.00  0.00     0.152 S 
ATOM     22  O   UNL A   1      32.802  25.483  20.171  1.00  0.00    -0.229 OA
ATOM     23  O   UNL A   1      34.213  25.898  22.232  1.00  0.00    -0.229 OA
ENDBRANCH  15  17
ENDBRANCH   7  11
ENDBRANCH   4   7
ENDBRANCH   2   3
ENDBRANCH   1   2
BRANCH   1  24
ATOM     24  C   UNL A   1      33.383  28.400  27.464  1.00  0.00     0.118 C 
BRANCH  24  25
ATOM     25  N   UNL A   1      33.379  29.850  27.611  1.00  0.00    -0.352 N 
ATOM     26  C   UNL A   1      34.372  30.666  28.087  1.00  0.00     0.251 C 
ATOM     27  H   UNL A   1      32.552  30.304  27.331  1.00  0.00     0.163 HD
ATOM     28  O   UNL A   1      34.148  31.838  28.366  1.00  0.00    -0.269 OA
BRANCH  26  29
ATOM     29  C   UNL A   1      35.708  30.079  28.279  1.00  0.00     0.039 A 
ATOM     30  C   UNL A   1      36.618  30.086  27.224  1.00  0.00     0.014 A 
ATOM     31  C   UNL A   1      36.078  29.621  29.547  1.00  0.00     0.014 A 
ATOM     32  C   UNL A   1      37.936  29.696  27.466  1.00  0.00     0.010 A 
ATOM     33  C   UNL A   1      37.411  29.345  29.808  1.00  0.00     0.010 A 
ATOM     34  C   UNL A   1      38.351  29.366  28.767  1.00  0.00    -0.014 A 
BRANCH  34  35
ATOM     35  C   UNL A   1      39.762  29.020  29.062  1.00  0.00     0.031 A 
ATOM     36  C   UNL A   1      40.669  30.056  29.667  1.00  0.00     0.074 A 
ATOM     37  C   UNL A   1      40.237  27.804  28.728  1.00  0.00     0.049 A 
ATOM     38  N   UNL A   1      41.942  29.972  29.953  1.00  0.00    -0.248 NA
ATOM     39  C   UNL A   1      40.077  31.373  29.961  1.00  0.00     0.031 C 
ATOM     40  C   UNL A   1      39.466  26.742  28.076  1.00  0.00     0.029 A 
ATOM     41  N   UNL A   1      41.485  27.257  28.882  1.00  0.00    -0.354 N 
ATOM     42  C   UNL A   1      42.302  31.221  30.442  1.00  0.00     0.074 A 
ATOM     43  C   UNL A   1      41.133  32.066  30.354  1.00  0.00     0.031 C 
ATOM     44  C   UNL A   1      40.250  25.664  27.913  1.00  0.00     0.029 A 
ATOM     45  C   UNL A   1      41.588  25.970  28.410  1.00  0.00     0.049 A 
ATOM     46  H   UNL A   1      42.238  27.740  29.293  1.00  0.00     0.167 HD
ATOM     47  C   UNL A   1      43.492  31.619  30.946  1.00  0.00     0.037 A 
ATOM     48  C   UNL A   1      42.645  25.134  28.374  1.00  0.00     0.037 A 
ATOM     49  C   UNL A   1      44.642  30.761  31.053  1.00  0.00     0.049 A 
ATOM     50  C   UNL A   1      43.957  25.598  28.947  1.00  0.00     0.074 A 
ATOM     51  C   UNL A   1      45.875  31.043  31.611  1.00  0.00     0.029 A 
ATOM     52  N   UNL A   1      44.700  29.454  30.589  1.00  0.00    -0.354 N 
ATOM     53  N   UNL A   1      44.258  26.757  29.484  1.00  0.00    -0.248 NA
ATOM     54  C   UNL A   1      45.070  24.641  28.918  1.00  0.00     0.031 C 
ATOM     55  C   UNL A   1      46.697  29.926  31.435  1.00  0.00     0.029 A 
ATOM     56  C   UNL A   1      45.958  28.926  30.824  1.00  0.00     0.049 A 
ATOM     57  H   UNL A   1      43.957  28.974  30.156  1.00  0.00     0.167 HD
ATOM     58  C   UNL A   1      45.587  26.658  29.882  1.00  0.00     0.074 A 
ATOM     59  C   UNL A   1      46.026  25.322  29.538  1.00  0.00     0.031 C 
ATOM     60  C   UNL A   1      46.374  27.588  30.480  1.00  0.00     0.037 A 
BRANCH  47  61
ATOM     61  C   UNL A   1      43.611  33.042  31.422  1.00  0.00     0.058 A 
ATOM     62  C   UNL A   1      43.379  33.395  32.761  1.00  0.00     0.135 A 
ATOM     63  C   UNL A   1      43.996  34.060  30.535  1.00  0.00     0.135 A 
ATOM     64  F   UNL A   1      42.989  32.467  33.649  1.00  0.00    -0.206 F 
ATOM     65  C   UNL A   1      43.498  34.711  33.199  1.00  0.00     0.059 A 
ATOM     66  C   UNL A   1      44.153  35.377  30.957  1.00  0.00     0.059 A 
ATOM     67  F   UNL A   1      44.226  33.780  29.243  1.00  0.00    -0.206 F 
ATOM     68  C   UNL A   1      43.889  35.694  32.289  1.00  0.00     0.060 A 
BRANCH  68  69
ATOM     69  S   UNL A   1      44.057  37.391  32.878  1.00  0.00     0.124 S 
ATOM     70  O   UNL A   1      42.932  37.491  33.804  1.00  0.00    -0.237 OA
ATOM     71  O   UNL A   1      45.381  37.379  33.490  1.00  0.00    -0.237 OA
ATOM     72  O   UNL A   1      43.939  38.188  31.661  1.00  0.00    -0.744 OA
ENDBRANCH  68  69
ENDBRANCH  47  61
BRANCH  48  73
ATOM     73  C   UNL A   1      42.498  23.770  27.797  1.00  0.00     0.058 A 
ATOM     74  C   UNL A   1      42.398  22.640  28.622  1.00  0.00     0.135 A 
ATOM     75  C   UNL A   1      42.448  23.568  26.408  1.00  0.00     0.135 A 
ATOM     76  F   UNL A   1      42.445  22.778  29.956  1.00  0.00    -0.206 F 
ATOM     77  C   UNL A   1      42.273  21.358  28.094  1.00  0.00     0.059 A 
ATOM     78  C   UNL A   1      42.295  22.301  25.856  1.00  0.00     0.059 A 
ATOM     79  F   UNL A   1      42.521  24.617  25.574  1.00  0.00    -0.206 F 
ATOM     80  C   UNL A   1      42.219  21.199  26.708  1.00  0.00     0.060 A 
BRANCH  80  81
ATOM     81  S   UNL A   1      42.013  19.537  26.034  1.00  0.00     0.124 S 
ATOM     82  O   UNL A   1      42.487  18.711  27.139  1.00  0.00    -0.237 OA
ATOM     83  O   UNL A   1      40.578  19.490  25.771  1.00  0.00    -0.237 OA
ATOM     84  O   UNL A   1      42.861  19.549  24.846  1.00  0.00    -0.744 OA
ENDBRANCH  80  81
ENDBRANCH  48  73
BRANCH  60  85
ATOM     85  C   UNL A   1      47.778  27.184  30.837  1.00  0.00     0.058 A 
ATOM     86  C   UNL A   1      48.089  26.606  32.077  1.00  0.00     0.135 A 
ATOM     87  C   UNL A   1      48.814  27.323  29.899  1.00  0.00     0.135 A 
ATOM     88  F   UNL A   1      47.138  26.456  33.012  1.00  0.00    -0.206 F 
ATOM     89  C   UNL A   1      49.386  26.203  32.384  1.00  0.00     0.059 A 
ATOM     90  C   UNL A   1      50.109  26.898  30.173  1.00  0.00     0.059 A 
ATOM     91  F   UNL A   1      48.567  27.859  28.693  1.00  0.00    -0.206 F 
ATOM     92  C   UNL A   1      50.387  26.350  31.423  1.00  0.00     0.060 A 
BRANCH  92  93
ATOM     93  S   UNL A   1      52.056  25.791  31.822  1.00  0.00     0.124 S 
ATOM     94  O   UNL A   1      51.834  24.375  32.096  1.00  0.00    -0.237 OA
ATOM     95  O   UNL A   1      52.788  26.092  30.595  1.00  0.00    -0.237 OA
ATOM     96  O   UNL A   1      52.421  26.604  32.978  1.00  0.00    -0.744 OA
ENDBRANCH  92  93
ENDBRANCH  60  85
ENDBRANCH  34  35
ENDBRANCH  26  29
ENDBRANCH  24  25
ENDBRANCH   1  24
TORSDOF 16
ENDMDL
