MODEL 1
REMARK VINA RESULT:     -11.8      0.000      0.000
REMARK SMILES Cc1cscc1CNC(=O)N[C@@H](C)c1nc(C(=O)NCCCNC(=O)c2ccc(-c3c4nc(c(-c5c(F)cc(S(=O)(=O)[O-])cc5F)c5ccc([nH]5)c(-c5c(F)cc(S(=O)(=O)[O-])cc5F)c5nc(c(-c6c(F)cc(S(=O)(=O)[O-])cc6F)c6ccc3[nH]6)C=C5)C=C4)cc2)cs1
REMARK SMILES IDX 20 1 19 2 17 3 18 4 16 6 14 7 15 8 93 9 92 10 12 11 13 12
REMARK SMILES IDX 11 13 8 14 9 15 10 17 7 19 6 20 1 21 2 22 3 23 4 24 5 25
REMARK SMILES IDX 21 26 22 27 23 28 24 29 25 31 26 32 27 33 91 34 28 35 90 36
REMARK SMILES IDX 29 37 30 38 31 39 84 40 32 41 89 42 83 43 85 44 33 45 88 46
REMARK SMILES IDX 82 47 81 48 34 50 68 51 47 52 67 53 48 54 51 55 66 56 86 57
REMARK SMILES IDX 49 58 50 59 65 61 87 62 52 63 35 64 36 65 45 66 37 67 38 68
REMARK SMILES IDX 44 69 46 70 39 71 40 72 41 73 42 74 43 75 69 76 70 77 79 78
REMARK SMILES IDX 71 79 72 80 78 81 80 82 73 83 74 84 75 85 76 86 77 87 53 88
REMARK SMILES IDX 54 89 63 90 55 91 56 92 62 93 64 94 57 95 58 96 59 97 60 98
REMARK SMILES IDX 61 99
REMARK H PARENT 19 5 8 16 11 18 23 30 85 49 51 60
REMARK Flexibility Score: inf
ROOT
ATOM      1  C   UNL A   1      37.033  22.545  24.809  1.00  0.00     0.118 C 
ENDROOT
BRANCH   1   2
ATOM      2  N   UNL A   1      36.087  21.445  24.877  1.00  0.00    -0.351 N 
ATOM      3  C   UNL A   1      34.739  21.401  24.609  1.00  0.00     0.270 C 
ATOM      4  O   UNL A   1      34.178  20.310  24.698  1.00  0.00    -0.267 OA
ATOM      5  H   UNL A   1      36.476  20.587  25.163  1.00  0.00     0.163 HD
BRANCH   3   6
ATOM      6  C   UNL A   1      34.014  22.607  24.186  1.00  0.00     0.139 A 
ATOM      7  C   UNL A   1      33.075  24.622  24.369  1.00  0.00     0.116 A 
ATOM      8  N   UNL A   1      33.628  23.633  25.042  1.00  0.00    -0.234 NA
ATOM      9  S   UNL A   1      32.924  24.359  22.679  1.00  0.00    -0.124 S 
ATOM     10  C   UNL A   1      33.657  22.826  22.864  1.00  0.00     0.101 A 
BRANCH   7  11
ATOM     11  C   UNL A   1      32.616  25.919  24.994  1.00  0.00     0.140 C 
ATOM     12  C   UNL A   1      33.751  26.538  25.813  1.00  0.00     0.039 C 
BRANCH  11  13
ATOM     13  N   UNL A   1      31.498  25.616  25.871  1.00  0.00    -0.329 N 
ATOM     14  N   UNL A   1      29.489  26.047  24.706  1.00  0.00    -0.334 N 
ATOM     15  C   UNL A   1      30.171  25.631  25.772  1.00  0.00     0.315 C 
ATOM     16  H   UNL A   1      28.519  25.921  24.812  1.00  0.00     0.165 HD
ATOM     17  O   UNL A   1      29.525  25.213  26.735  1.00  0.00    -0.249 OA
ATOM     18  H   UNL A   1      31.797  25.328  26.765  1.00  0.00     0.166 HD
BRANCH  14  19
ATOM     19  C   UNL A   1      29.828  26.637  23.435  1.00  0.00     0.154 C 
BRANCH  19  20
ATOM     20  C   UNL A   1      29.301  28.045  23.322  1.00  0.00    -0.015 A 
ATOM     21  C   UNL A   1      31.473  29.206  24.188  1.00  0.00     0.045 C 
ATOM     22  C   UNL A   1      30.068  29.225  23.678  1.00  0.00    -0.035 A 
ATOM     23  C   UNL A   1      29.336  30.382  23.495  1.00  0.00     0.068 A 
ATOM     24  S   UNL A   1      27.769  30.090  22.895  1.00  0.00    -0.152 S 
ATOM     25  C   UNL A   1      28.037  28.406  22.882  1.00  0.00     0.070 A 
ENDBRANCH  19  20
ENDBRANCH  14  19
ENDBRANCH  11  13
ENDBRANCH   7  11
ENDBRANCH   3   6
ENDBRANCH   1   2
BRANCH   1  26
ATOM     26  C   UNL A   1      37.210  23.231  26.160  1.00  0.00     0.042 C 
BRANCH  26  27
ATOM     27  C   UNL A   1      38.223  24.374  26.128  1.00  0.00     0.118 C 
BRANCH  27  28
ATOM     28  N   UNL A   1      39.602  23.896  26.165  1.00  0.00    -0.352 N 
ATOM     29  C   UNL A   1      40.713  24.441  26.757  1.00  0.00     0.251 C 
ATOM     30  H   UNL A   1      39.758  23.048  25.689  1.00  0.00     0.163 HD
ATOM     31  O   UNL A   1      41.824  23.991  26.487  1.00  0.00    -0.269 OA
BRANCH  29  32
ATOM     32  C   UNL A   1      40.578  25.566  27.703  1.00  0.00     0.039 A 
ATOM     33  C   UNL A   1      39.558  25.531  28.657  1.00  0.00     0.014 A 
ATOM     34  C   UNL A   1      41.443  26.661  27.637  1.00  0.00     0.014 A 
ATOM     35  C   UNL A   1      39.453  26.560  29.597  1.00  0.00     0.010 A 
ATOM     36  C   UNL A   1      41.379  27.652  28.613  1.00  0.00     0.010 A 
ATOM     37  C   UNL A   1      40.391  27.605  29.608  1.00  0.00    -0.014 A 
BRANCH  37  38
ATOM     38  C   UNL A   1      40.380  28.647  30.664  1.00  0.00     0.031 A 
ATOM     39  C   UNL A   1      41.295  28.531  31.851  1.00  0.00     0.074 A 
ATOM     40  C   UNL A   1      39.479  29.647  30.596  1.00  0.00     0.049 A 
ATOM     41  N   UNL A   1      41.349  29.271  32.928  1.00  0.00    -0.248 NA
ATOM     42  C   UNL A   1      42.261  27.421  31.835  1.00  0.00     0.031 C 
ATOM     43  C   UNL A   1      38.514  29.843  29.511  1.00  0.00     0.029 A 
ATOM     44  N   UNL A   1      39.216  30.677  31.463  1.00  0.00    -0.354 N 
ATOM     45  C   UNL A   1      42.341  28.710  33.724  1.00  0.00     0.074 A 
ATOM     46  C   UNL A   1      42.831  27.541  33.025  1.00  0.00     0.031 C 
ATOM     47  C   UNL A   1      37.778  30.935  29.769  1.00  0.00     0.029 A 
ATOM     48  C   UNL A   1      38.185  31.490  31.056  1.00  0.00     0.049 A 
ATOM     49  H   UNL A   1      39.717  30.821  32.298  1.00  0.00     0.167 HD
ATOM     50  C   UNL A   1      42.812  29.143  34.918  1.00  0.00     0.037 A 
ATOM     51  C   UNL A   1      37.620  32.554  31.658  1.00  0.00     0.037 A 
ATOM     52  C   UNL A   1      42.328  30.316  35.598  1.00  0.00     0.049 A 
ATOM     53  C   UNL A   1      38.140  32.999  32.998  1.00  0.00     0.074 A 
ATOM     54  C   UNL A   1      42.771  30.867  36.788  1.00  0.00     0.029 A 
ATOM     55  N   UNL A   1      41.287  31.118  35.151  1.00  0.00    -0.354 N 
ATOM     56  N   UNL A   1      39.114  32.488  33.714  1.00  0.00    -0.248 NA
ATOM     57  C   UNL A   1      37.486  34.162  33.611  1.00  0.00     0.031 C 
ATOM     58  C   UNL A   1      41.973  31.978  37.079  1.00  0.00     0.029 A 
ATOM     59  C   UNL A   1      41.059  32.146  36.050  1.00  0.00     0.049 A 
ATOM     60  H   UNL A   1      40.783  30.976  34.316  1.00  0.00     0.167 HD
ATOM     61  C   UNL A   1      39.205  33.281  34.852  1.00  0.00     0.074 A 
ATOM     62  C   UNL A   1      38.194  34.311  34.724  1.00  0.00     0.031 C 
ATOM     63  C   UNL A   1      40.050  33.167  35.905  1.00  0.00     0.037 A 
BRANCH  50  64
ATOM     64  C   UNL A   1      43.908  28.339  35.562  1.00  0.00     0.058 A 
ATOM     65  C   UNL A   1      43.628  27.328  36.496  1.00  0.00     0.135 A 
ATOM     66  C   UNL A   1      45.254  28.569  35.234  1.00  0.00     0.135 A 
ATOM     67  F   UNL A   1      42.360  27.075  36.857  1.00  0.00    -0.206 F 
ATOM     68  C   UNL A   1      44.643  26.601  37.110  1.00  0.00     0.059 A 
ATOM     69  C   UNL A   1      46.284  27.835  35.814  1.00  0.00     0.059 A 
ATOM     70  F   UNL A   1      45.580  29.522  34.345  1.00  0.00    -0.206 F 
ATOM     71  C   UNL A   1      45.969  26.865  36.765  1.00  0.00     0.060 A 
BRANCH  71  72
ATOM     72  S   UNL A   1      47.275  25.924  37.581  1.00  0.00     0.124 S 
ATOM     73  O   UNL A   1      46.698  25.718  38.907  1.00  0.00    -0.237 OA
ATOM     74  O   UNL A   1      47.376  24.734  36.743  1.00  0.00    -0.237 OA
ATOM     75  O   UNL A   1      48.424  26.823  37.531  1.00  0.00    -0.744 OA
ENDBRANCH  71  72
ENDBRANCH  50  64
BRANCH  51  76
ATOM     76  C   UNL A   1      36.512  33.284  30.987  1.00  0.00     0.058 A 
ATOM     77  C   UNL A   1      36.762  34.089  29.866  1.00  0.00     0.135 A 
ATOM     78  C   UNL A   1      35.184  33.172  31.429  1.00  0.00     0.135 A 
ATOM     79  F   UNL A   1      38.016  34.231  29.410  1.00  0.00    -0.206 F 
ATOM     80  C   UNL A   1      35.739  34.767  29.213  1.00  0.00     0.059 A 
ATOM     81  C   UNL A   1      34.140  33.822  30.778  1.00  0.00     0.059 A 
ATOM     82  F   UNL A   1      34.892  32.403  32.489  1.00  0.00    -0.206 F 
ATOM     83  C   UNL A   1      34.429  34.625  29.674  1.00  0.00     0.060 A 
BRANCH  83  84
ATOM     84  S   UNL A   1      33.105  35.470  28.784  1.00  0.00     0.124 S 
ATOM     85  O   UNL A   1      33.855  36.422  27.974  1.00  0.00    -0.237 OA
ATOM     86  O   UNL A   1      32.473  34.372  28.058  1.00  0.00    -0.237 OA
ATOM     87  O   UNL A   1      32.297  36.050  29.853  1.00  0.00    -0.744 OA
ENDBRANCH  83  84
ENDBRANCH  51  76
BRANCH  63  88
ATOM     88  C   UNL A   1      39.940  34.195  36.995  1.00  0.00     0.058 A 
ATOM     89  C   UNL A   1      40.576  35.441  36.900  1.00  0.00     0.135 A 
ATOM     90  C   UNL A   1      39.134  33.953  38.121  1.00  0.00     0.135 A 
ATOM     91  F   UNL A   1      41.364  35.718  35.849  1.00  0.00    -0.206 F 
ATOM     92  C   UNL A   1      40.428  36.410  37.887  1.00  0.00     0.059 A 
ATOM     93  C   UNL A   1      38.953  34.916  39.108  1.00  0.00     0.059 A 
ATOM     94  F   UNL A   1      38.498  32.779  38.257  1.00  0.00    -0.206 F 
ATOM     95  C   UNL A   1      39.609  36.139  38.986  1.00  0.00     0.060 A 
BRANCH  95  96
ATOM     96  S   UNL A   1      39.384  37.424  40.235  1.00  0.00     0.124 S 
ATOM     97  O   UNL A   1      38.775  36.671  41.325  1.00  0.00    -0.237 OA
ATOM     98  O   UNL A   1      40.751  37.881  40.464  1.00  0.00    -0.237 OA
ATOM     99  O   UNL A   1      38.510  38.389  39.573  1.00  0.00    -0.744 OA
ENDBRANCH  95  96
ENDBRANCH  63  88
ENDBRANCH  37  38
ENDBRANCH  29  32
ENDBRANCH  27  28
ENDBRANCH  26  27
ENDBRANCH   1  26
TORSDOF 17
ENDMDL
MODEL 2
REMARK VINA RESULT:     -11.8      5.436     12.465
REMARK SMILES Cc1cscc1CNC(=O)N[C@@H](C)c1nc(C(=O)NCCCNC(=O)c2ccc(-c3c4nc(c(-c5c(F)cc(S(=O)(=O)[O-])cc5F)c5ccc([nH]5)c(-c5c(F)cc(S(=O)(=O)[O-])cc5F)c5nc(c(-c6c(F)cc(S(=O)(=O)[O-])cc6F)c6ccc3[nH]6)C=C5)C=C4)cc2)cs1
REMARK SMILES IDX 20 1 19 2 17 3 18 4 16 6 14 7 15 8 93 9 92 10 12 11 13 12
REMARK SMILES IDX 11 13 8 14 9 15 10 17 7 19 6 20 1 21 2 22 3 23 4 24 5 25
REMARK SMILES IDX 21 26 22 27 23 28 24 29 25 31 26 32 27 33 91 34 28 35 90 36
REMARK SMILES IDX 29 37 30 38 31 39 84 40 32 41 89 42 83 43 85 44 33 45 88 46
REMARK SMILES IDX 82 47 81 48 34 50 68 51 47 52 67 53 48 54 51 55 66 56 86 57
REMARK SMILES IDX 49 58 50 59 65 61 87 62 52 63 35 64 36 65 45 66 37 67 38 68
REMARK SMILES IDX 44 69 46 70 39 71 40 72 41 73 42 74 43 75 69 76 70 77 79 78
REMARK SMILES IDX 71 79 72 80 78 81 80 82 73 83 74 84 75 85 76 86 77 87 53 88
REMARK SMILES IDX 54 89 63 90 55 91 56 92 62 93 64 94 57 95 58 96 59 97 60 98
REMARK SMILES IDX 61 99
REMARK H PARENT 19 5 8 16 11 18 23 30 85 49 51 60
REMARK Flexibility Score: inf
ROOT
ATOM      1  C   UNL A   1      34.184  34.823  28.476  1.00  0.00     0.118 C 
ENDROOT
BRANCH   1   2
ATOM      2  N   UNL A   1      33.097  35.550  29.108  1.00  0.00    -0.351 N 
ATOM      3  C   UNL A   1      32.846  35.819  30.433  1.00  0.00     0.270 C 
ATOM      4  O   UNL A   1      31.864  36.511  30.697  1.00  0.00    -0.267 OA
ATOM      5  H   UNL A   1      32.426  35.909  28.484  1.00  0.00     0.163 HD
BRANCH   3   6
ATOM      6  C   UNL A   1      33.751  35.335  31.486  1.00  0.00     0.139 A 
ATOM      7  C   UNL A   1      35.278  34.029  32.456  1.00  0.00     0.116 A 
ATOM      8  N   UNL A   1      34.491  34.160  31.407  1.00  0.00    -0.234 NA
ATOM      9  S   UNL A   1      35.135  35.271  33.633  1.00  0.00    -0.124 S 
ATOM     10  C   UNL A   1      33.951  36.035  32.665  1.00  0.00     0.101 A 
BRANCH   7  11
ATOM     11  C   UNL A   1      36.264  32.900  32.639  1.00  0.00     0.140 C 
ATOM     12  C   UNL A   1      35.724  31.621  31.996  1.00  0.00     0.039 C 
BRANCH  11  13
ATOM     13  N   UNL A   1      36.436  32.688  34.066  1.00  0.00    -0.329 N 
ATOM     14  N   UNL A   1      38.662  32.006  34.463  1.00  0.00    -0.334 N 
ATOM     15  C   UNL A   1      37.438  32.342  34.869  1.00  0.00     0.315 C 
ATOM     16  H   UNL A   1      39.273  31.842  35.218  1.00  0.00     0.165 HD
ATOM     17  O   UNL A   1      37.221  32.345  36.082  1.00  0.00    -0.249 OA
ATOM     18  H   UNL A   1      35.600  32.840  34.565  1.00  0.00     0.166 HD
BRANCH  14  19
ATOM     19  C   UNL A   1      39.309  31.828  33.188  1.00  0.00     0.154 C 
BRANCH  19  20
ATOM     20  C   UNL A   1      40.075  30.531  33.134  1.00  0.00    -0.015 A 
ATOM     21  C   UNL A   1      37.971  28.991  33.008  1.00  0.00     0.045 C 
ATOM     22  C   UNL A   1      39.446  29.225  33.056  1.00  0.00    -0.035 A 
ATOM     23  C   UNL A   1      40.383  28.209  33.040  1.00  0.00     0.068 A 
ATOM     24  S   UNL A   1      41.986  28.782  33.097  1.00  0.00    -0.152 S 
ATOM     25  C   UNL A   1      41.455  30.401  33.159  1.00  0.00     0.070 A 
ENDBRANCH  19  20
ENDBRANCH  14  19
ENDBRANCH  11  13
ENDBRANCH   7  11
ENDBRANCH   3   6
ENDBRANCH   1   2
BRANCH   1  26
ATOM     26  C   UNL A   1      33.747  33.443  27.995  1.00  0.00     0.042 C 
BRANCH  26  27
ATOM     27  C   UNL A   1      34.572  32.306  28.595  1.00  0.00     0.118 C 
BRANCH  27  28
ATOM     28  N   UNL A   1      34.027  30.992  28.268  1.00  0.00    -0.352 N 
ATOM     29  C   UNL A   1      34.669  29.809  27.996  1.00  0.00     0.251 C 
ATOM     30  H   UNL A   1      33.044  30.947  28.237  1.00  0.00     0.163 HD
ATOM     31  O   UNL A   1      34.031  28.868  27.533  1.00  0.00    -0.269 OA
BRANCH  29  32
ATOM     32  C   UNL A   1      36.117  29.672  28.249  1.00  0.00     0.039 A 
ATOM     33  C   UNL A   1      36.549  29.265  29.514  1.00  0.00     0.014 A 
ATOM     34  C   UNL A   1      37.047  29.962  27.247  1.00  0.00     0.014 A 
ATOM     35  C   UNL A   1      37.913  29.072  29.752  1.00  0.00     0.010 A 
ATOM     36  C   UNL A   1      38.398  29.708  27.464  1.00  0.00     0.010 A 
ATOM     37  C   UNL A   1      38.843  29.252  28.715  1.00  0.00    -0.014 A 
BRANCH  37  38
ATOM     38  C   UNL A   1      40.281  28.941  28.900  1.00  0.00     0.031 A 
ATOM     39  C   UNL A   1      41.235  30.009  29.357  1.00  0.00     0.074 A 
ATOM     40  C   UNL A   1      40.740  27.717  28.568  1.00  0.00     0.049 A 
ATOM     41  N   UNL A   1      42.537  29.964  29.463  1.00  0.00    -0.248 NA
ATOM     42  C   UNL A   1      40.647  31.309  29.719  1.00  0.00     0.031 C 
ATOM     43  C   UNL A   1      39.916  26.610  28.078  1.00  0.00     0.029 A 
ATOM     44  N   UNL A   1      42.012  27.205  28.575  1.00  0.00    -0.354 N 
ATOM     45  C   UNL A   1      42.927  31.228  29.889  1.00  0.00     0.074 A 
ATOM     46  C   UNL A   1      41.726  32.032  29.977  1.00  0.00     0.031 C 
ATOM     47  C   UNL A   1      40.700  25.545  27.849  1.00  0.00     0.029 A 
ATOM     48  C   UNL A   1      42.086  25.906  28.130  1.00  0.00     0.049 A 
ATOM     49  H   UNL A   1      42.799  27.718  28.870  1.00  0.00     0.167 HD
ATOM     50  C   UNL A   1      44.170  31.671  30.196  1.00  0.00     0.037 A 
ATOM     51  C   UNL A   1      43.152  25.101  27.954  1.00  0.00     0.037 A 
ATOM     52  C   UNL A   1      45.356  30.859  30.119  1.00  0.00     0.049 A 
ATOM     53  C   UNL A   1      44.525  25.624  28.275  1.00  0.00     0.074 A 
ATOM     54  C   UNL A   1      46.656  31.198  30.455  1.00  0.00     0.029 A 
ATOM     55  N   UNL A   1      45.390  29.545  29.671  1.00  0.00    -0.354 N 
ATOM     56  N   UNL A   1      44.872  26.806  28.726  1.00  0.00    -0.248 NA
ATOM     57  C   UNL A   1      45.651  24.706  28.062  1.00  0.00     0.031 C 
ATOM     58  C   UNL A   1      47.480  30.103  30.172  1.00  0.00     0.029 A 
ATOM     59  C   UNL A   1      46.689  29.066  29.700  1.00  0.00     0.049 A 
ATOM     60  H   UNL A   1      44.604  29.030  29.374  1.00  0.00     0.167 HD
ATOM     61  C   UNL A   1      46.253  26.767  28.872  1.00  0.00     0.074 A 
ATOM     62  C   UNL A   1      46.677  25.441  28.471  1.00  0.00     0.031 C 
ATOM     63  C   UNL A   1      47.093  27.741  29.302  1.00  0.00     0.037 A 
BRANCH  50  64
ATOM     64  C   UNL A   1      44.304  33.100  30.644  1.00  0.00     0.058 A 
ATOM     65  C   UNL A   1      44.511  34.143  29.725  1.00  0.00     0.135 A 
ATOM     66  C   UNL A   1      44.212  33.438  32.004  1.00  0.00     0.135 A 
ATOM     67  F   UNL A   1      44.622  33.876  28.415  1.00  0.00    -0.206 F 
ATOM     68  C   UNL A   1      44.660  35.462  30.141  1.00  0.00     0.059 A 
ATOM     69  C   UNL A   1      44.329  34.755  32.440  1.00  0.00     0.059 A 
ATOM     70  F   UNL A   1      44.012  32.482  32.925  1.00  0.00    -0.206 F 
ATOM     71  C   UNL A   1      44.572  35.757  31.502  1.00  0.00     0.060 A 
BRANCH  71  72
ATOM     72  S   UNL A   1      44.782  37.471  32.028  1.00  0.00     0.124 S 
ATOM     73  O   UNL A   1      44.193  37.439  33.364  1.00  0.00    -0.237 OA
ATOM     74  O   UNL A   1      46.230  37.640  31.978  1.00  0.00    -0.237 OA
ATOM     75  O   UNL A   1      44.030  38.227  31.030  1.00  0.00    -0.744 OA
ENDBRANCH  71  72
ENDBRANCH  50  64
BRANCH  51  76
ATOM     76  C   UNL A   1      42.956  23.709  27.472  1.00  0.00     0.058 A 
ATOM     77  C   UNL A   1      42.643  22.678  28.369  1.00  0.00     0.135 A 
ATOM     78  C   UNL A   1      43.049  23.384  26.109  1.00  0.00     0.135 A 
ATOM     79  F   UNL A   1      42.550  22.938  29.682  1.00  0.00    -0.206 F 
ATOM     80  C   UNL A   1      42.440  21.372  27.937  1.00  0.00     0.059 A 
ATOM     81  C   UNL A   1      42.826  22.089  25.649  1.00  0.00     0.059 A 
ATOM     82  F   UNL A   1      43.332  24.338  25.209  1.00  0.00    -0.206 F 
ATOM     83  C   UNL A   1      42.529  21.087  26.573  1.00  0.00     0.060 A 
BRANCH  83  84
ATOM     84  S   UNL A   1      42.212  19.398  26.022  1.00  0.00     0.124 S 
ATOM     85  O   UNL A   1      42.623  18.625  27.188  1.00  0.00    -0.237 OA
ATOM     86  O   UNL A   1      40.778  19.427  25.749  1.00  0.00    -0.237 OA
ATOM     87  O   UNL A   1      43.064  19.262  24.843  1.00  0.00    -0.744 OA
ENDBRANCH  83  84
ENDBRANCH  51  76
BRANCH  63  88
ATOM     88  C   UNL A   1      48.555  27.404  29.387  1.00  0.00     0.058 A 
ATOM     89  C   UNL A   1      49.451  27.750  28.365  1.00  0.00     0.135 A 
ATOM     90  C   UNL A   1      49.076  26.783  30.535  1.00  0.00     0.135 A 
ATOM     91  F   UNL A   1      49.003  28.336  27.243  1.00  0.00    -0.206 F 
ATOM     92  C   UNL A   1      50.813  27.483  28.471  1.00  0.00     0.059 A 
ATOM     93  C   UNL A   1      50.437  26.528  30.673  1.00  0.00     0.059 A 
ATOM     94  F   UNL A   1      48.261  26.438  31.544  1.00  0.00    -0.206 F 
ATOM     95  C   UNL A   1      51.297  26.876  29.632  1.00  0.00     0.060 A 
BRANCH  95  96
ATOM     96  S   UNL A   1      53.072  26.582  29.779  1.00  0.00     0.124 S 
ATOM     97  O   UNL A   1      53.580  27.936  29.969  1.00  0.00    -0.237 OA
ATOM     98  O   UNL A   1      53.149  25.706  30.943  1.00  0.00    -0.237 OA
ATOM     99  O   UNL A   1      53.418  25.955  28.506  1.00  0.00    -0.744 OA
ENDBRANCH  95  96
ENDBRANCH  63  88
ENDBRANCH  37  38
ENDBRANCH  29  32
ENDBRANCH  27  28
ENDBRANCH  26  27
ENDBRANCH   1  26
TORSDOF 17
ENDMDL
MODEL 3
REMARK VINA RESULT:     -11.6      1.503      2.692
REMARK SMILES Cc1cscc1CNC(=O)N[C@@H](C)c1nc(C(=O)NCCCNC(=O)c2ccc(-c3c4nc(c(-c5c(F)cc(S(=O)(=O)[O-])cc5F)c5ccc([nH]5)c(-c5c(F)cc(S(=O)(=O)[O-])cc5F)c5nc(c(-c6c(F)cc(S(=O)(=O)[O-])cc6F)c6ccc3[nH]6)C=C5)C=C4)cc2)cs1
REMARK SMILES IDX 20 1 19 2 17 3 18 4 16 6 14 7 15 8 93 9 92 10 12 11 13 12
REMARK SMILES IDX 11 13 8 14 9 15 10 17 7 19 6 20 1 21 2 22 3 23 4 24 5 25
REMARK SMILES IDX 21 26 22 27 23 28 24 29 25 31 26 32 27 33 91 34 28 35 90 36
REMARK SMILES IDX 29 37 30 38 31 39 84 40 32 41 89 42 83 43 85 44 33 45 88 46
REMARK SMILES IDX 82 47 81 48 34 50 68 51 47 52 67 53 48 54 51 55 66 56 86 57
REMARK SMILES IDX 49 58 50 59 65 61 87 62 52 63 35 64 36 65 45 66 37 67 38 68
REMARK SMILES IDX 44 69 46 70 39 71 40 72 41 73 42 74 43 75 69 76 70 77 79 78
REMARK SMILES IDX 71 79 72 80 78 81 80 82 73 83 74 84 75 85 76 86 77 87 53 88
REMARK SMILES IDX 54 89 63 90 55 91 56 92 62 93 64 94 57 95 58 96 59 97 60 98
REMARK SMILES IDX 61 99
REMARK H PARENT 19 5 8 16 11 18 23 30 85 49 51 60
REMARK Flexibility Score: inf
ROOT
ATOM      1  C   UNL A   1      36.239  23.581  26.061  1.00  0.00     0.118 C 
ENDROOT
BRANCH   1   2
ATOM      2  N   UNL A   1      35.479  22.644  26.869  1.00  0.00    -0.351 N 
ATOM      3  C   UNL A   1      34.140  22.332  26.862  1.00  0.00     0.270 C 
ATOM      4  O   UNL A   1      33.758  21.449  27.629  1.00  0.00    -0.267 OA
ATOM      5  H   UNL A   1      36.011  22.150  27.534  1.00  0.00     0.163 HD
BRANCH   3   6
ATOM      6  C   UNL A   1      33.215  22.998  25.934  1.00  0.00     0.139 A 
ATOM      7  C   UNL A   1      31.978  24.647  25.081  1.00  0.00     0.116 A 
ATOM      8  N   UNL A   1      32.711  24.282  26.114  1.00  0.00    -0.234 NA
ATOM      9  S   UNL A   1      31.793  23.454  23.861  1.00  0.00    -0.124 S 
ATOM     10  C   UNL A   1      32.767  22.386  24.773  1.00  0.00     0.101 A 
BRANCH   7  11
ATOM     11  C   UNL A   1      31.349  26.012  24.930  1.00  0.00     0.140 C 
ATOM     12  C   UNL A   1      29.851  25.873  24.649  1.00  0.00     0.039 C 
BRANCH  11  13
ATOM     13  N   UNL A   1      31.991  26.674  23.807  1.00  0.00    -0.329 N 
ATOM     14  N   UNL A   1      33.926  27.778  24.591  1.00  0.00    -0.334 N 
ATOM     15  C   UNL A   1      33.091  27.399  23.624  1.00  0.00     0.315 C 
ATOM     16  H   UNL A   1      34.711  28.258  24.238  1.00  0.00     0.165 HD
ATOM     17  O   UNL A   1      33.366  27.733  22.470  1.00  0.00    -0.249 OA
ATOM     18  H   UNL A   1      31.484  26.555  22.970  1.00  0.00     0.166 HD
BRANCH  14  19
ATOM     19  C   UNL A   1      33.960  27.656  26.026  1.00  0.00     0.154 C 
BRANCH  19  20
ATOM     20  C   UNL A   1      34.102  29.000  26.692  1.00  0.00    -0.015 A 
ATOM     21  C   UNL A   1      31.652  29.778  26.233  1.00  0.00     0.045 C 
ATOM     22  C   UNL A   1      33.030  29.975  26.777  1.00  0.00    -0.035 A 
ATOM     23  C   UNL A   1      33.439  31.127  27.422  1.00  0.00     0.068 A 
ATOM     24  S   UNL A   1      35.061  31.059  27.938  1.00  0.00    -0.152 S 
ATOM     25  C   UNL A   1      35.249  29.491  27.295  1.00  0.00     0.070 A 
ENDBRANCH  19  20
ENDBRANCH  14  19
ENDBRANCH  11  13
ENDBRANCH   7  11
ENDBRANCH   3   6
ENDBRANCH   1   2
BRANCH   1  26
ATOM     26  C   UNL A   1      37.717  23.207  25.991  1.00  0.00     0.042 C 
BRANCH  26  27
ATOM     27  C   UNL A   1      38.630  24.230  26.665  1.00  0.00     0.118 C 
BRANCH  27  28
ATOM     28  N   UNL A   1      39.946  24.300  26.036  1.00  0.00    -0.352 N 
ATOM     29  C   UNL A   1      40.994  25.155  26.266  1.00  0.00     0.251 C 
ATOM     30  H   UNL A   1      40.106  23.627  25.335  1.00  0.00     0.163 HD
ATOM     31  O   UNL A   1      41.935  25.184  25.478  1.00  0.00    -0.269 OA
BRANCH  29  32
ATOM     32  C   UNL A   1      40.986  26.043  27.446  1.00  0.00     0.039 A 
ATOM     33  C   UNL A   1      41.935  27.064  27.534  1.00  0.00     0.014 A 
ATOM     34  C   UNL A   1      40.057  25.855  28.473  1.00  0.00     0.014 A 
ATOM     35  C   UNL A   1      41.903  27.949  28.615  1.00  0.00     0.010 A 
ATOM     36  C   UNL A   1      39.985  26.774  29.515  1.00  0.00     0.010 A 
ATOM     37  C   UNL A   1      40.900  27.835  29.591  1.00  0.00    -0.014 A 
BRANCH  37  38
ATOM     38  C   UNL A   1      40.766  28.829  30.685  1.00  0.00     0.031 A 
ATOM     39  C   UNL A   1      41.617  28.717  31.919  1.00  0.00     0.074 A 
ATOM     40  C   UNL A   1      39.812  29.777  30.601  1.00  0.00     0.049 A 
ATOM     41  N   UNL A   1      41.564  29.412  33.025  1.00  0.00    -0.248 NA
ATOM     42  C   UNL A   1      42.647  27.666  31.918  1.00  0.00     0.031 C 
ATOM     43  C   UNL A   1      38.901  29.962  29.470  1.00  0.00     0.029 A 
ATOM     44  N   UNL A   1      39.437  30.752  31.490  1.00  0.00    -0.354 N 
ATOM     45  C   UNL A   1      42.541  28.877  33.856  1.00  0.00     0.074 A 
ATOM     46  C   UNL A   1      43.140  27.769  33.143  1.00  0.00     0.031 C 
ATOM     47  C   UNL A   1      38.086  30.997  29.725  1.00  0.00     0.029 A 
ATOM     48  C   UNL A   1      38.384  31.521  31.054  1.00  0.00     0.049 A 
ATOM     49  H   UNL A   1      39.880  30.890  32.359  1.00  0.00     0.167 HD
ATOM     50  C   UNL A   1      42.916  29.286  35.092  1.00  0.00     0.037 A 
ATOM     51  C   UNL A   1      37.722  32.524  31.663  1.00  0.00     0.037 A 
ATOM     52  C   UNL A   1      42.324  30.399  35.787  1.00  0.00     0.049 A 
ATOM     53  C   UNL A   1      38.137  32.941  33.047  1.00  0.00     0.074 A 
ATOM     54  C   UNL A   1      42.664  30.924  37.021  1.00  0.00     0.029 A 
ATOM     55  N   UNL A   1      41.263  31.157  35.309  1.00  0.00    -0.354 N 
ATOM     56  N   UNL A   1      39.098  32.458  33.799  1.00  0.00    -0.248 NA
ATOM     57  C   UNL A   1      37.380  34.037  33.665  1.00  0.00     0.031 C 
ATOM     58  C   UNL A   1      41.784  31.974  37.307  1.00  0.00     0.029 A 
ATOM     59  C   UNL A   1      40.923  32.132  36.232  1.00  0.00     0.049 A 
ATOM     60  H   UNL A   1      40.818  31.021  34.441  1.00  0.00     0.167 HD
ATOM     61  C   UNL A   1      39.075  33.207  34.970  1.00  0.00     0.074 A 
ATOM     62  C   UNL A   1      38.012  34.180  34.823  1.00  0.00     0.031 C 
ATOM     63  C   UNL A   1      39.864  33.097  36.067  1.00  0.00     0.037 A 
BRANCH  50  64
ATOM     64  C   UNL A   1      44.020  28.521  35.769  1.00  0.00     0.058 A 
ATOM     65  C   UNL A   1      45.371  28.849  35.570  1.00  0.00     0.135 A 
ATOM     66  C   UNL A   1      43.728  27.456  36.637  1.00  0.00     0.135 A 
ATOM     67  F   UNL A   1      45.709  29.848  34.740  1.00  0.00    -0.206 F 
ATOM     68  C   UNL A   1      46.394  28.126  36.177  1.00  0.00     0.059 A 
ATOM     69  C   UNL A   1      44.733  26.737  37.277  1.00  0.00     0.059 A 
ATOM     70  F   UNL A   1      42.453  27.101  36.866  1.00  0.00    -0.206 F 
ATOM     71  C   UNL A   1      46.064  27.069  37.026  1.00  0.00     0.060 A 
BRANCH  71  72
ATOM     72  S   UNL A   1      47.402  26.131  37.793  1.00  0.00     0.124 S 
ATOM     73  O   UNL A   1      46.704  25.485  38.901  1.00  0.00    -0.237 OA
ATOM     74  O   UNL A   1      47.828  25.248  36.712  1.00  0.00    -0.237 OA
ATOM     75  O   UNL A   1      48.364  27.160  38.174  1.00  0.00    -0.744 OA
ENDBRANCH  71  72
ENDBRANCH  50  64
BRANCH  51  76
ATOM     76  C   UNL A   1      36.613  33.215  30.955  1.00  0.00     0.058 A 
ATOM     77  C   UNL A   1      35.278  32.988  31.321  1.00  0.00     0.135 A 
ATOM     78  C   UNL A   1      36.861  34.134  29.921  1.00  0.00     0.135 A 
ATOM     79  F   UNL A   1      34.992  32.115  32.297  1.00  0.00    -0.206 F 
ATOM     80  C   UNL A   1      34.227  33.637  30.682  1.00  0.00     0.059 A 
ATOM     81  C   UNL A   1      35.827  34.813  29.284  1.00  0.00     0.059 A 
ATOM     82  F   UNL A   1      38.121  34.396  29.544  1.00  0.00    -0.206 F 
ATOM     83  C   UNL A   1      34.511  34.552  29.667  1.00  0.00     0.060 A 
BRANCH  83  84
ATOM     84  S   UNL A   1      33.139  35.424  28.883  1.00  0.00     0.124 S 
ATOM     85  O   UNL A   1      32.436  35.968  30.040  1.00  0.00    -0.237 OA
ATOM     86  O   UNL A   1      33.832  36.397  28.044  1.00  0.00    -0.237 OA
ATOM     87  O   UNL A   1      32.437  34.369  28.158  1.00  0.00    -0.744 OA
ENDBRANCH  83  84
ENDBRANCH  51  76
BRANCH  63  88
ATOM     88  C   UNL A   1      39.629  34.071  37.188  1.00  0.00     0.058 A 
ATOM     89  C   UNL A   1      38.912  33.711  38.338  1.00  0.00     0.135 A 
ATOM     90  C   UNL A   1      40.183  35.361  37.136  1.00  0.00     0.135 A 
ATOM     91  F   UNL A   1      38.354  32.493  38.433  1.00  0.00    -0.206 F 
ATOM     92  C   UNL A   1      38.741  34.599  39.395  1.00  0.00     0.059 A 
ATOM     93  C   UNL A   1      40.046  36.257  38.191  1.00  0.00     0.059 A 
ATOM     94  F   UNL A   1      40.884  35.752  36.060  1.00  0.00    -0.206 F 
ATOM     95  C   UNL A   1      39.317  35.869  39.314  1.00  0.00     0.060 A 
BRANCH  95  96
ATOM     96  S   UNL A   1      39.132  36.993  40.715  1.00  0.00     0.124 S 
ATOM     97  O   UNL A   1      38.426  36.153  41.676  1.00  0.00    -0.237 OA
ATOM     98  O   UNL A   1      40.517  37.311  41.046  1.00  0.00    -0.237 OA
ATOM     99  O   UNL A   1      38.357  38.100  40.161  1.00  0.00    -0.744 OA
ENDBRANCH  95  96
ENDBRANCH  63  88
ENDBRANCH  37  38
ENDBRANCH  29  32
ENDBRANCH  27  28
ENDBRANCH  26  27
ENDBRANCH   1  26
TORSDOF 17
ENDMDL
