MODEL 1
REMARK VINA RESULT:     -13.9      0.000      0.000
REMARK SMILES O=C(NCCCNC(=O)c1nnn(-c2cccc(C(F)(F)F)c2)c1[C@@H]1COc2ccccc2O1)c1ccc(-c2c3nc(c(-c4c(F)cc(S(=O)(=O)[O-])cc4F)c4ccc([nH]4)c(-c4c(F)cc(S(=O)(=O)[O-])cc4F)c4nc(c(-c5c(F)cc(S(=O)(=O)[O-])cc5F)c5ccc2[nH]5)C=C4)C=C3)cc1
REMARK SMILES IDX 4 1 3 2 1 3 2 4 35 6 36 7 100 8 37 9 99 10 38 11 39 12 40 13
REMARK SMILES IDX 93 14 41 15 98 16 92 17 94 18 42 19 97 20 91 21 90 22 43 24
REMARK SMILES IDX 77 25 56 26 76 27 57 28 60 29 75 30 95 31 58 32 59 33 74 35
REMARK SMILES IDX 96 36 61 37 44 38 45 39 54 40 46 41 47 42 53 43 55 44 48 45
REMARK SMILES IDX 49 46 50 47 51 48 52 49 78 50 79 51 88 52 80 53 81 54 87 55
REMARK SMILES IDX 89 56 82 57 83 58 84 59 85 60 86 61 62 62 63 63 72 64 64 65
REMARK SMILES IDX 65 66 71 67 73 68 66 69 67 70 68 71 69 72 70 73 5 74 6 75
REMARK SMILES IDX 7 76 8 77 9 79 10 80 11 81 24 82 12 83 13 84 25 85 26 86
REMARK SMILES IDX 34 87 27 88 33 89 28 90 32 91 29 92 31 93 30 94 14 95 15 96
REMARK SMILES IDX 23 97 16 98 18 99 17 100 19 101 20 102 21 103 22 104
REMARK H PARENT 3 5 94 23 60 34 7 78
REMARK Flexibility Score: inf
ROOT
ATOM      1  C   UNL A   1      37.438  22.267  24.845  1.00  0.00     0.118 C 
ENDROOT
BRANCH   1   2
ATOM      2  N   UNL A   1      38.603  21.675  25.478  1.00  0.00    -0.352 N 
ATOM      3  O   UNL A   1      40.351  21.170  26.697  1.00  0.00    -0.269 OA
ATOM      4  C   UNL A   1      39.580  22.071  26.349  1.00  0.00     0.251 C 
ATOM      5  H   UNL A   1      38.721  20.736  25.207  1.00  0.00     0.163 HD
BRANCH   4   6
ATOM      6  C   UNL A   1      39.810  23.447  26.882  1.00  0.00     0.039 A 
ATOM      7  C   UNL A   1      38.985  24.556  26.695  1.00  0.00     0.014 A 
ATOM      8  C   UNL A   1      40.978  23.614  27.658  1.00  0.00     0.014 A 
ATOM      9  C   UNL A   1      39.327  25.794  27.262  1.00  0.00     0.010 A 
ATOM     10  C   UNL A   1      41.322  24.845  28.221  1.00  0.00     0.010 A 
ATOM     11  C   UNL A   1      40.497  25.946  28.021  1.00  0.00    -0.014 A 
BRANCH  11  12
ATOM     12  C   UNL A   1      40.720  27.207  28.747  1.00  0.00     0.031 A 
ATOM     13  C   UNL A   1      41.835  28.051  28.217  1.00  0.00     0.074 A 
ATOM     14  C   UNL A   1      39.908  27.735  29.689  1.00  0.00     0.049 A 
ATOM     15  N   UNL A   1      42.920  28.421  28.815  1.00  0.00    -0.248 NA
ATOM     16  C   UNL A   1      41.758  28.474  26.809  1.00  0.00     0.031 C 
ATOM     17  C   UNL A   1      38.587  27.261  30.103  1.00  0.00     0.029 A 
ATOM     18  N   UNL A   1      40.064  28.888  30.413  1.00  0.00    -0.354 N 
ATOM     19  C   UNL A   1      43.575  29.285  27.933  1.00  0.00     0.074 A 
ATOM     20  C   UNL A   1      42.889  29.165  26.674  1.00  0.00     0.031 C 
ATOM     21  C   UNL A   1      37.983  28.217  30.848  1.00  0.00     0.029 A 
ATOM     22  C   UNL A   1      38.914  29.312  31.072  1.00  0.00     0.049 A 
ATOM     23  H   UNL A   1      40.917  29.375  30.462  1.00  0.00     0.167 HD
ATOM     24  C   UNL A   1      44.517  30.176  28.354  1.00  0.00     0.037 A 
ATOM     25  C   UNL A   1      38.720  30.496  31.712  1.00  0.00     0.037 A 
ATOM     26  C   UNL A   1      45.013  29.840  29.664  1.00  0.00     0.049 A 
ATOM     27  C   UNL A   1      40.054  31.066  32.027  1.00  0.00     0.074 A 
ATOM     28  C   UNL A   1      45.629  28.736  30.222  1.00  0.00     0.029 A 
ATOM     29  N   UNL A   1      44.616  30.617  30.724  1.00  0.00    -0.354 N 
ATOM     30  N   UNL A   1      40.880  30.574  32.907  1.00  0.00    -0.248 NA
ATOM     31  C   UNL A   1      40.633  32.016  31.091  1.00  0.00     0.031 C 
ATOM     32  C   UNL A   1      45.136  28.673  31.558  1.00  0.00     0.029 A 
ATOM     33  C   UNL A   1      44.286  29.763  31.744  1.00  0.00     0.049 A 
ATOM     34  H   UNL A   1      44.576  31.600  30.747  1.00  0.00     0.167 HD
ATOM     35  C   UNL A   1      42.139  30.814  32.380  1.00  0.00     0.074 A 
ATOM     36  C   UNL A   1      41.928  31.803  31.329  1.00  0.00     0.031 C 
ATOM     37  C   UNL A   1      43.188  29.987  32.657  1.00  0.00     0.037 A 
BRANCH  24  38
ATOM     38  C   UNL A   1      44.762  31.539  27.736  1.00  0.00     0.058 A 
ATOM     39  C   UNL A   1      45.961  31.772  27.023  1.00  0.00     0.135 A 
ATOM     40  C   UNL A   1      44.020  32.696  28.060  1.00  0.00     0.135 A 
ATOM     41  F   UNL A   1      46.749  30.749  26.654  1.00  0.00    -0.206 F 
ATOM     42  C   UNL A   1      46.431  33.056  26.742  1.00  0.00     0.059 A 
ATOM     43  C   UNL A   1      44.444  33.982  27.739  1.00  0.00     0.059 A 
ATOM     44  F   UNL A   1      42.900  32.644  28.790  1.00  0.00    -0.206 F 
ATOM     45  C   UNL A   1      45.674  34.156  27.126  1.00  0.00     0.060 A 
BRANCH  45  46
ATOM     46  S   UNL A   1      46.336  35.814  26.887  1.00  0.00     0.124 S 
ATOM     47  O   UNL A   1      45.113  36.608  26.845  1.00  0.00    -0.237 OA
ATOM     48  O   UNL A   1      47.169  35.985  28.072  1.00  0.00    -0.237 OA
ATOM     49  O   UNL A   1      47.063  35.704  25.626  1.00  0.00    -0.744 OA
ENDBRANCH  45  46
ENDBRANCH  24  38
BRANCH  25  50
ATOM     50  C   UNL A   1      37.477  31.304  31.859  1.00  0.00     0.058 A 
ATOM     51  C   UNL A   1      37.019  31.719  33.125  1.00  0.00     0.135 A 
ATOM     52  C   UNL A   1      36.879  31.935  30.751  1.00  0.00     0.135 A 
ATOM     53  F   UNL A   1      37.542  31.188  34.242  1.00  0.00    -0.206 F 
ATOM     54  C   UNL A   1      36.072  32.738  33.283  1.00  0.00     0.059 A 
ATOM     55  C   UNL A   1      35.923  32.942  30.883  1.00  0.00     0.059 A 
ATOM     56  F   UNL A   1      37.277  31.658  29.500  1.00  0.00    -0.206 F 
ATOM     57  C   UNL A   1      35.546  33.361  32.153  1.00  0.00     0.060 A 
BRANCH  57  58
ATOM     58  S   UNL A   1      34.475  34.805  32.349  1.00  0.00     0.124 S 
ATOM     59  O   UNL A   1      34.342  35.272  30.974  1.00  0.00    -0.237 OA
ATOM     60  O   UNL A   1      33.276  34.223  32.946  1.00  0.00    -0.237 OA
ATOM     61  O   UNL A   1      35.244  35.678  33.234  1.00  0.00    -0.744 OA
ENDBRANCH  57  58
ENDBRANCH  25  50
BRANCH  37  62
ATOM     62  C   UNL A   1      43.089  29.061  33.838  1.00  0.00     0.058 A 
ATOM     63  C   UNL A   1      43.400  29.414  35.163  1.00  0.00     0.135 A 
ATOM     64  C   UNL A   1      42.511  27.797  33.629  1.00  0.00     0.135 A 
ATOM     65  F   UNL A   1      43.853  30.639  35.465  1.00  0.00    -0.206 F 
ATOM     66  C   UNL A   1      43.185  28.534  36.224  1.00  0.00     0.059 A 
ATOM     67  C   UNL A   1      42.254  26.918  34.677  1.00  0.00     0.059 A 
ATOM     68  F   UNL A   1      42.137  27.423  32.394  1.00  0.00    -0.206 F 
ATOM     69  C   UNL A   1      42.607  27.289  35.973  1.00  0.00     0.060 A 
BRANCH  69  70
ATOM     70  S   UNL A   1      42.235  26.191  37.357  1.00  0.00     0.124 S 
ATOM     71  O   UNL A   1      43.201  26.633  38.364  1.00  0.00    -0.237 OA
ATOM     72  O   UNL A   1      40.836  26.510  37.648  1.00  0.00    -0.237 OA
ATOM     73  O   UNL A   1      42.461  24.862  36.815  1.00  0.00    -0.744 OA
ENDBRANCH  69  70
ENDBRANCH  37  62
ENDBRANCH  11  12
ENDBRANCH   4   6
ENDBRANCH   1   2
BRANCH   1  74
ATOM     74  C   UNL A   1      36.114  21.943  25.533  1.00  0.00     0.042 C 
BRANCH  74  75
ATOM     75  C   UNL A   1      35.405  20.693  25.003  1.00  0.00     0.118 C 
BRANCH  75  76
ATOM     76  N   UNL A   1      33.970  20.649  25.233  1.00  0.00    -0.351 N 
ATOM     77  C   UNL A   1      32.824  21.342  24.903  1.00  0.00     0.273 C 
ATOM     78  H   UNL A   1      33.744  19.879  25.805  1.00  0.00     0.163 HD
ATOM     79  O   UNL A   1      31.806  20.736  25.270  1.00  0.00    -0.267 OA
BRANCH  77  80
ATOM     80  C   UNL A   1      32.667  22.648  24.225  1.00  0.00     0.178 A 
ATOM     81  N   UNL A   1      32.099  22.617  22.954  1.00  0.00    -0.124 NA
ATOM     82  C   UNL A   1      32.890  23.993  24.530  1.00  0.00     0.122 A 
ATOM     83  N   UNL A   1      31.930  23.848  22.507  1.00  0.00    -0.061 NA
ATOM     84  N   UNL A   1      32.455  24.689  23.410  1.00  0.00    -0.213 N 
BRANCH  82  85
ATOM     85  C   UNL A   1      33.263  24.648  25.813  1.00  0.00     0.262 C 
ATOM     86  C   UNL A   1      32.031  24.693  26.738  1.00  0.00     0.281 C 
ATOM     87  O   UNL A   1      33.949  25.892  25.659  1.00  0.00    -0.477 OA
ATOM     88  O   UNL A   1      31.214  25.830  26.438  1.00  0.00    -0.485 OA
ATOM     89  C   UNL A   1      33.358  26.927  26.333  1.00  0.00     0.162 A 
ATOM     90  C   UNL A   1      31.994  26.940  26.635  1.00  0.00     0.161 A 
ATOM     91  C   UNL A   1      34.156  28.016  26.662  1.00  0.00     0.050 A 
ATOM     92  C   UNL A   1      31.395  28.076  27.160  1.00  0.00     0.050 A 
ATOM     93  C   UNL A   1      33.572  29.134  27.258  1.00  0.00     0.004 A 
ATOM     94  C   UNL A   1      32.192  29.175  27.479  1.00  0.00     0.004 A 
ENDBRANCH  82  85
BRANCH  84  95
ATOM     95  C   UNL A   1      32.566  26.061  23.121  1.00  0.00     0.067 A 
ATOM     96  C   UNL A   1      33.754  26.556  22.579  1.00  0.00     0.028 A 
ATOM     97  C   UNL A   1      31.423  26.864  23.219  1.00  0.00     0.041 A 
ATOM     98  C   UNL A   1      33.765  27.844  22.044  1.00  0.00     0.003 A 
ATOM     99  C   UNL A   1      31.438  28.164  22.695  1.00  0.00     0.058 A 
ATOM    100  C   UNL A   1      32.612  28.636  22.085  1.00  0.00     0.013 A 
BRANCH  99 101
ATOM    101  C   UNL A   1      30.188  29.005  22.703  1.00  0.00     0.416 C 
ATOM    102  F   UNL A   1      29.987  29.640  23.893  1.00  0.00    -0.166 F 
ATOM    103  F   UNL A   1      30.199  29.982  21.755  1.00  0.00    -0.166 F 
ATOM    104  F   UNL A   1      29.050  28.285  22.477  1.00  0.00    -0.166 F 
ENDBRANCH  99 101
ENDBRANCH  84  95
ENDBRANCH  77  80
ENDBRANCH  75  76
ENDBRANCH  74  75
ENDBRANCH   1  74
TORSDOF 16
ENDMDL
MODEL 2
REMARK VINA RESULT:     -13.7      3.272      9.298
REMARK SMILES O=C(NCCCNC(=O)c1nnn(-c2cccc(C(F)(F)F)c2)c1[C@@H]1COc2ccccc2O1)c1ccc(-c2c3nc(c(-c4c(F)cc(S(=O)(=O)[O-])cc4F)c4ccc([nH]4)c(-c4c(F)cc(S(=O)(=O)[O-])cc4F)c4nc(c(-c5c(F)cc(S(=O)(=O)[O-])cc5F)c5ccc2[nH]5)C=C4)C=C3)cc1
REMARK SMILES IDX 4 1 3 2 1 3 2 4 35 6 36 7 100 8 37 9 99 10 38 11 39 12 40 13
REMARK SMILES IDX 93 14 41 15 98 16 92 17 94 18 42 19 97 20 91 21 90 22 43 24
REMARK SMILES IDX 77 25 56 26 76 27 57 28 60 29 75 30 95 31 58 32 59 33 74 35
REMARK SMILES IDX 96 36 61 37 44 38 45 39 54 40 46 41 47 42 53 43 55 44 48 45
REMARK SMILES IDX 49 46 50 47 51 48 52 49 78 50 79 51 88 52 80 53 81 54 87 55
REMARK SMILES IDX 89 56 82 57 83 58 84 59 85 60 86 61 62 62 63 63 72 64 64 65
REMARK SMILES IDX 65 66 71 67 73 68 66 69 67 70 68 71 69 72 70 73 5 74 6 75
REMARK SMILES IDX 7 76 8 77 9 79 10 80 11 81 24 82 12 83 13 84 25 85 26 86
REMARK SMILES IDX 34 87 27 88 33 89 28 90 32 91 29 92 31 93 30 94 14 95 15 96
REMARK SMILES IDX 23 97 16 98 18 99 17 100 19 101 20 102 21 103 22 104
REMARK H PARENT 3 5 94 23 60 34 7 78
REMARK Flexibility Score: inf
ROOT
ATOM      1  C   UNL A   1      32.981  30.324  27.422  1.00  0.00     0.118 C 
ENDROOT
BRANCH   1   2
ATOM      2  N   UNL A   1      33.585  31.629  27.625  1.00  0.00    -0.352 N 
ATOM      3  O   UNL A   1      34.898  33.360  27.903  1.00  0.00    -0.269 OA
ATOM      4  C   UNL A   1      34.827  32.126  27.907  1.00  0.00     0.251 C 
ATOM      5  H   UNL A   1      32.920  32.350  27.537  1.00  0.00     0.163 HD
BRANCH   4   6
ATOM      6  C   UNL A   1      36.058  31.346  28.233  1.00  0.00     0.039 A 
ATOM      7  C   UNL A   1      36.285  29.999  27.949  1.00  0.00     0.014 A 
ATOM      8  C   UNL A   1      37.085  32.066  28.882  1.00  0.00     0.014 A 
ATOM      9  C   UNL A   1      37.498  29.395  28.312  1.00  0.00     0.010 A 
ATOM     10  C   UNL A   1      38.292  31.468  29.248  1.00  0.00     0.010 A 
ATOM     11  C   UNL A   1      38.504  30.122  28.967  1.00  0.00    -0.014 A 
BRANCH  11  12
ATOM     12  C   UNL A   1      39.824  29.502  29.163  1.00  0.00     0.031 A 
ATOM     13  C   UNL A   1      40.228  29.316  30.590  1.00  0.00     0.074 A 
ATOM     14  C   UNL A   1      40.582  28.930  28.202  1.00  0.00     0.049 A 
ATOM     15  N   UNL A   1      41.241  29.825  31.214  1.00  0.00    -0.248 NA
ATOM     16  C   UNL A   1      39.341  28.515  31.449  1.00  0.00     0.031 C 
ATOM     17  C   UNL A   1      40.223  28.680  26.806  1.00  0.00     0.029 A 
ATOM     18  N   UNL A   1      41.821  28.354  28.311  1.00  0.00    -0.354 N 
ATOM     19  C   UNL A   1      41.235  29.258  32.492  1.00  0.00     0.074 A 
ATOM     20  C   UNL A   1      39.974  28.578  32.621  1.00  0.00     0.031 C 
ATOM     21  C   UNL A   1      41.128  27.836  26.257  1.00  0.00     0.029 A 
ATOM     22  C   UNL A   1      42.195  27.585  27.213  1.00  0.00     0.049 A 
ATOM     23  H   UNL A   1      42.397  28.474  29.099  1.00  0.00     0.167 HD
ATOM     24  C   UNL A   1      42.348  29.231  33.279  1.00  0.00     0.037 A 
ATOM     25  C   UNL A   1      43.274  26.764  27.111  1.00  0.00     0.037 A 
ATOM     26  C   UNL A   1      43.339  30.170  32.823  1.00  0.00     0.049 A 
ATOM     27  C   UNL A   1      44.254  27.171  28.148  1.00  0.00     0.074 A 
ATOM     28  C   UNL A   1      43.370  31.536  32.613  1.00  0.00     0.029 A 
ATOM     29  N   UNL A   1      44.458  29.676  32.198  1.00  0.00    -0.354 N 
ATOM     30  N   UNL A   1      44.934  28.284  28.129  1.00  0.00    -0.248 NA
ATOM     31  C   UNL A   1      44.230  26.479  29.426  1.00  0.00     0.031 C 
ATOM     32  C   UNL A   1      44.214  31.719  31.479  1.00  0.00     0.029 A 
ATOM     33  C   UNL A   1      44.679  30.461  31.096  1.00  0.00     0.049 A 
ATOM     34  H   UNL A   1      44.998  28.906  32.486  1.00  0.00     0.167 HD
ATOM     35  C   UNL A   1      45.058  28.644  29.460  1.00  0.00     0.074 A 
ATOM     36  C   UNL A   1      44.713  27.442  30.212  1.00  0.00     0.031 C 
ATOM     37  C   UNL A   1      45.158  29.953  29.830  1.00  0.00     0.037 A 
BRANCH  24  38
ATOM     38  C   UNL A   1      42.688  28.131  34.267  1.00  0.00     0.058 A 
ATOM     39  C   UNL A   1      42.817  28.447  35.639  1.00  0.00     0.135 A 
ATOM     40  C   UNL A   1      43.177  26.861  33.892  1.00  0.00     0.135 A 
ATOM     41  F   UNL A   1      42.383  29.625  36.115  1.00  0.00    -0.206 F 
ATOM     42  C   UNL A   1      43.467  27.608  36.546  1.00  0.00     0.059 A 
ATOM     43  C   UNL A   1      43.778  25.985  34.792  1.00  0.00     0.059 A 
ATOM     44  F   UNL A   1      43.187  26.446  32.621  1.00  0.00    -0.206 F 
ATOM     45  C   UNL A   1      43.965  26.387  36.104  1.00  0.00     0.060 A 
BRANCH  45  46
ATOM     46  S   UNL A   1      44.920  25.360  37.235  1.00  0.00     0.124 S 
ATOM     47  O   UNL A   1      44.658  24.028  36.704  1.00  0.00    -0.237 OA
ATOM     48  O   UNL A   1      46.274  25.870  37.042  1.00  0.00    -0.237 OA
ATOM     49  O   UNL A   1      44.325  25.652  38.535  1.00  0.00    -0.744 OA
ENDBRANCH  45  46
ENDBRANCH  24  38
BRANCH  25  50
ATOM     50  C   UNL A   1      43.430  25.491  26.354  1.00  0.00     0.058 A 
ATOM     51  C   UNL A   1      44.430  25.340  25.373  1.00  0.00     0.135 A 
ATOM     52  C   UNL A   1      42.802  24.304  26.781  1.00  0.00     0.135 A 
ATOM     53  F   UNL A   1      45.097  26.412  24.916  1.00  0.00    -0.206 F 
ATOM     54  C   UNL A   1      44.824  24.087  24.889  1.00  0.00     0.059 A 
ATOM     55  C   UNL A   1      43.168  23.045  26.303  1.00  0.00     0.059 A 
ATOM     56  F   UNL A   1      41.876  24.322  27.751  1.00  0.00    -0.206 F 
ATOM     57  C   UNL A   1      44.201  22.941  25.380  1.00  0.00     0.060 A 
BRANCH  57  58
ATOM     58  S   UNL A   1      44.835  21.313  24.910  1.00  0.00     0.124 S 
ATOM     59  O   UNL A   1      43.873  20.420  25.546  1.00  0.00    -0.237 OA
ATOM     60  O   UNL A   1      44.787  21.370  23.452  1.00  0.00    -0.237 OA
ATOM     61  O   UNL A   1      46.179  21.295  25.484  1.00  0.00    -0.744 OA
ENDBRANCH  57  58
ENDBRANCH  25  50
BRANCH  37  62
ATOM     62  C   UNL A   1      45.539  30.972  28.792  1.00  0.00     0.058 A 
ATOM     63  C   UNL A   1      44.653  31.538  27.858  1.00  0.00     0.135 A 
ATOM     64  C   UNL A   1      46.839  31.504  28.846  1.00  0.00     0.135 A 
ATOM     65  F   UNL A   1      43.365  31.167  27.813  1.00  0.00    -0.206 F 
ATOM     66  C   UNL A   1      45.055  32.556  26.992  1.00  0.00     0.059 A 
ATOM     67  C   UNL A   1      47.250  32.543  28.017  1.00  0.00     0.059 A 
ATOM     68  F   UNL A   1      47.716  31.046  29.755  1.00  0.00    -0.206 F 
ATOM     69  C   UNL A   1      46.354  33.056  27.081  1.00  0.00     0.060 A 
BRANCH  69  70
ATOM     70  S   UNL A   1      46.842  34.441  26.030  1.00  0.00     0.124 S 
ATOM     71  O   UNL A   1      48.181  34.037  25.597  1.00  0.00    -0.237 OA
ATOM     72  O   UNL A   1      45.814  34.425  24.988  1.00  0.00    -0.237 OA
ATOM     73  O   UNL A   1      46.793  35.586  26.923  1.00  0.00    -0.744 OA
ENDBRANCH  69  70
ENDBRANCH  37  62
ENDBRANCH  11  12
ENDBRANCH   4   6
ENDBRANCH   1   2
BRANCH   1  74
ATOM     74  C   UNL A   1      31.999  30.260  26.255  1.00  0.00     0.042 C 
BRANCH  74  75
ATOM     75  C   UNL A   1      32.578  29.684  24.959  1.00  0.00     0.118 C 
BRANCH  75  76
ATOM     76  N   UNL A   1      31.608  29.424  23.907  1.00  0.00    -0.351 N 
ATOM     77  C   UNL A   1      30.857  28.387  23.394  1.00  0.00     0.273 C 
ATOM     78  H   UNL A   1      31.433  30.249  23.400  1.00  0.00     0.163 HD
ATOM     79  O   UNL A   1      30.045  28.791  22.548  1.00  0.00    -0.267 OA
BRANCH  77  80
ATOM     80  C   UNL A   1      30.907  26.939  23.697  1.00  0.00     0.178 A 
ATOM     81  N   UNL A   1      29.700  26.250  23.609  1.00  0.00    -0.124 NA
ATOM     82  C   UNL A   1      31.884  25.993  24.013  1.00  0.00     0.122 A 
ATOM     83  N   UNL A   1      29.903  24.960  23.807  1.00  0.00    -0.061 NA
ATOM     84  N   UNL A   1      31.198  24.791  24.113  1.00  0.00    -0.213 N 
BRANCH  82  85
ATOM     85  C   UNL A   1      33.369  26.096  24.016  1.00  0.00     0.262 C 
ATOM     86  C   UNL A   1      33.903  25.804  22.601  1.00  0.00     0.281 C 
ATOM     87  O   UNL A   1      34.005  25.362  25.066  1.00  0.00    -0.477 OA
ATOM     88  O   UNL A   1      34.038  24.395  22.391  1.00  0.00    -0.485 OA
ATOM     89  C   UNL A   1      34.958  24.487  24.617  1.00  0.00     0.162 A 
ATOM     90  C   UNL A   1      34.923  23.938  23.333  1.00  0.00     0.161 A 
ATOM     91  C   UNL A   1      35.948  24.103  25.513  1.00  0.00     0.050 A 
ATOM     92  C   UNL A   1      35.799  22.925  22.972  1.00  0.00     0.050 A 
ATOM     93  C   UNL A   1      36.878  23.136  25.130  1.00  0.00     0.004 A 
ATOM     94  C   UNL A   1      36.785  22.529  23.874  1.00  0.00     0.004 A 
ENDBRANCH  82  85
BRANCH  84  95
ATOM     95  C   UNL A   1      31.667  23.534  24.538  1.00  0.00     0.067 A 
ATOM     96  C   UNL A   1      31.811  22.504  23.606  1.00  0.00     0.028 A 
ATOM     97  C   UNL A   1      32.141  23.400  25.848  1.00  0.00     0.041 A 
ATOM     98  C   UNL A   1      32.526  21.362  23.971  1.00  0.00     0.003 A 
ATOM     99  C   UNL A   1      32.846  22.247  26.219  1.00  0.00     0.058 A 
ATOM    100  C   UNL A   1      33.054  21.242  25.260  1.00  0.00     0.013 A 
BRANCH  99 101
ATOM    101  C   UNL A   1      33.450  22.130  27.595  1.00  0.00     0.416 C 
ATOM    102  F   UNL A   1      34.343  21.104  27.694  1.00  0.00    -0.166 F 
ATOM    103  F   UNL A   1      34.122  23.250  27.978  1.00  0.00    -0.166 F 
ATOM    104  F   UNL A   1      32.524  21.902  28.573  1.00  0.00    -0.166 F 
ENDBRANCH  99 101
ENDBRANCH  84  95
ENDBRANCH  77  80
ENDBRANCH  75  76
ENDBRANCH  74  75
ENDBRANCH   1  74
TORSDOF 16
ENDMDL
MODEL 3
REMARK VINA RESULT:     -13.6      3.373      9.265
REMARK SMILES O=C(NCCCNC(=O)c1nnn(-c2cccc(C(F)(F)F)c2)c1[C@@H]1COc2ccccc2O1)c1ccc(-c2c3nc(c(-c4c(F)cc(S(=O)(=O)[O-])cc4F)c4ccc([nH]4)c(-c4c(F)cc(S(=O)(=O)[O-])cc4F)c4nc(c(-c5c(F)cc(S(=O)(=O)[O-])cc5F)c5ccc2[nH]5)C=C4)C=C3)cc1
REMARK SMILES IDX 4 1 3 2 1 3 2 4 35 6 36 7 100 8 37 9 99 10 38 11 39 12 40 13
REMARK SMILES IDX 93 14 41 15 98 16 92 17 94 18 42 19 97 20 91 21 90 22 43 24
REMARK SMILES IDX 77 25 56 26 76 27 57 28 60 29 75 30 95 31 58 32 59 33 74 35
REMARK SMILES IDX 96 36 61 37 44 38 45 39 54 40 46 41 47 42 53 43 55 44 48 45
REMARK SMILES IDX 49 46 50 47 51 48 52 49 78 50 79 51 88 52 80 53 81 54 87 55
REMARK SMILES IDX 89 56 82 57 83 58 84 59 85 60 86 61 62 62 63 63 72 64 64 65
REMARK SMILES IDX 65 66 71 67 73 68 66 69 67 70 68 71 69 72 70 73 5 74 6 75
REMARK SMILES IDX 7 76 8 77 9 79 10 80 11 81 24 82 12 83 13 84 25 85 26 86
REMARK SMILES IDX 34 87 27 88 33 89 28 90 32 91 29 92 31 93 30 94 14 95 15 96
REMARK SMILES IDX 23 97 16 98 18 99 17 100 19 101 20 102 21 103 22 104
REMARK H PARENT 3 5 94 23 60 34 7 78
REMARK Flexibility Score: inf
ROOT
ATOM      1  C   UNL A   1      33.078  29.957  26.647  1.00  0.00     0.118 C 
ENDROOT
BRANCH   1   2
ATOM      2  N   UNL A   1      33.391  31.183  27.359  1.00  0.00    -0.352 N 
ATOM      3  O   UNL A   1      34.301  32.868  28.422  1.00  0.00    -0.269 OA
ATOM      4  C   UNL A   1      34.458  31.704  28.037  1.00  0.00     0.251 C 
ATOM      5  H   UNL A   1      32.629  31.806  27.353  1.00  0.00     0.163 HD
BRANCH   4   6
ATOM      6  C   UNL A   1      35.740  31.014  28.368  1.00  0.00     0.039 A 
ATOM      7  C   UNL A   1      35.971  29.639  28.348  1.00  0.00     0.014 A 
ATOM      8  C   UNL A   1      36.815  31.860  28.721  1.00  0.00     0.014 A 
ATOM      9  C   UNL A   1      37.235  29.129  28.680  1.00  0.00     0.010 A 
ATOM     10  C   UNL A   1      38.074  31.356  29.055  1.00  0.00     0.010 A 
ATOM     11  C   UNL A   1      38.290  29.982  29.040  1.00  0.00    -0.014 A 
BRANCH  11  12
ATOM     12  C   UNL A   1      39.641  29.422  29.200  1.00  0.00     0.031 A 
ATOM     13  C   UNL A   1      40.101  29.279  30.616  1.00  0.00     0.074 A 
ATOM     14  C   UNL A   1      40.389  28.865  28.223  1.00  0.00     0.049 A 
ATOM     15  N   UNL A   1      41.112  29.841  31.195  1.00  0.00    -0.248 NA
ATOM     16  C   UNL A   1      39.279  28.457  31.518  1.00  0.00     0.031 C 
ATOM     17  C   UNL A   1      39.995  28.575  26.844  1.00  0.00     0.029 A 
ATOM     18  N   UNL A   1      41.655  28.344  28.298  1.00  0.00    -0.354 N 
ATOM     19  C   UNL A   1      41.174  29.297  32.481  1.00  0.00     0.074 A 
ATOM     20  C   UNL A   1      39.948  28.567  32.666  1.00  0.00     0.031 C 
ATOM     21  C   UNL A   1      40.915  27.760  26.278  1.00  0.00     0.029 A 
ATOM     22  C   UNL A   1      42.024  27.572  27.201  1.00  0.00     0.049 A 
ATOM     23  H   UNL A   1      42.252  28.502  29.064  1.00  0.00     0.167 HD
ATOM     24  C   UNL A   1      42.313  29.332  33.230  1.00  0.00     0.037 A 
ATOM     25  C   UNL A   1      43.133  26.795  27.075  1.00  0.00     0.037 A 
ATOM     26  C   UNL A   1      43.247  30.303  32.724  1.00  0.00     0.049 A 
ATOM     27  C   UNL A   1      44.130  27.261  28.071  1.00  0.00     0.074 A 
ATOM     28  C   UNL A   1      43.212  31.665  32.490  1.00  0.00     0.029 A 
ATOM     29  N   UNL A   1      44.364  29.846  32.068  1.00  0.00    -0.354 N 
ATOM     30  N   UNL A   1      44.760  28.401  28.009  1.00  0.00    -0.248 NA
ATOM     31  C   UNL A   1      44.179  26.592  29.360  1.00  0.00     0.031 C 
ATOM     32  C   UNL A   1      44.009  31.863  31.325  1.00  0.00     0.029 A 
ATOM     33  C   UNL A   1      44.514  30.619  30.947  1.00  0.00     0.049 A 
ATOM     34  H   UNL A   1      44.946  29.104  32.350  1.00  0.00     0.167 HD
ATOM     35  C   UNL A   1      44.914  28.790  29.329  1.00  0.00     0.074 A 
ATOM     36  C   UNL A   1      44.647  27.589  30.112  1.00  0.00     0.031 C 
ATOM     37  C   UNL A   1      44.971  30.109  29.673  1.00  0.00     0.037 A 
BRANCH  24  38
ATOM     38  C   UNL A   1      42.734  28.265  34.223  1.00  0.00     0.058 A 
ATOM     39  C   UNL A   1      42.926  28.617  35.578  1.00  0.00     0.135 A 
ATOM     40  C   UNL A   1      43.235  26.998  33.853  1.00  0.00     0.135 A 
ATOM     41  F   UNL A   1      42.488  29.796  36.050  1.00  0.00    -0.206 F 
ATOM     42  C   UNL A   1      43.645  27.817  36.468  1.00  0.00     0.059 A 
ATOM     43  C   UNL A   1      43.905  26.160  34.739  1.00  0.00     0.059 A 
ATOM     44  F   UNL A   1      43.188  26.553  32.592  1.00  0.00    -0.206 F 
ATOM     45  C   UNL A   1      44.151  26.598  36.030  1.00  0.00     0.060 A 
BRANCH  45  46
ATOM     46  S   UNL A   1      45.191  25.624  37.131  1.00  0.00     0.124 S 
ATOM     47  O   UNL A   1      44.534  25.843  38.414  1.00  0.00    -0.237 OA
ATOM     48  O   UNL A   1      45.063  24.284  36.567  1.00  0.00    -0.237 OA
ATOM     49  O   UNL A   1      46.506  26.239  36.979  1.00  0.00    -0.744 OA
ENDBRANCH  45  46
ENDBRANCH  24  38
BRANCH  25  50
ATOM     50  C   UNL A   1      43.317  25.516  26.335  1.00  0.00     0.058 A 
ATOM     51  C   UNL A   1      44.334  25.368  25.370  1.00  0.00     0.135 A 
ATOM     52  C   UNL A   1      42.699  24.325  26.764  1.00  0.00     0.135 A 
ATOM     53  F   UNL A   1      44.994  26.443  24.912  1.00  0.00    -0.206 F 
ATOM     54  C   UNL A   1      44.752  24.116  24.906  1.00  0.00     0.059 A 
ATOM     55  C   UNL A   1      43.088  23.066  26.306  1.00  0.00     0.059 A 
ATOM     56  F   UNL A   1      41.758  24.341  27.719  1.00  0.00    -0.206 F 
ATOM     57  C   UNL A   1      44.137  22.966  25.399  1.00  0.00     0.060 A 
BRANCH  57  58
ATOM     58  S   UNL A   1      44.799  21.342  24.957  1.00  0.00     0.124 S 
ATOM     59  O   UNL A   1      44.659  21.344  23.506  1.00  0.00    -0.237 OA
ATOM     60  O   UNL A   1      46.164  21.415  25.468  1.00  0.00    -0.237 OA
ATOM     61  O   UNL A   1      43.922  20.414  25.669  1.00  0.00    -0.744 OA
ENDBRANCH  57  58
ENDBRANCH  25  50
BRANCH  37  62
ATOM     62  C   UNL A   1      45.273  31.124  28.606  1.00  0.00     0.058 A 
ATOM     63  C   UNL A   1      44.324  31.663  27.719  1.00  0.00     0.135 A 
ATOM     64  C   UNL A   1      46.563  31.681  28.581  1.00  0.00     0.135 A 
ATOM     65  F   UNL A   1      43.043  31.267  27.750  1.00  0.00    -0.206 F 
ATOM     66  C   UNL A   1      44.656  32.680  26.822  1.00  0.00     0.059 A 
ATOM     67  C   UNL A   1      46.905  32.719  27.720  1.00  0.00     0.059 A 
ATOM     68  F   UNL A   1      47.499  31.249  29.443  1.00  0.00    -0.206 F 
ATOM     69  C   UNL A   1      45.948  33.205  26.832  1.00  0.00     0.060 A 
BRANCH  69  70
ATOM     70  S   UNL A   1      46.349  34.588  25.742  1.00  0.00     0.124 S 
ATOM     71  O   UNL A   1      46.009  35.741  26.576  1.00  0.00    -0.237 OA
ATOM     72  O   UNL A   1      47.779  34.392  25.495  1.00  0.00    -0.237 OA
ATOM     73  O   UNL A   1      45.492  34.377  24.587  1.00  0.00    -0.744 OA
ENDBRANCH  69  70
ENDBRANCH  37  62
ENDBRANCH  11  12
ENDBRANCH   4   6
ENDBRANCH   1   2
BRANCH   1  74
ATOM     74  C   UNL A   1      32.010  29.096  27.316  1.00  0.00     0.042 C 
BRANCH  74  75
ATOM     75  C   UNL A   1      32.139  27.592  27.052  1.00  0.00     0.118 C 
BRANCH  75  76
ATOM     76  N   UNL A   1      30.885  26.891  26.826  1.00  0.00    -0.351 N 
ATOM     77  C   UNL A   1      30.411  25.611  26.624  1.00  0.00     0.273 C 
ATOM     78  H   UNL A   1      30.139  27.532  26.813  1.00  0.00     0.163 HD
ATOM     79  O   UNL A   1      29.171  25.580  26.642  1.00  0.00    -0.267 OA
BRANCH  77  80
ATOM     80  C   UNL A   1      31.151  24.352  26.385  1.00  0.00     0.178 A 
ATOM     81  N   UNL A   1      30.913  23.319  27.287  1.00  0.00    -0.124 NA
ATOM     82  C   UNL A   1      32.033  23.850  25.426  1.00  0.00     0.122 A 
ATOM     83  N   UNL A   1      31.557  22.231  26.905  1.00  0.00    -0.061 NA
ATOM     84  N   UNL A   1      32.287  22.545  25.824  1.00  0.00    -0.213 N 
BRANCH  82  85
ATOM     85  C   UNL A   1      32.464  24.410  24.117  1.00  0.00     0.262 C 
ATOM     86  C   UNL A   1      33.969  24.739  24.174  1.00  0.00     0.281 C 
ATOM     87  O   UNL A   1      31.633  25.465  23.628  1.00  0.00    -0.477 OA
ATOM     88  O   UNL A   1      34.183  26.030  24.756  1.00  0.00    -0.485 OA
ATOM     89  C   UNL A   1      32.323  26.611  23.335  1.00  0.00     0.162 A 
ATOM     90  C   UNL A   1      33.532  26.935  23.959  1.00  0.00     0.161 A 
ATOM     91  C   UNL A   1      31.748  27.492  22.429  1.00  0.00     0.050 A 
ATOM     92  C   UNL A   1      34.114  28.180  23.770  1.00  0.00     0.050 A 
ATOM     93  C   UNL A   1      32.368  28.717  22.180  1.00  0.00     0.004 A 
ATOM     94  C   UNL A   1      33.531  29.071  22.870  1.00  0.00     0.004 A 
ENDBRANCH  82  85
BRANCH  84  95
ATOM     95  C   UNL A   1      33.206  21.619  25.297  1.00  0.00     0.067 A 
ATOM     96  C   UNL A   1      34.560  21.738  25.616  1.00  0.00     0.028 A 
ATOM     97  C   UNL A   1      32.717  20.502  24.610  1.00  0.00     0.041 A 
ATOM     98  C   UNL A   1      35.416  20.676  25.322  1.00  0.00     0.003 A 
ATOM     99  C   UNL A   1      33.580  19.441  24.301  1.00  0.00     0.058 A 
ATOM    100  C   UNL A   1      34.928  19.529  24.686  1.00  0.00     0.013 A 
BRANCH  99 101
ATOM    101  C   UNL A   1      33.050  18.189  23.650  1.00  0.00     0.416 C 
ATOM    102  F   UNL A   1      32.339  18.445  22.515  1.00  0.00    -0.166 F 
ATOM    103  F   UNL A   1      34.034  17.321  23.288  1.00  0.00    -0.166 F 
ATOM    104  F   UNL A   1      32.208  17.477  24.455  1.00  0.00    -0.166 F 
ENDBRANCH  99 101
ENDBRANCH  84  95
ENDBRANCH  77  80
ENDBRANCH  75  76
ENDBRANCH  74  75
ENDBRANCH   1  74
TORSDOF 16
ENDMDL
