MODEL 1
REMARK VINA RESULT:     -12.2      0.000      0.000
REMARK SMILES CO[C@@H]1C[C@H](C(=O)NCCCNC(=O)c2ccc(-c3c4nc(c(-c5c(F)cc(S(=O)(=O)[O-])cc5F)c5ccc([nH]5)c(-c5c(F)cc(S(=O)(=O)[O-])cc5F)c5nc(c(-c6c(F)cc(S(=O)(=O)[O-])cc6F)c6ccc3[nH]6)C=C5)C=C4)cc2)N(C(=O)c2ncc(Cl)c(Cl)c2Cl)C1
REMARK SMILES IDX 10 1 9 2 8 3 6 4 7 5 5 7 3 8 4 9 93 10 81 11 2 12 1 13 82 14
REMARK SMILES IDX 83 15 84 16 85 17 91 18 86 19 89 20 92 21 87 22 90 23 88 24
REMARK SMILES IDX 11 25 12 26 13 27 14 29 15 30 16 31 80 32 17 33 79 34 18 35
REMARK SMILES IDX 19 36 20 37 73 38 21 39 78 40 72 41 74 42 22 43 77 44 71 45
REMARK SMILES IDX 70 46 23 48 57 49 36 50 56 51 37 52 40 53 55 54 75 55 38 56
REMARK SMILES IDX 39 57 54 59 76 60 41 61 24 62 25 63 34 64 26 65 27 66 33 67
REMARK SMILES IDX 35 68 28 69 29 70 30 71 31 72 32 73 58 74 59 75 68 76 60 77
REMARK SMILES IDX 61 78 67 79 69 80 62 81 63 82 64 83 65 84 66 85 42 86 43 87
REMARK SMILES IDX 52 88 44 89 45 90 51 91 53 92 46 93 47 94 48 95 49 96 50 97
REMARK H PARENT 8 6 12 28 74 47 40 58
REMARK Flexibility Score: inf
ROOT
ATOM      1  C   UNL A   1      39.172  21.775  26.111  1.00  0.00     0.042 C 
ENDROOT
BRANCH   1   2
ATOM      2  C   UNL A   1      37.852  21.957  25.367  1.00  0.00     0.117 C 
BRANCH   2   3
ATOM      3  N   UNL A   1      36.712  21.963  26.261  1.00  0.00    -0.354 N 
ATOM      4  C   UNL A   1      35.409  21.646  26.050  1.00  0.00     0.242 C 
ATOM      5  O   UNL A   1      34.657  21.709  27.032  1.00  0.00    -0.273 OA
ATOM      6  H   UNL A   1      36.919  22.245  27.181  1.00  0.00     0.163 HD
BRANCH   4   7
ATOM      7  C   UNL A   1      34.809  21.250  24.679  1.00  0.00     0.177 C 
ATOM      8  C   UNL A   1      32.470  20.647  24.219  1.00  0.00     0.139 C 
ATOM      9  C   UNL A   1      33.816  20.092  24.698  1.00  0.00     0.069 C 
ATOM     10  C   UNL A   1      32.761  22.052  23.682  1.00  0.00     0.152 C 
ATOM     11  N   UNL A   1      34.170  22.312  23.910  1.00  0.00    -0.323 N 
BRANCH   8  12
ATOM     12  O   UNL A   1      31.576  20.653  25.326  1.00  0.00    -0.380 OA
ATOM     13  C   UNL A   1      31.151  21.952  25.716  1.00  0.00     0.195 C 
ENDBRANCH   8  12
BRANCH  11  14
ATOM     14  C   UNL A   1      34.785  23.342  23.209  1.00  0.00     0.274 C 
ATOM     15  O   UNL A   1      35.886  23.216  22.676  1.00  0.00    -0.267 OA
BRANCH  14  16
ATOM     16  C   UNL A   1      34.144  24.683  23.168  1.00  0.00     0.148 A 
ATOM     17  N   UNL A   1      33.698  25.072  21.943  1.00  0.00    -0.248 NA
ATOM     18  C   UNL A   1      34.135  25.501  24.299  1.00  0.00     0.092 A 
ATOM     19  C   UNL A   1      33.199  26.325  21.850  1.00  0.00     0.134 A 
ATOM     20  C   UNL A   1      33.574  26.779  24.166  1.00  0.00     0.082 A 
ATOM     21  Cl  UNL A   1      34.835  24.977  25.799  1.00  0.00    -0.080 Cl
ATOM     22  C   UNL A   1      33.107  27.205  22.918  1.00  0.00     0.079 A 
ATOM     23  Cl  UNL A   1      33.467  27.840  25.541  1.00  0.00    -0.081 Cl
ATOM     24  Cl  UNL A   1      32.452  28.776  22.636  1.00  0.00    -0.081 Cl
ENDBRANCH  14  16
ENDBRANCH  11  14
ENDBRANCH   4   7
ENDBRANCH   2   3
ENDBRANCH   1   2
BRANCH   1  25
ATOM     25  C   UNL A   1      39.720  23.061  26.712  1.00  0.00     0.118 C 
BRANCH  25  26
ATOM     26  N   UNL A   1      40.977  23.453  26.086  1.00  0.00    -0.352 N 
ATOM     27  C   UNL A   1      41.708  24.614  26.152  1.00  0.00     0.251 C 
ATOM     28  H   UNL A   1      41.374  22.759  25.511  1.00  0.00     0.163 HD
ATOM     29  O   UNL A   1      42.575  24.805  25.300  1.00  0.00    -0.269 OA
BRANCH  27  30
ATOM     30  C   UNL A   1      41.490  25.630  27.213  1.00  0.00     0.039 A 
ATOM     31  C   UNL A   1      42.349  26.736  27.277  1.00  0.00     0.014 A 
ATOM     32  C   UNL A   1      40.521  25.467  28.203  1.00  0.00     0.014 A 
ATOM     33  C   UNL A   1      42.214  27.677  28.305  1.00  0.00     0.010 A 
ATOM     34  C   UNL A   1      40.313  26.460  29.157  1.00  0.00     0.010 A 
ATOM     35  C   UNL A   1      41.180  27.559  29.244  1.00  0.00    -0.014 A 
BRANCH  35  36
ATOM     36  C   UNL A   1      41.019  28.519  30.370  1.00  0.00     0.031 A 
ATOM     37  C   UNL A   1      41.905  28.398  31.586  1.00  0.00     0.074 A 
ATOM     38  C   UNL A   1      40.040  29.444  30.337  1.00  0.00     0.049 A 
ATOM     39  N   UNL A   1      41.841  29.036  32.727  1.00  0.00    -0.248 NA
ATOM     40  C   UNL A   1      42.981  27.394  31.527  1.00  0.00     0.031 C 
ATOM     41  C   UNL A   1      39.089  29.635  29.242  1.00  0.00     0.029 A 
ATOM     42  N   UNL A   1      39.675  30.393  31.260  1.00  0.00    -0.354 N 
ATOM     43  C   UNL A   1      42.837  28.484  33.528  1.00  0.00     0.074 A 
ATOM     44  C   UNL A   1      43.453  27.422  32.764  1.00  0.00     0.031 C 
ATOM     45  C   UNL A   1      38.264  30.651  29.545  1.00  0.00     0.029 A 
ATOM     46  C   UNL A   1      38.600  31.158  30.871  1.00  0.00     0.049 A 
ATOM     47  H   UNL A   1      40.138  30.514  32.120  1.00  0.00     0.167 HD
ATOM     48  C   UNL A   1      43.223  28.846  34.775  1.00  0.00     0.037 A 
ATOM     49  C   UNL A   1      37.955  32.150  31.515  1.00  0.00     0.037 A 
ATOM     50  C   UNL A   1      42.646  29.944  35.505  1.00  0.00     0.049 A 
ATOM     51  C   UNL A   1      38.429  32.566  32.881  1.00  0.00     0.074 A 
ATOM     52  C   UNL A   1      43.004  30.437  36.747  1.00  0.00     0.029 A 
ATOM     53  N   UNL A   1      41.597  30.731  35.049  1.00  0.00    -0.354 N 
ATOM     54  N   UNL A   1      39.398  32.059  33.606  1.00  0.00    -0.248 NA
ATOM     55  C   UNL A   1      37.732  33.695  33.512  1.00  0.00     0.031 C 
ATOM     56  C   UNL A   1      42.153  31.504  37.055  1.00  0.00     0.029 A 
ATOM     57  C   UNL A   1      41.294  31.703  35.987  1.00  0.00     0.049 A 
ATOM     58  H   UNL A   1      41.138  30.614  34.186  1.00  0.00     0.167 HD
ATOM     59  C   UNL A   1      39.450  32.828  34.764  1.00  0.00     0.074 A 
ATOM     60  C   UNL A   1      38.419  33.838  34.637  1.00  0.00     0.031 C 
ATOM     61  C   UNL A   1      40.277  32.712  35.832  1.00  0.00     0.037 A 
BRANCH  48  62
ATOM     62  C   UNL A   1      44.331  28.057  35.422  1.00  0.00     0.058 A 
ATOM     63  C   UNL A   1      45.681  28.409  35.260  1.00  0.00     0.135 A 
ATOM     64  C   UNL A   1      44.039  26.948  36.233  1.00  0.00     0.135 A 
ATOM     65  F   UNL A   1      46.020  29.450  34.484  1.00  0.00    -0.206 F 
ATOM     66  C   UNL A   1      46.703  27.669  35.847  1.00  0.00     0.059 A 
ATOM     67  C   UNL A   1      45.044  26.212  36.856  1.00  0.00     0.059 A 
ATOM     68  F   UNL A   1      42.767  26.566  36.425  1.00  0.00    -0.206 F 
ATOM     69  C   UNL A   1      46.374  26.571  36.642  1.00  0.00     0.060 A 
BRANCH  69  70
ATOM     70  S   UNL A   1      47.710  25.620  37.398  1.00  0.00     0.124 S 
ATOM     71  O   UNL A   1      47.925  26.360  38.641  1.00  0.00    -0.237 OA
ATOM     72  O   UNL A   1      47.105  24.298  37.548  1.00  0.00    -0.237 OA
ATOM     73  O   UNL A   1      48.786  25.706  36.422  1.00  0.00    -0.744 OA
ENDBRANCH  69  70
ENDBRANCH  48  62
BRANCH  49  74
ATOM     74  C   UNL A   1      36.814  32.843  30.858  1.00  0.00     0.058 A 
ATOM     75  C   UNL A   1      35.490  32.542  31.210  1.00  0.00     0.135 A 
ATOM     76  C   UNL A   1      37.021  33.831  29.882  1.00  0.00     0.135 A 
ATOM     77  F   UNL A   1      35.240  31.602  32.134  1.00  0.00    -0.206 F 
ATOM     78  C   UNL A   1      34.411  33.178  30.607  1.00  0.00     0.059 A 
ATOM     79  C   UNL A   1      35.959  34.501  29.283  1.00  0.00     0.059 A 
ATOM     80  F   UNL A   1      38.269  34.172  29.524  1.00  0.00    -0.206 F 
ATOM     81  C   UNL A   1      34.657  34.160  29.644  1.00  0.00     0.060 A 
BRANCH  81  82
ATOM     82  S   UNL A   1      33.249  35.016  28.903  1.00  0.00     0.124 S 
ATOM     83  O   UNL A   1      32.415  35.275  30.071  1.00  0.00    -0.237 OA
ATOM     84  O   UNL A   1      33.883  36.184  28.298  1.00  0.00    -0.237 OA
ATOM     85  O   UNL A   1      32.723  34.037  27.956  1.00  0.00    -0.744 OA
ENDBRANCH  81  82
ENDBRANCH  49  74
BRANCH  61  86
ATOM     86  C   UNL A   1      40.139  33.733  36.926  1.00  0.00     0.058 A 
ATOM     87  C   UNL A   1      39.260  33.552  38.003  1.00  0.00     0.135 A 
ATOM     88  C   UNL A   1      40.940  34.887  36.918  1.00  0.00     0.135 A 
ATOM     89  F   UNL A   1      38.470  32.467  38.055  1.00  0.00    -0.206 F 
ATOM     90  C   UNL A   1      39.159  34.492  39.023  1.00  0.00     0.059 A 
ATOM     91  C   UNL A   1      40.876  35.828  37.940  1.00  0.00     0.059 A 
ATOM     92  F   UNL A   1      41.807  35.102  35.915  1.00  0.00    -0.206 F 
ATOM     93  C   UNL A   1      39.971  35.626  38.983  1.00  0.00     0.060 A 
BRANCH  93  94
ATOM     94  S   UNL A   1      39.852  36.827  40.326  1.00  0.00     0.124 S 
ATOM     95  O   UNL A   1      39.855  38.088  39.593  1.00  0.00    -0.237 OA
ATOM     96  O   UNL A   1      38.588  36.464  40.958  1.00  0.00    -0.237 OA
ATOM     97  O   UNL A   1      41.044  36.561  41.126  1.00  0.00    -0.744 OA
ENDBRANCH  93  94
ENDBRANCH  61  86
ENDBRANCH  35  36
ENDBRANCH  27  30
ENDBRANCH  25  26
ENDBRANCH   1  25
TORSDOF 16
ENDMDL
MODEL 2
REMARK VINA RESULT:     -12.2      1.778      3.258
REMARK SMILES CO[C@@H]1C[C@H](C(=O)NCCCNC(=O)c2ccc(-c3c4nc(c(-c5c(F)cc(S(=O)(=O)[O-])cc5F)c5ccc([nH]5)c(-c5c(F)cc(S(=O)(=O)[O-])cc5F)c5nc(c(-c6c(F)cc(S(=O)(=O)[O-])cc6F)c6ccc3[nH]6)C=C5)C=C4)cc2)N(C(=O)c2ncc(Cl)c(Cl)c2Cl)C1
REMARK SMILES IDX 10 1 9 2 8 3 6 4 7 5 5 7 3 8 4 9 93 10 81 11 2 12 1 13 82 14
REMARK SMILES IDX 83 15 84 16 85 17 91 18 86 19 89 20 92 21 87 22 90 23 88 24
REMARK SMILES IDX 11 25 12 26 13 27 14 29 15 30 16 31 80 32 17 33 79 34 18 35
REMARK SMILES IDX 19 36 20 37 73 38 21 39 78 40 72 41 74 42 22 43 77 44 71 45
REMARK SMILES IDX 70 46 23 48 57 49 36 50 56 51 37 52 40 53 55 54 75 55 38 56
REMARK SMILES IDX 39 57 54 59 76 60 41 61 24 62 25 63 34 64 26 65 27 66 33 67
REMARK SMILES IDX 35 68 28 69 29 70 30 71 31 72 32 73 58 74 59 75 68 76 60 77
REMARK SMILES IDX 61 78 67 79 69 80 62 81 63 82 64 83 65 84 66 85 42 86 43 87
REMARK SMILES IDX 52 88 44 89 45 90 51 91 53 92 46 93 47 94 48 95 49 96 50 97
REMARK H PARENT 8 6 12 28 74 47 40 58
REMARK Flexibility Score: inf
ROOT
ATOM      1  C   UNL A   1      37.490  23.677  25.397  1.00  0.00     0.042 C 
ENDROOT
BRANCH   1   2
ATOM      2  C   UNL A   1      36.008  23.740  25.758  1.00  0.00     0.117 C 
BRANCH   2   3
ATOM      3  N   UNL A   1      35.195  24.236  24.666  1.00  0.00    -0.354 N 
ATOM      4  C   UNL A   1      34.110  25.051  24.658  1.00  0.00     0.242 C 
ATOM      5  O   UNL A   1      33.640  25.339  23.548  1.00  0.00    -0.273 OA
ATOM      6  H   UNL A   1      35.480  23.929  23.775  1.00  0.00     0.163 HD
BRANCH   4   7
ATOM      7  C   UNL A   1      33.415  25.607  25.924  1.00  0.00     0.177 C 
ATOM      8  C   UNL A   1      32.113  27.685  26.093  1.00  0.00     0.139 C 
ATOM      9  C   UNL A   1      33.533  27.111  26.141  1.00  0.00     0.069 C 
ATOM     10  C   UNL A   1      31.170  26.478  26.109  1.00  0.00     0.152 C 
ATOM     11  N   UNL A   1      32.001  25.288  26.091  1.00  0.00    -0.323 N 
BRANCH   8  12
ATOM     12  O   UNL A   1      31.991  28.464  24.908  1.00  0.00    -0.380 OA
ATOM     13  C   UNL A   1      32.897  29.556  24.839  1.00  0.00     0.195 C 
ENDBRANCH   8  12
BRANCH  11  14
ATOM     14  C   UNL A   1      31.441  24.073  26.462  1.00  0.00     0.274 C 
ATOM     15  O   UNL A   1      30.519  23.987  27.272  1.00  0.00    -0.267 OA
BRANCH  14  16
ATOM     16  C   UNL A   1      32.025  22.808  25.940  1.00  0.00     0.148 A 
ATOM     17  N   UNL A   1      32.877  22.172  26.789  1.00  0.00    -0.248 NA
ATOM     18  C   UNL A   1      31.787  22.408  24.624  1.00  0.00     0.092 A 
ATOM     19  C   UNL A   1      33.500  21.072  26.309  1.00  0.00     0.134 A 
ATOM     20  C   UNL A   1      32.426  21.241  24.181  1.00  0.00     0.082 A 
ATOM     21  Cl  UNL A   1      30.781  23.342  23.561  1.00  0.00    -0.080 Cl
ATOM     22  C   UNL A   1      33.307  20.565  25.032  1.00  0.00     0.079 A 
ATOM     23  Cl  UNL A   1      32.138  20.636  22.575  1.00  0.00    -0.081 Cl
ATOM     24  Cl  UNL A   1      34.184  19.155  24.566  1.00  0.00    -0.081 Cl
ENDBRANCH  14  16
ENDBRANCH  11  14
ENDBRANCH   4   7
ENDBRANCH   2   3
ENDBRANCH   1   2
BRANCH   1  25
ATOM     25  C   UNL A   1      38.418  24.052  26.544  1.00  0.00     0.118 C 
BRANCH  25  26
ATOM     26  N   UNL A   1      39.813  24.072  26.119  1.00  0.00    -0.352 N 
ATOM     27  C   UNL A   1      40.842  24.937  26.403  1.00  0.00     0.251 C 
ATOM     28  H   UNL A   1      40.063  23.332  25.520  1.00  0.00     0.163 HD
ATOM     29  O   UNL A   1      41.842  24.906  25.687  1.00  0.00    -0.269 OA
BRANCH  27  30
ATOM     30  C   UNL A   1      40.785  25.892  27.539  1.00  0.00     0.039 A 
ATOM     31  C   UNL A   1      39.719  25.801  28.445  1.00  0.00     0.014 A 
ATOM     32  C   UNL A   1      41.702  26.934  27.676  1.00  0.00     0.014 A 
ATOM     33  C   UNL A   1      39.597  26.728  29.488  1.00  0.00     0.010 A 
ATOM     34  C   UNL A   1      41.646  27.784  28.777  1.00  0.00     0.010 A 
ATOM     35  C   UNL A   1      40.573  27.717  29.677  1.00  0.00    -0.014 A 
BRANCH  35  36
ATOM     36  C   UNL A   1      40.467  28.739  30.753  1.00  0.00     0.031 A 
ATOM     37  C   UNL A   1      41.350  28.635  31.972  1.00  0.00     0.074 A 
ATOM     38  C   UNL A   1      39.537  29.711  30.675  1.00  0.00     0.049 A 
ATOM     39  N   UNL A   1      41.324  29.331  33.080  1.00  0.00    -0.248 NA
ATOM     40  C   UNL A   1      42.373  27.574  31.962  1.00  0.00     0.031 C 
ATOM     41  C   UNL A   1      38.591  29.895  29.573  1.00  0.00     0.029 A 
ATOM     42  N   UNL A   1      39.224  30.722  31.549  1.00  0.00    -0.354 N 
ATOM     43  C   UNL A   1      42.293  28.770  33.906  1.00  0.00     0.074 A 
ATOM     44  C   UNL A   1      42.851  27.641  33.196  1.00  0.00     0.031 C 
ATOM     45  C   UNL A   1      37.821  30.966  29.826  1.00  0.00     0.029 A 
ATOM     46  C   UNL A   1      38.188  31.520  31.124  1.00  0.00     0.049 A 
ATOM     47  H   UNL A   1      39.696  30.862  32.402  1.00  0.00     0.167 HD
ATOM     48  C   UNL A   1      42.703  29.174  35.133  1.00  0.00     0.037 A 
ATOM     49  C   UNL A   1      37.597  32.576  31.718  1.00  0.00     0.037 A 
ATOM     50  C   UNL A   1      42.185  30.335  35.807  1.00  0.00     0.049 A 
ATOM     51  C   UNL A   1      38.098  33.035  33.060  1.00  0.00     0.074 A 
ATOM     52  C   UNL A   1      42.573  30.871  37.022  1.00  0.00     0.029 A 
ATOM     53  N   UNL A   1      41.176  31.151  35.313  1.00  0.00    -0.354 N 
ATOM     54  N   UNL A   1      39.042  32.516  33.809  1.00  0.00    -0.248 NA
ATOM     55  C   UNL A   1      37.462  34.228  33.635  1.00  0.00     0.031 C 
ATOM     56  C   UNL A   1      41.779  31.994  37.278  1.00  0.00     0.029 A 
ATOM     57  C   UNL A   1      40.927  32.183  36.201  1.00  0.00     0.049 A 
ATOM     58  H   UNL A   1      40.708  31.015  34.459  1.00  0.00     0.167 HD
ATOM     59  C   UNL A   1      39.138  33.338  34.926  1.00  0.00     0.074 A 
ATOM     60  C   UNL A   1      38.160  34.393  34.750  1.00  0.00     0.031 C 
ATOM     61  C   UNL A   1      39.962  33.234  35.998  1.00  0.00     0.037 A 
BRANCH  48  62
ATOM     62  C   UNL A   1      43.771  28.362  35.817  1.00  0.00     0.058 A 
ATOM     63  C   UNL A   1      45.137  28.626  35.623  1.00  0.00     0.135 A 
ATOM     64  C   UNL A   1      43.426  27.322  36.696  1.00  0.00     0.135 A 
ATOM     65  F   UNL A   1      45.526  29.597  34.782  1.00  0.00    -0.206 F 
ATOM     66  C   UNL A   1      46.122  27.865  36.245  1.00  0.00     0.059 A 
ATOM     67  C   UNL A   1      44.395  26.568  37.354  1.00  0.00     0.059 A 
ATOM     68  F   UNL A   1      42.136  27.027  36.921  1.00  0.00    -0.206 F 
ATOM     69  C   UNL A   1      45.741  26.837  37.108  1.00  0.00     0.060 A 
BRANCH  69  70
ATOM     70  S   UNL A   1      47.029  25.858  37.908  1.00  0.00     0.124 S 
ATOM     71  O   UNL A   1      47.839  25.451  36.762  1.00  0.00    -0.237 OA
ATOM     72  O   UNL A   1      47.649  26.831  38.805  1.00  0.00    -0.237 OA
ATOM     73  O   UNL A   1      46.289  24.789  38.564  1.00  0.00    -0.744 OA
ENDBRANCH  69  70
ENDBRANCH  48  62
BRANCH  49  74
ATOM     74  C   UNL A   1      36.491  33.293  31.028  1.00  0.00     0.058 A 
ATOM     75  C   UNL A   1      35.166  33.166  31.471  1.00  0.00     0.135 A 
ATOM     76  C   UNL A   1      36.734  34.130  29.929  1.00  0.00     0.135 A 
ATOM     77  F   UNL A   1      34.881  32.373  32.516  1.00  0.00    -0.206 F 
ATOM     78  C   UNL A   1      34.118  33.828  30.840  1.00  0.00     0.059 A 
ATOM     79  C   UNL A   1      35.707  34.824  29.296  1.00  0.00     0.059 A 
ATOM     80  F   UNL A   1      37.987  34.302  29.478  1.00  0.00    -0.206 F 
ATOM     81  C   UNL A   1      34.400  34.658  29.753  1.00  0.00     0.060 A 
BRANCH  81  82
ATOM     82  S   UNL A   1      33.039  35.552  28.971  1.00  0.00     0.124 S 
ATOM     83  O   UNL A   1      32.503  34.540  28.068  1.00  0.00    -0.237 OA
ATOM     84  O   UNL A   1      32.201  35.897  30.116  1.00  0.00    -0.237 OA
ATOM     85  O   UNL A   1      33.706  36.682  28.330  1.00  0.00    -0.744 OA
ENDBRANCH  81  82
ENDBRANCH  49  74
BRANCH  61  86
ATOM     86  C   UNL A   1      39.882  34.315  37.039  1.00  0.00     0.058 A 
ATOM     87  C   UNL A   1      40.531  35.547  36.879  1.00  0.00     0.135 A 
ATOM     88  C   UNL A   1      39.099  34.129  38.190  1.00  0.00     0.135 A 
ATOM     89  F   UNL A   1      41.295  35.774  35.798  1.00  0.00    -0.206 F 
ATOM     90  C   UNL A   1      40.430  36.550  37.837  1.00  0.00     0.059 A 
ATOM     91  C   UNL A   1      38.961  35.127  39.148  1.00  0.00     0.059 A 
ATOM     92  F   UNL A   1      38.447  32.971  38.384  1.00  0.00    -0.206 F 
ATOM     93  C   UNL A   1      39.642  36.330  38.969  1.00  0.00     0.060 A 
BRANCH  93  94
ATOM     94  S   UNL A   1      39.495  37.649  40.193  1.00  0.00     0.124 S 
ATOM     95  O   UNL A   1      38.521  38.530  39.560  1.00  0.00    -0.237 OA
ATOM     96  O   UNL A   1      39.026  36.928  41.373  1.00  0.00    -0.237 OA
ATOM     97  O   UNL A   1      40.853  38.176  40.289  1.00  0.00    -0.744 OA
ENDBRANCH  93  94
ENDBRANCH  61  86
ENDBRANCH  35  36
ENDBRANCH  27  30
ENDBRANCH  25  26
ENDBRANCH   1  25
TORSDOF 16
ENDMDL
MODEL 3
REMARK VINA RESULT:     -12.1      1.203      1.808
REMARK SMILES CO[C@@H]1C[C@H](C(=O)NCCCNC(=O)c2ccc(-c3c4nc(c(-c5c(F)cc(S(=O)(=O)[O-])cc5F)c5ccc([nH]5)c(-c5c(F)cc(S(=O)(=O)[O-])cc5F)c5nc(c(-c6c(F)cc(S(=O)(=O)[O-])cc6F)c6ccc3[nH]6)C=C5)C=C4)cc2)N(C(=O)c2ncc(Cl)c(Cl)c2Cl)C1
REMARK SMILES IDX 10 1 9 2 8 3 6 4 7 5 5 7 3 8 4 9 93 10 81 11 2 12 1 13 82 14
REMARK SMILES IDX 83 15 84 16 85 17 91 18 86 19 89 20 92 21 87 22 90 23 88 24
REMARK SMILES IDX 11 25 12 26 13 27 14 29 15 30 16 31 80 32 17 33 79 34 18 35
REMARK SMILES IDX 19 36 20 37 73 38 21 39 78 40 72 41 74 42 22 43 77 44 71 45
REMARK SMILES IDX 70 46 23 48 57 49 36 50 56 51 37 52 40 53 55 54 75 55 38 56
REMARK SMILES IDX 39 57 54 59 76 60 41 61 24 62 25 63 34 64 26 65 27 66 33 67
REMARK SMILES IDX 35 68 28 69 29 70 30 71 31 72 32 73 58 74 59 75 68 76 60 77
REMARK SMILES IDX 61 78 67 79 69 80 62 81 63 82 64 83 65 84 66 85 42 86 43 87
REMARK SMILES IDX 52 88 44 89 45 90 51 91 53 92 46 93 47 94 48 95 49 96 50 97
REMARK H PARENT 8 6 12 28 74 47 40 58
REMARK Flexibility Score: inf
ROOT
ATOM      1  C   UNL A   1      38.489  22.234  25.774  1.00  0.00     0.042 C 
ENDROOT
BRANCH   1   2
ATOM      2  C   UNL A   1      37.020  22.520  25.474  1.00  0.00     0.117 C 
BRANCH   2   3
ATOM      3  N   UNL A   1      36.153  22.162  26.579  1.00  0.00    -0.354 N 
ATOM      4  C   UNL A   1      34.808  21.985  26.639  1.00  0.00     0.242 C 
ATOM      5  O   UNL A   1      34.342  21.636  27.733  1.00  0.00    -0.273 OA
ATOM      6  H   UNL A   1      36.620  22.022  27.434  1.00  0.00     0.163 HD
BRANCH   4   7
ATOM      7  C   UNL A   1      33.834  22.220  25.459  1.00  0.00     0.177 C 
ATOM      8  C   UNL A   1      32.217  20.609  24.545  1.00  0.00     0.139 C 
ATOM      9  C   UNL A   1      33.681  21.059  24.482  1.00  0.00     0.069 C 
ATOM     10  C   UNL A   1      31.483  21.679  25.360  1.00  0.00     0.152 C 
ATOM     11  N   UNL A   1      32.479  22.639  25.798  1.00  0.00    -0.323 N 
BRANCH   8  12
ATOM     12  O   UNL A   1      32.176  19.324  25.157  1.00  0.00    -0.380 OA
ATOM     13  C   UNL A   1      32.549  18.261  24.292  1.00  0.00     0.195 C 
ENDBRANCH   8  12
BRANCH  11  14
ATOM     14  C   UNL A   1      32.059  23.888  26.238  1.00  0.00     0.274 C 
ATOM     15  O   UNL A   1      31.324  24.035  27.213  1.00  0.00    -0.267 OA
BRANCH  14  16
ATOM     16  C   UNL A   1      32.428  25.099  25.459  1.00  0.00     0.148 A 
ATOM     17  N   UNL A   1      33.412  25.862  26.009  1.00  0.00    -0.248 NA
ATOM     18  C   UNL A   1      31.707  25.457  24.318  1.00  0.00     0.092 A 
ATOM     19  C   UNL A   1      33.703  27.022  25.378  1.00  0.00     0.134 A 
ATOM     20  C   UNL A   1      32.069  26.649  23.675  1.00  0.00     0.082 A 
ATOM     21  Cl  UNL A   1      30.383  24.491  23.745  1.00  0.00    -0.080 Cl
ATOM     22  C   UNL A   1      33.077  27.453  24.218  1.00  0.00     0.079 A 
ATOM     23  Cl  UNL A   1      31.263  27.138  22.212  1.00  0.00    -0.081 Cl
ATOM     24  Cl  UNL A   1      33.557  28.963  23.536  1.00  0.00    -0.081 Cl
ENDBRANCH  14  16
ENDBRANCH  11  14
ENDBRANCH   4   7
ENDBRANCH   2   3
ENDBRANCH   1   2
BRANCH   1  25
ATOM     25  C   UNL A   1      39.178  23.332  26.571  1.00  0.00     0.118 C 
BRANCH  25  26
ATOM     26  N   UNL A   1      40.554  23.530  26.131  1.00  0.00    -0.352 N 
ATOM     27  C   UNL A   1      41.433  24.569  26.321  1.00  0.00     0.251 C 
ATOM     28  H   UNL A   1      40.919  22.786  25.602  1.00  0.00     0.163 HD
ATOM     29  O   UNL A   1      42.428  24.629  25.601  1.00  0.00    -0.269 OA
BRANCH  27  30
ATOM     30  C   UNL A   1      41.222  25.606  27.364  1.00  0.00     0.039 A 
ATOM     31  C   UNL A   1      42.076  26.717  27.393  1.00  0.00     0.014 A 
ATOM     32  C   UNL A   1      40.267  25.459  28.370  1.00  0.00     0.014 A 
ATOM     33  C   UNL A   1      41.949  27.679  28.403  1.00  0.00     0.010 A 
ATOM     34  C   UNL A   1      40.066  26.471  29.305  1.00  0.00     0.010 A 
ATOM     35  C   UNL A   1      40.927  27.576  29.358  1.00  0.00    -0.014 A 
BRANCH  35  36
ATOM     36  C   UNL A   1      40.776  28.558  30.465  1.00  0.00     0.031 A 
ATOM     37  C   UNL A   1      41.642  28.437  31.695  1.00  0.00     0.074 A 
ATOM     38  C   UNL A   1      39.821  29.508  30.403  1.00  0.00     0.049 A 
ATOM     39  N   UNL A   1      41.579  29.095  32.824  1.00  0.00    -0.248 NA
ATOM     40  C   UNL A   1      42.693  27.405  31.668  1.00  0.00     0.031 C 
ATOM     41  C   UNL A   1      38.889  29.704  29.292  1.00  0.00     0.029 A 
ATOM     42  N   UNL A   1      39.467  30.480  31.305  1.00  0.00    -0.354 N 
ATOM     43  C   UNL A   1      42.549  28.532  33.649  1.00  0.00     0.074 A 
ATOM     44  C   UNL A   1      43.148  27.442  32.911  1.00  0.00     0.031 C 
ATOM     45  C   UNL A   1      38.087  30.745  29.567  1.00  0.00     0.029 A 
ATOM     46  C   UNL A   1      38.418  31.265  30.889  1.00  0.00     0.049 A 
ATOM     47  H   UNL A   1      39.922  30.605  32.169  1.00  0.00     0.167 HD
ATOM     48  C   UNL A   1      42.928  28.905  34.895  1.00  0.00     0.037 A 
ATOM     49  C   UNL A   1      37.789  32.284  31.507  1.00  0.00     0.037 A 
ATOM     50  C   UNL A   1      42.368  30.029  35.598  1.00  0.00     0.049 A 
ATOM     51  C   UNL A   1      38.255  32.712  32.872  1.00  0.00     0.074 A 
ATOM     52  C   UNL A   1      42.722  30.535  36.837  1.00  0.00     0.029 A 
ATOM     53  N   UNL A   1      41.346  30.834  35.114  1.00  0.00    -0.354 N 
ATOM     54  N   UNL A   1      39.201  32.192  33.619  1.00  0.00    -0.248 NA
ATOM     55  C   UNL A   1      37.578  33.868  33.474  1.00  0.00     0.031 C 
ATOM     56  C   UNL A   1      41.894  31.627  37.115  1.00  0.00     0.029 A 
ATOM     57  C   UNL A   1      41.055  31.830  36.031  1.00  0.00     0.049 A 
ATOM     58  H   UNL A   1      40.896  30.715  34.247  1.00  0.00     0.167 HD
ATOM     59  C   UNL A   1      39.256  32.979  34.764  1.00  0.00     0.074 A 
ATOM     60  C   UNL A   1      38.253  34.013  34.606  1.00  0.00     0.031 C 
ATOM     61  C   UNL A   1      40.065  32.861  35.846  1.00  0.00     0.037 A 
BRANCH  48  62
ATOM     62  C   UNL A   1      44.006  28.100  35.570  1.00  0.00     0.058 A 
ATOM     63  C   UNL A   1      45.368  28.399  35.400  1.00  0.00     0.135 A 
ATOM     64  C   UNL A   1      43.675  27.029  36.416  1.00  0.00     0.135 A 
ATOM     65  F   UNL A   1      45.744  29.401  34.590  1.00  0.00    -0.206 F 
ATOM     66  C   UNL A   1      46.363  27.644  36.013  1.00  0.00     0.059 A 
ATOM     67  C   UNL A   1      44.653  26.280  37.066  1.00  0.00     0.059 A 
ATOM     68  F   UNL A   1      42.390  26.698  36.617  1.00  0.00    -0.206 F 
ATOM     69  C   UNL A   1      45.995  26.585  36.843  1.00  0.00     0.060 A 
BRANCH  69  70
ATOM     70  S   UNL A   1      47.296  25.613  37.633  1.00  0.00     0.124 S 
ATOM     71  O   UNL A   1      46.662  25.258  38.902  1.00  0.00    -0.237 OA
ATOM     72  O   UNL A   1      47.479  24.512  36.690  1.00  0.00    -0.237 OA
ATOM     73  O   UNL A   1      48.410  26.546  37.728  1.00  0.00    -0.744 OA
ENDBRANCH  69  70
ENDBRANCH  48  62
BRANCH  49  74
ATOM     74  C   UNL A   1      36.675  32.994  30.822  1.00  0.00     0.058 A 
ATOM     75  C   UNL A   1      35.345  32.806  31.227  1.00  0.00     0.135 A 
ATOM     76  C   UNL A   1      36.915  33.887  29.766  1.00  0.00     0.135 A 
ATOM     77  F   UNL A   1      35.064  31.959  32.230  1.00  0.00    -0.206 F 
ATOM     78  C   UNL A   1      34.290  33.460  30.600  1.00  0.00     0.059 A 
ATOM     79  C   UNL A   1      35.879  34.574  29.139  1.00  0.00     0.059 A 
ATOM     80  F   UNL A   1      38.171  34.119  29.353  1.00  0.00    -0.206 F 
ATOM     81  C   UNL A   1      34.569  34.345  29.557  1.00  0.00     0.060 A 
BRANCH  81  82
ATOM     82  S   UNL A   1      33.197  35.228  28.782  1.00  0.00     0.124 S 
ATOM     83  O   UNL A   1      33.895  36.298  28.079  1.00  0.00    -0.237 OA
ATOM     84  O   UNL A   1      32.600  34.193  27.942  1.00  0.00    -0.237 OA
ATOM     85  O   UNL A   1      32.383  35.646  29.920  1.00  0.00    -0.744 OA
ENDBRANCH  81  82
ENDBRANCH  49  74
BRANCH  61  86
ATOM     86  C   UNL A   1      39.939  33.904  36.920  1.00  0.00     0.058 A 
ATOM     87  C   UNL A   1      40.548  35.162  36.807  1.00  0.00     0.135 A 
ATOM     88  C   UNL A   1      39.153  33.654  38.057  1.00  0.00     0.135 A 
ATOM     89  F   UNL A   1      41.313  35.450  35.741  1.00  0.00    -0.206 F 
ATOM     90  C   UNL A   1      40.404  36.129  37.796  1.00  0.00     0.059 A 
ATOM     91  C   UNL A   1      38.973  34.615  39.046  1.00  0.00     0.059 A 
ATOM     92  F   UNL A   1      38.539  32.469  38.207  1.00  0.00    -0.206 F 
ATOM     93  C   UNL A   1      39.614  35.846  38.912  1.00  0.00     0.060 A 
BRANCH  93  94
ATOM     94  S   UNL A   1      39.411  37.118  40.177  1.00  0.00     0.124 S 
ATOM     95  O   UNL A   1      40.786  37.302  40.630  1.00  0.00    -0.237 OA
ATOM     96  O   UNL A   1      38.839  38.226  39.417  1.00  0.00    -0.237 OA
ATOM     97  O   UNL A   1      38.508  36.497  41.142  1.00  0.00    -0.744 OA
ENDBRANCH  93  94
ENDBRANCH  61  86
ENDBRANCH  35  36
ENDBRANCH  27  30
ENDBRANCH  25  26
ENDBRANCH   1  25
TORSDOF 16
ENDMDL
