MODEL 1
REMARK VINA RESULT:     -11.5      0.000      0.000
REMARK SMILES CC(C)N1C(=O)C[C@@H](Sc2csc(C(=O)NCCCNC(=O)c3ccc(-c4c5nc(c(-c6c(F)cc(S(=O)(=O)[O-])cc6F)c6ccc([nH]6)c(-c6c(F)cc(S(=O)(=O)[O-])cc6F)c6nc(c(-c7c(F)cc(S(=O)(=O)[O-])cc7F)c7ccc4[nH]7)C=C6)C=C5)cc3)c2)C1=O
REMARK SMILES IDX 18 1 17 2 16 3 14 4 15 5 13 7 10 8 11 9 89 10 12 11 9 12
REMARK SMILES IDX 8 13 4 14 5 15 90 16 6 17 7 18 91 19 2 20 1 21 3 22 19 23
REMARK SMILES IDX 20 24 21 25 22 27 23 28 24 29 88 30 25 31 87 32 26 33 27 34
REMARK SMILES IDX 28 35 81 36 29 37 86 38 80 39 82 40 30 41 85 42 79 43 78 44
REMARK SMILES IDX 31 46 65 47 44 48 64 49 45 50 48 51 63 52 83 53 46 54 47 55
REMARK SMILES IDX 62 57 84 58 49 59 32 60 33 61 42 62 34 63 35 64 41 65 43 66
REMARK SMILES IDX 36 67 37 68 38 69 39 70 40 71 66 72 67 73 76 74 68 75 69 76
REMARK SMILES IDX 75 77 77 78 70 79 71 80 72 81 73 82 74 83 50 84 51 85 60 86
REMARK SMILES IDX 52 87 53 88 59 89 61 90 54 91 55 92 56 93 57 94 58 95
REMARK H PARENT 16 6 20 26 82 45 48 56
REMARK Flexibility Score: inf
ROOT
ATOM      1  C   UNL A   1      40.497  21.510  27.187  1.00  0.00     0.042 C 
ENDROOT
BRANCH   1   2
ATOM      2  C   UNL A   1      41.732  20.697  27.562  1.00  0.00     0.118 C 
BRANCH   2   3
ATOM      3  N   UNL A   1      41.756  19.423  26.874  1.00  0.00    -0.351 N 
ATOM      4  C   UNL A   1      42.673  18.866  26.016  1.00  0.00     0.261 C 
ATOM      5  O   UNL A   1      42.419  17.712  25.662  1.00  0.00    -0.268 OA
ATOM      6  H   UNL A   1      40.975  18.853  27.054  1.00  0.00     0.163 HD
BRANCH   4   7
ATOM      7  C   UNL A   1      43.860  19.595  25.587  1.00  0.00     0.093 A 
ATOM      8  C   UNL A   1      45.456  21.216  24.966  1.00  0.00     0.020 A 
ATOM      9  C   UNL A   1      46.190  20.063  24.888  1.00  0.00     0.080 A 
ATOM     10  C   UNL A   1      44.096  20.927  25.294  1.00  0.00     0.040 A 
ATOM     11  S   UNL A   1      45.296  18.679  25.334  1.00  0.00    -0.137 S 
BRANCH   8  12
ATOM     12  S   UNL A   1      45.933  22.880  24.666  1.00  0.00    -0.111 SA
BRANCH  12  13
ATOM     13  C   UNL A   1      44.829  23.969  25.593  1.00  0.00     0.150 C 
ATOM     14  N   UNL A   1      45.364  25.374  27.386  1.00  0.00    -0.279 N 
ATOM     15  C   UNL A   1      45.084  26.203  26.329  1.00  0.00     0.231 C 
ATOM     16  C   UNL A   1      45.152  24.059  27.061  1.00  0.00     0.243 C 
ATOM     17  O   UNL A   1      45.080  27.426  26.347  1.00  0.00    -0.274 OA
ATOM     18  C   UNL A   1      44.802  25.398  25.097  1.00  0.00     0.125 C 
ATOM     19  O   UNL A   1      45.161  23.096  27.819  1.00  0.00    -0.273 OA
BRANCH  14  20
ATOM     20  C   UNL A   1      45.774  25.911  28.695  1.00  0.00     0.087 C 
ATOM     21  C   UNL A   1      44.989  25.386  29.899  1.00  0.00     0.031 C 
ATOM     22  C   UNL A   1      47.269  25.665  28.956  1.00  0.00     0.031 C 
ENDBRANCH  14  20
ENDBRANCH  12  13
ENDBRANCH   8  12
ENDBRANCH   4   7
ENDBRANCH   2   3
ENDBRANCH   1   2
BRANCH   1  23
ATOM     23  C   UNL A   1      40.638  22.994  27.520  1.00  0.00     0.118 C 
BRANCH  23  24
ATOM     24  N   UNL A   1      41.016  23.776  26.349  1.00  0.00    -0.352 N 
ATOM     25  C   UNL A   1      41.045  25.135  26.166  1.00  0.00     0.251 C 
ATOM     26  H   UNL A   1      41.293  23.246  25.567  1.00  0.00     0.163 HD
ATOM     27  O   UNL A   1      41.130  25.585  25.027  1.00  0.00    -0.269 OA
BRANCH  25  28
ATOM     28  C   UNL A   1      40.978  26.047  27.325  1.00  0.00     0.039 A 
ATOM     29  C   UNL A   1      41.967  27.022  27.477  1.00  0.00     0.014 A 
ATOM     30  C   UNL A   1      39.968  25.915  28.281  1.00  0.00     0.014 A 
ATOM     31  C   UNL A   1      41.908  27.902  28.560  1.00  0.00     0.010 A 
ATOM     32  C   UNL A   1      39.866  26.841  29.313  1.00  0.00     0.010 A 
ATOM     33  C   UNL A   1      40.838  27.840  29.468  1.00  0.00    -0.014 A 
BRANCH  33  34
ATOM     34  C   UNL A   1      40.711  28.816  30.578  1.00  0.00     0.031 A 
ATOM     35  C   UNL A   1      41.588  28.701  31.794  1.00  0.00     0.074 A 
ATOM     36  C   UNL A   1      39.754  29.763  30.516  1.00  0.00     0.049 A 
ATOM     37  N   UNL A   1      41.577  29.414  32.890  1.00  0.00    -0.248 NA
ATOM     38  C   UNL A   1      42.589  27.623  31.790  1.00  0.00     0.031 C 
ATOM     39  C   UNL A   1      38.814  29.942  29.406  1.00  0.00     0.029 A 
ATOM     40  N   UNL A   1      39.405  30.745  31.407  1.00  0.00    -0.354 N 
ATOM     41  C   UNL A   1      42.559  28.867  33.708  1.00  0.00     0.074 A 
ATOM     42  C   UNL A   1      43.103  27.726  33.006  1.00  0.00     0.031 C 
ATOM     43  C   UNL A   1      38.017  30.988  29.670  1.00  0.00     0.029 A 
ATOM     44  C   UNL A   1      38.354  31.524  30.984  1.00  0.00     0.049 A 
ATOM     45  H   UNL A   1      39.864  30.879  32.268  1.00  0.00     0.167 HD
ATOM     46  C   UNL A   1      42.982  29.293  34.923  1.00  0.00     0.037 A 
ATOM     47  C   UNL A   1      37.726  32.549  31.592  1.00  0.00     0.037 A 
ATOM     48  C   UNL A   1      42.437  30.438  35.606  1.00  0.00     0.049 A 
ATOM     49  C   UNL A   1      38.197  32.991  32.950  1.00  0.00     0.074 A 
ATOM     50  C   UNL A   1      42.828  30.987  36.814  1.00  0.00     0.029 A 
ATOM     51  N   UNL A   1      41.374  31.204  35.145  1.00  0.00    -0.354 N 
ATOM     52  N   UNL A   1      39.171  32.505  33.682  1.00  0.00    -0.248 NA
ATOM     53  C   UNL A   1      37.487  34.120  33.564  1.00  0.00     0.031 C 
ATOM     54  C   UNL A   1      41.967  32.049  37.111  1.00  0.00     0.029 A 
ATOM     55  C   UNL A   1      41.077  32.202  36.060  1.00  0.00     0.049 A 
ATOM     56  H   UNL A   1      40.901  31.059  34.294  1.00  0.00     0.167 HD
ATOM     57  C   UNL A   1      39.210  33.286  34.832  1.00  0.00     0.074 A 
ATOM     58  C   UNL A   1      38.167  34.283  34.691  1.00  0.00     0.031 C 
ATOM     59  C   UNL A   1      40.033  33.188  35.905  1.00  0.00     0.037 A 
BRANCH  46  60
ATOM     60  C   UNL A   1      44.082  28.508  35.589  1.00  0.00     0.058 A 
ATOM     61  C   UNL A   1      43.809  27.393  36.400  1.00  0.00     0.135 A 
ATOM     62  C   UNL A   1      45.427  28.868  35.412  1.00  0.00     0.135 A 
ATOM     63  F   UNL A   1      42.541  27.007  36.617  1.00  0.00    -0.206 F 
ATOM     64  C   UNL A   1      44.823  26.695  37.047  1.00  0.00     0.059 A 
ATOM     65  C   UNL A   1      46.461  28.163  36.022  1.00  0.00     0.059 A 
ATOM     66  F   UNL A   1      45.750  29.922  34.646  1.00  0.00    -0.206 F 
ATOM     67  C   UNL A   1      46.148  27.091  36.856  1.00  0.00     0.060 A 
BRANCH  67  68
ATOM     68  S   UNL A   1      47.450  26.190  37.721  1.00  0.00     0.124 S 
ATOM     69  O   UNL A   1      48.376  25.900  36.630  1.00  0.00    -0.237 OA
ATOM     70  O   UNL A   1      47.911  27.171  38.699  1.00  0.00    -0.237 OA
ATOM     71  O   UNL A   1      46.754  25.034  38.277  1.00  0.00    -0.744 OA
ENDBRANCH  67  68
ENDBRANCH  46  60
BRANCH  47  72
ATOM     72  C   UNL A   1      36.607  33.241  30.900  1.00  0.00     0.058 A 
ATOM     73  C   UNL A   1      35.280  33.060  31.319  1.00  0.00     0.135 A 
ATOM     74  C   UNL A   1      36.840  34.129  29.838  1.00  0.00     0.135 A 
ATOM     75  F   UNL A   1      35.005  32.217  32.326  1.00  0.00    -0.206 F 
ATOM     76  C   UNL A   1      34.225  33.728  30.708  1.00  0.00     0.059 A 
ATOM     77  C   UNL A   1      35.804  34.829  29.228  1.00  0.00     0.059 A 
ATOM     78  F   UNL A   1      38.093  34.351  29.410  1.00  0.00    -0.206 F 
ATOM     79  C   UNL A   1      34.498  34.618  29.667  1.00  0.00     0.060 A 
BRANCH  79  80
ATOM     80  S   UNL A   1      33.127  35.533  28.931  1.00  0.00     0.124 S 
ATOM     81  O   UNL A   1      33.830  36.543  28.150  1.00  0.00    -0.237 OA
ATOM     82  O   UNL A   1      32.443  34.496  28.166  1.00  0.00    -0.237 OA
ATOM     83  O   UNL A   1      32.393  36.030  30.092  1.00  0.00    -0.744 OA
ENDBRANCH  79  80
ENDBRANCH  47  72
BRANCH  59  84
ATOM     84  C   UNL A   1      39.863  34.201  37.004  1.00  0.00     0.058 A 
ATOM     85  C   UNL A   1      40.444  35.476  36.931  1.00  0.00     0.135 A 
ATOM     86  C   UNL A   1      39.060  33.909  38.120  1.00  0.00     0.135 A 
ATOM     87  F   UNL A   1      41.226  35.804  35.891  1.00  0.00    -0.206 F 
ATOM     88  C   UNL A   1      40.253  36.420  37.935  1.00  0.00     0.059 A 
ATOM     89  C   UNL A   1      38.830  34.848  39.120  1.00  0.00     0.059 A 
ATOM     90  F   UNL A   1      38.474  32.707  38.236  1.00  0.00    -0.206 F 
ATOM     91  C   UNL A   1      39.440  36.098  39.024  1.00  0.00     0.060 A 
BRANCH  91  92
ATOM     92  S   UNL A   1      39.168  37.347  40.299  1.00  0.00     0.124 S 
ATOM     93  O   UNL A   1      40.527  37.818  40.545  1.00  0.00    -0.237 OA
ATOM     94  O   UNL A   1      38.282  38.292  39.625  1.00  0.00    -0.237 OA
ATOM     95  O   UNL A   1      38.557  36.593  41.389  1.00  0.00    -0.744 OA
ENDBRANCH  91  92
ENDBRANCH  59  84
ENDBRANCH  33  34
ENDBRANCH  25  28
ENDBRANCH  23  24
ENDBRANCH   1  23
TORSDOF 16
ENDMDL
MODEL 2
REMARK VINA RESULT:     -11.4      4.385     12.386
REMARK SMILES CC(C)N1C(=O)C[C@@H](Sc2csc(C(=O)NCCCNC(=O)c3ccc(-c4c5nc(c(-c6c(F)cc(S(=O)(=O)[O-])cc6F)c6ccc([nH]6)c(-c6c(F)cc(S(=O)(=O)[O-])cc6F)c6nc(c(-c7c(F)cc(S(=O)(=O)[O-])cc7F)c7ccc4[nH]7)C=C6)C=C5)cc3)c2)C1=O
REMARK SMILES IDX 18 1 17 2 16 3 14 4 15 5 13 7 10 8 11 9 89 10 12 11 9 12
REMARK SMILES IDX 8 13 4 14 5 15 90 16 6 17 7 18 91 19 2 20 1 21 3 22 19 23
REMARK SMILES IDX 20 24 21 25 22 27 23 28 24 29 88 30 25 31 87 32 26 33 27 34
REMARK SMILES IDX 28 35 81 36 29 37 86 38 80 39 82 40 30 41 85 42 79 43 78 44
REMARK SMILES IDX 31 46 65 47 44 48 64 49 45 50 48 51 63 52 83 53 46 54 47 55
REMARK SMILES IDX 62 57 84 58 49 59 32 60 33 61 42 62 34 63 35 64 41 65 43 66
REMARK SMILES IDX 36 67 37 68 38 69 39 70 40 71 66 72 67 73 76 74 68 75 69 76
REMARK SMILES IDX 75 77 77 78 70 79 71 80 72 81 73 82 74 83 50 84 51 85 60 86
REMARK SMILES IDX 52 87 53 88 59 89 61 90 54 91 55 92 56 93 57 94 58 95
REMARK H PARENT 16 6 20 26 82 45 48 56
REMARK Flexibility Score: inf
ROOT
ATOM      1  C   UNL A   1      35.219  33.375  27.952  1.00  0.00     0.042 C 
ENDROOT
BRANCH   1   2
ATOM      2  C   UNL A   1      35.259  34.829  28.414  1.00  0.00     0.118 C 
BRANCH   2   3
ATOM      3  N   UNL A   1      33.942  35.431  28.381  1.00  0.00    -0.351 N 
ATOM      4  C   UNL A   1      33.128  35.899  29.383  1.00  0.00     0.261 C 
ATOM      5  O   UNL A   1      32.083  36.429  28.998  1.00  0.00    -0.268 OA
ATOM      6  H   UNL A   1      33.563  35.521  27.478  1.00  0.00     0.163 HD
BRANCH   4   7
ATOM      7  C   UNL A   1      33.501  35.789  30.788  1.00  0.00     0.093 A 
ATOM      8  C   UNL A   1      34.251  35.096  32.913  1.00  0.00     0.020 A 
ATOM      9  C   UNL A   1      33.925  36.405  33.149  1.00  0.00     0.080 A 
ATOM     10  C   UNL A   1      33.931  34.731  31.570  1.00  0.00     0.040 A 
ATOM     11  S   UNL A   1      33.375  37.212  31.750  1.00  0.00    -0.137 S 
BRANCH   8  12
ATOM     12  S   UNL A   1      34.905  33.881  34.002  1.00  0.00    -0.111 SA
BRANCH  12  13
ATOM     13  C   UNL A   1      36.697  34.093  34.088  1.00  0.00     0.150 C 
ATOM     14  N   UNL A   1      38.357  32.626  33.336  1.00  0.00    -0.279 N 
ATOM     15  C   UNL A   1      38.400  33.706  32.492  1.00  0.00     0.231 C 
ATOM     16  C   UNL A   1      37.450  32.815  34.346  1.00  0.00     0.243 C 
ATOM     17  O   UNL A   1      39.180  33.872  31.564  1.00  0.00    -0.274 OA
ATOM     18  C   UNL A   1      37.316  34.681  32.838  1.00  0.00     0.125 C 
ATOM     19  O   UNL A   1      37.287  32.115  35.339  1.00  0.00    -0.273 OA
BRANCH  14  20
ATOM     20  C   UNL A   1      39.254  31.471  33.151  1.00  0.00     0.087 C 
ATOM     21  C   UNL A   1      40.433  31.390  34.121  1.00  0.00     0.031 C 
ATOM     22  C   UNL A   1      38.479  30.145  33.229  1.00  0.00     0.031 C 
ENDBRANCH  14  20
ENDBRANCH  12  13
ENDBRANCH   8  12
ENDBRANCH   4   7
ENDBRANCH   2   3
ENDBRANCH   1   2
BRANCH   1  23
ATOM     23  C   UNL A   1      35.043  32.389  29.105  1.00  0.00     0.118 C 
BRANCH  23  24
ATOM     24  N   UNL A   1      34.332  31.188  28.683  1.00  0.00    -0.352 N 
ATOM     25  C   UNL A   1      34.815  29.995  28.212  1.00  0.00     0.251 C 
ATOM     26  H   UNL A   1      33.351  31.243  28.746  1.00  0.00     0.163 HD
ATOM     27  O   UNL A   1      34.048  29.213  27.657  1.00  0.00    -0.269 OA
BRANCH  25  28
ATOM     28  C   UNL A   1      36.243  29.651  28.371  1.00  0.00     0.039 A 
ATOM     29  C   UNL A   1      37.103  29.809  27.281  1.00  0.00     0.014 A 
ATOM     30  C   UNL A   1      36.725  29.137  29.577  1.00  0.00     0.014 A 
ATOM     31  C   UNL A   1      38.458  29.503  27.421  1.00  0.00     0.010 A 
ATOM     32  C   UNL A   1      38.086  28.909  29.739  1.00  0.00     0.010 A 
ATOM     33  C   UNL A   1      38.967  29.083  28.661  1.00  0.00    -0.014 A 
BRANCH  33  34
ATOM     34  C   UNL A   1      40.416  28.832  28.854  1.00  0.00     0.031 A 
ATOM     35  C   UNL A   1      41.009  27.496  28.501  1.00  0.00     0.074 A 
ATOM     36  C   UNL A   1      41.181  29.789  29.418  1.00  0.00     0.049 A 
ATOM     37  N   UNL A   1      42.234  27.068  28.662  1.00  0.00    -0.248 NA
ATOM     38  C   UNL A   1      40.097  26.501  27.915  1.00  0.00     0.031 C 
ATOM     39  C   UNL A   1      40.705  31.107  29.844  1.00  0.00     0.029 A 
ATOM     40  N   UNL A   1      42.514  29.798  29.736  1.00  0.00    -0.354 N 
ATOM     41  C   UNL A   1      42.238  25.754  28.209  1.00  0.00     0.074 A 
ATOM     42  C   UNL A   1      40.881  25.437  27.824  1.00  0.00     0.031 C 
ATOM     43  C   UNL A   1      41.737  31.806  30.341  1.00  0.00     0.029 A 
ATOM     44  C   UNL A   1      42.934  30.973  30.314  1.00  0.00     0.049 A 
ATOM     45  H   UNL A   1      43.114  29.035  29.569  1.00  0.00     0.167 HD
ATOM     46  C   UNL A   1      43.284  24.898  28.104  1.00  0.00     0.037 A 
ATOM     47  C   UNL A   1      44.146  31.335  30.778  1.00  0.00     0.037 A 
ATOM     48  C   UNL A   1      44.633  25.230  28.484  1.00  0.00     0.049 A 
ATOM     49  C   UNL A   1      45.287  30.362  30.673  1.00  0.00     0.074 A 
ATOM     50  C   UNL A   1      45.775  24.459  28.369  1.00  0.00     0.029 A 
ATOM     51  N   UNL A   1      45.021  26.432  29.063  1.00  0.00    -0.354 N 
ATOM     52  N   UNL A   1      45.290  29.146  30.180  1.00  0.00    -0.248 NA
ATOM     53  C   UNL A   1      46.590  30.809  31.182  1.00  0.00     0.031 C 
ATOM     54  C   UNL A   1      46.842  25.169  28.930  1.00  0.00     0.029 A 
ATOM     55  C   UNL A   1      46.378  26.410  29.339  1.00  0.00     0.049 A 
ATOM     56  H   UNL A   1      44.419  27.188  29.250  1.00  0.00     0.167 HD
ATOM     57  C   UNL A   1      46.599  28.691  30.296  1.00  0.00     0.074 A 
ATOM     58  C   UNL A   1      47.361  29.769  30.895  1.00  0.00     0.031 C 
ATOM     59  C   UNL A   1      47.123  27.492  29.938  1.00  0.00     0.037 A 
BRANCH  46  60
ATOM     60  C   UNL A   1      43.003  23.520  27.565  1.00  0.00     0.058 A 
ATOM     61  C   UNL A   1      42.587  22.469  28.400  1.00  0.00     0.135 A 
ATOM     62  C   UNL A   1      43.143  23.245  26.196  1.00  0.00     0.135 A 
ATOM     63  F   UNL A   1      42.446  22.668  29.721  1.00  0.00    -0.206 F 
ATOM     64  C   UNL A   1      42.367  21.188  27.906  1.00  0.00     0.059 A 
ATOM     65  C   UNL A   1      42.895  21.978  25.673  1.00  0.00     0.059 A 
ATOM     66  F   UNL A   1      43.533  24.209  25.348  1.00  0.00    -0.206 F 
ATOM     67  C   UNL A   1      42.529  20.950  26.540  1.00  0.00     0.060 A 
BRANCH  67  68
ATOM     68  S   UNL A   1      42.263  19.277  25.919  1.00  0.00     0.124 S 
ATOM     69  O   UNL A   1      43.063  19.289  24.698  1.00  0.00    -0.237 OA
ATOM     70  O   UNL A   1      42.782  18.454  27.008  1.00  0.00    -0.237 OA
ATOM     71  O   UNL A   1      40.819  19.211  25.722  1.00  0.00    -0.744 OA
ENDBRANCH  67  68
ENDBRANCH  46  60
BRANCH  47  72
ATOM     72  C   UNL A   1      44.338  32.692  31.354  1.00  0.00     0.058 A 
ATOM     73  C   UNL A   1      44.703  33.774  30.538  1.00  0.00     0.135 A 
ATOM     74  C   UNL A   1      44.122  32.947  32.717  1.00  0.00     0.135 A 
ATOM     75  F   UNL A   1      44.927  33.581  29.230  1.00  0.00    -0.206 F 
ATOM     76  C   UNL A   1      44.851  35.058  31.052  1.00  0.00     0.059 A 
ATOM     77  C   UNL A   1      44.238  34.226  33.250  1.00  0.00     0.059 A 
ATOM     78  F   UNL A   1      43.755  31.950  33.537  1.00  0.00    -0.206 F 
ATOM     79  C   UNL A   1      44.608  35.275  32.410  1.00  0.00     0.060 A 
BRANCH  79  80
ATOM     80  S   UNL A   1      44.734  36.959  33.050  1.00  0.00     0.124 S 
ATOM     81  O   UNL A   1      43.431  37.133  33.682  1.00  0.00    -0.237 OA
ATOM     82  O   UNL A   1      45.875  36.858  33.954  1.00  0.00    -0.237 OA
ATOM     83  O   UNL A   1      44.965  37.758  31.850  1.00  0.00    -0.744 OA
ENDBRANCH  79  80
ENDBRANCH  47  72
BRANCH  59  84
ATOM     84  C   UNL A   1      48.597  27.288  30.156  1.00  0.00     0.058 A 
ATOM     85  C   UNL A   1      49.548  27.682  29.203  1.00  0.00     0.135 A 
ATOM     86  C   UNL A   1      49.067  26.738  31.362  1.00  0.00     0.135 A 
ATOM     87  F   UNL A   1      49.154  28.205  28.031  1.00  0.00    -0.206 F 
ATOM     88  C   UNL A   1      50.912  27.521  29.427  1.00  0.00     0.059 A 
ATOM     89  C   UNL A   1      50.426  26.597  31.619  1.00  0.00     0.059 A 
ATOM     90  F   UNL A   1      48.200  26.352  32.311  1.00  0.00    -0.206 F 
ATOM     91  C   UNL A   1      51.341  26.982  30.641  1.00  0.00     0.060 A 
BRANCH  91  92
ATOM     92  S   UNL A   1      53.115  26.817  30.934  1.00  0.00     0.124 S 
ATOM     93  O   UNL A   1      53.589  26.371  29.628  1.00  0.00    -0.237 OA
ATOM     94  O   UNL A   1      53.495  28.173  31.317  1.00  0.00    -0.237 OA
ATOM     95  O   UNL A   1      53.193  25.826  32.003  1.00  0.00    -0.744 OA
ENDBRANCH  91  92
ENDBRANCH  59  84
ENDBRANCH  33  34
ENDBRANCH  25  28
ENDBRANCH  23  24
ENDBRANCH   1  23
TORSDOF 16
ENDMDL
MODEL 3
REMARK VINA RESULT:     -11.2      4.419     12.669
REMARK SMILES CC(C)N1C(=O)C[C@@H](Sc2csc(C(=O)NCCCNC(=O)c3ccc(-c4c5nc(c(-c6c(F)cc(S(=O)(=O)[O-])cc6F)c6ccc([nH]6)c(-c6c(F)cc(S(=O)(=O)[O-])cc6F)c6nc(c(-c7c(F)cc(S(=O)(=O)[O-])cc7F)c7ccc4[nH]7)C=C6)C=C5)cc3)c2)C1=O
REMARK SMILES IDX 18 1 17 2 16 3 14 4 15 5 13 7 10 8 11 9 89 10 12 11 9 12
REMARK SMILES IDX 8 13 4 14 5 15 90 16 6 17 7 18 91 19 2 20 1 21 3 22 19 23
REMARK SMILES IDX 20 24 21 25 22 27 23 28 24 29 88 30 25 31 87 32 26 33 27 34
REMARK SMILES IDX 28 35 81 36 29 37 86 38 80 39 82 40 30 41 85 42 79 43 78 44
REMARK SMILES IDX 31 46 65 47 44 48 64 49 45 50 48 51 63 52 83 53 46 54 47 55
REMARK SMILES IDX 62 57 84 58 49 59 32 60 33 61 42 62 34 63 35 64 41 65 43 66
REMARK SMILES IDX 36 67 37 68 38 69 39 70 40 71 66 72 67 73 76 74 68 75 69 76
REMARK SMILES IDX 75 77 77 78 70 79 71 80 72 81 73 82 74 83 50 84 51 85 60 86
REMARK SMILES IDX 52 87 53 88 59 89 61 90 54 91 55 92 56 93 57 94 58 95
REMARK H PARENT 16 6 20 26 82 45 48 56
REMARK Flexibility Score: inf
ROOT
ATOM      1  C   UNL A   1      33.738  33.678  28.109  1.00  0.00     0.042 C 
ENDROOT
BRANCH   1   2
ATOM      2  C   UNL A   1      34.229  35.016  28.652  1.00  0.00     0.118 C 
BRANCH   2   3
ATOM      3  N   UNL A   1      33.195  35.692  29.408  1.00  0.00    -0.351 N 
ATOM      4  C   UNL A   1      32.993  35.826  30.759  1.00  0.00     0.261 C 
ATOM      5  O   UNL A   1      32.038  36.543  31.073  1.00  0.00    -0.268 OA
ATOM      6  H   UNL A   1      32.515  36.136  28.852  1.00  0.00     0.163 HD
BRANCH   4   7
ATOM      7  C   UNL A   1      33.865  35.181  31.732  1.00  0.00     0.093 A 
ATOM      8  C   UNL A   1      35.302  33.738  32.922  1.00  0.00     0.020 A 
ATOM      9  C   UNL A   1      35.229  34.812  33.767  1.00  0.00     0.080 A 
ATOM     10  C   UNL A   1      34.452  33.928  31.789  1.00  0.00     0.040 A 
ATOM     11  S   UNL A   1      34.267  36.078  33.146  1.00  0.00    -0.137 S 
BRANCH   8  12
ATOM     12  S   UNL A   1      36.196  32.234  33.082  1.00  0.00    -0.111 SA
BRANCH  12  13
ATOM     13  C   UNL A   1      37.588  32.510  34.200  1.00  0.00     0.150 C 
ATOM     14  N   UNL A   1      39.743  31.609  34.065  1.00  0.00    -0.279 N 
ATOM     15  C   UNL A   1      39.875  32.944  33.780  1.00  0.00     0.231 C 
ATOM     16  C   UNL A   1      38.453  31.295  34.408  1.00  0.00     0.243 C 
ATOM     17  O   UNL A   1      40.919  33.536  33.543  1.00  0.00    -0.274 OA
ATOM     18  C   UNL A   1      38.532  33.608  33.762  1.00  0.00     0.125 C 
ATOM     19  O   UNL A   1      38.043  30.234  34.862  1.00  0.00    -0.273 OA
BRANCH  14  20
ATOM     20  C   UNL A   1      40.904  30.702  34.048  1.00  0.00     0.087 C 
ATOM     21  C   UNL A   1      41.376  30.209  35.417  1.00  0.00     0.031 C 
ATOM     22  C   UNL A   1      40.638  29.472  33.164  1.00  0.00     0.031 C 
ENDBRANCH  14  20
ENDBRANCH  12  13
ENDBRANCH   8  12
ENDBRANCH   4   7
ENDBRANCH   2   3
ENDBRANCH   1   2
BRANCH   1  23
ATOM     23  C   UNL A   1      34.675  32.519  28.445  1.00  0.00     0.118 C 
BRANCH  23  24
ATOM     24  N   UNL A   1      34.037  31.227  28.224  1.00  0.00    -0.352 N 
ATOM     25  C   UNL A   1      34.592  29.994  28.001  1.00  0.00     0.251 C 
ATOM     26  H   UNL A   1      33.052  31.243  28.236  1.00  0.00     0.163 HD
ATOM     27  O   UNL A   1      33.886  29.086  27.569  1.00  0.00    -0.269 OA
BRANCH  25  28
ATOM     28  C   UNL A   1      36.023  29.757  28.279  1.00  0.00     0.039 A 
ATOM     29  C   UNL A   1      36.407  29.362  29.562  1.00  0.00     0.014 A 
ATOM     30  C   UNL A   1      36.987  29.964  27.289  1.00  0.00     0.014 A 
ATOM     31  C   UNL A   1      37.755  29.119  29.836  1.00  0.00     0.010 A 
ATOM     32  C   UNL A   1      38.317  29.646  27.541  1.00  0.00     0.010 A 
ATOM     33  C   UNL A   1      38.716  29.227  28.818  1.00  0.00    -0.014 A 
BRANCH  33  34
ATOM     34  C   UNL A   1      40.141  28.894  29.065  1.00  0.00     0.031 A 
ATOM     35  C   UNL A   1      41.073  29.927  29.635  1.00  0.00     0.074 A 
ATOM     36  C   UNL A   1      40.606  27.681  28.706  1.00  0.00     0.049 A 
ATOM     37  N   UNL A   1      42.360  29.846  29.855  1.00  0.00    -0.248 NA
ATOM     38  C   UNL A   1      40.488  31.234  29.975  1.00  0.00     0.031 C 
ATOM     39  C   UNL A   1      39.804  26.614  28.102  1.00  0.00     0.029 A 
ATOM     40  N   UNL A   1      41.865  27.144  28.788  1.00  0.00    -0.354 N 
ATOM     41  C   UNL A   1      42.739  31.089  30.348  1.00  0.00     0.074 A 
ATOM     42  C   UNL A   1      41.559  31.924  30.337  1.00  0.00     0.031 C 
ATOM     43  C   UNL A   1      40.584  25.542  27.895  1.00  0.00     0.029 A 
ATOM     44  C   UNL A   1      41.947  25.859  28.306  1.00  0.00     0.049 A 
ATOM     45  H   UNL A   1      42.637  27.632  29.157  1.00  0.00     0.167 HD
ATOM     46  C   UNL A   1      43.956  31.489  30.791  1.00  0.00     0.037 A 
ATOM     47  C   UNL A   1      43.005  25.032  28.198  1.00  0.00     0.037 A 
ATOM     48  C   UNL A   1      45.122  30.643  30.804  1.00  0.00     0.049 A 
ATOM     49  C   UNL A   1      44.351  25.504  28.673  1.00  0.00     0.074 A 
ATOM     50  C   UNL A   1      46.389  30.930  31.281  1.00  0.00     0.029 A 
ATOM     51  N   UNL A   1      45.166  29.346  30.310  1.00  0.00    -0.354 N 
ATOM     52  N   UNL A   1      44.680  26.660  29.199  1.00  0.00    -0.248 NA
ATOM     53  C   UNL A   1      45.469  24.560  28.545  1.00  0.00     0.031 C 
ATOM     54  C   UNL A   1      47.212  29.829  31.022  1.00  0.00     0.029 A 
ATOM     55  C   UNL A   1      46.446  28.831  30.441  1.00  0.00     0.049 A 
ATOM     56  H   UNL A   1      44.401  28.863  29.922  1.00  0.00     0.167 HD
ATOM     57  C   UNL A   1      46.037  26.574  29.489  1.00  0.00     0.074 A 
ATOM     58  C   UNL A   1      46.463  25.247  29.090  1.00  0.00     0.031 C 
ATOM     59  C   UNL A   1      46.855  27.507  30.037  1.00  0.00     0.037 A 
BRANCH  46  60
ATOM     60  C   UNL A   1      44.084  32.906  31.286  1.00  0.00     0.058 A 
ATOM     61  C   UNL A   1      44.230  33.989  30.402  1.00  0.00     0.135 A 
ATOM     62  C   UNL A   1      44.054  33.189  32.660  1.00  0.00     0.135 A 
ATOM     63  F   UNL A   1      44.276  33.779  29.076  1.00  0.00    -0.206 F 
ATOM     64  C   UNL A   1      44.388  35.291  30.863  1.00  0.00     0.059 A 
ATOM     65  C   UNL A   1      44.177  34.490  33.144  1.00  0.00     0.059 A 
ATOM     66  F   UNL A   1      43.914  32.197  33.553  1.00  0.00    -0.206 F 
ATOM     67  C   UNL A   1      44.366  35.532  32.238  1.00  0.00     0.060 A 
BRANCH  67  68
ATOM     68  S   UNL A   1      44.597  37.223  32.821  1.00  0.00     0.124 S 
ATOM     69  O   UNL A   1      44.130  37.993  31.671  1.00  0.00    -0.237 OA
ATOM     70  O   UNL A   1      43.740  37.267  34.001  1.00  0.00    -0.237 OA
ATOM     71  O   UNL A   1      46.030  37.300  33.087  1.00  0.00    -0.744 OA
ENDBRANCH  67  68
ENDBRANCH  46  60
BRANCH  47  72
ATOM     72  C   UNL A   1      42.817  23.665  27.643  1.00  0.00     0.058 A 
ATOM     73  C   UNL A   1      42.965  23.419  26.270  1.00  0.00     0.135 A 
ATOM     74  C   UNL A   1      42.531  22.571  28.474  1.00  0.00     0.135 A 
ATOM     75  F   UNL A   1      43.232  24.434  25.433  1.00  0.00    -0.206 F 
ATOM     76  C   UNL A   1      42.830  22.141  25.739  1.00  0.00     0.059 A 
ATOM     77  C   UNL A   1      42.418  21.279  27.971  1.00  0.00     0.059 A 
ATOM     78  F   UNL A   1      42.397  22.748  29.798  1.00  0.00    -0.206 F 
ATOM     79  C   UNL A   1      42.565  21.075  26.600  1.00  0.00     0.060 A 
BRANCH  79  80
ATOM     80  S   UNL A   1      42.464  19.411  25.907  1.00  0.00     0.124 S 
ATOM     81  O   UNL A   1      41.030  19.270  25.681  1.00  0.00    -0.237 OA
ATOM     82  O   UNL A   1      43.291  19.528  24.710  1.00  0.00    -0.237 OA
ATOM     83  O   UNL A   1      43.022  18.572  26.964  1.00  0.00    -0.744 OA
ENDBRANCH  79  80
ENDBRANCH  47  72
BRANCH  59  84
ATOM     84  C   UNL A   1      48.291  27.121  30.265  1.00  0.00     0.058 A 
ATOM     85  C   UNL A   1      49.299  27.439  29.342  1.00  0.00     0.135 A 
ATOM     86  C   UNL A   1      48.671  26.472  31.453  1.00  0.00     0.135 A 
ATOM     87  F   UNL A   1      48.990  28.051  28.188  1.00  0.00    -0.206 F 
ATOM     88  C   UNL A   1      50.630  27.109  29.577  1.00  0.00     0.059 A 
ATOM     89  C   UNL A   1      50.000  26.160  31.722  1.00  0.00     0.059 A 
ATOM     90  F   UNL A   1      47.748  26.152  32.373  1.00  0.00    -0.206 F 
ATOM     91  C   UNL A   1      50.971  26.474  30.773  1.00  0.00     0.060 A 
BRANCH  91  92
ATOM     92  S   UNL A   1      52.708  26.089  31.081  1.00  0.00     0.124 S 
ATOM     93  O   UNL A   1      53.130  27.243  31.868  1.00  0.00    -0.237 OA
ATOM     94  O   UNL A   1      52.622  24.824  31.806  1.00  0.00    -0.237 OA
ATOM     95  O   UNL A   1      53.280  25.999  29.741  1.00  0.00    -0.744 OA
ENDBRANCH  91  92
ENDBRANCH  59  84
ENDBRANCH  33  34
ENDBRANCH  25  28
ENDBRANCH  23  24
ENDBRANCH   1  23
TORSDOF 16
ENDMDL
