MODEL 1
REMARK VINA RESULT:     -13.7      0.000      0.000
REMARK SMILES Cc1ccc(N2CC[NH+]([C@H](C(=O)NCCCNC(=O)c3ccc(-c4c5nc(c(-c6c(F)cc(S(=O)(=O)[O-])cc6F)c6ccc([nH]6)c(-c6c(F)cc(S(=O)(=O)[O-])cc6F)c6nc(c(-c7c(F)cc(S(=O)(=O)[O-])cc7F)c7ccc4[nH]7)C=C6)C=C5)cc3)c3c[nH]c4cc(Br)ccc34)CC2)c(C)c1
REMARK SMILES IDX 15 1 14 2 13 3 11 4 12 5 10 7 9 8 6 9 7 10 97 11 8 12 96 13
REMARK SMILES IDX 5 15 1 16 2 17 3 18 100 19 4 20 98 21 99 22 86 23 87 24
REMARK SMILES IDX 95 25 88 26 89 27 94 28 90 30 93 31 91 32 92 33 16 34 17 35
REMARK SMILES IDX 18 36 19 38 20 39 21 40 85 41 22 42 84 43 23 44 24 45 25 46
REMARK SMILES IDX 78 47 26 48 83 49 77 50 79 51 27 52 82 53 76 54 75 55 28 57
REMARK SMILES IDX 62 58 41 59 61 60 42 61 45 62 60 63 80 64 43 65 44 66 59 68
REMARK SMILES IDX 81 69 46 70 29 71 30 72 39 73 31 74 32 75 38 76 40 77 33 78
REMARK SMILES IDX 34 79 35 80 36 81 37 82 63 83 64 84 73 85 65 86 66 87 72 88
REMARK SMILES IDX 74 89 67 90 68 91 69 92 70 93 71 94 47 95 48 96 57 97 49 98
REMARK SMILES IDX 50 99 56 100 58 101 51 102 52 103 53 104 54 105 55 106
REMARK H PARENT 13 6 9 14 88 29 17 37 79 56 45 67
REMARK Flexibility Score: inf
ROOT
ATOM      1  C   UNL A   1      37.297  23.846  25.241  1.00  0.00     0.042 C 
ENDROOT
BRANCH   1   2
ATOM      2  C   UNL A   1      36.803  22.443  24.881  1.00  0.00     0.118 C 
BRANCH   2   3
ATOM      3  N   UNL A   1      35.896  22.414  23.751  1.00  0.00    -0.351 N 
ATOM      4  C   UNL A   1      34.642  22.936  23.589  1.00  0.00     0.283 C 
ATOM      5  O   UNL A   1      34.279  23.048  22.409  1.00  0.00    -0.268 OA
ATOM      6  H   UNL A   1      36.243  21.935  22.964  1.00  0.00     0.163 HD
BRANCH   4   7
ATOM      7  C   UNL A   1      33.724  23.335  24.815  1.00  0.00     0.307 C 
BRANCH   7   8
ATOM      8  N   UNL A   1      33.095  24.649  24.527  1.00  0.00    -0.318 N 
ATOM      9  N   UNL A   1      32.451  27.500  24.707  1.00  0.00    -0.360 N 
ATOM     10  C   UNL A   1      33.337  27.003  23.650  1.00  0.00     0.178 C 
ATOM     11  C   UNL A   1      31.484  26.516  25.209  1.00  0.00     0.178 C 
ATOM     12  C   UNL A   1      34.034  25.680  24.065  1.00  0.00     0.284 C 
ATOM     13  C   UNL A   1      32.141  25.151  25.531  1.00  0.00     0.284 C 
ATOM     14  H   UNL A   1      32.503  24.423  23.727  1.00  0.00     0.349 HD
BRANCH   9  15
ATOM     15  C   UNL A   1      32.916  28.503  25.542  1.00  0.00     0.040 A 
ATOM     16  C   UNL A   1      34.358  31.586  28.239  1.00  0.00     0.044 C 
ATOM     17  C   UNL A   1      33.884  30.526  27.292  1.00  0.00    -0.051 A 
ATOM     18  C   UNL A   1      34.542  29.304  27.193  1.00  0.00     0.005 A 
ATOM     19  C   UNL A   1      32.749  30.738  26.502  1.00  0.00     0.009 A 
ATOM     20  C   UNL A   1      34.055  28.319  26.330  1.00  0.00     0.026 A 
ATOM     21  C   UNL A   1      32.261  29.742  25.629  1.00  0.00    -0.027 A 
ATOM     22  C   UNL A   1      31.027  30.049  24.826  1.00  0.00     0.046 C 
ENDBRANCH   9  15
ENDBRANCH   7   8
BRANCH   7  23
ATOM     23  C   UNL A   1      32.811  22.124  25.212  1.00  0.00     0.044 A 
ATOM     24  C   UNL A   1      32.717  21.743  26.554  1.00  0.00     0.094 A 
ATOM     25  C   UNL A   1      32.722  20.818  24.614  1.00  0.00     0.009 A 
ATOM     26  N   UNL A   1      33.591  20.673  26.634  1.00  0.00    -0.361 N 
ATOM     27  C   UNL A   1      33.505  20.002  25.431  1.00  0.00     0.047 A 
ATOM     28  C   UNL A   1      32.136  20.227  23.479  1.00  0.00     0.012 A 
ATOM     29  H   UNL A   1      34.163  20.435  27.401  1.00  0.00     0.166 HD
ATOM     30  C   UNL A   1      33.990  18.754  25.034  1.00  0.00     0.042 A 
ATOM     31  C   UNL A   1      32.538  18.941  23.090  1.00  0.00     0.016 A 
ATOM     32  C   UNL A   1      33.502  18.254  23.826  1.00  0.00     0.020 A 
ATOM     33  Br  UNL A   1      34.132  16.579  23.205  1.00  0.00    -0.051 Br
ENDBRANCH   7  23
ENDBRANCH   4   7
ENDBRANCH   2   3
ENDBRANCH   1   2
BRANCH   1  34
ATOM     34  C   UNL A   1      38.231  23.973  26.450  1.00  0.00     0.118 C 
BRANCH  34  35
ATOM     35  N   UNL A   1      39.646  23.858  26.137  1.00  0.00    -0.352 N 
ATOM     36  C   UNL A   1      40.723  24.601  26.573  1.00  0.00     0.251 C 
ATOM     37  H   UNL A   1      39.873  23.130  25.512  1.00  0.00     0.163 HD
ATOM     38  O   UNL A   1      41.837  24.353  26.115  1.00  0.00    -0.269 OA
BRANCH  36  39
ATOM     39  C   UNL A   1      40.567  25.715  27.546  1.00  0.00     0.039 A 
ATOM     40  C   UNL A   1      39.598  25.592  28.550  1.00  0.00     0.014 A 
ATOM     41  C   UNL A   1      41.325  26.887  27.472  1.00  0.00     0.014 A 
ATOM     42  C   UNL A   1      39.452  26.592  29.522  1.00  0.00     0.010 A 
ATOM     43  C   UNL A   1      41.222  27.856  28.477  1.00  0.00     0.010 A 
ATOM     44  C   UNL A   1      40.296  27.715  29.524  1.00  0.00    -0.014 A 
BRANCH  44  45
ATOM     45  C   UNL A   1      40.252  28.717  30.629  1.00  0.00     0.031 A 
ATOM     46  C   UNL A   1      41.142  28.578  31.838  1.00  0.00     0.074 A 
ATOM     47  C   UNL A   1      39.356  29.725  30.580  1.00  0.00     0.049 A 
ATOM     48  N   UNL A   1      41.183  29.310  32.922  1.00  0.00    -0.248 NA
ATOM     49  C   UNL A   1      42.096  27.460  31.834  1.00  0.00     0.031 C 
ATOM     50  C   UNL A   1      38.410  29.964  29.487  1.00  0.00     0.029 A 
ATOM     51  N   UNL A   1      39.082  30.732  31.476  1.00  0.00    -0.354 N 
ATOM     52  C   UNL A   1      42.151  28.733  33.738  1.00  0.00     0.074 A 
ATOM     53  C   UNL A   1      42.644  27.566  33.037  1.00  0.00     0.031 C 
ATOM     54  C   UNL A   1      37.680  31.055  29.765  1.00  0.00     0.029 A 
ATOM     55  C   UNL A   1      38.066  31.569  31.075  1.00  0.00     0.049 A 
ATOM     56  H   UNL A   1      39.567  30.843  32.324  1.00  0.00     0.167 HD
ATOM     57  C   UNL A   1      42.597  29.143  34.952  1.00  0.00     0.037 A 
ATOM     58  C   UNL A   1      37.497  32.625  31.692  1.00  0.00     0.037 A 
ATOM     59  C   UNL A   1      42.120  30.317  35.640  1.00  0.00     0.049 A 
ATOM     60  C   UNL A   1      37.994  33.047  33.050  1.00  0.00     0.074 A 
ATOM     61  C   UNL A   1      42.561  30.847  36.841  1.00  0.00     0.029 A 
ATOM     62  N   UNL A   1      41.092  31.138  35.199  1.00  0.00    -0.354 N 
ATOM     63  N   UNL A   1      38.954  32.525  33.774  1.00  0.00    -0.248 NA
ATOM     64  C   UNL A   1      37.329  34.201  33.673  1.00  0.00     0.031 C 
ATOM     65  C   UNL A   1      41.764  31.953  37.154  1.00  0.00     0.029 A 
ATOM     66  C   UNL A   1      40.864  32.150  36.119  1.00  0.00     0.049 A 
ATOM     67  H   UNL A   1      40.597  31.019  34.357  1.00  0.00     0.167 HD
ATOM     68  C   UNL A   1      39.033  33.309  34.921  1.00  0.00     0.074 A 
ATOM     69  C   UNL A   1      38.027  34.343  34.792  1.00  0.00     0.031 C 
ATOM     70  C   UNL A   1      39.867  33.184  35.983  1.00  0.00     0.037 A 
BRANCH  57  71
ATOM     71  C   UNL A   1      43.655  28.311  35.628  1.00  0.00     0.058 A 
ATOM     72  C   UNL A   1      43.328  27.283  36.527  1.00  0.00     0.135 A 
ATOM     73  C   UNL A   1      45.014  28.513  35.337  1.00  0.00     0.135 A 
ATOM     74  F   UNL A   1      42.046  27.049  36.851  1.00  0.00    -0.206 F 
ATOM     75  C   UNL A   1      44.310  26.510  37.139  1.00  0.00     0.059 A 
ATOM     76  C   UNL A   1      46.012  27.731  35.912  1.00  0.00     0.059 A 
ATOM     77  F   UNL A   1      45.385  29.477  34.479  1.00  0.00    -0.206 F 
ATOM     78  C   UNL A   1      45.650  26.743  36.826  1.00  0.00     0.060 A 
BRANCH  78  79
ATOM     79  S   UNL A   1      46.911  25.732  37.632  1.00  0.00     0.124 S 
ATOM     80  O   UNL A   1      47.017  24.609  36.706  1.00  0.00    -0.237 OA
ATOM     81  O   UNL A   1      48.056  26.633  37.672  1.00  0.00    -0.237 OA
ATOM     82  O   UNL A   1      46.316  25.419  38.931  1.00  0.00    -0.744 OA
ENDBRANCH  78  79
ENDBRANCH  57  71
BRANCH  58  83
ATOM     83  C   UNL A   1      36.398  33.375  31.023  1.00  0.00     0.058 A 
ATOM     84  C   UNL A   1      35.081  33.296  31.498  1.00  0.00     0.135 A 
ATOM     85  C   UNL A   1      36.641  34.186  29.903  1.00  0.00     0.135 A 
ATOM     86  F   UNL A   1      34.796  32.525  32.559  1.00  0.00    -0.206 F 
ATOM     87  C   UNL A   1      34.039  33.981  30.880  1.00  0.00     0.059 A 
ATOM     88  C   UNL A   1      35.620  34.903  29.285  1.00  0.00     0.059 A 
ATOM     89  F   UNL A   1      37.885  34.307  29.416  1.00  0.00    -0.206 F 
ATOM     90  C   UNL A   1      34.321  34.786  29.775  1.00  0.00     0.060 A 
BRANCH  90  91
ATOM     91  S   UNL A   1      32.970  35.710  29.012  1.00  0.00     0.124 S 
ATOM     92  O   UNL A   1      32.404  34.713  28.111  1.00  0.00    -0.237 OA
ATOM     93  O   UNL A   1      32.153  36.066  30.167  1.00  0.00    -0.237 OA
ATOM     94  O   UNL A   1      33.652  36.828  28.367  1.00  0.00    -0.744 OA
ENDBRANCH  90  91
ENDBRANCH  58  83
BRANCH  70  95
ATOM     95  C   UNL A   1      39.766  34.213  37.077  1.00  0.00     0.058 A 
ATOM     96  C   UNL A   1      40.319  35.496  36.944  1.00  0.00     0.135 A 
ATOM     97  C   UNL A   1      39.057  33.927  38.256  1.00  0.00     0.135 A 
ATOM     98  F   UNL A   1      41.013  35.821  35.841  1.00  0.00    -0.206 F 
ATOM     99  C   UNL A   1      40.193  36.452  37.947  1.00  0.00     0.059 A 
ATOM    100  C   UNL A   1      38.892  34.877  39.260  1.00  0.00     0.059 A 
ATOM    101  F   UNL A   1      38.499  32.719  38.434  1.00  0.00    -0.206 F 
ATOM    102  C   UNL A   1      39.474  36.133  39.102  1.00  0.00     0.060 A 
BRANCH 102 103
ATOM    103  S   UNL A   1      39.284  37.395  40.380  1.00  0.00     0.124 S 
ATOM    104  O   UNL A   1      38.550  36.663  41.408  1.00  0.00    -0.237 OA
ATOM    105  O   UNL A   1      40.670  37.723  40.702  1.00  0.00    -0.237 OA
ATOM    106  O   UNL A   1      38.536  38.451  39.707  1.00  0.00    -0.744 OA
ENDBRANCH 102 103
ENDBRANCH  70  95
ENDBRANCH  44  45
ENDBRANCH  36  39
ENDBRANCH  34  35
ENDBRANCH   1  34
TORSDOF 16
ENDMDL
MODEL 2
REMARK VINA RESULT:     -13.3      5.042     10.715
REMARK SMILES Cc1ccc(N2CC[NH+]([C@H](C(=O)NCCCNC(=O)c3ccc(-c4c5nc(c(-c6c(F)cc(S(=O)(=O)[O-])cc6F)c6ccc([nH]6)c(-c6c(F)cc(S(=O)(=O)[O-])cc6F)c6nc(c(-c7c(F)cc(S(=O)(=O)[O-])cc7F)c7ccc4[nH]7)C=C6)C=C5)cc3)c3c[nH]c4cc(Br)ccc34)CC2)c(C)c1
REMARK SMILES IDX 15 1 14 2 13 3 11 4 12 5 10 7 9 8 6 9 7 10 97 11 8 12 96 13
REMARK SMILES IDX 5 15 1 16 2 17 3 18 100 19 4 20 98 21 99 22 86 23 87 24
REMARK SMILES IDX 95 25 88 26 89 27 94 28 90 30 93 31 91 32 92 33 16 34 17 35
REMARK SMILES IDX 18 36 19 38 20 39 21 40 85 41 22 42 84 43 23 44 24 45 25 46
REMARK SMILES IDX 78 47 26 48 83 49 77 50 79 51 27 52 82 53 76 54 75 55 28 57
REMARK SMILES IDX 62 58 41 59 61 60 42 61 45 62 60 63 80 64 43 65 44 66 59 68
REMARK SMILES IDX 81 69 46 70 29 71 30 72 39 73 31 74 32 75 38 76 40 77 33 78
REMARK SMILES IDX 34 79 35 80 36 81 37 82 63 83 64 84 73 85 65 86 66 87 72 88
REMARK SMILES IDX 74 89 67 90 68 91 69 92 70 93 71 94 47 95 48 96 57 97 49 98
REMARK SMILES IDX 50 99 56 100 58 101 51 102 52 103 53 104 54 105 55 106
REMARK H PARENT 13 6 9 14 88 29 17 37 79 56 45 67
REMARK Flexibility Score: inf
ROOT
ATOM      1  C   UNL A   1      33.894  28.385  25.642  1.00  0.00     0.042 C 
ENDROOT
BRANCH   1   2
ATOM      2  C   UNL A   1      33.622  27.044  24.953  1.00  0.00     0.118 C 
BRANCH   2   3
ATOM      3  N   UNL A   1      33.666  27.111  23.506  1.00  0.00    -0.351 N 
ATOM      4  C   UNL A   1      32.712  26.842  22.562  1.00  0.00     0.283 C 
ATOM      5  O   UNL A   1      32.942  27.326  21.445  1.00  0.00    -0.268 OA
ATOM      6  H   UNL A   1      34.533  27.400  23.139  1.00  0.00     0.163 HD
BRANCH   4   7
ATOM      7  C   UNL A   1      31.437  25.956  22.874  1.00  0.00     0.307 C 
BRANCH   7   8
ATOM      8  N   UNL A   1      31.885  24.574  23.180  1.00  0.00    -0.318 N 
ATOM      9  N   UNL A   1      33.575  22.353  24.066  1.00  0.00    -0.360 N 
ATOM     10  C   UNL A   1      32.486  22.843  24.916  1.00  0.00     0.178 C 
ATOM     11  C   UNL A   1      33.375  22.569  22.628  1.00  0.00     0.178 C 
ATOM     12  C   UNL A   1      32.143  24.324  24.605  1.00  0.00     0.284 C 
ATOM     13  C   UNL A   1      32.929  24.016  22.303  1.00  0.00     0.284 C 
ATOM     14  H   UNL A   1      31.056  24.031  22.941  1.00  0.00     0.349 HD
BRANCH   9  15
ATOM     15  C   UNL A   1      34.858  22.317  24.590  1.00  0.00     0.040 A 
ATOM     16  C   UNL A   1      38.913  22.242  26.143  1.00  0.00     0.044 C 
ATOM     17  C   UNL A   1      37.504  22.281  25.631  1.00  0.00    -0.051 A 
ATOM     18  C   UNL A   1      36.908  23.482  25.260  1.00  0.00     0.005 A 
ATOM     19  C   UNL A   1      36.767  21.100  25.494  1.00  0.00     0.009 A 
ATOM     20  C   UNL A   1      35.608  23.485  24.748  1.00  0.00     0.026 A 
ATOM     21  C   UNL A   1      35.453  21.106  24.979  1.00  0.00    -0.027 A 
ATOM     22  C   UNL A   1      34.737  19.790  24.854  1.00  0.00     0.046 C 
ENDBRANCH   9  15
ENDBRANCH   7   8
BRANCH   7  23
ATOM     23  C   UNL A   1      30.509  26.700  23.895  1.00  0.00     0.044 A 
ATOM     24  C   UNL A   1      29.304  26.111  24.286  1.00  0.00     0.094 A 
ATOM     25  C   UNL A   1      30.087  28.076  23.904  1.00  0.00     0.009 A 
ATOM     26  N   UNL A   1      28.372  26.755  23.490  1.00  0.00    -0.361 N 
ATOM     27  C   UNL A   1      28.808  28.055  23.344  1.00  0.00     0.047 A 
ATOM     28  C   UNL A   1      30.619  29.330  24.257  1.00  0.00     0.012 A 
ATOM     29  H   UNL A   1      27.555  26.361  23.104  1.00  0.00     0.166 HD
ATOM     30  C   UNL A   1      28.174  29.189  22.833  1.00  0.00     0.042 A 
ATOM     31  C   UNL A   1      29.968  30.497  23.831  1.00  0.00     0.016 A 
ATOM     32  C   UNL A   1      28.802  30.413  23.072  1.00  0.00     0.020 A 
ATOM     33  Br  UNL A   1      28.018  31.996  22.388  1.00  0.00    -0.051 Br
ENDBRANCH   7  23
ENDBRANCH   4   7
ENDBRANCH   2   3
ENDBRANCH   1   2
BRANCH   1  34
ATOM     34  C   UNL A   1      33.532  28.496  27.127  1.00  0.00     0.118 C 
BRANCH  34  35
ATOM     35  N   UNL A   1      33.482  29.857  27.637  1.00  0.00    -0.352 N 
ATOM     36  C   UNL A   1      34.451  30.616  28.260  1.00  0.00     0.251 C 
ATOM     37  H   UNL A   1      32.616  30.311  27.519  1.00  0.00     0.163 HD
ATOM     38  O   UNL A   1      34.152  31.738  28.667  1.00  0.00    -0.269 OA
BRANCH  36  39
ATOM     39  C   UNL A   1      35.827  30.102  28.488  1.00  0.00     0.039 A 
ATOM     40  C   UNL A   1      36.723  30.096  27.411  1.00  0.00     0.014 A 
ATOM     41  C   UNL A   1      36.244  29.595  29.722  1.00  0.00     0.014 A 
ATOM     42  C   UNL A   1      38.047  29.671  27.592  1.00  0.00     0.010 A 
ATOM     43  C   UNL A   1      37.582  29.230  29.917  1.00  0.00     0.010 A 
ATOM     44  C   UNL A   1      38.505  29.277  28.860  1.00  0.00    -0.014 A 
BRANCH  44  45
ATOM     45  C   UNL A   1      39.942  28.960  29.102  1.00  0.00     0.031 A 
ATOM     46  C   UNL A   1      40.883  29.997  29.658  1.00  0.00     0.074 A 
ATOM     47  C   UNL A   1      40.425  27.747  28.755  1.00  0.00     0.049 A 
ATOM     48  N   UNL A   1      42.174  29.919  29.861  1.00  0.00    -0.248 NA
ATOM     49  C   UNL A   1      40.299  31.298  30.016  1.00  0.00     0.031 C 
ATOM     50  C   UNL A   1      39.636  26.657  28.176  1.00  0.00     0.029 A 
ATOM     51  N   UNL A   1      41.697  27.230  28.825  1.00  0.00    -0.354 N 
ATOM     52  C   UNL A   1      42.562  31.162  30.351  1.00  0.00     0.074 A 
ATOM     53  C   UNL A   1      41.373  31.988  30.377  1.00  0.00     0.031 C 
ATOM     54  C   UNL A   1      40.434  25.598  27.966  1.00  0.00     0.029 A 
ATOM     55  C   UNL A   1      41.800  25.943  28.347  1.00  0.00     0.049 A 
ATOM     56  H   UNL A   1      42.463  27.733  29.183  1.00  0.00     0.167 HD
ATOM     57  C   UNL A   1      43.791  31.573  30.753  1.00  0.00     0.037 A 
ATOM     58  C   UNL A   1      42.870  25.133  28.216  1.00  0.00     0.037 A 
ATOM     59  C   UNL A   1      44.970  30.744  30.746  1.00  0.00     0.049 A 
ATOM     60  C   UNL A   1      44.227  25.621  28.649  1.00  0.00     0.074 A 
ATOM     61  C   UNL A   1      46.241  31.054  31.199  1.00  0.00     0.029 A 
ATOM     62  N   UNL A   1      45.030  29.447  30.256  1.00  0.00    -0.354 N 
ATOM     63  N   UNL A   1      44.560  26.778  29.170  1.00  0.00    -0.248 NA
ATOM     64  C   UNL A   1      45.355  24.694  28.476  1.00  0.00     0.031 C 
ATOM     65  C   UNL A   1      47.082  29.969  30.931  1.00  0.00     0.029 A 
ATOM     66  C   UNL A   1      46.322  28.958  30.366  1.00  0.00     0.049 A 
ATOM     67  H   UNL A   1      44.268  28.948  29.884  1.00  0.00     0.167 HD
ATOM     68  C   UNL A   1      45.927  26.704  29.420  1.00  0.00     0.074 A 
ATOM     69  C   UNL A   1      46.358  25.387  28.998  1.00  0.00     0.031 C 
ATOM     70  C   UNL A   1      46.747  27.642  29.953  1.00  0.00     0.037 A 
BRANCH  57  71
ATOM     71  C   UNL A   1      43.932  32.995  31.231  1.00  0.00     0.058 A 
ATOM     72  C   UNL A   1      44.230  34.047  30.351  1.00  0.00     0.135 A 
ATOM     73  C   UNL A   1      43.719  33.317  32.582  1.00  0.00     0.135 A 
ATOM     74  F   UNL A   1      44.453  33.799  29.050  1.00  0.00    -0.206 F 
ATOM     75  C   UNL A   1      44.347  35.361  30.798  1.00  0.00     0.059 A 
ATOM     76  C   UNL A   1      43.799  34.627  33.045  1.00  0.00     0.059 A 
ATOM     77  F   UNL A   1      43.423  32.352  33.468  1.00  0.00    -0.206 F 
ATOM     78  C   UNL A   1      44.131  35.640  32.148  1.00  0.00     0.060 A 
BRANCH  78  79
ATOM     79  S   UNL A   1      44.291  37.348  32.710  1.00  0.00     0.124 S 
ATOM     80  O   UNL A   1      43.257  37.413  33.738  1.00  0.00    -0.237 OA
ATOM     81  O   UNL A   1      45.666  37.394  33.188  1.00  0.00    -0.237 OA
ATOM     82  O   UNL A   1      44.023  38.129  31.502  1.00  0.00    -0.744 OA
ENDBRANCH  78  79
ENDBRANCH  57  71
BRANCH  58  83
ATOM     83  C   UNL A   1      42.701  23.760  27.666  1.00  0.00     0.058 A 
ATOM     84  C   UNL A   1      42.483  22.667  28.516  1.00  0.00     0.135 A 
ATOM     85  C   UNL A   1      42.752  23.514  26.285  1.00  0.00     0.135 A 
ATOM     86  F   UNL A   1      42.438  22.849  29.845  1.00  0.00    -0.206 F 
ATOM     87  C   UNL A   1      42.333  21.375  28.021  1.00  0.00     0.059 A 
ATOM     88  C   UNL A   1      42.577  22.234  25.764  1.00  0.00     0.059 A 
ATOM     89  F   UNL A   1      42.946  24.526  25.426  1.00  0.00    -0.206 F 
ATOM     90  C   UNL A   1      42.378  21.170  26.641  1.00  0.00     0.060 A 
BRANCH  90  91
ATOM     91  S   UNL A   1      42.133  19.497  26.007  1.00  0.00     0.124 S 
ATOM     92  O   UNL A   1      40.706  19.501  25.709  1.00  0.00    -0.237 OA
ATOM     93  O   UNL A   1      43.028  19.474  24.854  1.00  0.00    -0.237 OA
ATOM     94  O   UNL A   1      42.543  18.652  27.125  1.00  0.00    -0.744 OA
ENDBRANCH  90  91
ENDBRANCH  58  83
BRANCH  70  95
ATOM     95  C   UNL A   1      48.192  27.272  30.158  1.00  0.00     0.058 A 
ATOM     96  C   UNL A   1      49.175  27.558  29.198  1.00  0.00     0.135 A 
ATOM     97  C   UNL A   1      48.607  26.669  31.358  1.00  0.00     0.135 A 
ATOM     98  F   UNL A   1      48.834  28.127  28.030  1.00  0.00    -0.206 F 
ATOM     99  C   UNL A   1      50.514  27.241  29.409  1.00  0.00     0.059 A 
ATOM    100  C   UNL A   1      49.944  26.370  31.603  1.00  0.00     0.059 A 
ATOM    101  F   UNL A   1      47.711  26.380  32.314  1.00  0.00    -0.206 F 
ATOM    102  C   UNL A   1      50.889  26.650  30.618  1.00  0.00     0.060 A 
BRANCH 102 103
ATOM    103  S   UNL A   1      52.635  26.279  30.896  1.00  0.00     0.124 S 
ATOM    104  O   UNL A   1      52.554  25.026  31.639  1.00  0.00    -0.237 OA
ATOM    105  O   UNL A   1      53.152  26.176  29.534  1.00  0.00    -0.237 OA
ATOM    106  O   UNL A   1      53.110  27.430  31.656  1.00  0.00    -0.744 OA
ENDBRANCH 102 103
ENDBRANCH  70  95
ENDBRANCH  44  45
ENDBRANCH  36  39
ENDBRANCH  34  35
ENDBRANCH   1  34
TORSDOF 16
ENDMDL
MODEL 3
REMARK VINA RESULT:     -13.1      2.747      3.541
REMARK SMILES Cc1ccc(N2CC[NH+]([C@H](C(=O)NCCCNC(=O)c3ccc(-c4c5nc(c(-c6c(F)cc(S(=O)(=O)[O-])cc6F)c6ccc([nH]6)c(-c6c(F)cc(S(=O)(=O)[O-])cc6F)c6nc(c(-c7c(F)cc(S(=O)(=O)[O-])cc7F)c7ccc4[nH]7)C=C6)C=C5)cc3)c3c[nH]c4cc(Br)ccc34)CC2)c(C)c1
REMARK SMILES IDX 15 1 14 2 13 3 11 4 12 5 10 7 9 8 6 9 7 10 97 11 8 12 96 13
REMARK SMILES IDX 5 15 1 16 2 17 3 18 100 19 4 20 98 21 99 22 86 23 87 24
REMARK SMILES IDX 95 25 88 26 89 27 94 28 90 30 93 31 91 32 92 33 16 34 17 35
REMARK SMILES IDX 18 36 19 38 20 39 21 40 85 41 22 42 84 43 23 44 24 45 25 46
REMARK SMILES IDX 78 47 26 48 83 49 77 50 79 51 27 52 82 53 76 54 75 55 28 57
REMARK SMILES IDX 62 58 41 59 61 60 42 61 45 62 60 63 80 64 43 65 44 66 59 68
REMARK SMILES IDX 81 69 46 70 29 71 30 72 39 73 31 74 32 75 38 76 40 77 33 78
REMARK SMILES IDX 34 79 35 80 36 81 37 82 63 83 64 84 73 85 65 86 66 87 72 88
REMARK SMILES IDX 74 89 67 90 68 91 69 92 70 93 71 94 47 95 48 96 57 97 49 98
REMARK SMILES IDX 50 99 56 100 58 101 51 102 52 103 53 104 54 105 55 106
REMARK H PARENT 13 6 9 14 88 29 17 37 79 56 45 67
REMARK Flexibility Score: inf
ROOT
ATOM      1  C   UNL A   1      35.610  23.418  26.175  1.00  0.00     0.042 C 
ENDROOT
BRANCH   1   2
ATOM      2  C   UNL A   1      34.280  24.105  25.854  1.00  0.00     0.118 C 
BRANCH   2   3
ATOM      3  N   UNL A   1      33.147  23.549  26.568  1.00  0.00    -0.351 N 
ATOM      4  C   UNL A   1      32.030  22.900  26.118  1.00  0.00     0.283 C 
ATOM      5  O   UNL A   1      31.432  22.245  26.983  1.00  0.00    -0.268 OA
ATOM      6  H   UNL A   1      33.191  23.657  27.545  1.00  0.00     0.163 HD
BRANCH   4   7
ATOM      7  C   UNL A   1      31.532  23.007  24.619  1.00  0.00     0.307 C 
BRANCH   7   8
ATOM      8  N   UNL A   1      31.184  24.423  24.337  1.00  0.00    -0.318 N 
ATOM      9  N   UNL A   1      31.192  27.348  24.478  1.00  0.00    -0.360 N 
ATOM     10  C   UNL A   1      31.865  26.655  23.375  1.00  0.00     0.178 C 
ATOM     11  C   UNL A   1      30.075  26.607  25.076  1.00  0.00     0.178 C 
ATOM     12  C   UNL A   1      32.288  25.217  23.779  1.00  0.00     0.284 C 
ATOM     13  C   UNL A   1      30.441  25.136  25.391  1.00  0.00     0.284 C 
ATOM     14  H   UNL A   1      30.499  24.322  23.589  1.00  0.00     0.349 HD
BRANCH   9  15
ATOM     15  C   UNL A   1      31.926  28.236  25.247  1.00  0.00     0.040 A 
ATOM     16  C   UNL A   1      34.195  30.971  27.744  1.00  0.00     0.044 C 
ATOM     17  C   UNL A   1      33.435  30.023  26.865  1.00  0.00    -0.051 A 
ATOM     18  C   UNL A   1      33.717  28.660  26.867  1.00  0.00     0.005 A 
ATOM     19  C   UNL A   1      32.407  30.491  26.041  1.00  0.00     0.009 A 
ATOM     20  C   UNL A   1      32.966  27.794  26.068  1.00  0.00     0.026 A 
ATOM     21  C   UNL A   1      31.652  29.613  25.233  1.00  0.00    -0.027 A 
ATOM     22  C   UNL A   1      30.556  30.199  24.386  1.00  0.00     0.046 C 
ENDBRANCH   9  15
ENDBRANCH   7   8
BRANCH   7  23
ATOM     23  C   UNL A   1      32.537  22.267  23.670  1.00  0.00     0.044 A 
ATOM     24  C   UNL A   1      32.269  22.201  22.300  1.00  0.00     0.094 A 
ATOM     25  C   UNL A   1      33.153  20.976  23.829  1.00  0.00     0.009 A 
ATOM     26  N   UNL A   1      31.724  20.937  22.151  1.00  0.00    -0.361 N 
ATOM     27  C   UNL A   1      32.377  20.117  23.048  1.00  0.00     0.047 A 
ATOM     28  C   UNL A   1      34.216  20.408  24.556  1.00  0.00     0.012 A 
ATOM     29  H   UNL A   1      31.009  20.674  21.525  1.00  0.00     0.166 HD
ATOM     30  C   UNL A   1      32.391  18.728  23.187  1.00  0.00     0.042 A 
ATOM     31  C   UNL A   1      34.312  19.012  24.654  1.00  0.00     0.016 A 
ATOM     32  C   UNL A   1      33.367  18.198  24.032  1.00  0.00     0.020 A 
ATOM     33  Br  UNL A   1      33.434  16.323  24.295  1.00  0.00    -0.051 Br
ENDBRANCH   7  23
ENDBRANCH   4   7
ENDBRANCH   2   3
ENDBRANCH   1   2
BRANCH   1  34
ATOM     34  C   UNL A   1      36.768  23.640  25.196  1.00  0.00     0.118 C 
BRANCH  34  35
ATOM     35  N   UNL A   1      37.904  22.752  25.390  1.00  0.00    -0.352 N 
ATOM     36  C   UNL A   1      39.098  22.957  26.049  1.00  0.00     0.251 C 
ATOM     37  H   UNL A   1      37.804  21.860  24.985  1.00  0.00     0.163 HD
ATOM     38  O   UNL A   1      39.946  22.066  26.026  1.00  0.00    -0.269 OA
BRANCH  36  39
ATOM     39  C   UNL A   1      39.401  24.234  26.748  1.00  0.00     0.039 A 
ATOM     40  C   UNL A   1      38.903  24.418  28.045  1.00  0.00     0.014 A 
ATOM     41  C   UNL A   1      40.131  25.263  26.148  1.00  0.00     0.014 A 
ATOM     42  C   UNL A   1      39.210  25.582  28.764  1.00  0.00     0.010 A 
ATOM     43  C   UNL A   1      40.488  26.397  26.888  1.00  0.00     0.010 A 
ATOM     44  C   UNL A   1      40.046  26.565  28.210  1.00  0.00    -0.014 A 
BRANCH  44  45
ATOM     45  C   UNL A   1      40.498  27.740  29.010  1.00  0.00     0.031 A 
ATOM     46  C   UNL A   1      41.827  27.731  29.721  1.00  0.00     0.074 A 
ATOM     47  C   UNL A   1      39.677  28.803  29.158  1.00  0.00     0.049 A 
ATOM     48  N   UNL A   1      42.345  28.629  30.519  1.00  0.00    -0.248 NA
ATOM     49  C   UNL A   1      42.676  26.547  29.522  1.00  0.00     0.031 C 
ATOM     50  C   UNL A   1      38.349  28.935  28.554  1.00  0.00     0.029 A 
ATOM     51  N   UNL A   1      39.831  29.968  29.872  1.00  0.00    -0.354 N 
ATOM     52  C   UNL A   1      43.570  28.115  30.933  1.00  0.00     0.074 A 
ATOM     53  C   UNL A   1      43.697  26.806  30.328  1.00  0.00     0.031 C 
ATOM     54  C   UNL A   1      37.822  30.119  28.904  1.00  0.00     0.029 A 
ATOM     55  C   UNL A   1      38.747  30.813  29.794  1.00  0.00     0.049 A 
ATOM     56  H   UNL A   1      40.640  30.178  30.391  1.00  0.00     0.167 HD
ATOM     57  C   UNL A   1      44.506  28.685  31.733  1.00  0.00     0.037 A 
ATOM     58  C   UNL A   1      38.514  32.005  30.380  1.00  0.00     0.037 A 
ATOM     59  C   UNL A   1      44.388  29.997  32.319  1.00  0.00     0.049 A 
ATOM     60  C   UNL A   1      39.559  32.606  31.282  1.00  0.00     0.074 A 
ATOM     61  C   UNL A   1      45.314  30.682  33.086  1.00  0.00     0.029 A 
ATOM     62  N   UNL A   1      43.275  30.819  32.213  1.00  0.00    -0.354 N 
ATOM     63  N   UNL A   1      40.737  32.131  31.608  1.00  0.00    -0.248 NA
ATOM     64  C   UNL A   1      39.244  33.904  31.895  1.00  0.00     0.031 C 
ATOM     65  C   UNL A   1      44.743  31.892  33.492  1.00  0.00     0.029 A 
ATOM     66  C   UNL A   1      43.481  31.990  32.928  1.00  0.00     0.049 A 
ATOM     67  H   UNL A   1      42.459  30.604  31.707  1.00  0.00     0.167 HD
ATOM     68  C   UNL A   1      41.317  33.089  32.435  1.00  0.00     0.074 A 
ATOM     69  C   UNL A   1      40.363  34.172  32.554  1.00  0.00     0.031 C 
ATOM     70  C   UNL A   1      42.532  33.071  33.037  1.00  0.00     0.037 A 
BRANCH  57  71
ATOM     71  C   UNL A   1      45.748  27.888  32.035  1.00  0.00     0.058 A 
ATOM     72  C   UNL A   1      46.909  27.999  31.254  1.00  0.00     0.135 A 
ATOM     73  C   UNL A   1      45.794  27.037  33.152  1.00  0.00     0.135 A 
ATOM     74  F   UNL A   1      46.922  28.790  30.169  1.00  0.00    -0.206 F 
ATOM     75  C   UNL A   1      48.058  27.269  31.547  1.00  0.00     0.059 A 
ATOM     76  C   UNL A   1      46.941  26.321  33.482  1.00  0.00     0.059 A 
ATOM     77  F   UNL A   1      44.716  26.897  33.940  1.00  0.00    -0.206 F 
ATOM     78  C   UNL A   1      48.063  26.431  32.663  1.00  0.00     0.060 A 
BRANCH  78  79
ATOM     79  S   UNL A   1      49.560  25.489  33.025  1.00  0.00     0.124 S 
ATOM     80  O   UNL A   1      49.852  24.897  31.723  1.00  0.00    -0.237 OA
ATOM     81  O   UNL A   1      50.482  26.525  33.472  1.00  0.00    -0.237 OA
ATOM     82  O   UNL A   1      49.128  24.548  34.058  1.00  0.00    -0.744 OA
ENDBRANCH  78  79
ENDBRANCH  57  71
BRANCH  58  83
ATOM     83  C   UNL A   1      37.238  32.726  30.117  1.00  0.00     0.058 A 
ATOM     84  C   UNL A   1      36.102  32.484  30.902  1.00  0.00     0.135 A 
ATOM     85  C   UNL A   1      37.129  33.670  29.084  1.00  0.00     0.135 A 
ATOM     86  F   UNL A   1      36.152  31.582  31.895  1.00  0.00    -0.206 F 
ATOM     87  C   UNL A   1      34.897  33.140  30.666  1.00  0.00     0.059 A 
ATOM     88  C   UNL A   1      35.943  34.359  28.846  1.00  0.00     0.059 A 
ATOM     89  F   UNL A   1      38.190  33.948  28.311  1.00  0.00    -0.206 F 
ATOM     90  C   UNL A   1      34.830  34.080  29.636  1.00  0.00     0.060 A 
BRANCH  90  91
ATOM     91  S   UNL A   1      33.277  34.962  29.370  1.00  0.00     0.124 S 
ATOM     92  O   UNL A   1      32.699  34.951  30.709  1.00  0.00    -0.237 OA
ATOM     93  O   UNL A   1      33.740  36.257  28.884  1.00  0.00    -0.237 OA
ATOM     94  O   UNL A   1      32.590  34.138  28.380  1.00  0.00    -0.744 OA
ENDBRANCH  90  91
ENDBRANCH  58  83
BRANCH  70  95
ATOM     95  C   UNL A   1      42.928  34.277  33.847  1.00  0.00     0.058 A 
ATOM     96  C   UNL A   1      42.742  34.331  35.238  1.00  0.00     0.135 A 
ATOM     97  C   UNL A   1      43.552  35.373  33.229  1.00  0.00     0.135 A 
ATOM     98  F   UNL A   1      42.144  33.314  35.879  1.00  0.00    -0.206 F 
ATOM     99  C   UNL A   1      43.140  35.437  35.983  1.00  0.00     0.059 A 
ATOM    100  C   UNL A   1      43.985  36.476  33.959  1.00  0.00     0.059 A 
ATOM    101  F   UNL A   1      43.763  35.372  31.903  1.00  0.00    -0.206 F 
ATOM    102  C   UNL A   1      43.764  36.504  35.334  1.00  0.00     0.060 A 
BRANCH 102 103
ATOM    103  S   UNL A   1      44.312  37.916  36.318  1.00  0.00     0.124 S 
ATOM    104  O   UNL A   1      43.396  37.855  37.453  1.00  0.00    -0.237 OA
ATOM    105  O   UNL A   1      45.702  37.576  36.606  1.00  0.00    -0.237 OA
ATOM    106  O   UNL A   1      44.123  39.051  35.420  1.00  0.00    -0.744 OA
ENDBRANCH 102 103
ENDBRANCH  70  95
ENDBRANCH  44  45
ENDBRANCH  36  39
ENDBRANCH  34  35
ENDBRANCH   1  34
TORSDOF 16
ENDMDL
