MODEL 1
REMARK VINA RESULT:     -11.7      0.000      0.000
REMARK SMILES CC1(C)CCCC[C@@]1(C(=O)NCCCNC(=O)c1ccc(-c2c3nc(c(-c4c(F)cc(S(=O)(=O)[O-])cc4F)c4ccc([nH]4)c(-c4c(F)cc(S(=O)(=O)[O-])cc4F)c4nc(c(-c5c(F)cc(S(=O)(=O)[O-])cc5F)c5ccc2[nH]5)C=C4)C=C3)cc1)[NH+]1CC[NH2+]CC1
REMARK SMILES IDX 14 1 13 2 12 3 11 4 9 5 10 6 8 8 1 9 2 10 3 11 4 12 5 13
REMARK SMILES IDX 7 14 6 15 84 16 85 17 89 18 86 20 88 21 87 22 15 25 16 26
REMARK SMILES IDX 17 28 18 29 19 30 83 31 20 32 82 33 21 34 22 35 23 36 76 37
REMARK SMILES IDX 24 38 81 39 75 40 77 41 25 42 80 43 74 44 73 45 26 47 60 48
REMARK SMILES IDX 39 49 59 50 40 51 43 52 58 53 78 54 41 55 42 56 57 58 79 59
REMARK SMILES IDX 44 60 27 61 28 62 37 63 29 64 30 65 36 66 38 67 31 68 32 69
REMARK SMILES IDX 33 70 34 71 35 72 61 73 62 74 71 75 63 76 64 77 70 78 72 79
REMARK SMILES IDX 65 80 66 81 67 82 68 83 69 84 45 85 46 86 55 87 47 88 48 89
REMARK SMILES IDX 54 90 56 91 49 92 50 93 51 94 52 95 53 96
REMARK H PARENT 11 7 84 19 87 23 87 24 15 27 77 46 43 57
REMARK Flexibility Score: inf
ROOT
ATOM      1  C   UNL A   1      33.453  28.261  27.231  1.00  0.00     0.118 C 
ENDROOT
BRANCH   1   2
ATOM      2  C   UNL A   1      33.826  27.997  25.784  1.00  0.00     0.042 C 
BRANCH   2   3
ATOM      3  C   UNL A   1      32.865  27.077  25.055  1.00  0.00     0.118 C 
BRANCH   3   4
ATOM      4  N   UNL A   1      33.480  26.285  24.012  1.00  0.00    -0.351 N 
ATOM      5  C   UNL A   1      33.690  24.964  23.792  1.00  0.00     0.281 C 
ATOM      6  O   UNL A   1      34.155  24.763  22.656  1.00  0.00    -0.268 OA
ATOM      7  H   UNL A   1      33.833  26.844  23.282  1.00  0.00     0.163 HD
BRANCH   5   8
ATOM      8  C   UNL A   1      33.548  23.743  24.850  1.00  0.00     0.182 C 
ATOM      9  C   UNL A   1      32.141  21.454  25.063  1.00  0.00     0.018 C 
ATOM     10  C   UNL A   1      32.390  22.763  24.254  1.00  0.00     0.029 C 
ATOM     11  C   UNL A   1      32.644  22.288  22.803  1.00  0.00     0.018 C 
ATOM     12  C   UNL A   1      31.047  23.552  24.272  1.00  0.00     0.013 C 
ATOM     13  C   UNL A   1      30.597  23.889  25.687  1.00  0.00     0.001 C 
ATOM     14  C   UNL A   1      33.100  24.139  26.291  1.00  0.00     0.080 C 
ATOM     15  C   UNL A   1      31.657  24.647  26.465  1.00  0.00     0.007 C 
BRANCH   8  16
ATOM     16  N   UNL A   1      34.946  23.114  24.870  1.00  0.00    -0.313 N 
ATOM     17  C   UNL A   1      35.101  21.810  25.541  1.00  0.00     0.325 C 
ATOM     18  C   UNL A   1      36.011  24.034  25.359  1.00  0.00     0.325 C 
ATOM     19  H   UNL A   1      35.065  22.927  23.875  1.00  0.00     0.349 HD
ATOM     20  C   UNL A   1      36.542  21.242  25.507  1.00  0.00     0.322 C 
ATOM     21  C   UNL A   1      37.435  23.427  25.324  1.00  0.00     0.322 C 
ATOM     22  N   UNL A   1      37.538  22.163  26.065  1.00  0.00    -0.337 N 
ATOM     23  H   UNL A   1      38.474  21.770  25.956  1.00  0.00     0.346 HD
ATOM     24  H   UNL A   1      37.370  22.314  27.060  1.00  0.00     0.346 HD
ENDBRANCH   8  16
ENDBRANCH   5   8
ENDBRANCH   3   4
ENDBRANCH   2   3
ENDBRANCH   1   2
BRANCH   1  25
ATOM     25  N   UNL A   1      33.463  29.678  27.578  1.00  0.00    -0.352 N 
ATOM     26  C   UNL A   1      34.433  30.481  28.139  1.00  0.00     0.251 C 
ATOM     27  H   UNL A   1      32.622  30.148  27.376  1.00  0.00     0.163 HD
ATOM     28  O   UNL A   1      34.134  31.609  28.509  1.00  0.00    -0.269 OA
BRANCH  26  29
ATOM     29  C   UNL A   1      35.815  29.982  28.330  1.00  0.00     0.039 A 
ATOM     30  C   UNL A   1      36.732  30.074  27.277  1.00  0.00     0.014 A 
ATOM     31  C   UNL A   1      36.215  29.408  29.533  1.00  0.00     0.014 A 
ATOM     32  C   UNL A   1      38.061  29.679  27.472  1.00  0.00     0.010 A 
ATOM     33  C   UNL A   1      37.558  29.154  29.772  1.00  0.00     0.010 A 
ATOM     34  C   UNL A   1      38.499  29.266  28.740  1.00  0.00    -0.014 A 
BRANCH  34  35
ATOM     35  C   UNL A   1      39.916  28.913  29.020  1.00  0.00     0.031 A 
ATOM     36  C   UNL A   1      40.843  29.952  29.602  1.00  0.00     0.074 A 
ATOM     37  C   UNL A   1      40.393  27.703  28.665  1.00  0.00     0.049 A 
ATOM     38  N   UNL A   1      42.138  29.899  29.781  1.00  0.00    -0.248 NA
ATOM     39  C   UNL A   1      40.242  31.242  29.988  1.00  0.00     0.031 C 
ATOM     40  C   UNL A   1      39.615  26.633  28.035  1.00  0.00     0.029 A 
ATOM     41  N   UNL A   1      41.655  27.171  28.769  1.00  0.00    -0.354 N 
ATOM     42  C   UNL A   1      42.505  31.151  30.264  1.00  0.00     0.074 A 
ATOM     43  C   UNL A   1      41.311  31.964  30.283  1.00  0.00     0.031 C 
ATOM     44  C   UNL A   1      40.406  25.566  27.839  1.00  0.00     0.029 A 
ATOM     45  C   UNL A   1      41.757  25.888  28.284  1.00  0.00     0.049 A 
ATOM     46  H   UNL A   1      42.416  27.664  29.153  1.00  0.00     0.167 HD
ATOM     47  C   UNL A   1      43.719  31.576  30.687  1.00  0.00     0.037 A 
ATOM     48  C   UNL A   1      42.822  25.066  28.201  1.00  0.00     0.037 A 
ATOM     49  C   UNL A   1      44.890  30.742  30.721  1.00  0.00     0.049 A 
ATOM     50  C   UNL A   1      44.155  25.550  28.706  1.00  0.00     0.074 A 
ATOM     51  C   UNL A   1      46.151  31.047  31.201  1.00  0.00     0.029 A 
ATOM     52  N   UNL A   1      44.939  29.431  30.267  1.00  0.00    -0.354 N 
ATOM     53  N   UNL A   1      44.469  26.717  29.215  1.00  0.00    -0.248 NA
ATOM     54  C   UNL A   1      45.276  24.604  28.632  1.00  0.00     0.031 C 
ATOM     55  C   UNL A   1      46.974  29.933  31.002  1.00  0.00     0.029 A 
ATOM     56  C   UNL A   1      46.213  28.919  30.442  1.00  0.00     0.049 A 
ATOM     57  H   UNL A   1      44.181  28.940  29.877  1.00  0.00     0.167 HD
ATOM     58  C   UNL A   1      45.817  26.637  29.547  1.00  0.00     0.074 A 
ATOM     59  C   UNL A   1      46.254  25.301  29.193  1.00  0.00     0.031 C 
ATOM     60  C   UNL A   1      46.622  27.581  30.094  1.00  0.00     0.037 A 
BRANCH  47  61
ATOM     61  C   UNL A   1      43.834  32.998  31.169  1.00  0.00     0.058 A 
ATOM     62  C   UNL A   1      44.109  34.056  30.288  1.00  0.00     0.135 A 
ATOM     63  C   UNL A   1      43.642  33.310  32.525  1.00  0.00     0.135 A 
ATOM     64  F   UNL A   1      44.320  33.814  28.984  1.00  0.00    -0.206 F 
ATOM     65  C   UNL A   1      44.223  35.368  30.736  1.00  0.00     0.059 A 
ATOM     66  C   UNL A   1      43.719  34.620  32.991  1.00  0.00     0.059 A 
ATOM     67  F   UNL A   1      43.379  32.339  33.413  1.00  0.00    -0.206 F 
ATOM     68  C   UNL A   1      44.025  35.640  32.091  1.00  0.00     0.060 A 
BRANCH  68  69
ATOM     69  S   UNL A   1      44.167  37.350  32.654  1.00  0.00     0.124 S 
ATOM     70  O   UNL A   1      43.956  38.083  31.409  1.00  0.00    -0.237 OA
ATOM     71  O   UNL A   1      43.091  37.445  33.635  1.00  0.00    -0.237 OA
ATOM     72  O   UNL A   1      45.518  37.417  33.201  1.00  0.00    -0.744 OA
ENDBRANCH  68  69
ENDBRANCH  47  61
BRANCH  48  73
ATOM     73  C   UNL A   1      42.666  23.694  27.647  1.00  0.00     0.058 A 
ATOM     74  C   UNL A   1      42.404  22.603  28.489  1.00  0.00     0.135 A 
ATOM     75  C   UNL A   1      42.765  23.444  26.269  1.00  0.00     0.135 A 
ATOM     76  F   UNL A   1      42.304  22.789  29.814  1.00  0.00    -0.206 F 
ATOM     77  C   UNL A   1      42.267  21.312  27.991  1.00  0.00     0.059 A 
ATOM     78  C   UNL A   1      42.606  22.166  25.744  1.00  0.00     0.059 A 
ATOM     79  F   UNL A   1      42.994  24.455  25.417  1.00  0.00    -0.206 F 
ATOM     80  C   UNL A   1      42.369  21.103  26.615  1.00  0.00     0.060 A 
BRANCH  80  81
ATOM     81  S   UNL A   1      42.147  19.428  25.974  1.00  0.00     0.124 S 
ATOM     82  O   UNL A   1      40.710  19.397  25.729  1.00  0.00    -0.237 OA
ATOM     83  O   UNL A   1      42.998  19.439  24.789  1.00  0.00    -0.237 OA
ATOM     84  O   UNL A   1      42.621  18.586  27.068  1.00  0.00    -0.744 OA
ENDBRANCH  80  81
ENDBRANCH  48  73
BRANCH  60  85
ATOM     85  C   UNL A   1      48.046  27.195  30.379  1.00  0.00     0.058 A 
ATOM     86  C   UNL A   1      49.073  27.426  29.451  1.00  0.00     0.135 A 
ATOM     87  C   UNL A   1      48.394  26.641  31.622  1.00  0.00     0.135 A 
ATOM     88  F   UNL A   1      48.790  27.949  28.248  1.00  0.00    -0.206 F 
ATOM     89  C   UNL A   1      50.394  27.099  29.737  1.00  0.00     0.059 A 
ATOM     90  C   UNL A   1      49.712  26.333  31.939  1.00  0.00     0.059 A 
ATOM     91  F   UNL A   1      47.450  26.411  32.549  1.00  0.00    -0.206 F 
ATOM     92  C   UNL A   1      50.703  26.556  30.985  1.00  0.00     0.060 A 
BRANCH  92  93
ATOM     93  S   UNL A   1      52.428  26.170  31.355  1.00  0.00     0.124 S 
ATOM     94  O   UNL A   1      52.311  24.841  31.945  1.00  0.00    -0.237 OA
ATOM     95  O   UNL A   1      53.051  26.227  30.037  1.00  0.00    -0.237 OA
ATOM     96  O   UNL A   1      52.823  27.232  32.275  1.00  0.00    -0.744 OA
ENDBRANCH  92  93
ENDBRANCH  60  85
ENDBRANCH  34  35
ENDBRANCH  26  29
ENDBRANCH   1  25
TORSDOF 14
ENDMDL
MODEL 2
REMARK VINA RESULT:     -11.3      3.022      4.448
REMARK SMILES CC1(C)CCCC[C@@]1(C(=O)NCCCNC(=O)c1ccc(-c2c3nc(c(-c4c(F)cc(S(=O)(=O)[O-])cc4F)c4ccc([nH]4)c(-c4c(F)cc(S(=O)(=O)[O-])cc4F)c4nc(c(-c5c(F)cc(S(=O)(=O)[O-])cc5F)c5ccc2[nH]5)C=C4)C=C3)cc1)[NH+]1CC[NH2+]CC1
REMARK SMILES IDX 14 1 13 2 12 3 11 4 9 5 10 6 8 8 1 9 2 10 3 11 4 12 5 13
REMARK SMILES IDX 7 14 6 15 84 16 85 17 89 18 86 20 88 21 87 22 15 25 16 26
REMARK SMILES IDX 17 28 18 29 19 30 83 31 20 32 82 33 21 34 22 35 23 36 76 37
REMARK SMILES IDX 24 38 81 39 75 40 77 41 25 42 80 43 74 44 73 45 26 47 60 48
REMARK SMILES IDX 39 49 59 50 40 51 43 52 58 53 78 54 41 55 42 56 57 58 79 59
REMARK SMILES IDX 44 60 27 61 28 62 37 63 29 64 30 65 36 66 38 67 31 68 32 69
REMARK SMILES IDX 33 70 34 71 35 72 61 73 62 74 71 75 63 76 64 77 70 78 72 79
REMARK SMILES IDX 65 80 66 81 67 82 68 83 69 84 45 85 46 86 55 87 47 88 48 89
REMARK SMILES IDX 54 90 56 91 49 92 50 93 51 94 52 95 53 96
REMARK H PARENT 11 7 84 19 87 23 87 24 15 27 77 46 43 57
REMARK Flexibility Score: inf
ROOT
ATOM      1  C   UNL A   1      35.484  30.939  27.835  1.00  0.00     0.118 C 
ENDROOT
BRANCH   1   2
ATOM      2  C   UNL A   1      34.222  30.405  27.184  1.00  0.00     0.042 C 
BRANCH   2   3
ATOM      3  C   UNL A   1      34.050  28.902  27.308  1.00  0.00     0.118 C 
BRANCH   3   4
ATOM      4  N   UNL A   1      32.688  28.482  27.557  1.00  0.00    -0.351 N 
ATOM      5  C   UNL A   1      31.791  27.680  26.933  1.00  0.00     0.281 C 
ATOM      6  O   UNL A   1      30.769  27.520  27.625  1.00  0.00    -0.268 OA
ATOM      7  H   UNL A   1      32.325  28.874  28.384  1.00  0.00     0.163 HD
BRANCH   5   8
ATOM      8  C   UNL A   1      31.861  27.091  25.423  1.00  0.00     0.182 C 
ATOM      9  C   UNL A   1      31.194  24.813  24.148  1.00  0.00     0.018 C 
ATOM     10  C   UNL A   1      31.309  25.560  25.510  1.00  0.00     0.029 C 
ATOM     11  C   UNL A   1      29.908  25.425  26.154  1.00  0.00     0.018 C 
ATOM     12  C   UNL A   1      32.314  24.743  26.376  1.00  0.00     0.013 C 
ATOM     13  C   UNL A   1      33.684  24.638  25.719  1.00  0.00     0.001 C 
ATOM     14  C   UNL A   1      33.284  27.017  24.786  1.00  0.00     0.080 C 
ATOM     15  C   UNL A   1      34.270  25.997  25.384  1.00  0.00     0.007 C 
BRANCH   8  16
ATOM     16  N   UNL A   1      30.956  28.034  24.621  1.00  0.00    -0.313 N 
ATOM     17  C   UNL A   1      30.848  27.809  23.168  1.00  0.00     0.325 C 
ATOM     18  C   UNL A   1      31.231  29.479  24.863  1.00  0.00     0.325 C 
ATOM     19  H   UNL A   1      30.050  27.773  25.008  1.00  0.00     0.349 HD
ATOM     20  C   UNL A   1      29.908  28.800  22.437  1.00  0.00     0.322 C 
ATOM     21  C   UNL A   1      30.280  30.437  24.105  1.00  0.00     0.322 C 
ATOM     22  N   UNL A   1      30.267  30.205  22.655  1.00  0.00    -0.337 N 
ATOM     23  H   UNL A   1      29.579  30.813  22.210  1.00  0.00     0.346 HD
ATOM     24  H   UNL A   1      31.182  30.409  22.250  1.00  0.00     0.346 HD
ENDBRANCH   8  16
ENDBRANCH   5   8
ENDBRANCH   3   4
ENDBRANCH   2   3
ENDBRANCH   1   2
BRANCH   1  25
ATOM     25  N   UNL A   1      35.451  30.876  29.292  1.00  0.00    -0.352 N 
ATOM     26  C   UNL A   1      36.312  30.313  30.210  1.00  0.00     0.251 C 
ATOM     27  H   UNL A   1      34.667  31.316  29.696  1.00  0.00     0.163 HD
ATOM     28  O   UNL A   1      35.966  30.229  31.381  1.00  0.00    -0.269 OA
BRANCH  26  29
ATOM     29  C   UNL A   1      37.629  29.781  29.787  1.00  0.00     0.039 A 
ATOM     30  C   UNL A   1      38.033  29.921  28.455  1.00  0.00     0.014 A 
ATOM     31  C   UNL A   1      38.465  29.129  30.688  1.00  0.00     0.014 A 
ATOM     32  C   UNL A   1      39.307  29.494  28.064  1.00  0.00     0.010 A 
ATOM     33  C   UNL A   1      39.777  28.838  30.338  1.00  0.00     0.010 A 
ATOM     34  C   UNL A   1      40.212  28.997  29.016  1.00  0.00    -0.014 A 
BRANCH  34  35
ATOM     35  C   UNL A   1      41.604  28.605  28.667  1.00  0.00     0.031 A 
ATOM     36  C   UNL A   1      42.687  29.654  28.628  1.00  0.00     0.074 A 
ATOM     37  C   UNL A   1      41.874  27.338  28.294  1.00  0.00     0.049 A 
ATOM     38  N   UNL A   1      43.922  29.553  28.207  1.00  0.00    -0.248 NA
ATOM     39  C   UNL A   1      42.320  31.010  29.074  1.00  0.00     0.031 C 
ATOM     40  C   UNL A   1      40.900  26.244  28.228  1.00  0.00     0.029 A 
ATOM     41  N   UNL A   1      43.048  26.755  27.883  1.00  0.00    -0.354 N 
ATOM     42  C   UNL A   1      44.461  30.832  28.306  1.00  0.00     0.074 A 
ATOM     43  C   UNL A   1      43.402  31.704  28.758  1.00  0.00     0.031 C 
ATOM     44  C   UNL A   1      41.522  25.121  27.834  1.00  0.00     0.029 A 
ATOM     45  C   UNL A   1      42.925  25.420  27.574  1.00  0.00     0.049 A 
ATOM     46  H   UNL A   1      43.897  27.248  27.815  1.00  0.00     0.167 HD
ATOM     47  C   UNL A   1      45.732  31.238  28.075  1.00  0.00     0.037 A 
ATOM     48  C   UNL A   1      43.841  24.539  27.125  1.00  0.00     0.037 A 
ATOM     49  C   UNL A   1      46.795  30.352  27.683  1.00  0.00     0.049 A 
ATOM     50  C   UNL A   1      45.254  25.006  26.906  1.00  0.00     0.074 A 
ATOM     51  C   UNL A   1      48.134  30.644  27.497  1.00  0.00     0.029 A 
ATOM     52  N   UNL A   1      46.640  28.997  27.429  1.00  0.00    -0.354 N 
ATOM     53  N   UNL A   1      45.759  26.207  27.062  1.00  0.00    -0.248 NA
ATOM     54  C   UNL A   1      46.225  24.000  26.455  1.00  0.00     0.031 C 
ATOM     55  C   UNL A   1      48.783  29.473  27.093  1.00  0.00     0.029 A 
ATOM     56  C   UNL A   1      47.856  28.441  27.074  1.00  0.00     0.049 A 
ATOM     57  H   UNL A   1      45.790  28.504  27.491  1.00  0.00     0.167 HD
ATOM     58  C   UNL A   1      47.110  26.095  26.757  1.00  0.00     0.074 A 
ATOM     59  C   UNL A   1      47.346  24.706  26.418  1.00  0.00     0.031 C 
ATOM     60  C   UNL A   1      48.071  27.052  26.753  1.00  0.00     0.037 A 
BRANCH  47  61
ATOM     61  C   UNL A   1      46.046  32.699  28.266  1.00  0.00     0.058 A 
ATOM     62  C   UNL A   1      46.473  33.206  29.503  1.00  0.00     0.135 A 
ATOM     63  C   UNL A   1      45.943  33.598  27.192  1.00  0.00     0.135 A 
ATOM     64  F   UNL A   1      46.572  32.395  30.569  1.00  0.00    -0.206 F 
ATOM     65  C   UNL A   1      46.755  34.556  29.680  1.00  0.00     0.059 A 
ATOM     66  C   UNL A   1      46.251  34.948  27.337  1.00  0.00     0.059 A 
ATOM     67  F   UNL A   1      45.537  33.170  25.986  1.00  0.00    -0.206 F 
ATOM     68  C   UNL A   1      46.641  35.421  28.590  1.00  0.00     0.060 A 
BRANCH  68  69
ATOM     69  S   UNL A   1      47.020  37.169  28.834  1.00  0.00     0.124 S 
ATOM     70  O   UNL A   1      47.758  37.132  30.094  1.00  0.00    -0.237 OA
ATOM     71  O   UNL A   1      47.809  37.485  27.648  1.00  0.00    -0.237 OA
ATOM     72  O   UNL A   1      45.704  37.797  28.895  1.00  0.00    -0.744 OA
ENDBRANCH  68  69
ENDBRANCH  47  61
BRANCH  48  73
ATOM     73  C   UNL A   1      43.458  23.121  26.883  1.00  0.00     0.058 A 
ATOM     74  C   UNL A   1      43.377  22.611  25.578  1.00  0.00     0.135 A 
ATOM     75  C   UNL A   1      43.175  22.247  27.944  1.00  0.00     0.135 A 
ATOM     76  F   UNL A   1      43.633  23.408  24.530  1.00  0.00    -0.206 F 
ATOM     77  C   UNL A   1      43.009  21.292  25.331  1.00  0.00     0.059 A 
ATOM     78  C   UNL A   1      42.830  20.917  27.723  1.00  0.00     0.059 A 
ATOM     79  F   UNL A   1      43.257  22.678  29.212  1.00  0.00    -0.206 F 
ATOM     80  C   UNL A   1      42.738  20.452  26.412  1.00  0.00     0.060 A 
BRANCH  80  81
ATOM     81  S   UNL A   1      42.303  18.730  26.082  1.00  0.00     0.124 S 
ATOM     82  O   UNL A   1      42.561  18.109  27.376  1.00  0.00    -0.237 OA
ATOM     83  O   UNL A   1      40.900  18.837  25.692  1.00  0.00    -0.237 OA
ATOM     84  O   UNL A   1      43.216  18.354  25.006  1.00  0.00    -0.744 OA
ENDBRANCH  80  81
ENDBRANCH  48  73
BRANCH  60  85
ATOM     85  C   UNL A   1      49.470  26.628  26.411  1.00  0.00     0.058 A 
ATOM     86  C   UNL A   1      50.301  25.999  27.350  1.00  0.00     0.135 A 
ATOM     87  C   UNL A   1      49.964  26.801  25.107  1.00  0.00     0.135 A 
ATOM     88  F   UNL A   1      49.877  25.815  28.611  1.00  0.00    -0.206 F 
ATOM     89  C   UNL A   1      51.583  25.576  27.016  1.00  0.00     0.059 A 
ATOM     90  C   UNL A   1      51.232  26.361  24.743  1.00  0.00     0.059 A 
ATOM     91  F   UNL A   1      49.205  27.387  24.168  1.00  0.00    -0.206 F 
ATOM     92  C   UNL A   1      52.038  25.759  25.709  1.00  0.00     0.060 A 
BRANCH  92  93
ATOM     93  S   UNL A   1      53.690  25.173  25.279  1.00  0.00     0.124 S 
ATOM     94  O   UNL A   1      53.543  23.731  25.447  1.00  0.00    -0.237 OA
ATOM     95  O   UNL A   1      53.840  25.639  23.904  1.00  0.00    -0.237 OA
ATOM     96  O   UNL A   1      54.550  25.834  26.256  1.00  0.00    -0.744 OA
ENDBRANCH  92  93
ENDBRANCH  60  85
ENDBRANCH  34  35
ENDBRANCH  26  29
ENDBRANCH   1  25
TORSDOF 14
ENDMDL
MODEL 3
REMARK VINA RESULT:     -11.1      2.726      3.435
REMARK SMILES CC1(C)CCCC[C@@]1(C(=O)NCCCNC(=O)c1ccc(-c2c3nc(c(-c4c(F)cc(S(=O)(=O)[O-])cc4F)c4ccc([nH]4)c(-c4c(F)cc(S(=O)(=O)[O-])cc4F)c4nc(c(-c5c(F)cc(S(=O)(=O)[O-])cc5F)c5ccc2[nH]5)C=C4)C=C3)cc1)[NH+]1CC[NH2+]CC1
REMARK SMILES IDX 14 1 13 2 12 3 11 4 9 5 10 6 8 8 1 9 2 10 3 11 4 12 5 13
REMARK SMILES IDX 7 14 6 15 84 16 85 17 89 18 86 20 88 21 87 22 15 25 16 26
REMARK SMILES IDX 17 28 18 29 19 30 83 31 20 32 82 33 21 34 22 35 23 36 76 37
REMARK SMILES IDX 24 38 81 39 75 40 77 41 25 42 80 43 74 44 73 45 26 47 60 48
REMARK SMILES IDX 39 49 59 50 40 51 43 52 58 53 78 54 41 55 42 56 57 58 79 59
REMARK SMILES IDX 44 60 27 61 28 62 37 63 29 64 30 65 36 66 38 67 31 68 32 69
REMARK SMILES IDX 33 70 34 71 35 72 61 73 62 74 71 75 63 76 64 77 70 78 72 79
REMARK SMILES IDX 65 80 66 81 67 82 68 83 69 84 45 85 46 86 55 87 47 88 48 89
REMARK SMILES IDX 54 90 56 91 49 92 50 93 51 94 52 95 53 96
REMARK H PARENT 11 7 84 19 87 23 87 24 15 27 77 46 43 57
REMARK Flexibility Score: inf
ROOT
ATOM      1  C   UNL A   1      35.024  29.638  27.596  1.00  0.00     0.118 C 
ENDROOT
BRANCH   1   2
ATOM      2  C   UNL A   1      33.572  29.357  27.253  1.00  0.00     0.042 C 
BRANCH   2   3
ATOM      3  C   UNL A   1      33.296  27.917  26.864  1.00  0.00     0.118 C 
BRANCH   3   4
ATOM      4  N   UNL A   1      33.690  27.583  25.512  1.00  0.00    -0.351 N 
ATOM      5  C   UNL A   1      33.349  26.633  24.608  1.00  0.00     0.281 C 
ATOM      6  O   UNL A   1      33.879  26.847  23.504  1.00  0.00    -0.268 OA
ATOM      7  H   UNL A   1      34.374  28.199  25.164  1.00  0.00     0.163 HD
BRANCH   5   8
ATOM      8  C   UNL A   1      32.507  25.270  24.865  1.00  0.00     0.182 C 
ATOM      9  C   UNL A   1      30.772  23.722  23.503  1.00  0.00     0.018 C 
ATOM     10  C   UNL A   1      31.604  25.039  23.527  1.00  0.00     0.029 C 
ATOM     11  C   UNL A   1      32.416  25.017  22.209  1.00  0.00     0.018 C 
ATOM     12  C   UNL A   1      30.580  26.209  23.440  1.00  0.00     0.013 C 
ATOM     13  C   UNL A   1      29.590  26.193  24.598  1.00  0.00     0.001 C 
ATOM     14  C   UNL A   1      31.518  25.297  26.072  1.00  0.00     0.080 C 
ATOM     15  C   UNL A   1      30.282  26.206  25.949  1.00  0.00     0.007 C 
BRANCH   8  16
ATOM     16  N   UNL A   1      33.591  24.206  25.075  1.00  0.00    -0.313 N 
ATOM     17  C   UNL A   1      33.361  23.191  26.119  1.00  0.00     0.325 C 
ATOM     18  C   UNL A   1      34.959  24.771  25.249  1.00  0.00     0.325 C 
ATOM     19  H   UNL A   1      33.520  23.709  24.188  1.00  0.00     0.349 HD
ATOM     20  C   UNL A   1      34.501  22.150  26.259  1.00  0.00     0.322 C 
ATOM     21  C   UNL A   1      36.069  23.701  25.399  1.00  0.00     0.322 C 
ATOM     22  N   UNL A   1      35.813  22.760  26.498  1.00  0.00    -0.337 N 
ATOM     23  H   UNL A   1      36.534  22.038  26.513  1.00  0.00     0.346 HD
ATOM     24  H   UNL A   1      35.827  23.244  27.396  1.00  0.00     0.346 HD
ENDBRANCH   8  16
ENDBRANCH   5   8
ENDBRANCH   3   4
ENDBRANCH   2   3
ENDBRANCH   1   2
BRANCH   1  25
ATOM     25  N   UNL A   1      35.191  30.319  28.875  1.00  0.00    -0.352 N 
ATOM     26  C   UNL A   1      36.252  30.383  29.752  1.00  0.00     0.251 C 
ATOM     27  H   UNL A   1      34.398  30.827  29.167  1.00  0.00     0.163 HD
ATOM     28  O   UNL A   1      36.081  30.872  30.862  1.00  0.00    -0.269 OA
BRANCH  26  29
ATOM     29  C   UNL A   1      37.578  29.837  29.381  1.00  0.00     0.039 A 
ATOM     30  C   UNL A   1      37.971  29.834  28.038  1.00  0.00     0.014 A 
ATOM     31  C   UNL A   1      38.436  29.310  30.343  1.00  0.00     0.014 A 
ATOM     32  C   UNL A   1      39.252  29.395  27.686  1.00  0.00     0.010 A 
ATOM     33  C   UNL A   1      39.751  29.012  30.015  1.00  0.00     0.010 A 
ATOM     34  C   UNL A   1      40.174  29.030  28.680  1.00  0.00    -0.014 A 
BRANCH  34  35
ATOM     35  C   UNL A   1      41.573  28.632  28.365  1.00  0.00     0.031 A 
ATOM     36  C   UNL A   1      42.655  29.683  28.320  1.00  0.00     0.074 A 
ATOM     37  C   UNL A   1      41.852  27.358  28.026  1.00  0.00     0.049 A 
ATOM     38  N   UNL A   1      43.897  29.575  27.924  1.00  0.00    -0.248 NA
ATOM     39  C   UNL A   1      42.278  31.048  28.728  1.00  0.00     0.031 C 
ATOM     40  C   UNL A   1      40.881  26.261  27.969  1.00  0.00     0.029 A 
ATOM     41  N   UNL A   1      43.033  26.768  27.651  1.00  0.00    -0.354 N 
ATOM     42  C   UNL A   1      44.432  30.856  28.002  1.00  0.00     0.074 A 
ATOM     43  C   UNL A   1      43.363  31.737  28.415  1.00  0.00     0.031 C 
ATOM     44  C   UNL A   1      41.512  25.130  27.612  1.00  0.00     0.029 A 
ATOM     45  C   UNL A   1      42.919  25.426  27.370  1.00  0.00     0.049 A 
ATOM     46  H   UNL A   1      43.883  27.261  27.586  1.00  0.00     0.167 HD
ATOM     47  C   UNL A   1      45.706  31.260  27.785  1.00  0.00     0.037 A 
ATOM     48  C   UNL A   1      43.844  24.536  26.959  1.00  0.00     0.037 A 
ATOM     49  C   UNL A   1      46.778  30.368  27.432  1.00  0.00     0.049 A 
ATOM     50  C   UNL A   1      45.260  25.002  26.753  1.00  0.00     0.074 A 
ATOM     51  C   UNL A   1      48.119  30.658  27.264  1.00  0.00     0.029 A 
ATOM     52  N   UNL A   1      46.629  29.006  27.207  1.00  0.00    -0.354 N 
ATOM     53  N   UNL A   1      45.760  26.207  26.891  1.00  0.00    -0.248 NA
ATOM     54  C   UNL A   1      46.240  23.987  26.343  1.00  0.00     0.031 C 
ATOM     55  C   UNL A   1      48.778  29.479  26.898  1.00  0.00     0.029 A 
ATOM     56  C   UNL A   1      47.853  28.445  26.887  1.00  0.00     0.049 A 
ATOM     57  H   UNL A   1      45.779  28.513  27.266  1.00  0.00     0.167 HD
ATOM     58  C   UNL A   1      47.117  26.090  26.612  1.00  0.00     0.074 A 
ATOM     59  C   UNL A   1      47.361  24.694  26.310  1.00  0.00     0.031 C 
ATOM     60  C   UNL A   1      48.076  27.049  26.603  1.00  0.00     0.037 A 
BRANCH  47  61
ATOM     61  C   UNL A   1      46.014  32.725  27.947  1.00  0.00     0.058 A 
ATOM     62  C   UNL A   1      45.826  33.639  26.898  1.00  0.00     0.135 A 
ATOM     63  C   UNL A   1      46.477  33.227  29.174  1.00  0.00     0.135 A 
ATOM     64  F   UNL A   1      45.403  33.213  25.696  1.00  0.00    -0.206 F 
ATOM     65  C   UNL A   1      46.118  34.991  27.046  1.00  0.00     0.059 A 
ATOM     66  C   UNL A   1      46.744  34.581  29.356  1.00  0.00     0.059 A 
ATOM     67  F   UNL A   1      46.676  32.400  30.212  1.00  0.00    -0.206 F 
ATOM     68  C   UNL A   1      46.577  35.453  28.281  1.00  0.00     0.060 A 
BRANCH  68  69
ATOM     69  S   UNL A   1      46.942  37.212  28.459  1.00  0.00     0.124 S 
ATOM     70  O   UNL A   1      48.400  37.215  28.384  1.00  0.00    -0.237 OA
ATOM     71  O   UNL A   1      46.248  37.792  27.313  1.00  0.00    -0.237 OA
ATOM     72  O   UNL A   1      46.379  37.546  29.763  1.00  0.00    -0.744 OA
ENDBRANCH  68  69
ENDBRANCH  47  61
BRANCH  48  73
ATOM     73  C   UNL A   1      43.468  23.113  26.743  1.00  0.00     0.058 A 
ATOM     74  C   UNL A   1      43.172  22.274  27.828  1.00  0.00     0.135 A 
ATOM     75  C   UNL A   1      43.386  22.563  25.454  1.00  0.00     0.135 A 
ATOM     76  F   UNL A   1      43.241  22.751  29.081  1.00  0.00    -0.206 F 
ATOM     77  C   UNL A   1      42.831  20.938  27.648  1.00  0.00     0.059 A 
ATOM     78  C   UNL A   1      43.020  21.237  25.246  1.00  0.00     0.059 A 
ATOM     79  F   UNL A   1      43.638  23.327  24.380  1.00  0.00    -0.206 F 
ATOM     80  C   UNL A   1      42.757  20.428  26.351  1.00  0.00     0.060 A 
BRANCH  80  81
ATOM     81  S   UNL A   1      42.270  18.703  26.125  1.00  0.00     0.124 S 
ATOM     82  O   UNL A   1      42.532  18.149  27.448  1.00  0.00    -0.237 OA
ATOM     83  O   UNL A   1      40.864  18.828  25.751  1.00  0.00    -0.237 OA
ATOM     84  O   UNL A   1      43.154  18.242  25.059  1.00  0.00    -0.744 OA
ENDBRANCH  80  81
ENDBRANCH  48  73
BRANCH  60  85
ATOM     85  C   UNL A   1      49.482  26.620  26.295  1.00  0.00     0.058 A 
ATOM     86  C   UNL A   1      50.301  26.026  27.267  1.00  0.00     0.135 A 
ATOM     87  C   UNL A   1      49.995  26.753  24.995  1.00  0.00     0.135 A 
ATOM     88  F   UNL A   1      49.859  25.882  28.527  1.00  0.00    -0.206 F 
ATOM     89  C   UNL A   1      51.589  25.598  26.966  1.00  0.00     0.059 A 
ATOM     90  C   UNL A   1      51.269  26.306  24.664  1.00  0.00     0.059 A 
ATOM     91  F   UNL A   1      49.247  27.305  24.025  1.00  0.00    -0.206 F 
ATOM     92  C   UNL A   1      52.063  25.740  25.660  1.00  0.00     0.060 A 
BRANCH  92  93
ATOM     93  S   UNL A   1      53.724  25.147  25.275  1.00  0.00     0.124 S 
ATOM     94  O   UNL A   1      53.550  23.702  25.378  1.00  0.00    -0.237 OA
ATOM     95  O   UNL A   1      53.936  25.666  23.927  1.00  0.00    -0.237 OA
ATOM     96  O   UNL A   1      54.551  25.756  26.312  1.00  0.00    -0.744 OA
ENDBRANCH  92  93
ENDBRANCH  60  85
ENDBRANCH  34  35
ENDBRANCH  26  29
ENDBRANCH   1  25
TORSDOF 14
ENDMDL
