MODEL 1
REMARK VINA RESULT:     -10.8      0.000      0.000
REMARK SMILES [NH3+][C@H](Cc1ccc2nsnc2c1)C(=O)NCCCNC(=O)c1ccc(-c2c3nc(c(-c4c(F)cc(S(=O)(=O)[O-])cc4F)c4ccc([nH]4)c(-c4c(F)cc(S(=O)(=O)[O-])cc4F)c4nc(c(-c5c(F)cc(S(=O)(=O)[O-])cc5F)c5ccc2[nH]5)C=C4)C=C3)cc1
REMARK SMILES IDX 17 1 16 2 15 3 13 4 14 5 2 7 1 8 3 12 4 13 5 14 12 15 6 16
REMARK SMILES IDX 11 17 7 18 10 19 8 20 9 21 18 22 19 23 20 24 21 26 22 27
REMARK SMILES IDX 23 28 87 29 24 30 86 31 25 32 26 33 27 34 80 35 28 36 85 37
REMARK SMILES IDX 79 38 81 39 29 40 84 41 78 42 77 43 30 45 64 46 43 47 63 48
REMARK SMILES IDX 44 49 47 50 62 51 82 52 45 53 46 54 61 56 83 57 48 58 31 59
REMARK SMILES IDX 32 60 41 61 33 62 34 63 40 64 42 65 35 66 36 67 37 68 38 69
REMARK SMILES IDX 39 70 65 71 66 72 75 73 67 74 68 75 74 76 76 77 69 78 70 79
REMARK SMILES IDX 71 80 72 81 73 82 49 83 50 84 59 85 51 86 52 87 58 88 60 89
REMARK SMILES IDX 53 90 54 91 55 92 56 93 57 94
REMARK H PARENT 15 6 1 9 1 10 1 11 19 25 81 44 47 55
REMARK Flexibility Score: inf
ROOT
ATOM      1  C   UNL A   1      34.176  34.405  28.075  1.00  0.00     0.042 C 
ENDROOT
BRANCH   1   2
ATOM      2  C   UNL A   1      32.895  34.736  28.826  1.00  0.00     0.118 C 
BRANCH   2   3
ATOM      3  N   UNL A   1      33.037  36.006  29.515  1.00  0.00    -0.351 N 
ATOM      4  C   UNL A   1      33.066  36.355  30.827  1.00  0.00     0.278 C 
ATOM      5  O   UNL A   1      32.876  37.555  31.066  1.00  0.00    -0.268 OA
ATOM      6  H   UNL A   1      33.132  36.773  28.904  1.00  0.00     0.163 HD
BRANCH   4   7
ATOM      7  C   UNL A   1      33.346  35.377  31.994  1.00  0.00     0.275 C 
BRANCH   7   8
ATOM      8  N   UNL A   1      32.136  35.105  32.789  1.00  0.00    -0.347 N 
ATOM      9  H   UNL A   1      32.270  35.450  33.740  1.00  0.00     0.345 HD
ATOM     10  H   UNL A   1      31.963  34.101  32.813  1.00  0.00     0.345 HD
ATOM     11  H   UNL A   1      31.337  35.578  32.366  1.00  0.00     0.345 HD
ENDBRANCH   7   8
BRANCH   7  12
ATOM     12  C   UNL A   1      34.693  35.532  32.741  1.00  0.00     0.111 C 
BRANCH  12  13
ATOM     13  C   UNL A   1      35.729  34.424  32.827  1.00  0.00    -0.039 A 
ATOM     14  C   UNL A   1      36.385  33.895  31.679  1.00  0.00     0.006 A 
ATOM     15  C   UNL A   1      36.064  33.962  34.128  1.00  0.00     0.035 A 
ATOM     16  C   UNL A   1      37.278  32.800  31.712  1.00  0.00     0.032 A 
ATOM     17  C   UNL A   1      36.957  32.866  34.221  1.00  0.00     0.105 A 
ATOM     18  C   UNL A   1      37.558  32.259  32.987  1.00  0.00     0.104 A 
ATOM     19  N   UNL A   1      37.329  32.253  35.351  1.00  0.00    -0.173 NA
ATOM     20  N   UNL A   1      38.330  31.192  33.244  1.00  0.00    -0.173 NA
ATOM     21  S   UNL A   1      38.332  31.009  34.898  1.00  0.00     0.069 S 
ENDBRANCH  12  13
ENDBRANCH   7  12
ENDBRANCH   4   7
ENDBRANCH   2   3
ENDBRANCH   1   2
BRANCH   1  22
ATOM     22  C   UNL A   1      34.849  33.085  28.405  1.00  0.00     0.118 C 
BRANCH  22  23
ATOM     23  N   UNL A   1      34.111  31.902  27.998  1.00  0.00    -0.352 N 
ATOM     24  C   UNL A   1      34.476  30.578  27.929  1.00  0.00     0.251 C 
ATOM     25  H   UNL A   1      33.183  32.081  27.720  1.00  0.00     0.163 HD
ATOM     26  O   UNL A   1      33.622  29.773  27.551  1.00  0.00    -0.269 OA
BRANCH  24  27
ATOM     27  C   UNL A   1      35.846  30.093  28.253  1.00  0.00     0.039 A 
ATOM     28  C   UNL A   1      36.802  30.080  27.227  1.00  0.00     0.014 A 
ATOM     29  C   UNL A   1      36.218  29.622  29.512  1.00  0.00     0.014 A 
ATOM     30  C   UNL A   1      38.115  29.664  27.479  1.00  0.00     0.010 A 
ATOM     31  C   UNL A   1      37.551  29.325  29.793  1.00  0.00     0.010 A 
ATOM     32  C   UNL A   1      38.518  29.327  28.779  1.00  0.00    -0.014 A 
BRANCH  32  33
ATOM     33  C   UNL A   1      39.925  28.959  29.105  1.00  0.00     0.031 A 
ATOM     34  C   UNL A   1      40.869  29.993  29.666  1.00  0.00     0.074 A 
ATOM     35  C   UNL A   1      40.383  27.723  28.817  1.00  0.00     0.049 A 
ATOM     36  N   UNL A   1      42.152  29.901  29.904  1.00  0.00    -0.248 NA
ATOM     37  C   UNL A   1      40.298  31.314  29.980  1.00  0.00     0.031 C 
ATOM     38  C   UNL A   1      39.583  26.634  28.255  1.00  0.00     0.029 A 
ATOM     39  N   UNL A   1      41.639  27.178  28.931  1.00  0.00    -0.354 N 
ATOM     40  C   UNL A   1      42.541  31.148  30.382  1.00  0.00     0.074 A 
ATOM     41  C   UNL A   1      41.373  32.000  30.337  1.00  0.00     0.031 C 
ATOM     42  C   UNL A   1      40.364  25.561  28.058  1.00  0.00     0.029 A 
ATOM     43  C   UNL A   1      41.727  25.888  28.461  1.00  0.00     0.049 A 
ATOM     44  H   UNL A   1      42.404  27.665  29.315  1.00  0.00     0.167 HD
ATOM     45  C   UNL A   1      43.752  31.539  30.847  1.00  0.00     0.037 A 
ATOM     46  C   UNL A   1      42.785  25.059  28.359  1.00  0.00     0.037 A 
ATOM     47  C   UNL A   1      44.903  30.677  30.917  1.00  0.00     0.049 A 
ATOM     48  C   UNL A   1      44.125  25.520  28.860  1.00  0.00     0.074 A 
ATOM     49  C   UNL A   1      46.157  30.956  31.433  1.00  0.00     0.029 A 
ATOM     50  N   UNL A   1      44.945  29.369  30.455  1.00  0.00    -0.354 N 
ATOM     51  N   UNL A   1      44.456  26.680  29.376  1.00  0.00    -0.248 NA
ATOM     52  C   UNL A   1      45.231  24.556  28.788  1.00  0.00     0.031 C 
ATOM     53  C   UNL A   1      46.971  29.835  31.235  1.00  0.00     0.029 A 
ATOM     54  C   UNL A   1      46.209  28.837  30.650  1.00  0.00     0.049 A 
ATOM     55  H   UNL A   1      44.187  28.890  30.047  1.00  0.00     0.167 HD
ATOM     56  C   UNL A   1      45.797  26.572  29.724  1.00  0.00     0.074 A 
ATOM     57  C   UNL A   1      46.215  25.231  29.367  1.00  0.00     0.031 C 
ATOM     58  C   UNL A   1      46.608  27.497  30.295  1.00  0.00     0.037 A 
BRANCH  45  59
ATOM     59  C   UNL A   1      43.892  32.959  31.330  1.00  0.00     0.058 A 
ATOM     60  C   UNL A   1      43.640  33.314  32.665  1.00  0.00     0.135 A 
ATOM     61  C   UNL A   1      44.321  33.972  30.456  1.00  0.00     0.135 A 
ATOM     62  F   UNL A   1      43.214  32.390  33.542  1.00  0.00    -0.206 F 
ATOM     63  C   UNL A   1      43.772  34.626  33.109  1.00  0.00     0.059 A 
ATOM     64  C   UNL A   1      44.492  35.286  30.886  1.00  0.00     0.059 A 
ATOM     65  F   UNL A   1      44.578  33.692  29.170  1.00  0.00    -0.206 F 
ATOM     66  C   UNL A   1      44.199  35.605  32.212  1.00  0.00     0.060 A 
BRANCH  66  67
ATOM     67  S   UNL A   1      44.371  37.301  32.807  1.00  0.00     0.124 S 
ATOM     68  O   UNL A   1      43.339  37.352  33.839  1.00  0.00    -0.237 OA
ATOM     69  O   UNL A   1      45.749  37.325  33.287  1.00  0.00    -0.237 OA
ATOM     70  O   UNL A   1      44.109  38.107  31.619  1.00  0.00    -0.744 OA
ENDBRANCH  66  67
ENDBRANCH  45  59
BRANCH  46  71
ATOM     71  C   UNL A   1      42.607  23.695  27.790  1.00  0.00     0.058 A 
ATOM     72  C   UNL A   1      42.622  23.484  26.403  1.00  0.00     0.135 A 
ATOM     73  C   UNL A   1      42.436  22.574  28.618  1.00  0.00     0.135 A 
ATOM     74  F   UNL A   1      42.779  24.523  25.569  1.00  0.00    -0.206 F 
ATOM     75  C   UNL A   1      42.455  22.215  25.856  1.00  0.00     0.059 A 
ATOM     76  C   UNL A   1      42.293  21.292  28.095  1.00  0.00     0.059 A 
ATOM     77  F   UNL A   1      42.434  22.718  29.952  1.00  0.00    -0.206 F 
ATOM     78  C   UNL A   1      42.293  21.124  26.711  1.00  0.00     0.060 A 
BRANCH  78  79
ATOM     79  S   UNL A   1      42.121  19.478  25.988  1.00  0.00     0.124 S 
ATOM     80  O   UNL A   1      42.653  18.633  27.050  1.00  0.00    -0.237 OA
ATOM     81  O   UNL A   1      40.681  19.394  25.765  1.00  0.00    -0.237 OA
ATOM     82  O   UNL A   1      42.932  19.557  24.777  1.00  0.00    -0.744 OA
ENDBRANCH  78  79
ENDBRANCH  46  71
BRANCH  58  83
ATOM     83  C   UNL A   1      48.020  27.083  30.609  1.00  0.00     0.058 A 
ATOM     84  C   UNL A   1      49.083  27.350  29.731  1.00  0.00     0.135 A 
ATOM     85  C   UNL A   1      48.320  26.457  31.831  1.00  0.00     0.135 A 
ATOM     86  F   UNL A   1      48.850  27.940  28.548  1.00  0.00    -0.206 F 
ATOM     87  C   UNL A   1      50.389  26.989  30.043  1.00  0.00     0.059 A 
ATOM     88  C   UNL A   1      49.623  26.115  32.176  1.00  0.00     0.059 A 
ATOM     89  F   UNL A   1      47.342  26.188  32.711  1.00  0.00    -0.206 F 
ATOM     90  C   UNL A   1      50.649  26.374  31.270  1.00  0.00     0.060 A 
BRANCH  90  91
ATOM     91  S   UNL A   1      52.356  25.945  31.676  1.00  0.00     0.124 S 
ATOM     92  O   UNL A   1      52.691  26.971  32.657  1.00  0.00    -0.237 OA
ATOM     93  O   UNL A   1      52.220  24.588  32.198  1.00  0.00    -0.237 OA
ATOM     94  O   UNL A   1      53.047  26.050  30.395  1.00  0.00    -0.744 OA
ENDBRANCH  90  91
ENDBRANCH  58  83
ENDBRANCH  32  33
ENDBRANCH  24  27
ENDBRANCH  22  23
ENDBRANCH   1  22
TORSDOF 16
ENDMDL
MODEL 2
REMARK VINA RESULT:     -10.8      3.250     11.943
REMARK SMILES [NH3+][C@H](Cc1ccc2nsnc2c1)C(=O)NCCCNC(=O)c1ccc(-c2c3nc(c(-c4c(F)cc(S(=O)(=O)[O-])cc4F)c4ccc([nH]4)c(-c4c(F)cc(S(=O)(=O)[O-])cc4F)c4nc(c(-c5c(F)cc(S(=O)(=O)[O-])cc5F)c5ccc2[nH]5)C=C4)C=C3)cc1
REMARK SMILES IDX 17 1 16 2 15 3 13 4 14 5 2 7 1 8 3 12 4 13 5 14 12 15 6 16
REMARK SMILES IDX 11 17 7 18 10 19 8 20 9 21 18 22 19 23 20 24 21 26 22 27
REMARK SMILES IDX 23 28 87 29 24 30 86 31 25 32 26 33 27 34 80 35 28 36 85 37
REMARK SMILES IDX 79 38 81 39 29 40 84 41 78 42 77 43 30 45 64 46 43 47 63 48
REMARK SMILES IDX 44 49 47 50 62 51 82 52 45 53 46 54 61 56 83 57 48 58 31 59
REMARK SMILES IDX 32 60 41 61 33 62 34 63 40 64 42 65 35 66 36 67 37 68 38 69
REMARK SMILES IDX 39 70 65 71 66 72 75 73 67 74 68 75 74 76 76 77 69 78 70 79
REMARK SMILES IDX 71 80 72 81 73 82 49 83 50 84 59 85 51 86 52 87 58 88 60 89
REMARK SMILES IDX 53 90 54 91 55 92 56 93 57 94
REMARK H PARENT 15 6 1 9 1 10 1 11 19 25 81 44 47 55
REMARK Flexibility Score: inf
ROOT
ATOM      1  C   UNL A   1      41.822  20.540  26.744  1.00  0.00     0.042 C 
ENDROOT
BRANCH   1   2
ATOM      2  C   UNL A   1      42.018  19.365  25.796  1.00  0.00     0.118 C 
BRANCH   2   3
ATOM      3  N   UNL A   1      43.335  18.787  25.989  1.00  0.00    -0.351 N 
ATOM      4  C   UNL A   1      44.516  18.921  25.332  1.00  0.00     0.278 C 
ATOM      5  O   UNL A   1      45.358  18.042  25.559  1.00  0.00    -0.268 OA
ATOM      6  H   UNL A   1      43.382  18.169  26.755  1.00  0.00     0.163 HD
BRANCH   4   7
ATOM      7  C   UNL A   1      44.867  20.087  24.378  1.00  0.00     0.275 C 
BRANCH   7   8
ATOM      8  N   UNL A   1      44.804  19.680  22.962  1.00  0.00    -0.347 N 
ATOM      9  H   UNL A   1      45.748  19.503  22.618  1.00  0.00     0.345 HD
ATOM     10  H   UNL A   1      44.376  20.425  22.413  1.00  0.00     0.345 HD
ATOM     11  H   UNL A   1      44.246  18.830  22.877  1.00  0.00     0.345 HD
ENDBRANCH   7   8
BRANCH   7  12
ATOM     12  C   UNL A   1      46.002  21.044  24.814  1.00  0.00     0.111 C 
BRANCH  12  13
ATOM     13  C   UNL A   1      45.751  22.446  25.345  1.00  0.00    -0.039 A 
ATOM     14  C   UNL A   1      44.967  22.698  26.506  1.00  0.00     0.006 A 
ATOM     15  C   UNL A   1      46.386  23.513  24.656  1.00  0.00     0.035 A 
ATOM     16  C   UNL A   1      44.631  23.990  26.970  1.00  0.00     0.032 A 
ATOM     17  C   UNL A   1      46.087  24.832  25.080  1.00  0.00     0.105 A 
ATOM     18  C   UNL A   1      45.174  25.075  26.247  1.00  0.00     0.104 A 
ATOM     19  N   UNL A   1      46.531  25.958  24.508  1.00  0.00    -0.173 NA
ATOM     20  N   UNL A   1      44.946  26.377  26.478  1.00  0.00    -0.173 NA
ATOM     21  S   UNL A   1      45.843  27.212  25.352  1.00  0.00     0.069 S 
ENDBRANCH  12  13
ENDBRANCH   7  12
ENDBRANCH   4   7
ENDBRANCH   2   3
ENDBRANCH   1   2
BRANCH   1  22
ATOM     22  C   UNL A   1      41.412  21.865  26.126  1.00  0.00     0.118 C 
BRANCH  22  23
ATOM     23  N   UNL A   1      39.997  21.988  25.823  1.00  0.00    -0.352 N 
ATOM     24  C   UNL A   1      39.104  23.011  26.039  1.00  0.00     0.251 C 
ATOM     25  H   UNL A   1      39.608  21.197  25.384  1.00  0.00     0.163 HD
ATOM     26  O   UNL A   1      37.944  22.841  25.658  1.00  0.00    -0.269 OA
BRANCH  24  27
ATOM     27  C   UNL A   1      39.469  24.278  26.732  1.00  0.00     0.039 A 
ATOM     28  C   UNL A   1      39.004  24.472  28.041  1.00  0.00     0.014 A 
ATOM     29  C   UNL A   1      40.218  25.293  26.137  1.00  0.00     0.014 A 
ATOM     30  C   UNL A   1      39.340  25.629  28.755  1.00  0.00     0.010 A 
ATOM     31  C   UNL A   1      40.654  26.385  26.887  1.00  0.00     0.010 A 
ATOM     32  C   UNL A   1      40.211  26.578  28.202  1.00  0.00    -0.014 A 
BRANCH  32  33
ATOM     33  C   UNL A   1      40.659  27.782  28.959  1.00  0.00     0.031 A 
ATOM     34  C   UNL A   1      41.983  27.774  29.680  1.00  0.00     0.074 A 
ATOM     35  C   UNL A   1      39.842  28.849  29.075  1.00  0.00     0.049 A 
ATOM     36  N   UNL A   1      42.496  28.672  30.483  1.00  0.00    -0.248 NA
ATOM     37  C   UNL A   1      42.837  26.587  29.491  1.00  0.00     0.031 C 
ATOM     38  C   UNL A   1      38.527  28.980  28.446  1.00  0.00     0.029 A 
ATOM     39  N   UNL A   1      39.981  30.018  29.782  1.00  0.00    -0.354 N 
ATOM     40  C   UNL A   1      43.718  28.156  30.900  1.00  0.00     0.074 A 
ATOM     41  C   UNL A   1      43.841  26.838  30.318  1.00  0.00     0.031 C 
ATOM     42  C   UNL A   1      37.974  30.149  28.804  1.00  0.00     0.029 A 
ATOM     43  C   UNL A   1      38.884  30.845  29.706  1.00  0.00     0.049 A 
ATOM     44  H   UNL A   1      40.791  30.243  30.295  1.00  0.00     0.167 HD
ATOM     45  C   UNL A   1      44.666  28.740  31.672  1.00  0.00     0.037 A 
ATOM     46  C   UNL A   1      38.633  32.030  30.297  1.00  0.00     0.037 A 
ATOM     47  C   UNL A   1      44.550  30.064  32.225  1.00  0.00     0.049 A 
ATOM     48  C   UNL A   1      39.690  32.650  31.168  1.00  0.00     0.074 A 
ATOM     49  C   UNL A   1      45.481  30.773  32.965  1.00  0.00     0.029 A 
ATOM     50  N   UNL A   1      43.434  30.880  32.104  1.00  0.00    -0.354 N 
ATOM     51  N   UNL A   1      40.869  32.178  31.493  1.00  0.00    -0.248 NA
ATOM     52  C   UNL A   1      39.393  33.972  31.735  1.00  0.00     0.031 C 
ATOM     53  C   UNL A   1      44.909  31.995  33.333  1.00  0.00     0.029 A 
ATOM     54  C   UNL A   1      43.643  32.074  32.775  1.00  0.00     0.049 A 
ATOM     55  H   UNL A   1      42.613  30.645  31.612  1.00  0.00     0.167 HD
ATOM     56  C   UNL A   1      41.470  33.161  32.271  1.00  0.00     0.074 A 
ATOM     57  C   UNL A   1      40.527  34.256  32.362  1.00  0.00     0.031 C 
ATOM     58  C   UNL A   1      42.696  33.159  32.851  1.00  0.00     0.037 A 
BRANCH  45  59
ATOM     59  C   UNL A   1      45.920  27.955  31.955  1.00  0.00     0.058 A 
ATOM     60  C   UNL A   1      45.979  27.002  32.985  1.00  0.00     0.135 A 
ATOM     61  C   UNL A   1      47.067  28.128  31.162  1.00  0.00     0.135 A 
ATOM     62  F   UNL A   1      44.918  26.803  33.784  1.00  0.00    -0.206 F 
ATOM     63  C   UNL A   1      47.138  26.276  33.242  1.00  0.00     0.059 A 
ATOM     64  C   UNL A   1      48.227  27.390  31.380  1.00  0.00     0.059 A 
ATOM     65  F   UNL A   1      47.069  29.023  30.162  1.00  0.00    -0.206 F 
ATOM     66  C   UNL A   1      48.257  26.477  32.434  1.00  0.00     0.060 A 
BRANCH  66  67
ATOM     67  S   UNL A   1      49.750  25.522  32.779  1.00  0.00     0.124 S 
ATOM     68  O   UNL A   1      50.681  26.573  33.178  1.00  0.00    -0.237 OA
ATOM     69  O   UNL A   1      49.308  24.628  33.845  1.00  0.00    -0.237 OA
ATOM     70  O   UNL A   1      50.044  24.876  31.504  1.00  0.00    -0.744 OA
ENDBRANCH  66  67
ENDBRANCH  45  59
BRANCH  46  71
ATOM     71  C   UNL A   1      37.337  32.721  30.053  1.00  0.00     0.058 A 
ATOM     72  C   UNL A   1      37.242  33.771  29.126  1.00  0.00     0.135 A 
ATOM     73  C   UNL A   1      36.166  32.337  30.725  1.00  0.00     0.135 A 
ATOM     74  F   UNL A   1      38.334  34.178  28.461  1.00  0.00    -0.206 F 
ATOM     75  C   UNL A   1      36.039  34.428  28.889  1.00  0.00     0.059 A 
ATOM     76  C   UNL A   1      34.945  32.962  30.485  1.00  0.00     0.059 A 
ATOM     77  F   UNL A   1      36.198  31.325  31.606  1.00  0.00    -0.206 F 
ATOM     78  C   UNL A   1      34.894  34.014  29.572  1.00  0.00     0.060 A 
BRANCH  78  79
ATOM     79  S   UNL A   1      33.331  34.848  29.222  1.00  0.00     0.124 S 
ATOM     80  O   UNL A   1      33.792  36.105  28.644  1.00  0.00    -0.237 OA
ATOM     81  O   UNL A   1      32.690  33.917  28.298  1.00  0.00    -0.237 OA
ATOM     82  O   UNL A   1      32.702  34.949  30.535  1.00  0.00    -0.744 OA
ENDBRANCH  78  79
ENDBRANCH  46  71
BRANCH  58  83
ATOM     83  C   UNL A   1      43.109  34.395  33.604  1.00  0.00     0.058 A 
ATOM     84  C   UNL A   1      42.886  34.531  34.983  1.00  0.00     0.135 A 
ATOM     85  C   UNL A   1      43.786  35.434  32.943  1.00  0.00     0.135 A 
ATOM     86  F   UNL A   1      42.237  33.571  35.660  1.00  0.00    -0.206 F 
ATOM     87  C   UNL A   1      43.297  35.665  35.675  1.00  0.00     0.059 A 
ATOM     88  C   UNL A   1      44.233  36.562  33.622  1.00  0.00     0.059 A 
ATOM     89  F   UNL A   1      44.035  35.349  31.626  1.00  0.00    -0.206 F 
ATOM     90  C   UNL A   1      43.973  36.674  34.987  1.00  0.00     0.060 A 
BRANCH  90  91
ATOM     91  S   UNL A   1      44.533  38.123  35.907  1.00  0.00     0.124 S 
ATOM     92  O   UNL A   1      43.809  37.969  37.164  1.00  0.00    -0.237 OA
ATOM     93  O   UNL A   1      45.975  37.910  35.976  1.00  0.00    -0.237 OA
ATOM     94  O   UNL A   1      44.109  39.241  35.070  1.00  0.00    -0.744 OA
ENDBRANCH  90  91
ENDBRANCH  58  83
ENDBRANCH  32  33
ENDBRANCH  24  27
ENDBRANCH  22  23
ENDBRANCH   1  22
TORSDOF 16
ENDMDL
MODEL 3
REMARK VINA RESULT:     -10.7      4.678     12.889
REMARK SMILES [NH3+][C@H](Cc1ccc2nsnc2c1)C(=O)NCCCNC(=O)c1ccc(-c2c3nc(c(-c4c(F)cc(S(=O)(=O)[O-])cc4F)c4ccc([nH]4)c(-c4c(F)cc(S(=O)(=O)[O-])cc4F)c4nc(c(-c5c(F)cc(S(=O)(=O)[O-])cc5F)c5ccc2[nH]5)C=C4)C=C3)cc1
REMARK SMILES IDX 17 1 16 2 15 3 13 4 14 5 2 7 1 8 3 12 4 13 5 14 12 15 6 16
REMARK SMILES IDX 11 17 7 18 10 19 8 20 9 21 18 22 19 23 20 24 21 26 22 27
REMARK SMILES IDX 23 28 87 29 24 30 86 31 25 32 26 33 27 34 80 35 28 36 85 37
REMARK SMILES IDX 79 38 81 39 29 40 84 41 78 42 77 43 30 45 64 46 43 47 63 48
REMARK SMILES IDX 44 49 47 50 62 51 82 52 45 53 46 54 61 56 83 57 48 58 31 59
REMARK SMILES IDX 32 60 41 61 33 62 34 63 40 64 42 65 35 66 36 67 37 68 38 69
REMARK SMILES IDX 39 70 65 71 66 72 75 73 67 74 68 75 74 76 76 77 69 78 70 79
REMARK SMILES IDX 71 80 72 81 73 82 49 83 50 84 59 85 51 86 52 87 58 88 60 89
REMARK SMILES IDX 53 90 54 91 55 92 56 93 57 94
REMARK H PARENT 15 6 1 9 1 10 1 11 19 25 81 44 47 55
REMARK Flexibility Score: inf
ROOT
ATOM      1  C   UNL A   1      42.008  21.391  27.504  1.00  0.00     0.042 C 
ENDROOT
BRANCH   1   2
ATOM      2  C   UNL A   1      42.238  20.839  26.104  1.00  0.00     0.118 C 
BRANCH   2   3
ATOM      3  N   UNL A   1      43.137  19.701  26.161  1.00  0.00    -0.351 N 
ATOM      4  C   UNL A   1      44.118  19.248  25.338  1.00  0.00     0.278 C 
ATOM      5  O   UNL A   1      44.469  18.074  25.519  1.00  0.00    -0.268 OA
ATOM      6  H   UNL A   1      43.011  19.142  26.962  1.00  0.00     0.163 HD
BRANCH   4   7
ATOM      7  C   UNL A   1      44.818  20.096  24.249  1.00  0.00     0.275 C 
BRANCH   7   8
ATOM      8  N   UNL A   1      44.788  19.437  22.931  1.00  0.00    -0.347 N 
ATOM      9  H   UNL A   1      45.388  19.947  22.282  1.00  0.00     0.345 HD
ATOM     10  H   UNL A   1      43.833  19.428  22.577  1.00  0.00     0.345 HD
ATOM     11  H   UNL A   1      45.126  18.478  23.023  1.00  0.00     0.345 HD
ENDBRANCH   7   8
BRANCH   7  12
ATOM     12  C   UNL A   1      46.103  20.856  24.658  1.00  0.00     0.111 C 
BRANCH  12  13
ATOM     13  C   UNL A   1      46.090  22.258  25.243  1.00  0.00    -0.039 A 
ATOM     14  C   UNL A   1      45.588  22.543  26.544  1.00  0.00     0.006 A 
ATOM     15  C   UNL A   1      46.659  23.288  24.447  1.00  0.00     0.035 A 
ATOM     16  C   UNL A   1      45.469  23.846  27.080  1.00  0.00     0.032 A 
ATOM     17  C   UNL A   1      46.570  24.615  24.935  1.00  0.00     0.105 A 
ATOM     18  C   UNL A   1      45.943  24.902  26.268  1.00  0.00     0.104 A 
ATOM     19  N   UNL A   1      46.983  25.715  24.293  1.00  0.00    -0.173 NA
ATOM     20  N   UNL A   1      45.881  26.211  26.554  1.00  0.00    -0.173 NA
ATOM     21  S   UNL A   1      46.597  26.999  25.274  1.00  0.00     0.069 S 
ENDBRANCH  12  13
ENDBRANCH   7  12
ENDBRANCH   4   7
ENDBRANCH   2   3
ENDBRANCH   1   2
BRANCH   1  22
ATOM     22  C   UNL A   1      41.994  22.902  27.657  1.00  0.00     0.118 C 
BRANCH  22  23
ATOM     23  N   UNL A   1      42.066  23.644  26.410  1.00  0.00    -0.352 N 
ATOM     24  C   UNL A   1      41.996  24.992  26.146  1.00  0.00     0.251 C 
ATOM     25  H   UNL A   1      42.187  23.081  25.611  1.00  0.00     0.163 HD
ATOM     26  O   UNL A   1      42.102  25.346  24.970  1.00  0.00    -0.269 OA
BRANCH  24  27
ATOM     27  C   UNL A   1      41.765  26.018  27.202  1.00  0.00     0.039 A 
ATOM     28  C   UNL A   1      40.651  25.863  28.039  1.00  0.00     0.014 A 
ATOM     29  C   UNL A   1      42.578  27.137  27.377  1.00  0.00     0.014 A 
ATOM     30  C   UNL A   1      40.399  26.778  29.069  1.00  0.00     0.010 A 
ATOM     31  C   UNL A   1      42.398  27.978  28.476  1.00  0.00     0.010 A 
ATOM     32  C   UNL A   1      41.299  27.821  29.330  1.00  0.00    -0.014 A 
BRANCH  32  33
ATOM     33  C   UNL A   1      41.112  28.767  30.467  1.00  0.00     0.031 A 
ATOM     34  C   UNL A   1      41.922  28.605  31.728  1.00  0.00     0.074 A 
ATOM     35  C   UNL A   1      40.154  29.715  30.405  1.00  0.00     0.049 A 
ATOM     36  N   UNL A   1      41.826  29.249  32.864  1.00  0.00    -0.248 NA
ATOM     37  C   UNL A   1      42.968  27.567  31.720  1.00  0.00     0.031 C 
ATOM     38  C   UNL A   1      39.287  29.967  29.254  1.00  0.00     0.029 A 
ATOM     39  N   UNL A   1      39.730  30.629  31.339  1.00  0.00    -0.354 N 
ATOM     40  C   UNL A   1      42.783  28.688  33.702  1.00  0.00     0.074 A 
ATOM     41  C   UNL A   1      43.405  27.607  32.969  1.00  0.00     0.031 C 
ATOM     42  C   UNL A   1      38.425  30.953  29.551  1.00  0.00     0.029 A 
ATOM     43  C   UNL A   1      38.664  31.393  30.921  1.00  0.00     0.049 A 
ATOM     44  H   UNL A   1      40.149  30.728  32.224  1.00  0.00     0.167 HD
ATOM     45  C   UNL A   1      43.136  29.060  34.957  1.00  0.00     0.037 A 
ATOM     46  C   UNL A   1      37.952  32.338  31.565  1.00  0.00     0.037 A 
ATOM     47  C   UNL A   1      42.533  30.156  35.670  1.00  0.00     0.049 A 
ATOM     48  C   UNL A   1      38.346  32.720  32.965  1.00  0.00     0.074 A 
ATOM     49  C   UNL A   1      42.864  30.655  36.918  1.00  0.00     0.029 A 
ATOM     50  N   UNL A   1      41.475  30.921  35.202  1.00  0.00    -0.354 N 
ATOM     51  N   UNL A   1      39.302  32.226  33.715  1.00  0.00    -0.248 NA
ATOM     52  C   UNL A   1      37.581  33.802  33.600  1.00  0.00     0.031 C 
ATOM     53  C   UNL A   1      41.971  31.688  37.225  1.00  0.00     0.029 A 
ATOM     54  C   UNL A   1      41.122  31.872  36.146  1.00  0.00     0.049 A 
ATOM     55  H   UNL A   1      41.037  30.805  34.326  1.00  0.00     0.167 HD
ATOM     56  C   UNL A   1      39.278  32.962  34.894  1.00  0.00     0.074 A 
ATOM     57  C   UNL A   1      38.217  33.939  34.755  1.00  0.00     0.031 C 
ATOM     58  C   UNL A   1      40.068  32.843  35.990  1.00  0.00     0.037 A 
BRANCH  45  59
ATOM     59  C   UNL A   1      44.233  28.283  35.635  1.00  0.00     0.058 A 
ATOM     60  C   UNL A   1      45.565  28.728  35.632  1.00  0.00     0.135 A 
ATOM     61  C   UNL A   1      43.945  27.097  36.331  1.00  0.00     0.135 A 
ATOM     62  F   UNL A   1      45.902  29.847  34.971  1.00  0.00    -0.206 F 
ATOM     63  C   UNL A   1      46.577  28.009  36.262  1.00  0.00     0.059 A 
ATOM     64  C   UNL A   1      44.936  26.378  36.996  1.00  0.00     0.059 A 
ATOM     65  F   UNL A   1      42.690  26.623  36.370  1.00  0.00    -0.206 F 
ATOM     66  C   UNL A   1      46.252  26.836  36.942  1.00  0.00     0.060 A 
BRANCH  66  67
ATOM     67  S   UNL A   1      47.576  25.920  37.757  1.00  0.00     0.124 S 
ATOM     68  O   UNL A   1      46.864  24.736  38.229  1.00  0.00    -0.237 OA
ATOM     69  O   UNL A   1      48.520  25.698  36.666  1.00  0.00    -0.237 OA
ATOM     70  O   UNL A   1      48.031  26.833  38.800  1.00  0.00    -0.744 OA
ENDBRANCH  66  67
ENDBRANCH  45  59
BRANCH  46  71
ATOM     71  C   UNL A   1      36.818  33.012  30.876  1.00  0.00     0.058 A 
ATOM     72  C   UNL A   1      35.490  32.649  31.147  1.00  0.00     0.135 A 
ATOM     73  C   UNL A   1      37.035  34.043  29.948  1.00  0.00     0.135 A 
ATOM     74  F   UNL A   1      35.230  31.667  32.024  1.00  0.00    -0.206 F 
ATOM     75  C   UNL A   1      34.419  33.268  30.510  1.00  0.00     0.059 A 
ATOM     76  C   UNL A   1      35.980  34.695  29.317  1.00  0.00     0.059 A 
ATOM     77  F   UNL A   1      38.285  34.443  29.668  1.00  0.00    -0.206 F 
ATOM     78  C   UNL A   1      34.675  34.293  29.597  1.00  0.00     0.060 A 
BRANCH  78  79
ATOM     79  S   UNL A   1      33.273  35.117  28.810  1.00  0.00     0.124 S 
ATOM     80  O   UNL A   1      33.944  36.122  27.994  1.00  0.00    -0.237 OA
ATOM     81  O   UNL A   1      32.645  34.019  28.082  1.00  0.00    -0.237 OA
ATOM     82  O   UNL A   1      32.506  35.630  29.941  1.00  0.00    -0.744 OA
ENDBRANCH  78  79
ENDBRANCH  46  71
BRANCH  58  83
ATOM     83  C   UNL A   1      39.846  33.819  37.114  1.00  0.00     0.058 A 
ATOM     84  C   UNL A   1      40.463  35.080  37.132  1.00  0.00     0.135 A 
ATOM     85  C   UNL A   1      38.960  33.508  38.159  1.00  0.00     0.135 A 
ATOM     86  F   UNL A   1      41.323  35.425  36.161  1.00  0.00    -0.206 F 
ATOM     87  C   UNL A   1      40.230  35.987  38.160  1.00  0.00     0.059 A 
ATOM     88  C   UNL A   1      38.688  34.412  39.180  1.00  0.00     0.059 A 
ATOM     89  F   UNL A   1      38.335  32.320  38.184  1.00  0.00    -0.206 F 
ATOM     90  C   UNL A   1      39.338  35.645  39.178  1.00  0.00     0.060 A 
BRANCH  90  91
ATOM     91  S   UNL A   1      39.016  36.848  40.486  1.00  0.00     0.124 S 
ATOM     92  O   UNL A   1      40.358  37.078  41.009  1.00  0.00    -0.237 OA
ATOM     93  O   UNL A   1      38.424  37.959  39.748  1.00  0.00    -0.237 OA
ATOM     94  O   UNL A   1      38.105  36.141  41.381  1.00  0.00    -0.744 OA
ENDBRANCH  90  91
ENDBRANCH  58  83
ENDBRANCH  32  33
ENDBRANCH  24  27
ENDBRANCH  22  23
ENDBRANCH   1  22
TORSDOF 16
ENDMDL
