MODEL 1
REMARK VINA RESULT:     -11.4      0.000      0.000
REMARK SMILES Cc1csc(C[C@@H](Cc2ccc(Br)cc2)C(=O)NCCCNC(=O)c2ccc(-c3c4nc(c(-c5c(F)cc(S(=O)(=O)[O-])cc5F)c5ccc([nH]5)c(-c5c(F)cc(S(=O)(=O)[O-])cc5F)c5nc(c(-c6c(F)cc(S(=O)(=O)[O-])cc6F)c6ccc3[nH]6)C=C5)C=C4)cc2)n1
REMARK SMILES IDX 20 1 19 2 18 3 16 4 17 5 7 7 6 8 5 9 1 10 2 11 3 12 91 13
REMARK SMILES IDX 4 14 8 15 9 16 10 17 15 18 11 19 14 20 12 21 13 22 21 23
REMARK SMILES IDX 22 24 23 25 24 27 25 28 26 29 90 30 27 31 89 32 28 33 29 34
REMARK SMILES IDX 30 35 83 36 31 37 88 38 82 39 84 40 32 41 87 42 81 43 80 44
REMARK SMILES IDX 33 46 67 47 46 48 66 49 47 50 50 51 65 52 85 53 48 54 49 55
REMARK SMILES IDX 64 57 86 58 51 59 34 60 35 61 44 62 36 63 37 64 43 65 45 66
REMARK SMILES IDX 38 67 39 68 40 69 41 70 42 71 68 72 69 73 78 74 70 75 71 76
REMARK SMILES IDX 77 77 79 78 72 79 73 80 74 81 75 82 76 83 52 84 53 85 62 86
REMARK SMILES IDX 54 87 55 88 61 89 63 90 56 91 57 92 58 93 59 94 60 95
REMARK H PARENT 18 6 22 26 84 45 50 56
REMARK Flexibility Score: inf
ROOT
ATOM      1  C   UNL A   1      32.339  27.773  26.564  1.00  0.00     0.042 C 
ENDROOT
BRANCH   1   2
ATOM      2  C   UNL A   1      32.505  26.293  26.309  1.00  0.00     0.117 C 
BRANCH   2   3
ATOM      3  N   UNL A   1      31.453  25.445  26.825  1.00  0.00    -0.356 N 
ATOM      4  C   UNL A   1      31.183  24.145  26.515  1.00  0.00     0.223 C 
ATOM      5  O   UNL A   1      30.455  23.519  27.292  1.00  0.00    -0.275 OA
ATOM      6  H   UNL A   1      30.854  25.860  27.487  1.00  0.00     0.163 HD
BRANCH   4   7
ATOM      7  C   UNL A   1      31.702  23.471  25.242  1.00  0.00     0.089 C 
BRANCH   7   8
ATOM      8  C   UNL A   1      32.267  22.080  25.573  1.00  0.00     0.081 C 
BRANCH   8   9
ATOM      9  C   UNL A   1      33.760  21.993  25.555  1.00  0.00     0.094 A 
ATOM     10  C   UNL A   1      36.664  20.034  24.777  1.00  0.00     0.067 C 
ATOM     11  C   UNL A   1      35.772  21.102  25.289  1.00  0.00     0.048 A 
ATOM     12  C   UNL A   1      36.115  22.182  26.078  1.00  0.00     0.090 A 
ATOM     13  N   UNL A   1      34.431  21.021  24.979  1.00  0.00    -0.247 NA
ATOM     14  S   UNL A   1      34.719  23.108  26.445  1.00  0.00    -0.127 S 
ENDBRANCH   8   9
ENDBRANCH   7   8
BRANCH   7  15
ATOM     15  C   UNL A   1      30.796  23.688  24.000  1.00  0.00     0.049 C 
BRANCH  15  16
ATOM     16  C   UNL A   1      30.565  25.081  23.454  1.00  0.00    -0.047 A 
ATOM     17  C   UNL A   1      29.502  25.876  23.910  1.00  0.00     0.005 A 
ATOM     18  C   UNL A   1      31.447  25.626  22.506  1.00  0.00     0.005 A 
ATOM     19  C   UNL A   1      29.389  27.213  23.521  1.00  0.00     0.016 A 
ATOM     20  C   UNL A   1      31.330  26.962  22.106  1.00  0.00     0.016 A 
ATOM     21  C   UNL A   1      30.318  27.756  22.638  1.00  0.00     0.017 A 
ATOM     22  Br  UNL A   1      30.225  29.590  22.192  1.00  0.00    -0.051 Br
ENDBRANCH  15  16
ENDBRANCH   7  15
ENDBRANCH   4   7
ENDBRANCH   2   3
ENDBRANCH   1   2
BRANCH   1  23
ATOM     23  C   UNL A   1      33.658  28.521  26.595  1.00  0.00     0.118 C 
BRANCH  23  24
ATOM     24  N   UNL A   1      33.572  29.824  27.254  1.00  0.00    -0.352 N 
ATOM     25  C   UNL A   1      34.462  30.497  28.061  1.00  0.00     0.251 C 
ATOM     26  H   UNL A   1      32.728  30.305  27.092  1.00  0.00     0.163 HD
ATOM     27  O   UNL A   1      34.111  31.527  28.620  1.00  0.00    -0.269 OA
BRANCH  25  28
ATOM     28  C   UNL A   1      35.826  29.966  28.265  1.00  0.00     0.039 A 
ATOM     29  C   UNL A   1      36.763  30.059  27.231  1.00  0.00     0.014 A 
ATOM     30  C   UNL A   1      36.186  29.386  29.480  1.00  0.00     0.014 A 
ATOM     31  C   UNL A   1      38.082  29.654  27.457  1.00  0.00     0.010 A 
ATOM     32  C   UNL A   1      37.519  29.107  29.743  1.00  0.00     0.010 A 
ATOM     33  C   UNL A   1      38.482  29.224  28.731  1.00  0.00    -0.014 A 
BRANCH  33  34
ATOM     34  C   UNL A   1      39.886  28.859  29.045  1.00  0.00     0.031 A 
ATOM     35  C   UNL A   1      40.813  29.901  29.619  1.00  0.00     0.074 A 
ATOM     36  C   UNL A   1      40.357  27.641  28.712  1.00  0.00     0.049 A 
ATOM     37  N   UNL A   1      42.105  29.847  29.807  1.00  0.00    -0.248 NA
ATOM     38  C   UNL A   1      40.212  31.197  29.981  1.00  0.00     0.031 C 
ATOM     39  C   UNL A   1      39.576  26.570  28.083  1.00  0.00     0.029 A 
ATOM     40  N   UNL A   1      41.613  27.103  28.834  1.00  0.00    -0.354 N 
ATOM     41  C   UNL A   1      42.474  31.107  30.264  1.00  0.00     0.074 A 
ATOM     42  C   UNL A   1      41.281  31.923  30.271  1.00  0.00     0.031 C 
ATOM     43  C   UNL A   1      40.365  25.500  27.898  1.00  0.00     0.029 A 
ATOM     44  C   UNL A   1      41.714  25.818  28.352  1.00  0.00     0.049 A 
ATOM     45  H   UNL A   1      42.371  27.591  29.230  1.00  0.00     0.167 HD
ATOM     46  C   UNL A   1      43.692  31.538  30.668  1.00  0.00     0.037 A 
ATOM     47  C   UNL A   1      42.778  24.996  28.277  1.00  0.00     0.037 A 
ATOM     48  C   UNL A   1      44.858  30.698  30.724  1.00  0.00     0.049 A 
ATOM     49  C   UNL A   1      44.108  25.475  28.792  1.00  0.00     0.074 A 
ATOM     50  C   UNL A   1      46.118  31.006  31.205  1.00  0.00     0.029 A 
ATOM     51  N   UNL A   1      44.902  29.379  30.295  1.00  0.00    -0.354 N 
ATOM     52  N   UNL A   1      44.425  26.651  29.283  1.00  0.00    -0.248 NA
ATOM     53  C   UNL A   1      45.222  24.519  28.752  1.00  0.00     0.031 C 
ATOM     54  C   UNL A   1      46.933  29.881  31.038  1.00  0.00     0.029 A 
ATOM     55  C   UNL A   1      46.171  28.861  30.491  1.00  0.00     0.049 A 
ATOM     56  H   UNL A   1      44.144  28.885  29.908  1.00  0.00     0.167 HD
ATOM     57  C   UNL A   1      45.767  26.565  29.633  1.00  0.00     0.074 A 
ATOM     58  C   UNL A   1      46.199  25.221  29.310  1.00  0.00     0.031 C 
ATOM     59  C   UNL A   1      46.573  27.515  30.172  1.00  0.00     0.037 A 
BRANCH  46  60
ATOM     60  C   UNL A   1      43.818  32.973  31.101  1.00  0.00     0.058 A 
ATOM     61  C   UNL A   1      44.153  33.991  30.193  1.00  0.00     0.135 A 
ATOM     62  C   UNL A   1      43.575  33.341  32.433  1.00  0.00     0.135 A 
ATOM     63  F   UNL A   1      44.414  33.694  28.910  1.00  0.00    -0.206 F 
ATOM     64  C   UNL A   1      44.277  35.316  30.597  1.00  0.00     0.059 A 
ATOM     65  C   UNL A   1      43.663  34.665  32.854  1.00  0.00     0.059 A 
ATOM     66  F   UNL A   1      43.252  32.409  33.344  1.00  0.00    -0.206 F 
ATOM     67  C   UNL A   1      44.030  35.644  31.931  1.00  0.00     0.060 A 
BRANCH  67  68
ATOM     68  S   UNL A   1      44.185  37.368  32.438  1.00  0.00     0.124 S 
ATOM     69  O   UNL A   1      43.142  37.468  33.454  1.00  0.00    -0.237 OA
ATOM     70  O   UNL A   1      45.557  37.426  32.933  1.00  0.00    -0.237 OA
ATOM     71  O   UNL A   1      43.935  38.109  31.206  1.00  0.00    -0.744 OA
ENDBRANCH  67  68
ENDBRANCH  46  60
BRANCH  47  72
ATOM     72  C   UNL A   1      42.622  23.626  27.719  1.00  0.00     0.058 A 
ATOM     73  C   UNL A   1      42.684  23.403  26.335  1.00  0.00     0.135 A 
ATOM     74  C   UNL A   1      42.423  22.514  28.551  1.00  0.00     0.135 A 
ATOM     75  F   UNL A   1      42.868  24.434  25.497  1.00  0.00    -0.206 F 
ATOM     76  C   UNL A   1      42.537  22.129  25.794  1.00  0.00     0.059 A 
ATOM     77  C   UNL A   1      42.298  21.227  28.036  1.00  0.00     0.059 A 
ATOM     78  F   UNL A   1      42.376  22.671  29.883  1.00  0.00    -0.206 F 
ATOM     79  C   UNL A   1      42.346  21.046  26.654  1.00  0.00     0.060 A 
BRANCH  79  80
ATOM     80  S   UNL A   1      42.202  19.391  25.945  1.00  0.00     0.124 S 
ATOM     81  O   UNL A   1      42.743  18.564  27.017  1.00  0.00    -0.237 OA
ATOM     82  O   UNL A   1      40.765  19.278  25.714  1.00  0.00    -0.237 OA
ATOM     83  O   UNL A   1      43.017  19.474  24.736  1.00  0.00    -0.744 OA
ENDBRANCH  79  80
ENDBRANCH  47  72
BRANCH  59  84
ATOM     84  C   UNL A   1      47.989  27.123  30.480  1.00  0.00     0.058 A 
ATOM     85  C   UNL A   1      49.040  27.405  29.594  1.00  0.00     0.135 A 
ATOM     86  C   UNL A   1      48.304  26.508  31.703  1.00  0.00     0.135 A 
ATOM     87  F   UNL A   1      48.788  27.987  28.411  1.00  0.00    -0.206 F 
ATOM     88  C   UNL A   1      50.355  27.071  29.901  1.00  0.00     0.059 A 
ATOM     89  C   UNL A   1      49.615  26.188  32.040  1.00  0.00     0.059 A 
ATOM     90  F   UNL A   1      47.336  26.228  32.589  1.00  0.00    -0.206 F 
ATOM     91  C   UNL A   1      50.632  26.463  31.127  1.00  0.00     0.060 A 
BRANCH  91  92
ATOM     92  S   UNL A   1      52.346  26.064  31.527  1.00  0.00     0.124 S 
ATOM     93  O   UNL A   1      52.648  27.060  32.551  1.00  0.00    -0.237 OA
ATOM     94  O   UNL A   1      52.246  24.684  31.994  1.00  0.00    -0.237 OA
ATOM     95  O   UNL A   1      53.042  26.240  30.255  1.00  0.00    -0.744 OA
ENDBRANCH  91  92
ENDBRANCH  59  84
ENDBRANCH  33  34
ENDBRANCH  25  28
ENDBRANCH  23  24
ENDBRANCH   1  23
TORSDOF 17
ENDMDL
MODEL 2
REMARK VINA RESULT:     -11.1      4.980     10.564
REMARK SMILES Cc1csc(C[C@@H](Cc2ccc(Br)cc2)C(=O)NCCCNC(=O)c2ccc(-c3c4nc(c(-c5c(F)cc(S(=O)(=O)[O-])cc5F)c5ccc([nH]5)c(-c5c(F)cc(S(=O)(=O)[O-])cc5F)c5nc(c(-c6c(F)cc(S(=O)(=O)[O-])cc6F)c6ccc3[nH]6)C=C5)C=C4)cc2)n1
REMARK SMILES IDX 20 1 19 2 18 3 16 4 17 5 7 7 6 8 5 9 1 10 2 11 3 12 91 13
REMARK SMILES IDX 4 14 8 15 9 16 10 17 15 18 11 19 14 20 12 21 13 22 21 23
REMARK SMILES IDX 22 24 23 25 24 27 25 28 26 29 90 30 27 31 89 32 28 33 29 34
REMARK SMILES IDX 30 35 83 36 31 37 88 38 82 39 84 40 32 41 87 42 81 43 80 44
REMARK SMILES IDX 33 46 67 47 46 48 66 49 47 50 50 51 65 52 85 53 48 54 49 55
REMARK SMILES IDX 64 57 86 58 51 59 34 60 35 61 44 62 36 63 37 64 43 65 45 66
REMARK SMILES IDX 38 67 39 68 40 69 41 70 42 71 68 72 69 73 78 74 70 75 71 76
REMARK SMILES IDX 77 77 79 78 72 79 73 80 74 81 75 82 76 83 52 84 53 85 62 86
REMARK SMILES IDX 54 87 55 88 61 89 63 90 56 91 57 92 58 93 59 94 60 95
REMARK H PARENT 18 6 22 26 84 45 50 56
REMARK Flexibility Score: inf
ROOT
ATOM      1  C   UNL A   1      37.223  23.716  25.293  1.00  0.00     0.042 C 
ENDROOT
BRANCH   1   2
ATOM      2  C   UNL A   1      35.848  24.332  25.406  1.00  0.00     0.117 C 
BRANCH   2   3
ATOM      3  N   UNL A   1      34.813  23.706  24.613  1.00  0.00    -0.356 N 
ATOM      4  C   UNL A   1      33.830  24.302  23.878  1.00  0.00     0.223 C 
ATOM      5  O   UNL A   1      33.259  23.607  23.032  1.00  0.00    -0.275 OA
ATOM      6  H   UNL A   1      34.819  22.722  24.601  1.00  0.00     0.163 HD
BRANCH   4   7
ATOM      7  C   UNL A   1      33.394  25.753  24.100  1.00  0.00     0.089 C 
BRANCH   7   8
ATOM      8  C   UNL A   1      32.692  26.291  22.843  1.00  0.00     0.081 C 
BRANCH   8   9
ATOM      9  C   UNL A   1      31.408  27.012  23.108  1.00  0.00     0.094 A 
ATOM     10  C   UNL A   1      27.903  26.775  23.839  1.00  0.00     0.067 C 
ATOM     11  C   UNL A   1      29.242  27.301  23.482  1.00  0.00     0.048 A 
ATOM     12  C   UNL A   1      29.569  28.585  23.093  1.00  0.00     0.090 A 
ATOM     13  N   UNL A   1      30.306  26.422  23.510  1.00  0.00    -0.247 NA
ATOM     14  S   UNL A   1      31.245  28.685  22.744  1.00  0.00    -0.127 S 
ENDBRANCH   8   9
ENDBRANCH   7   8
BRANCH   7  15
ATOM     15  C   UNL A   1      32.816  26.027  25.516  1.00  0.00     0.049 C 
BRANCH  15  16
ATOM     16  C   UNL A   1      33.118  27.327  26.228  1.00  0.00    -0.047 A 
ATOM     17  C   UNL A   1      34.437  27.766  26.418  1.00  0.00     0.005 A 
ATOM     18  C   UNL A   1      32.070  28.150  26.676  1.00  0.00     0.005 A 
ATOM     19  C   UNL A   1      34.702  29.038  26.932  1.00  0.00     0.016 A 
ATOM     20  C   UNL A   1      32.333  29.420  27.201  1.00  0.00     0.016 A 
ATOM     21  C   UNL A   1      33.648  29.868  27.300  1.00  0.00     0.017 A 
ATOM     22  Br  UNL A   1      34.003  31.624  27.899  1.00  0.00    -0.051 Br
ENDBRANCH  15  16
ENDBRANCH   7  15
ENDBRANCH   4   7
ENDBRANCH   2   3
ENDBRANCH   1   2
BRANCH   1  23
ATOM     23  C   UNL A   1      38.123  24.055  26.466  1.00  0.00     0.118 C 
BRANCH  23  24
ATOM     24  N   UNL A   1      39.548  23.985  26.145  1.00  0.00    -0.352 N 
ATOM     25  C   UNL A   1      40.605  24.789  26.510  1.00  0.00     0.251 C 
ATOM     26  H   UNL A   1      39.796  23.228  25.565  1.00  0.00     0.163 HD
ATOM     27  O   UNL A   1      41.702  24.614  25.999  1.00  0.00    -0.269 OA
BRANCH  25  28
ATOM     28  C   UNL A   1      40.407  25.870  27.498  1.00  0.00     0.039 A 
ATOM     29  C   UNL A   1      39.528  25.672  28.568  1.00  0.00     0.014 A 
ATOM     30  C   UNL A   1      41.097  27.075  27.378  1.00  0.00     0.014 A 
ATOM     31  C   UNL A   1      39.420  26.650  29.561  1.00  0.00     0.010 A 
ATOM     32  C   UNL A   1      41.086  27.983  28.426  1.00  0.00     0.010 A 
ATOM     33  C   UNL A   1      40.238  27.790  29.524  1.00  0.00    -0.014 A 
BRANCH  33  34
ATOM     34  C   UNL A   1      40.219  28.819  30.595  1.00  0.00     0.031 A 
ATOM     35  C   UNL A   1      41.127  28.663  31.789  1.00  0.00     0.074 A 
ATOM     36  C   UNL A   1      39.318  29.820  30.552  1.00  0.00     0.049 A 
ATOM     37  N   UNL A   1      41.152  29.345  32.904  1.00  0.00    -0.248 NA
ATOM     38  C   UNL A   1      42.101  27.559  31.743  1.00  0.00     0.031 C 
ATOM     39  C   UNL A   1      38.336  30.035  29.484  1.00  0.00     0.029 A 
ATOM     40  N   UNL A   1      39.063  30.833  31.441  1.00  0.00    -0.354 N 
ATOM     41  C   UNL A   1      42.107  28.727  33.703  1.00  0.00     0.074 A 
ATOM     42  C   UNL A   1      42.599  27.583  32.970  1.00  0.00     0.031 C 
ATOM     43  C   UNL A   1      37.605  31.125  29.771  1.00  0.00     0.029 A 
ATOM     44  C   UNL A   1      38.032  31.660  31.058  1.00  0.00     0.049 A 
ATOM     45  H   UNL A   1      39.571  30.957  32.276  1.00  0.00     0.167 HD
ATOM     46  C   UNL A   1      42.555  29.096  34.926  1.00  0.00     0.037 A 
ATOM     47  C   UNL A   1      37.489  32.723  31.681  1.00  0.00     0.037 A 
ATOM     48  C   UNL A   1      42.110  30.276  35.617  1.00  0.00     0.049 A 
ATOM     49  C   UNL A   1      38.047  33.153  33.011  1.00  0.00     0.074 A 
ATOM     50  C   UNL A   1      42.565  30.794  36.816  1.00  0.00     0.029 A 
ATOM     51  N   UNL A   1      41.115  31.129  35.161  1.00  0.00    -0.354 N 
ATOM     52  N   UNL A   1      38.998  32.594  33.723  1.00  0.00    -0.248 NA
ATOM     53  C   UNL A   1      37.469  34.358  33.618  1.00  0.00     0.031 C 
ATOM     54  C   UNL A   1      41.822  31.945  37.101  1.00  0.00     0.029 A 
ATOM     55  C   UNL A   1      40.934  32.166  36.060  1.00  0.00     0.049 A 
ATOM     56  H   UNL A   1      40.613  31.014  34.323  1.00  0.00     0.167 HD
ATOM     57  C   UNL A   1      39.147  33.395  34.850  1.00  0.00     0.074 A 
ATOM     58  C   UNL A   1      38.199  34.482  34.718  1.00  0.00     0.031 C 
ATOM     59  C   UNL A   1      39.992  33.244  35.901  1.00  0.00     0.037 A 
BRANCH  46  60
ATOM     60  C   UNL A   1      43.592  28.226  35.583  1.00  0.00     0.058 A 
ATOM     61  C   UNL A   1      44.964  28.400  35.339  1.00  0.00     0.135 A 
ATOM     62  C   UNL A   1      43.212  27.223  36.488  1.00  0.00     0.135 A 
ATOM     63  F   UNL A   1      45.383  29.333  34.468  1.00  0.00    -0.206 F 
ATOM     64  C   UNL A   1      45.920  27.589  35.941  1.00  0.00     0.059 A 
ATOM     65  C   UNL A   1      44.153  26.419  37.126  1.00  0.00     0.059 A 
ATOM     66  F   UNL A   1      41.914  27.011  36.757  1.00  0.00    -0.206 F 
ATOM     67  C   UNL A   1      45.504  26.600  36.834  1.00  0.00     0.060 A 
BRANCH  67  68
ATOM     68  S   UNL A   1      46.757  25.562  37.615  1.00  0.00     0.124 S 
ATOM     69  O   UNL A   1      47.610  25.232  36.477  1.00  0.00    -0.237 OA
ATOM     70  O   UNL A   1      47.339  26.465  38.602  1.00  0.00    -0.237 OA
ATOM     71  O   UNL A   1      45.984  24.452  38.163  1.00  0.00    -0.744 OA
ENDBRANCH  67  68
ENDBRANCH  46  60
BRANCH  47  72
ATOM     72  C   UNL A   1      36.375  33.472  31.041  1.00  0.00     0.058 A 
ATOM     73  C   UNL A   1      36.596  34.248  29.893  1.00  0.00     0.135 A 
ATOM     74  C   UNL A   1      35.068  33.417  31.549  1.00  0.00     0.135 A 
ATOM     75  F   UNL A   1      37.829  34.336  29.371  1.00  0.00    -0.206 F 
ATOM     76  C   UNL A   1      35.567  34.958  29.282  1.00  0.00     0.059 A 
ATOM     77  C   UNL A   1      34.017  34.098  30.941  1.00  0.00     0.059 A 
ATOM     78  F   UNL A   1      34.799  32.673  32.633  1.00  0.00    -0.206 F 
ATOM     79  C   UNL A   1      34.279  34.875  29.814  1.00  0.00     0.060 A 
BRANCH  79  80
ATOM     80  S   UNL A   1      32.941  35.762  28.986  1.00  0.00     0.124 S 
ATOM     81  O   UNL A   1      32.361  34.712  28.158  1.00  0.00    -0.237 OA
ATOM     82  O   UNL A   1      32.127  36.211  30.112  1.00  0.00    -0.237 OA
ATOM     83  O   UNL A   1      33.639  36.824  28.267  1.00  0.00    -0.744 OA
ENDBRANCH  79  80
ENDBRANCH  47  72
BRANCH  59  84
ATOM     84  C   UNL A   1      39.955  34.296  36.971  1.00  0.00     0.058 A 
ATOM     85  C   UNL A   1      40.719  35.469  36.876  1.00  0.00     0.135 A 
ATOM     86  C   UNL A   1      39.101  34.153  38.076  1.00  0.00     0.135 A 
ATOM     87  F   UNL A   1      41.554  35.650  35.841  1.00  0.00    -0.206 F 
ATOM     88  C   UNL A   1      40.654  36.457  37.853  1.00  0.00     0.059 A 
ATOM     89  C   UNL A   1      39.002  35.139  39.052  1.00  0.00     0.059 A 
ATOM     90  F   UNL A   1      38.341  33.054  38.207  1.00  0.00    -0.206 F 
ATOM     91  C   UNL A   1      39.792  36.282  38.937  1.00  0.00     0.060 A 
BRANCH  91  92
ATOM     92  S   UNL A   1      39.691  37.585  40.182  1.00  0.00     0.124 S 
ATOM     93  O   UNL A   1      38.305  38.020  40.042  1.00  0.00    -0.237 OA
ATOM     94  O   UNL A   1      40.010  36.869  41.413  1.00  0.00    -0.237 OA
ATOM     95  O   UNL A   1      40.699  38.549  39.747  1.00  0.00    -0.744 OA
ENDBRANCH  91  92
ENDBRANCH  59  84
ENDBRANCH  33  34
ENDBRANCH  25  28
ENDBRANCH  23  24
ENDBRANCH   1  23
TORSDOF 17
ENDMDL
MODEL 3
REMARK VINA RESULT:     -11.1      4.788     10.947
REMARK SMILES Cc1csc(C[C@@H](Cc2ccc(Br)cc2)C(=O)NCCCNC(=O)c2ccc(-c3c4nc(c(-c5c(F)cc(S(=O)(=O)[O-])cc5F)c5ccc([nH]5)c(-c5c(F)cc(S(=O)(=O)[O-])cc5F)c5nc(c(-c6c(F)cc(S(=O)(=O)[O-])cc6F)c6ccc3[nH]6)C=C5)C=C4)cc2)n1
REMARK SMILES IDX 20 1 19 2 18 3 16 4 17 5 7 7 6 8 5 9 1 10 2 11 3 12 91 13
REMARK SMILES IDX 4 14 8 15 9 16 10 17 15 18 11 19 14 20 12 21 13 22 21 23
REMARK SMILES IDX 22 24 23 25 24 27 25 28 26 29 90 30 27 31 89 32 28 33 29 34
REMARK SMILES IDX 30 35 83 36 31 37 88 38 82 39 84 40 32 41 87 42 81 43 80 44
REMARK SMILES IDX 33 46 67 47 46 48 66 49 47 50 50 51 65 52 85 53 48 54 49 55
REMARK SMILES IDX 64 57 86 58 51 59 34 60 35 61 44 62 36 63 37 64 43 65 45 66
REMARK SMILES IDX 38 67 39 68 40 69 41 70 42 71 68 72 69 73 78 74 70 75 71 76
REMARK SMILES IDX 77 77 79 78 72 79 73 80 74 81 75 82 76 83 52 84 53 85 62 86
REMARK SMILES IDX 54 87 55 88 61 89 63 90 56 91 57 92 58 93 59 94 60 95
REMARK H PARENT 18 6 22 26 84 45 50 56
REMARK Flexibility Score: inf
ROOT
ATOM      1  C   UNL A   1      34.627  30.549  27.216  1.00  0.00     0.042 C 
ENDROOT
BRANCH   1   2
ATOM      2  C   UNL A   1      33.885  31.442  28.184  1.00  0.00     0.117 C 
BRANCH   2   3
ATOM      3  N   UNL A   1      33.855  32.847  27.845  1.00  0.00    -0.356 N 
ATOM      4  C   UNL A   1      34.772  33.812  28.144  1.00  0.00     0.223 C 
ATOM      5  O   UNL A   1      34.717  34.862  27.497  1.00  0.00    -0.275 OA
ATOM      6  H   UNL A   1      33.070  33.147  27.331  1.00  0.00     0.163 HD
BRANCH   4   7
ATOM      7  C   UNL A   1      35.807  33.654  29.261  1.00  0.00     0.089 C 
BRANCH   7   8
ATOM      8  C   UNL A   1      35.153  33.024  30.502  1.00  0.00     0.081 C 
BRANCH   8   9
ATOM      9  C   UNL A   1      34.682  34.010  31.525  1.00  0.00     0.094 A 
ATOM     10  C   UNL A   1      32.206  36.424  32.479  1.00  0.00     0.067 C 
ATOM     11  C   UNL A   1      33.436  35.598  32.440  1.00  0.00     0.048 A 
ATOM     12  C   UNL A   1      34.554  35.709  33.243  1.00  0.00     0.090 A 
ATOM     13  N   UNL A   1      33.514  34.609  31.482  1.00  0.00    -0.247 NA
ATOM     14  S   UNL A   1      35.730  34.551  32.775  1.00  0.00    -0.127 S 
ENDBRANCH   8   9
ENDBRANCH   7   8
BRANCH   7  15
ATOM     15  C   UNL A   1      37.200  33.177  28.766  1.00  0.00     0.049 C 
BRANCH  15  16
ATOM     16  C   UNL A   1      38.451  33.538  29.537  1.00  0.00    -0.047 A 
ATOM     17  C   UNL A   1      38.805  32.861  30.713  1.00  0.00     0.005 A 
ATOM     18  C   UNL A   1      39.315  34.538  29.056  1.00  0.00     0.005 A 
ATOM     19  C   UNL A   1      40.038  33.090  31.329  1.00  0.00     0.016 A 
ATOM     20  C   UNL A   1      40.546  34.777  29.677  1.00  0.00     0.016 A 
ATOM     21  C   UNL A   1      40.913  34.031  30.794  1.00  0.00     0.017 A 
ATOM     22  Br  UNL A   1      42.621  34.268  31.567  1.00  0.00    -0.051 Br
ENDBRANCH  15  16
ENDBRANCH   7  15
ENDBRANCH   4   7
ENDBRANCH   2   3
ENDBRANCH   1   2
BRANCH   1  23
ATOM     23  C   UNL A   1      35.559  29.571  27.905  1.00  0.00     0.118 C 
BRANCH  23  24
ATOM     24  N   UNL A   1      35.542  29.681  29.363  1.00  0.00    -0.352 N 
ATOM     25  C   UNL A   1      36.554  29.606  30.295  1.00  0.00     0.251 C 
ATOM     26  H   UNL A   1      34.648  29.837  29.748  1.00  0.00     0.163 HD
ATOM     27  O   UNL A   1      36.278  29.588  31.487  1.00  0.00    -0.269 OA
BRANCH  25  28
ATOM     28  C   UNL A   1      37.962  29.528  29.854  1.00  0.00     0.039 A 
ATOM     29  C   UNL A   1      38.948  29.131  30.763  1.00  0.00     0.014 A 
ATOM     30  C   UNL A   1      38.311  29.835  28.540  1.00  0.00     0.014 A 
ATOM     31  C   UNL A   1      40.262  28.955  30.322  1.00  0.00     0.010 A 
ATOM     32  C   UNL A   1      39.583  29.535  28.076  1.00  0.00     0.010 A 
ATOM     33  C   UNL A   1      40.579  29.105  28.963  1.00  0.00    -0.014 A 
BRANCH  33  34
ATOM     34  C   UNL A   1      41.941  28.851  28.430  1.00  0.00     0.031 A 
ATOM     35  C   UNL A   1      42.308  27.466  27.961  1.00  0.00     0.074 A 
ATOM     36  C   UNL A   1      42.873  29.824  28.472  1.00  0.00     0.049 A 
ATOM     37  N   UNL A   1      43.477  26.990  27.622  1.00  0.00    -0.248 NA
ATOM     38  C   UNL A   1      41.224  26.469  27.920  1.00  0.00     0.031 C 
ATOM     39  C   UNL A   1      42.659  31.186  28.971  1.00  0.00     0.029 A 
ATOM     40  N   UNL A   1      44.197  29.812  28.109  1.00  0.00    -0.354 N 
ATOM     41  C   UNL A   1      43.276  25.637  27.371  1.00  0.00     0.074 A 
ATOM     42  C   UNL A   1      41.887  25.355  27.653  1.00  0.00     0.031 C 
ATOM     43  C   UNL A   1      43.803  31.881  28.861  1.00  0.00     0.029 A 
ATOM     44  C   UNL A   1      44.841  31.008  28.326  1.00  0.00     0.049 A 
ATOM     45  H   UNL A   1      44.643  29.020  27.729  1.00  0.00     0.167 HD
ATOM     46  C   UNL A   1      44.162  24.718  26.920  1.00  0.00     0.037 A 
ATOM     47  C   UNL A   1      46.126  31.355  28.124  1.00  0.00     0.037 A 
ATOM     48  C   UNL A   1      45.524  25.025  26.576  1.00  0.00     0.049 A 
ATOM     49  C   UNL A   1      47.078  30.334  27.561  1.00  0.00     0.074 A 
ATOM     50  C   UNL A   1      46.480  24.192  26.022  1.00  0.00     0.029 A 
ATOM     51  N   UNL A   1      46.120  26.267  26.741  1.00  0.00    -0.354 N 
ATOM     52  N   UNL A   1      46.854  29.074  27.268  1.00  0.00    -0.248 NA
ATOM     53  C   UNL A   1      48.451  30.780  27.294  1.00  0.00     0.031 C 
ATOM     54  C   UNL A   1      47.664  24.924  25.880  1.00  0.00     0.029 A 
ATOM     55  C   UNL A   1      47.434  26.222  26.309  1.00  0.00     0.049 A 
ATOM     56  H   UNL A   1      45.674  27.062  27.111  1.00  0.00     0.167 HD
ATOM     57  C   UNL A   1      48.051  28.585  26.759  1.00  0.00     0.074 A 
ATOM     58  C   UNL A   1      48.991  29.687  26.771  1.00  0.00     0.031 C 
ATOM     59  C   UNL A   1      48.347  27.336  26.320  1.00  0.00     0.037 A 
BRANCH  46  60
ATOM     60  C   UNL A   1      43.679  23.303  26.755  1.00  0.00     0.058 A 
ATOM     61  C   UNL A   1      43.427  22.475  27.860  1.00  0.00     0.135 A 
ATOM     62  C   UNL A   1      43.440  22.776  25.476  1.00  0.00     0.135 A 
ATOM     63  F   UNL A   1      43.655  22.921  29.106  1.00  0.00    -0.206 F 
ATOM     64  C   UNL A   1      42.989  21.164  27.704  1.00  0.00     0.059 A 
ATOM     65  C   UNL A   1      42.972  21.477  25.296  1.00  0.00     0.059 A 
ATOM     66  F   UNL A   1      43.665  23.523  24.383  1.00  0.00    -0.206 F 
ATOM     67  C   UNL A   1      42.763  20.674  26.417  1.00  0.00     0.060 A 
BRANCH  67  68
ATOM     68  S   UNL A   1      42.186  18.975  26.231  1.00  0.00     0.124 S 
ATOM     69  O   UNL A   1      43.113  18.461  25.228  1.00  0.00    -0.237 OA
ATOM     70  O   UNL A   1      42.350  18.439  27.578  1.00  0.00    -0.237 OA
ATOM     71  O   UNL A   1      40.804  19.132  25.786  1.00  0.00    -0.744 OA
ENDBRANCH  67  68
ENDBRANCH  46  60
BRANCH  47  72
ATOM     72  C   UNL A   1      46.580  32.738  28.428  1.00  0.00     0.058 A 
ATOM     73  C   UNL A   1      47.036  33.079  29.710  1.00  0.00     0.135 A 
ATOM     74  C   UNL A   1      46.583  33.741  27.446  1.00  0.00     0.135 A 
ATOM     75  F   UNL A   1      47.049  32.157  30.684  1.00  0.00    -0.206 F 
ATOM     76  C   UNL A   1      47.461  34.369  30.015  1.00  0.00     0.059 A 
ATOM     77  C   UNL A   1      47.026  35.032  27.719  1.00  0.00     0.059 A 
ATOM     78  F   UNL A   1      46.175  33.462  26.198  1.00  0.00    -0.206 F 
ATOM     79  C   UNL A   1      47.454  35.339  29.011  1.00  0.00     0.060 A 
BRANCH  79  80
ATOM     80  S   UNL A   1      48.052  36.998  29.403  1.00  0.00     0.124 S 
ATOM     81  O   UNL A   1      47.490  37.205  30.733  1.00  0.00    -0.237 OA
ATOM     82  O   UNL A   1      49.500  36.825  29.341  1.00  0.00    -0.237 OA
ATOM     83  O   UNL A   1      47.481  37.819  28.339  1.00  0.00    -0.744 OA
ENDBRANCH  79  80
ENDBRANCH  47  72
BRANCH  59  84
ATOM     84  C   UNL A   1      49.731  27.103  25.785  1.00  0.00     0.058 A 
ATOM     85  C   UNL A   1      50.769  26.638  26.607  1.00  0.00     0.135 A 
ATOM     86  C   UNL A   1      50.005  27.296  24.422  1.00  0.00     0.135 A 
ATOM     87  F   UNL A   1      50.557  26.443  27.918  1.00  0.00    -0.206 F 
ATOM     88  C   UNL A   1      52.039  26.391  26.099  1.00  0.00     0.059 A 
ATOM     89  C   UNL A   1      51.262  27.032  23.888  1.00  0.00     0.059 A 
ATOM     90  F   UNL A   1      49.043  27.730  23.592  1.00  0.00    -0.206 F 
ATOM     91  C   UNL A   1      52.276  26.591  24.737  1.00  0.00     0.060 A 
BRANCH  91  92
ATOM     92  S   UNL A   1      53.920  26.236  24.083  1.00  0.00     0.124 S 
ATOM     93  O   UNL A   1      53.645  26.102  22.656  1.00  0.00    -0.237 OA
ATOM     94  O   UNL A   1      54.677  27.421  24.475  1.00  0.00    -0.237 OA
ATOM     95  O   UNL A   1      54.299  25.003  24.768  1.00  0.00    -0.744 OA
ENDBRANCH  91  92
ENDBRANCH  59  84
ENDBRANCH  33  34
ENDBRANCH  25  28
ENDBRANCH  23  24
ENDBRANCH   1  23
TORSDOF 17
ENDMDL
