MODEL 1
REMARK VINA RESULT:     -12.8      0.000      0.000
REMARK SMILES Cc1cc(C(=O)NCCCNC(=O)c2ccc(-c3c4nc(c(-c5c(F)cc(S(=O)(=O)[O-])cc5F)c5ccc([nH]5)c(-c5c(F)cc(S(=O)(=O)[O-])cc5F)c5nc(c(-c6c(F)cc(S(=O)(=O)[O-])cc6F)c6ccc3[nH]6)C=C5)C=C4)cc2)ccc1NS(=O)(=O)c1ccc2c(c1)CCC2
REMARK SMILES IDX 9 1 8 2 7 3 5 4 6 5 4 7 1 8 2 9 3 10 82 11 81 12 80 13 83 14
REMARK SMILES IDX 84 16 85 17 86 18 87 19 88 20 92 21 89 22 91 23 90 24 93 25
REMARK SMILES IDX 95 26 94 27 10 28 11 29 12 30 13 32 14 33 15 34 79 35 16 36
REMARK SMILES IDX 78 37 17 38 18 39 19 40 72 41 20 42 77 43 71 44 73 45 21 46
REMARK SMILES IDX 76 47 70 48 69 49 22 51 56 52 35 53 55 54 36 55 39 56 54 57
REMARK SMILES IDX 74 58 37 59 38 60 53 62 75 63 40 64 23 65 24 66 33 67 25 68
REMARK SMILES IDX 26 69 32 70 34 71 27 72 28 73 29 74 30 75 31 76 57 77 58 78
REMARK SMILES IDX 67 79 59 80 60 81 66 82 68 83 61 84 62 85 63 86 64 87 65 88
REMARK SMILES IDX 41 89 42 90 51 91 43 92 44 93 50 94 52 95 45 96 46 97 47 98
REMARK SMILES IDX 48 99 49 100
REMARK H PARENT 7 6 83 15 11 31 73 50 39 61
REMARK Flexibility Score: inf
ROOT
ATOM      1  C   UNL A   1      38.390  24.270  26.758  1.00  0.00     0.042 C 
ENDROOT
BRANCH   1   2
ATOM      2  C   UNL A   1      37.147  23.588  25.963  1.00  0.00     0.118 C 
BRANCH   2   3
ATOM      3  N   UNL A   1      37.252  23.291  24.518  1.00  0.00    -0.352 N 
ATOM      4  C   UNL A   1      36.384  22.973  23.488  1.00  0.00     0.251 C 
ATOM      5  O   UNL A   1      36.778  23.055  22.322  1.00  0.00    -0.269 OA
ATOM      6  H   UNL A   1      38.185  23.331  24.206  1.00  0.00     0.163 HD
BRANCH   4   7
ATOM      7  C   UNL A   1      34.997  22.462  23.696  1.00  0.00     0.040 A 
ATOM      8  C   UNL A   1      33.245  19.873  25.882  1.00  0.00     0.046 C 
ATOM      9  C   UNL A   1      33.458  21.090  25.026  1.00  0.00    -0.026 A 
ATOM     10  C   UNL A   1      34.765  21.381  24.569  1.00  0.00     0.019 A 
ATOM     11  C   UNL A   1      32.406  21.923  24.609  1.00  0.00     0.052 A 
ATOM     12  C   UNL A   1      32.594  22.698  23.485  1.00  0.00     0.028 A 
ATOM     13  C   UNL A   1      33.884  23.041  23.115  1.00  0.00     0.016 A 
BRANCH  11  14
ATOM     14  N   UNL A   1      31.378  22.296  25.530  1.00  0.00    -0.279 N 
ATOM     15  H   UNL A   1      30.496  21.879  25.400  1.00  0.00     0.180 HD
BRANCH  14  16
ATOM     16  S   UNL A   1      31.519  23.378  26.813  1.00  0.00     0.261 S 
ATOM     17  O   UNL A   1      30.153  23.767  27.190  1.00  0.00    -0.201 OA
ATOM     18  O   UNL A   1      32.381  22.750  27.766  1.00  0.00    -0.201 OA
BRANCH  16  19
ATOM     19  C   UNL A   1      32.334  24.904  26.311  1.00  0.00     0.088 A 
ATOM     20  C   UNL A   1      33.711  24.999  26.083  1.00  0.00     0.022 A 
ATOM     21  C   UNL A   1      31.502  25.994  25.982  1.00  0.00     0.026 A 
ATOM     22  C   UNL A   1      34.215  26.055  25.314  1.00  0.00     0.005 A 
ATOM     23  C   UNL A   1      32.035  27.051  25.253  1.00  0.00    -0.043 A 
ATOM     24  C   UNL A   1      33.354  27.013  24.813  1.00  0.00    -0.045 A 
ATOM     25  C   UNL A   1      31.410  28.345  24.830  1.00  0.00     0.036 C 
ATOM     26  C   UNL A   1      33.630  28.104  23.817  1.00  0.00     0.036 C 
ATOM     27  C   UNL A   1      32.208  28.636  23.553  1.00  0.00     0.010 C 
ENDBRANCH  16  19
ENDBRANCH  14  16
ENDBRANCH  11  14
ENDBRANCH   4   7
ENDBRANCH   2   3
ENDBRANCH   1   2
BRANCH   1  28
ATOM     28  C   UNL A   1      39.621  23.269  26.861  1.00  0.00     0.118 C 
BRANCH  28  29
ATOM     29  N   UNL A   1      40.603  22.435  25.904  1.00  0.00    -0.352 N 
ATOM     30  C   UNL A   1      42.085  22.108  25.695  1.00  0.00     0.251 C 
ATOM     31  H   UNL A   1      40.070  21.976  25.214  1.00  0.00     0.163 HD
ATOM     32  O   UNL A   1      42.274  20.877  25.801  1.00  0.00    -0.269 OA
BRANCH  30  33
ATOM     33  C   UNL A   1      43.519  22.911  25.350  1.00  0.00     0.039 A 
ATOM     34  C   UNL A   1      44.811  22.276  25.433  1.00  0.00     0.014 A 
ATOM     35  C   UNL A   1      43.693  24.266  25.094  1.00  0.00     0.014 A 
ATOM     36  C   UNL A   1      45.991  23.004  25.944  1.00  0.00     0.010 A 
ATOM     37  C   UNL A   1      44.813  24.982  25.647  1.00  0.00     0.010 A 
ATOM     38  C   UNL A   1      45.837  24.344  26.356  1.00  0.00    -0.014 A 
BRANCH  38  39
ATOM     39  C   UNL A   1      46.375  24.973  27.691  1.00  0.00     0.031 A 
ATOM     40  C   UNL A   1      45.378  25.394  28.661  1.00  0.00     0.074 A 
ATOM     41  C   UNL A   1      47.630  25.084  28.266  1.00  0.00     0.049 A 
ATOM     42  N   UNL A   1      45.200  26.593  29.104  1.00  0.00    -0.248 NA
ATOM     43  C   UNL A   1      44.491  24.389  29.217  1.00  0.00     0.031 C 
ATOM     44  C   UNL A   1      48.130  25.634  29.550  1.00  0.00     0.029 A 
ATOM     45  N   UNL A   1      48.864  24.695  27.777  1.00  0.00    -0.354 N 
ATOM     46  C   UNL A   1      44.401  26.428  30.216  1.00  0.00     0.074 A 
ATOM     47  C   UNL A   1      43.755  25.146  30.026  1.00  0.00     0.031 C 
ATOM     48  C   UNL A   1      49.453  25.932  29.442  1.00  0.00     0.029 A 
ATOM     49  C   UNL A   1      49.857  25.618  28.090  1.00  0.00     0.049 A 
ATOM     50  H   UNL A   1      49.020  23.866  27.270  1.00  0.00     0.167 HD
ATOM     51  C   UNL A   1      44.626  27.125  31.374  1.00  0.00     0.037 A 
ATOM     52  C   UNL A   1      50.332  26.436  27.089  1.00  0.00     0.037 A 
ATOM     53  C   UNL A   1      45.911  27.857  31.327  1.00  0.00     0.049 A 
ATOM     54  C   UNL A   1      49.830  27.846  27.268  1.00  0.00     0.074 A 
ATOM     55  C   UNL A   1      47.115  27.760  32.015  1.00  0.00     0.029 A 
ATOM     56  N   UNL A   1      46.192  28.676  30.246  1.00  0.00    -0.354 N 
ATOM     57  N   UNL A   1      49.200  28.219  28.340  1.00  0.00    -0.248 NA
ATOM     58  C   UNL A   1      49.899  28.914  26.272  1.00  0.00     0.031 C 
ATOM     59  C   UNL A   1      48.102  28.535  31.329  1.00  0.00     0.029 A 
ATOM     60  C   UNL A   1      47.497  29.132  30.241  1.00  0.00     0.049 A 
ATOM     61  H   UNL A   1      45.532  28.908  29.554  1.00  0.00     0.167 HD
ATOM     62  C   UNL A   1      48.694  29.469  28.185  1.00  0.00     0.074 A 
ATOM     63  C   UNL A   1      49.179  29.880  26.876  1.00  0.00     0.031 C 
ATOM     64  C   UNL A   1      47.908  30.019  29.155  1.00  0.00     0.037 A 
BRANCH  51  65
ATOM     65  C   UNL A   1      43.826  26.889  32.653  1.00  0.00     0.058 A 
ATOM     66  C   UNL A   1      44.136  25.833  33.536  1.00  0.00     0.135 A 
ATOM     67  C   UNL A   1      42.777  27.722  33.111  1.00  0.00     0.135 A 
ATOM     68  F   UNL A   1      45.194  25.037  33.331  1.00  0.00    -0.206 F 
ATOM     69  C   UNL A   1      43.412  25.576  34.707  1.00  0.00     0.059 A 
ATOM     70  C   UNL A   1      41.985  27.438  34.225  1.00  0.00     0.059 A 
ATOM     71  F   UNL A   1      42.539  28.923  32.567  1.00  0.00    -0.206 F 
ATOM     72  C   UNL A   1      42.320  26.369  35.031  1.00  0.00     0.060 A 
BRANCH  72  73
ATOM     73  S   UNL A   1      41.429  26.070  36.568  1.00  0.00     0.124 S 
ATOM     74  O   UNL A   1      40.358  25.177  36.138  1.00  0.00    -0.237 OA
ATOM     75  O   UNL A   1      42.462  25.468  37.404  1.00  0.00    -0.237 OA
ATOM     76  O   UNL A   1      40.997  27.404  36.979  1.00  0.00    -0.744 OA
ENDBRANCH  72  73
ENDBRANCH  51  65
BRANCH  52  77
ATOM     77  C   UNL A   1      50.493  25.765  25.716  1.00  0.00     0.058 A 
ATOM     78  C   UNL A   1      49.780  26.376  24.691  1.00  0.00     0.135 A 
ATOM     79  C   UNL A   1      51.812  25.572  25.373  1.00  0.00     0.135 A 
ATOM     80  F   UNL A   1      48.508  26.032  24.455  1.00  0.00    -0.206 F 
ATOM     81  C   UNL A   1      50.383  27.305  23.832  1.00  0.00     0.059 A 
ATOM     82  C   UNL A   1      52.396  26.591  24.602  1.00  0.00     0.059 A 
ATOM     83  F   UNL A   1      52.594  24.813  26.156  1.00  0.00    -0.206 F 
ATOM     84  C   UNL A   1      51.735  27.579  23.936  1.00  0.00     0.060 A 
BRANCH  84  85
ATOM     85  S   UNL A   1      52.685  29.455  23.676  1.00  0.00     0.124 S 
ATOM     86  O   UNL A   1      53.813  29.106  22.820  1.00  0.00    -0.237 OA
ATOM     87  O   UNL A   1      51.704  30.290  23.012  1.00  0.00    -0.237 OA
ATOM     88  O   UNL A   1      53.079  29.918  25.000  1.00  0.00    -0.744 OA
ENDBRANCH  84  85
ENDBRANCH  52  77
BRANCH  64  89
ATOM     89  C   UNL A   1      47.407  31.435  29.140  1.00  0.00     0.058 A 
ATOM     90  C   UNL A   1      48.002  32.461  29.890  1.00  0.00     0.135 A 
ATOM     91  C   UNL A   1      46.222  31.792  28.454  1.00  0.00     0.135 A 
ATOM     92  F   UNL A   1      49.022  32.212  30.726  1.00  0.00    -0.206 F 
ATOM     93  C   UNL A   1      47.539  33.774  29.846  1.00  0.00     0.059 A 
ATOM     94  C   UNL A   1      45.717  33.080  28.431  1.00  0.00     0.059 A 
ATOM     95  F   UNL A   1      45.488  30.909  27.768  1.00  0.00    -0.206 F 
ATOM     96  C   UNL A   1      46.405  34.075  29.096  1.00  0.00     0.060 A 
BRANCH  96  97
ATOM     97  S   UNL A   1      45.815  35.767  29.023  1.00  0.00     0.124 S 
ATOM     98  O   UNL A   1      45.052  35.881  30.262  1.00  0.00    -0.237 OA
ATOM     99  O   UNL A   1      47.071  36.509  28.980  1.00  0.00    -0.237 OA
ATOM    100  O   UNL A   1      45.022  35.802  27.798  1.00  0.00    -0.744 OA
ENDBRANCH  96  97
ENDBRANCH  64  89
ENDBRANCH  38  39
ENDBRANCH  30  33
ENDBRANCH  28  29
ENDBRANCH   1  28
TORSDOF 16
ENDMDL
MODEL 2
REMARK VINA RESULT:     -12.8      3.632      9.469
REMARK SMILES Cc1cc(C(=O)NCCCNC(=O)c2ccc(-c3c4nc(c(-c5c(F)cc(S(=O)(=O)[O-])cc5F)c5ccc([nH]5)c(-c5c(F)cc(S(=O)(=O)[O-])cc5F)c5nc(c(-c6c(F)cc(S(=O)(=O)[O-])cc6F)c6ccc3[nH]6)C=C5)C=C4)cc2)ccc1NS(=O)(=O)c1ccc2c(c1)CCC2
REMARK SMILES IDX 9 1 8 2 7 3 5 4 6 5 4 7 1 8 2 9 3 10 82 11 81 12 80 13 83 14
REMARK SMILES IDX 84 16 85 17 86 18 87 19 88 20 92 21 89 22 91 23 90 24 93 25
REMARK SMILES IDX 95 26 94 27 10 28 11 29 12 30 13 32 14 33 15 34 79 35 16 36
REMARK SMILES IDX 78 37 17 38 18 39 19 40 72 41 20 42 77 43 71 44 73 45 21 46
REMARK SMILES IDX 76 47 70 48 69 49 22 51 56 52 35 53 55 54 36 55 39 56 54 57
REMARK SMILES IDX 74 58 37 59 38 60 53 62 75 63 40 64 23 65 24 66 33 67 25 68
REMARK SMILES IDX 26 69 32 70 34 71 27 72 28 73 29 74 30 75 31 76 57 77 58 78
REMARK SMILES IDX 67 79 59 80 60 81 66 82 68 83 61 84 62 85 63 86 64 87 65 88
REMARK SMILES IDX 41 89 42 90 51 91 43 92 44 93 50 94 52 95 45 96 46 97 47 98
REMARK SMILES IDX 48 99 49 100
REMARK H PARENT 7 6 83 15 11 31 73 50 39 61
REMARK Flexibility Score: inf
ROOT
ATOM      1  C   UNL A   1      37.307  20.426  24.877  1.00  0.00     0.042 C 
ENDROOT
BRANCH   1   2
ATOM      2  C   UNL A   1      35.687  20.369  24.997  1.00  0.00     0.118 C 
BRANCH   2   3
ATOM      3  N   UNL A   1      35.002  20.928  26.182  1.00  0.00    -0.352 N 
ATOM      4  C   UNL A   1      33.766  21.483  26.464  1.00  0.00     0.251 C 
ATOM      5  O   UNL A   1      33.413  21.603  27.641  1.00  0.00    -0.269 OA
ATOM      6  H   UNL A   1      35.576  20.897  26.982  1.00  0.00     0.163 HD
BRANCH   4   7
ATOM      7  C   UNL A   1      32.838  22.021  25.426  1.00  0.00     0.040 A 
ATOM      8  C   UNL A   1      30.575  25.058  24.969  1.00  0.00     0.046 C 
ATOM      9  C   UNL A   1      31.449  23.882  24.634  1.00  0.00    -0.026 A 
ATOM     10  C   UNL A   1      32.079  23.179  25.688  1.00  0.00     0.019 A 
ATOM     11  C   UNL A   1      31.624  23.411  23.321  1.00  0.00     0.052 A 
ATOM     12  C   UNL A   1      32.023  22.104  23.145  1.00  0.00     0.028 A 
ATOM     13  C   UNL A   1      32.719  21.473  24.162  1.00  0.00     0.016 A 
BRANCH  11  14
ATOM     14  N   UNL A   1      31.822  24.335  22.248  1.00  0.00    -0.279 N 
ATOM     15  H   UNL A   1      31.111  24.382  21.569  1.00  0.00     0.180 HD
BRANCH  14  16
ATOM     16  S   UNL A   1      33.147  25.352  22.025  1.00  0.00     0.261 S 
ATOM     17  O   UNL A   1      34.317  24.646  22.564  1.00  0.00    -0.201 OA
ATOM     18  O   UNL A   1      33.112  25.750  20.651  1.00  0.00    -0.201 OA
BRANCH  16  19
ATOM     19  C   UNL A   1      33.000  26.860  22.999  1.00  0.00     0.088 A 
ATOM     20  C   UNL A   1      32.088  27.878  22.704  1.00  0.00     0.022 A 
ATOM     21  C   UNL A   1      33.734  26.917  24.202  1.00  0.00     0.026 A 
ATOM     22  C   UNL A   1      31.731  28.800  23.697  1.00  0.00     0.005 A 
ATOM     23  C   UNL A   1      33.389  27.867  25.157  1.00  0.00    -0.043 A 
ATOM     24  C   UNL A   1      32.307  28.716  24.951  1.00  0.00    -0.045 A 
ATOM     25  C   UNL A   1      34.028  28.191  26.472  1.00  0.00     0.036 C 
ATOM     26  C   UNL A   1      31.942  29.452  26.209  1.00  0.00     0.036 C 
ATOM     27  C   UNL A   1      32.817  28.723  27.247  1.00  0.00     0.010 C 
ENDBRANCH  16  19
ENDBRANCH  14  16
ENDBRANCH  11  14
ENDBRANCH   4   7
ENDBRANCH   2   3
ENDBRANCH   1   2
BRANCH   1  28
ATOM     28  C   UNL A   1      37.886  21.733  25.573  1.00  0.00     0.118 C 
BRANCH  28  29
ATOM     29  N   UNL A   1      39.293  22.354  26.034  1.00  0.00    -0.352 N 
ATOM     30  C   UNL A   1      39.891  23.450  26.922  1.00  0.00     0.251 C 
ATOM     31  H   UNL A   1      40.024  21.862  25.593  1.00  0.00     0.163 HD
ATOM     32  O   UNL A   1      40.615  22.942  27.805  1.00  0.00    -0.269 OA
BRANCH  30  33
ATOM     33  C   UNL A   1      39.870  25.125  27.047  1.00  0.00     0.039 A 
ATOM     34  C   UNL A   1      40.491  25.989  26.074  1.00  0.00     0.014 A 
ATOM     35  C   UNL A   1      39.414  25.891  28.113  1.00  0.00     0.014 A 
ATOM     36  C   UNL A   1      41.195  27.222  26.485  1.00  0.00     0.010 A 
ATOM     37  C   UNL A   1      40.139  27.057  28.545  1.00  0.00     0.010 A 
ATOM     38  C   UNL A   1      41.255  27.547  27.855  1.00  0.00    -0.014 A 
BRANCH  38  39
ATOM     39  C   UNL A   1      42.534  27.991  28.651  1.00  0.00     0.031 A 
ATOM     40  C   UNL A   1      43.766  27.279  28.355  1.00  0.00     0.074 A 
ATOM     41  C   UNL A   1      42.824  29.055  29.490  1.00  0.00     0.049 A 
ATOM     42  N   UNL A   1      44.466  26.585  29.188  1.00  0.00    -0.248 NA
ATOM     43  C   UNL A   1      44.294  27.348  27.006  1.00  0.00     0.031 C 
ATOM     44  C   UNL A   1      44.048  29.501  30.201  1.00  0.00     0.029 A 
ATOM     45  N   UNL A   1      42.006  30.073  29.943  1.00  0.00    -0.354 N 
ATOM     46  C   UNL A   1      45.673  26.403  28.546  1.00  0.00     0.074 A 
ATOM     47  C   UNL A   1      45.381  26.593  27.140  1.00  0.00     0.031 C 
ATOM     48  C   UNL A   1      43.709  30.305  31.244  1.00  0.00     0.029 A 
ATOM     49  C   UNL A   1      42.266  30.390  31.272  1.00  0.00     0.049 A 
ATOM     50  H   UNL A   1      41.322  30.518  29.393  1.00  0.00     0.167 HD
ATOM     51  C   UNL A   1      46.866  26.518  29.208  1.00  0.00     0.037 A 
ATOM     52  C   UNL A   1      41.367  29.982  32.234  1.00  0.00     0.037 A 
ATOM     53  C   UNL A   1      46.681  27.061  30.572  1.00  0.00     0.049 A 
ATOM     54  C   UNL A   1      41.930  28.842  33.042  1.00  0.00     0.074 A 
ATOM     55  C   UNL A   1      47.050  28.239  31.212  1.00  0.00     0.029 A 
ATOM     56  N   UNL A   1      45.750  26.482  31.417  1.00  0.00    -0.354 N 
ATOM     57  N   UNL A   1      43.168  28.467  32.930  1.00  0.00    -0.248 NA
ATOM     58  C   UNL A   1      41.177  27.983  33.954  1.00  0.00     0.031 C 
ATOM     59  C   UNL A   1      46.329  28.340  32.444  1.00  0.00     0.029 A 
ATOM     60  C   UNL A   1      45.544  27.211  32.573  1.00  0.00     0.049 A 
ATOM     61  H   UNL A   1      45.282  25.639  31.215  1.00  0.00     0.167 HD
ATOM     62  C   UNL A   1      43.382  27.316  33.616  1.00  0.00     0.074 A 
ATOM     63  C   UNL A   1      42.106  27.058  34.268  1.00  0.00     0.031 C 
ATOM     64  C   UNL A   1      44.593  26.690  33.553  1.00  0.00     0.037 A 
BRANCH  51  65
ATOM     65  C   UNL A   1      48.219  26.426  28.505  1.00  0.00     0.058 A 
ATOM     66  C   UNL A   1      48.669  25.225  27.919  1.00  0.00     0.135 A 
ATOM     67  C   UNL A   1      49.096  27.519  28.304  1.00  0.00     0.135 A 
ATOM     68  F   UNL A   1      47.897  24.130  27.886  1.00  0.00    -0.206 F 
ATOM     69  C   UNL A   1      49.911  25.100  27.284  1.00  0.00     0.059 A 
ATOM     70  C   UNL A   1      50.375  27.402  27.755  1.00  0.00     0.059 A 
ATOM     71  F   UNL A   1      48.714  28.783  28.527  1.00  0.00    -0.206 F 
ATOM     72  C   UNL A   1      50.770  26.189  27.228  1.00  0.00     0.060 A 
BRANCH  72  73
ATOM     73  S   UNL A   1      52.340  26.039  26.358  1.00  0.00     0.124 S 
ATOM     74  O   UNL A   1      52.153  26.936  25.221  1.00  0.00    -0.237 OA
ATOM     75  O   UNL A   1      53.290  26.486  27.370  1.00  0.00    -0.237 OA
ATOM     76  O   UNL A   1      52.413  24.620  26.022  1.00  0.00    -0.744 OA
ENDBRANCH  72  73
ENDBRANCH  51  65
BRANCH  52  77
ATOM     77  C   UNL A   1      39.888  30.083  31.831  1.00  0.00     0.058 A 
ATOM     78  C   UNL A   1      39.066  29.128  32.420  1.00  0.00     0.135 A 
ATOM     79  C   UNL A   1      39.382  31.353  31.987  1.00  0.00     0.135 A 
ATOM     80  F   UNL A   1      38.905  27.930  31.845  1.00  0.00    -0.206 F 
ATOM     81  C   UNL A   1      38.330  29.410  33.578  1.00  0.00     0.059 A 
ATOM     82  C   UNL A   1      38.750  31.611  33.214  1.00  0.00     0.059 A 
ATOM     83  F   UNL A   1      39.934  32.371  31.307  1.00  0.00    -0.206 F 
ATOM     84  C   UNL A   1      38.341  30.681  34.123  1.00  0.00     0.060 A 
BRANCH  84  85
ATOM     85  S   UNL A   1      38.323  31.193  36.179  1.00  0.00     0.124 S 
ATOM     86  O   UNL A   1      39.742  31.385  36.454  1.00  0.00    -0.237 OA
ATOM     87  O   UNL A   1      37.558  32.421  36.259  1.00  0.00    -0.237 OA
ATOM     88  O   UNL A   1      37.739  30.066  36.892  1.00  0.00    -0.744 OA
ENDBRANCH  84  85
ENDBRANCH  52  77
BRANCH  64  89
ATOM     89  C   UNL A   1      44.972  25.489  34.371  1.00  0.00     0.058 A 
ATOM     90  C   UNL A   1      44.582  24.185  34.033  1.00  0.00     0.135 A 
ATOM     91  C   UNL A   1      45.649  25.621  35.607  1.00  0.00     0.135 A 
ATOM     92  F   UNL A   1      43.780  23.945  32.984  1.00  0.00    -0.206 F 
ATOM     93  C   UNL A   1      44.962  23.079  34.791  1.00  0.00     0.059 A 
ATOM     94  C   UNL A   1      45.999  24.543  36.399  1.00  0.00     0.059 A 
ATOM     95  F   UNL A   1      46.008  26.806  36.113  1.00  0.00    -0.206 F 
ATOM     96  C   UNL A   1      45.689  23.270  35.964  1.00  0.00     0.060 A 
BRANCH  96  97
ATOM     97  S   UNL A   1      46.194  21.849  36.934  1.00  0.00     0.124 S 
ATOM     98  O   UNL A   1      45.617  20.740  36.181  1.00  0.00    -0.237 OA
ATOM     99  O   UNL A   1      47.649  21.965  36.879  1.00  0.00    -0.237 OA
ATOM    100  O   UNL A   1      45.594  22.093  38.241  1.00  0.00    -0.744 OA
ENDBRANCH  96  97
ENDBRANCH  64  89
ENDBRANCH  38  39
ENDBRANCH  30  33
ENDBRANCH  28  29
ENDBRANCH   1  28
TORSDOF 16
ENDMDL
MODEL 3
REMARK VINA RESULT:     -12.8      7.648     11.686
REMARK SMILES Cc1cc(C(=O)NCCCNC(=O)c2ccc(-c3c4nc(c(-c5c(F)cc(S(=O)(=O)[O-])cc5F)c5ccc([nH]5)c(-c5c(F)cc(S(=O)(=O)[O-])cc5F)c5nc(c(-c6c(F)cc(S(=O)(=O)[O-])cc6F)c6ccc3[nH]6)C=C5)C=C4)cc2)ccc1NS(=O)(=O)c1ccc2c(c1)CCC2
REMARK SMILES IDX 9 1 8 2 7 3 5 4 6 5 4 7 1 8 2 9 3 10 82 11 81 12 80 13 83 14
REMARK SMILES IDX 84 16 85 17 86 18 87 19 88 20 92 21 89 22 91 23 90 24 93 25
REMARK SMILES IDX 95 26 94 27 10 28 11 29 12 30 13 32 14 33 15 34 79 35 16 36
REMARK SMILES IDX 78 37 17 38 18 39 19 40 72 41 20 42 77 43 71 44 73 45 21 46
REMARK SMILES IDX 76 47 70 48 69 49 22 51 56 52 35 53 55 54 36 55 39 56 54 57
REMARK SMILES IDX 74 58 37 59 38 60 53 62 75 63 40 64 23 65 24 66 33 67 25 68
REMARK SMILES IDX 26 69 32 70 34 71 27 72 28 73 29 74 30 75 31 76 57 77 58 78
REMARK SMILES IDX 67 79 59 80 60 81 66 82 68 83 61 84 62 85 63 86 64 87 65 88
REMARK SMILES IDX 41 89 42 90 51 91 43 92 44 93 50 94 52 95 45 96 46 97 47 98
REMARK SMILES IDX 48 99 49 100
REMARK H PARENT 7 6 83 15 11 31 73 50 39 61
REMARK Flexibility Score: inf
ROOT
ATOM      1  C   UNL A   1      34.030  28.579  27.179  1.00  0.00     0.042 C 
ENDROOT
BRANCH   1   2
ATOM      2  C   UNL A   1      33.176  29.389  26.057  1.00  0.00     0.118 C 
BRANCH   2   3
ATOM      3  N   UNL A   1      33.577  29.347  24.634  1.00  0.00    -0.352 N 
ATOM      4  C   UNL A   1      33.121  28.744  23.476  1.00  0.00     0.251 C 
ATOM      5  O   UNL A   1      33.538  29.142  22.384  1.00  0.00    -0.269 OA
ATOM      6  H   UNL A   1      34.380  29.892  24.466  1.00  0.00     0.163 HD
BRANCH   4   7
ATOM      7  C   UNL A   1      32.191  27.576  23.455  1.00  0.00     0.040 A 
ATOM      8  C   UNL A   1      32.389  23.826  22.781  1.00  0.00     0.046 C 
ATOM      9  C   UNL A   1      31.901  25.144  23.316  1.00  0.00    -0.026 A 
ATOM     10  C   UNL A   1      32.654  26.310  23.045  1.00  0.00     0.019 A 
ATOM     11  C   UNL A   1      30.697  25.279  24.028  1.00  0.00     0.052 A 
ATOM     12  C   UNL A   1      30.097  26.519  24.064  1.00  0.00     0.028 A 
ATOM     13  C   UNL A   1      30.879  27.648  23.885  1.00  0.00     0.016 A 
BRANCH  11  14
ATOM     14  N   UNL A   1      30.343  24.321  25.029  1.00  0.00    -0.279 N 
ATOM     15  H   UNL A   1      29.572  23.742  24.832  1.00  0.00     0.180 HD
BRANCH  14  16
ATOM     16  S   UNL A   1      31.108  24.081  26.510  1.00  0.00     0.261 S 
ATOM     17  O   UNL A   1      31.480  25.410  27.014  1.00  0.00    -0.201 OA
ATOM     18  O   UNL A   1      30.240  23.236  27.271  1.00  0.00    -0.201 OA
BRANCH  16  19
ATOM     19  C   UNL A   1      32.660  23.186  26.320  1.00  0.00     0.088 A 
ATOM     20  C   UNL A   1      32.726  21.814  26.051  1.00  0.00     0.022 A 
ATOM     21  C   UNL A   1      33.841  23.955  26.283  1.00  0.00     0.026 A 
ATOM     22  C   UNL A   1      33.898  21.269  25.512  1.00  0.00     0.005 A 
ATOM     23  C   UNL A   1      35.003  23.379  25.782  1.00  0.00    -0.043 A 
ATOM     24  C   UNL A   1      34.991  22.082  25.280  1.00  0.00    -0.045 A 
ATOM     25  C   UNL A   1      36.392  23.933  25.688  1.00  0.00     0.036 C 
ATOM     26  C   UNL A   1      36.261  21.770  24.539  1.00  0.00     0.036 C 
ATOM     27  C   UNL A   1      36.918  23.163  24.470  1.00  0.00     0.010 C 
ENDBRANCH  16  19
ENDBRANCH  14  16
ENDBRANCH  11  14
ENDBRANCH   4   7
ENDBRANCH   2   3
ENDBRANCH   1   2
BRANCH   1  28
ATOM     28  C   UNL A   1      35.192  29.486  27.777  1.00  0.00     0.118 C 
BRANCH  28  29
ATOM     29  N   UNL A   1      36.795  29.566  27.796  1.00  0.00    -0.352 N 
ATOM     30  C   UNL A   1      38.027  28.859  28.369  1.00  0.00     0.251 C 
ATOM     31  H   UNL A   1      37.087  30.335  27.254  1.00  0.00     0.163 HD
ATOM     32  O   UNL A   1      38.752  28.437  27.442  1.00  0.00    -0.269 OA
BRANCH  30  33
ATOM     33  C   UNL A   1      38.693  28.499  29.868  1.00  0.00     0.039 A 
ATOM     34  C   UNL A   1      37.940  28.570  31.096  1.00  0.00     0.014 A 
ATOM     35  C   UNL A   1      40.026  28.239  30.165  1.00  0.00     0.014 A 
ATOM     36  C   UNL A   1      38.556  29.068  32.344  1.00  0.00     0.010 A 
ATOM     37  C   UNL A   1      40.634  28.779  31.353  1.00  0.00     0.010 A 
ATOM     38  C   UNL A   1      39.903  29.480  32.320  1.00  0.00    -0.014 A 
BRANCH  38  39
ATOM     39  C   UNL A   1      40.481  30.808  32.927  1.00  0.00     0.031 A 
ATOM     40  C   UNL A   1      41.521  30.667  33.933  1.00  0.00     0.074 A 
ATOM     41  C   UNL A   1      40.350  32.150  32.607  1.00  0.00     0.049 A 
ATOM     42  N   UNL A   1      41.462  31.075  35.156  1.00  0.00    -0.248 NA
ATOM     43  C   UNL A   1      42.764  30.023  33.552  1.00  0.00     0.031 C 
ATOM     44  C   UNL A   1      40.936  33.400  33.150  1.00  0.00     0.029 A 
ATOM     45  N   UNL A   1      39.581  32.755  31.630  1.00  0.00    -0.354 N 
ATOM     46  C   UNL A   1      42.769  31.023  35.593  1.00  0.00     0.074 A 
ATOM     47  C   UNL A   1      43.423  30.084  34.706  1.00  0.00     0.031 C 
ATOM     48  C   UNL A   1      40.152  34.460  32.818  1.00  0.00     0.029 A 
ATOM     49  C   UNL A   1      39.020  33.946  32.079  1.00  0.00     0.049 A 
ATOM     50  H   UNL A   1      39.446  32.387  30.728  1.00  0.00     0.167 HD
ATOM     51  C   UNL A   1      43.313  32.022  36.356  1.00  0.00     0.037 A 
ATOM     52  C   UNL A   1      37.676  33.969  32.378  1.00  0.00     0.037 A 
ATOM     53  C   UNL A   1      42.417  33.196  36.435  1.00  0.00     0.049 A 
ATOM     54  C   UNL A   1      37.461  34.026  33.868  1.00  0.00     0.074 A 
ATOM     55  C   UNL A   1      42.484  34.508  35.979  1.00  0.00     0.029 A 
ATOM     56  N   UNL A   1      41.092  33.021  36.800  1.00  0.00    -0.354 N 
ATOM     57  N   UNL A   1      38.441  34.220  34.697  1.00  0.00    -0.248 NA
ATOM     58  C   UNL A   1      36.195  33.794  34.562  1.00  0.00     0.031 C 
ATOM     59  C   UNL A   1      41.186  35.101  36.087  1.00  0.00     0.029 A 
ATOM     60  C   UNL A   1      40.333  34.165  36.637  1.00  0.00     0.049 A 
ATOM     61  H   UNL A   1      40.730  32.171  37.139  1.00  0.00     0.167 HD
ATOM     62  C   UNL A   1      38.025  34.048  35.977  1.00  0.00     0.074 A 
ATOM     63  C   UNL A   1      36.596  33.805  35.849  1.00  0.00     0.031 C 
ATOM     64  C   UNL A   1      38.920  34.107  37.006  1.00  0.00     0.037 A 
BRANCH  51  65
ATOM     65  C   UNL A   1      44.784  32.044  36.767  1.00  0.00     0.058 A 
ATOM     66  C   UNL A   1      45.226  31.454  37.970  1.00  0.00     0.135 A 
ATOM     67  C   UNL A   1      45.832  32.571  35.975  1.00  0.00     0.135 A 
ATOM     68  F   UNL A   1      44.387  30.781  38.768  1.00  0.00    -0.206 F 
ATOM     69  C   UNL A   1      46.562  31.474  38.387  1.00  0.00     0.059 A 
ATOM     70  C   UNL A   1      47.156  32.682  36.406  1.00  0.00     0.059 A 
ATOM     71  F   UNL A   1      45.650  32.903  34.690  1.00  0.00    -0.206 F 
ATOM     72  C   UNL A   1      47.519  32.113  37.610  1.00  0.00     0.060 A 
BRANCH  72  73
ATOM     73  S   UNL A   1      49.246  32.083  38.122  1.00  0.00     0.124 S 
ATOM     74  O   UNL A   1      49.736  30.861  37.491  1.00  0.00    -0.237 OA
ATOM     75  O   UNL A   1      49.748  33.333  37.563  1.00  0.00    -0.237 OA
ATOM     76  O   UNL A   1      49.171  32.040  39.580  1.00  0.00    -0.744 OA
ENDBRANCH  72  73
ENDBRANCH  51  65
BRANCH  52  77
ATOM     77  C   UNL A   1      36.781  33.161  31.426  1.00  0.00     0.058 A 
ATOM     78  C   UNL A   1      35.700  32.540  32.042  1.00  0.00     0.135 A 
ATOM     79  C   UNL A   1      36.387  33.888  30.325  1.00  0.00     0.135 A 
ATOM     80  F   UNL A   1      35.839  31.321  32.578  1.00  0.00    -0.206 F 
ATOM     81  C   UNL A   1      34.428  33.127  32.057  1.00  0.00     0.059 A 
ATOM     82  C   UNL A   1      35.151  34.546  30.439  1.00  0.00     0.059 A 
ATOM     83  F   UNL A   1      37.318  34.382  29.493  1.00  0.00    -0.206 F 
ATOM     84  C   UNL A   1      34.196  34.313  31.383  1.00  0.00     0.060 A 
BRANCH  84  85
ATOM     85  S   UNL A   1      32.945  35.909  31.994  1.00  0.00     0.124 S 
ATOM     86  O   UNL A   1      33.792  36.606  32.954  1.00  0.00    -0.237 OA
ATOM     87  O   UNL A   1      32.695  36.679  30.792  1.00  0.00    -0.237 OA
ATOM     88  O   UNL A   1      31.757  35.312  32.590  1.00  0.00    -0.744 OA
ENDBRANCH  84  85
ENDBRANCH  52  77
BRANCH  64  89
ATOM     89  C   UNL A   1      38.546  34.059  38.460  1.00  0.00     0.058 A 
ATOM     90  C   UNL A   1      37.907  32.956  39.045  1.00  0.00     0.135 A 
ATOM     91  C   UNL A   1      38.711  35.184  39.303  1.00  0.00     0.135 A 
ATOM     92  F   UNL A   1      37.529  31.898  38.310  1.00  0.00    -0.206 F 
ATOM     93  C   UNL A   1      37.589  32.919  40.400  1.00  0.00     0.059 A 
ATOM     94  C   UNL A   1      38.362  35.187  40.641  1.00  0.00     0.059 A 
ATOM     95  F   UNL A   1      39.221  36.344  38.872  1.00  0.00    -0.206 F 
ATOM     96  C   UNL A   1      37.839  34.035  41.194  1.00  0.00     0.060 A 
BRANCH  96  97
ATOM     97  S   UNL A   1      37.446  33.985  42.943  1.00  0.00     0.124 S 
ATOM     98  O   UNL A   1      37.448  35.400  43.300  1.00  0.00    -0.237 OA
ATOM     99  O   UNL A   1      36.138  33.337  42.926  1.00  0.00    -0.237 OA
ATOM    100  O   UNL A   1      38.531  33.197  43.517  1.00  0.00    -0.744 OA
ENDBRANCH  96  97
ENDBRANCH  64  89
ENDBRANCH  38  39
ENDBRANCH  30  33
ENDBRANCH  28  29
ENDBRANCH   1  28
TORSDOF 16
ENDMDL
