MODEL 1
REMARK VINA RESULT:     -13.4      0.000      0.000
REMARK SMILES COC(=O)c1ccc(C)c2c1[C@H]1C=CC[C@H]1[C@@H](c1ccc(C(=O)NCCCNC(=O)c3ccc(-c4c5nc(c(-c6c(F)cc(S(=O)(=O)[O-])cc6F)c6ccc([nH]6)c(-c6c(F)cc(S(=O)(=O)[O-])cc6F)c6nc(c(-c7c(F)cc(S(=O)(=O)[O-])cc7F)c7ccc4[nH]7)C=C6)C=C5)cc3)cc1)N2
REMARK SMILES IDX 26 1 25 2 24 3 22 4 23 5 21 7 18 8 19 9 98 10 20 11 97 12
REMARK SMILES IDX 17 13 5 14 6 15 11 16 7 17 10 18 12 19 8 20 99 21 13 22
REMARK SMILES IDX 16 23 9 24 14 26 15 27 3 28 4 29 2 30 1 31 27 32 28 33 29 34
REMARK SMILES IDX 30 36 31 37 32 38 96 39 33 40 95 41 34 42 35 43 36 44 89 45
REMARK SMILES IDX 37 46 94 47 88 48 90 49 38 50 93 51 87 52 86 53 39 55 73 56
REMARK SMILES IDX 52 57 72 58 53 59 56 60 71 61 91 62 54 63 55 64 70 66 92 67
REMARK SMILES IDX 57 68 40 69 41 70 50 71 42 72 43 73 49 74 51 75 44 76 45 77
REMARK SMILES IDX 46 78 47 79 48 80 74 81 75 82 84 83 76 84 77 85 83 86 85 87
REMARK SMILES IDX 78 88 79 89 80 90 81 91 82 92 58 93 59 94 68 95 60 96 61 97
REMARK SMILES IDX 67 98 69 99 62 100 63 101 64 102 65 103 66 104
REMARK H PARENT 24 6 99 25 28 35 90 54 56 65
REMARK Flexibility Score: inf
ROOT
ATOM      1  C   UNL A   1      39.489  22.338  26.332  1.00  0.00     0.042 C 
ENDROOT
BRANCH   1   2
ATOM      2  C   UNL A   1      38.264  23.228  26.123  1.00  0.00     0.118 C 
BRANCH   2   3
ATOM      3  N   UNL A   1      37.794  23.123  24.759  1.00  0.00    -0.352 N 
ATOM      4  C   UNL A   1      36.557  23.280  24.200  1.00  0.00     0.251 C 
ATOM      5  O   UNL A   1      36.473  23.116  22.981  1.00  0.00    -0.269 OA
ATOM      6  H   UNL A   1      38.499  22.897  24.111  1.00  0.00     0.163 HD
BRANCH   4   7
ATOM      7  C   UNL A   1      35.345  23.674  24.968  1.00  0.00     0.039 A 
ATOM      8  C   UNL A   1      32.975  24.624  26.228  1.00  0.00    -0.025 A 
ATOM      9  C   UNL A   1      33.741  25.445  25.388  1.00  0.00     0.006 A 
ATOM     10  C   UNL A   1      33.453  23.329  26.464  1.00  0.00     0.006 A 
ATOM     11  C   UNL A   1      34.901  24.982  24.769  1.00  0.00     0.014 A 
ATOM     12  C   UNL A   1      34.597  22.850  25.812  1.00  0.00     0.014 A 
BRANCH   8  13
ATOM     13  C   UNL A   1      31.604  25.023  26.782  1.00  0.00     0.114 C 
ATOM     14  C   UNL A   1      30.766  28.098  23.969  1.00  0.00     0.065 A 
ATOM     15  C   UNL A   1      31.328  29.360  24.185  1.00  0.00     0.016 A 
ATOM     16  C   UNL A   1      30.811  27.104  24.971  1.00  0.00    -0.003 A 
ATOM     17  C   UNL A   1      31.928  29.655  25.403  1.00  0.00     0.006 A 
ATOM     18  C   UNL A   1      31.411  27.417  26.222  1.00  0.00     0.042 A 
ATOM     19  C   UNL A   1      30.249  25.715  24.721  1.00  0.00     0.050 C 
ATOM     20  C   UNL A   1      31.982  28.696  26.427  1.00  0.00    -0.028 A 
ATOM     21  N   UNL A   1      31.574  26.422  27.177  1.00  0.00    -0.377 N 
ATOM     22  C   UNL A   1      30.903  24.908  23.624  1.00  0.00    -0.023 C 
ATOM     23  C   UNL A   1      30.363  24.735  25.909  1.00  0.00     0.031 C 
ATOM     24  C   UNL A   1      32.716  29.095  27.682  1.00  0.00     0.046 C 
ATOM     25  H   UNL A   1      31.669  26.665  28.126  1.00  0.00     0.161 HD
ATOM     26  C   UNL A   1      30.938  23.602  23.920  1.00  0.00    -0.030 C 
ATOM     27  C   UNL A   1      30.347  23.339  25.267  1.00  0.00     0.034 C 
BRANCH  14  28
ATOM     28  C   UNL A   1      30.119  27.852  22.658  1.00  0.00     0.338 C 
ATOM     29  O   UNL A   1      30.710  27.563  21.635  1.00  0.00    -0.246 OA
BRANCH  28  30
ATOM     30  O   UNL A   1      28.780  28.040  22.796  1.00  0.00    -0.465 OA
ATOM     31  C   UNL A   1      28.330  29.320  22.351  1.00  0.00     0.282 C 
ENDBRANCH  28  30
ENDBRANCH  14  28
ENDBRANCH   8  13
ENDBRANCH   4   7
ENDBRANCH   2   3
ENDBRANCH   1   2
BRANCH   1  32
ATOM     32  C   UNL A   1      40.616  23.075  27.050  1.00  0.00     0.118 C 
BRANCH  32  33
ATOM     33  N   UNL A   1      41.459  23.782  26.096  1.00  0.00    -0.352 N 
ATOM     34  C   UNL A   1      41.730  25.123  26.024  1.00  0.00     0.251 C 
ATOM     35  H   UNL A   1      41.893  23.223  25.412  1.00  0.00     0.163 HD
ATOM     36  O   UNL A   1      42.120  25.615  24.969  1.00  0.00    -0.269 OA
BRANCH  34  37
ATOM     37  C   UNL A   1      41.576  25.958  27.230  1.00  0.00     0.039 A 
ATOM     38  C   UNL A   1      40.387  25.900  27.962  1.00  0.00     0.014 A 
ATOM     39  C   UNL A   1      42.592  26.851  27.588  1.00  0.00     0.014 A 
ATOM     40  C   UNL A   1      40.223  26.734  29.069  1.00  0.00     0.010 A 
ATOM     41  C   UNL A   1      42.451  27.637  28.723  1.00  0.00     0.010 A 
ATOM     42  C   UNL A   1      41.252  27.606  29.451  1.00  0.00    -0.014 A 
BRANCH  42  43
ATOM     43  C   UNL A   1      41.070  28.590  30.539  1.00  0.00     0.031 A 
ATOM     44  C   UNL A   1      41.944  28.490  31.757  1.00  0.00     0.074 A 
ATOM     45  C   UNL A   1      40.099  29.518  30.456  1.00  0.00     0.049 A 
ATOM     46  N   UNL A   1      41.878  29.157  32.879  1.00  0.00    -0.248 NA
ATOM     47  C   UNL A   1      43.024  27.488  31.714  1.00  0.00     0.031 C 
ATOM     48  C   UNL A   1      39.196  29.702  29.318  1.00  0.00     0.029 A 
ATOM     49  N   UNL A   1      39.703  30.473  31.355  1.00  0.00    -0.354 N 
ATOM     50  C   UNL A   1      42.905  28.658  33.671  1.00  0.00     0.074 A 
ATOM     51  C   UNL A   1      43.541  27.592  32.929  1.00  0.00     0.031 C 
ATOM     52  C   UNL A   1      38.355  30.714  29.587  1.00  0.00     0.029 A 
ATOM     53  C   UNL A   1      38.633  31.222  30.927  1.00  0.00     0.049 A 
ATOM     54  H   UNL A   1      40.142  30.609  32.226  1.00  0.00     0.167 HD
ATOM     55  C   UNL A   1      43.297  29.071  34.898  1.00  0.00     0.037 A 
ATOM     56  C   UNL A   1      37.951  32.198  31.559  1.00  0.00     0.037 A 
ATOM     57  C   UNL A   1      42.663  30.139  35.624  1.00  0.00     0.049 A 
ATOM     58  C   UNL A   1      38.370  32.593  32.952  1.00  0.00     0.074 A 
ATOM     59  C   UNL A   1      42.991  30.649  36.867  1.00  0.00     0.029 A 
ATOM     60  N   UNL A   1      41.571  30.864  35.168  1.00  0.00    -0.354 N 
ATOM     61  N   UNL A   1      39.356  32.128  33.683  1.00  0.00    -0.248 NA
ATOM     62  C   UNL A   1      37.581  33.647  33.605  1.00  0.00     0.031 C 
ATOM     63  C   UNL A   1      42.069  31.653  37.182  1.00  0.00     0.029 A 
ATOM     64  C   UNL A   1      41.199  31.804  36.114  1.00  0.00     0.049 A 
ATOM     65  H   UNL A   1      41.126  30.730  34.300  1.00  0.00     0.167 HD
ATOM     66  C   UNL A   1      39.319  32.848  34.873  1.00  0.00     0.074 A 
ATOM     67  C   UNL A   1      38.231  33.797  34.750  1.00  0.00     0.031 C 
ATOM     68  C   UNL A   1      40.108  32.734  35.971  1.00  0.00     0.037 A 
BRANCH  55  69
ATOM     69  C   UNL A   1      44.475  28.380  35.526  1.00  0.00     0.058 A 
ATOM     70  C   UNL A   1      44.310  27.249  36.343  1.00  0.00     0.135 A 
ATOM     71  C   UNL A   1      45.785  28.812  35.265  1.00  0.00     0.135 A 
ATOM     72  F   UNL A   1      43.078  26.809  36.646  1.00  0.00    -0.206 F 
ATOM     73  C   UNL A   1      45.399  26.578  36.885  1.00  0.00     0.059 A 
ATOM     74  C   UNL A   1      46.892  28.139  35.774  1.00  0.00     0.059 A 
ATOM     75  F   UNL A   1      46.000  29.894  34.499  1.00  0.00    -0.206 F 
ATOM     76  C   UNL A   1      46.687  27.024  36.587  1.00  0.00     0.060 A 
BRANCH  76  77
ATOM     77  S   UNL A   1      48.088  26.110  37.265  1.00  0.00     0.124 S 
ATOM     78  O   UNL A   1      47.718  24.733  36.954  1.00  0.00    -0.237 OA
ATOM     79  O   UNL A   1      49.208  26.653  36.502  1.00  0.00    -0.237 OA
ATOM     80  O   UNL A   1      48.070  26.458  38.682  1.00  0.00    -0.744 OA
ENDBRANCH  76  77
ENDBRANCH  55  69
BRANCH  56  81
ATOM     81  C   UNL A   1      36.815  32.879  30.883  1.00  0.00     0.058 A 
ATOM     82  C   UNL A   1      37.047  33.861  29.909  1.00  0.00     0.135 A 
ATOM     83  C   UNL A   1      35.482  32.577  31.200  1.00  0.00     0.135 A 
ATOM     84  F   UNL A   1      38.305  34.193  29.577  1.00  0.00    -0.206 F 
ATOM     85  C   UNL A   1      36.001  34.536  29.288  1.00  0.00     0.059 A 
ATOM     86  C   UNL A   1      34.417  33.218  30.572  1.00  0.00     0.059 A 
ATOM     87  F   UNL A   1      35.203  31.635  32.115  1.00  0.00    -0.206 F 
ATOM     88  C   UNL A   1      34.687  34.205  29.626  1.00  0.00     0.060 A 
BRANCH  88  89
ATOM     89  S   UNL A   1      33.340  35.066  28.788  1.00  0.00     0.124 S 
ATOM     90  O   UNL A   1      32.533  35.519  29.914  1.00  0.00    -0.237 OA
ATOM     91  O   UNL A   1      34.055  36.105  28.054  1.00  0.00    -0.237 OA
ATOM     92  O   UNL A   1      32.740  34.024  27.959  1.00  0.00    -0.744 OA
ENDBRANCH  88  89
ENDBRANCH  56  81
BRANCH  68  93
ATOM     93  C   UNL A   1      39.829  33.668  37.118  1.00  0.00     0.058 A 
ATOM     94  C   UNL A   1      38.957  33.310  38.159  1.00  0.00     0.135 A 
ATOM     95  C   UNL A   1      40.462  34.918  37.195  1.00  0.00     0.135 A 
ATOM     96  F   UNL A   1      38.323  32.127  38.134  1.00  0.00    -0.206 F 
ATOM     97  C   UNL A   1      38.693  34.177  39.214  1.00  0.00     0.059 A 
ATOM     98  C   UNL A   1      40.239  35.786  38.258  1.00  0.00     0.059 A 
ATOM     99  F   UNL A   1      41.318  35.303  36.234  1.00  0.00    -0.206 F 
ATOM    100  C   UNL A   1      39.338  35.414  39.253  1.00  0.00     0.060 A 
BRANCH 100 101
ATOM    101  S   UNL A   1      38.983  36.526  40.630  1.00  0.00     0.124 S 
ATOM    102  O   UNL A   1      38.548  37.730  39.931  1.00  0.00    -0.237 OA
ATOM    103  O   UNL A   1      37.942  35.802  41.353  1.00  0.00    -0.237 OA
ATOM    104  O   UNL A   1      40.264  36.630  41.323  1.00  0.00    -0.744 OA
ENDBRANCH 100 101
ENDBRANCH  68  93
ENDBRANCH  42  43
ENDBRANCH  34  37
ENDBRANCH  32  33
ENDBRANCH   1  32
TORSDOF 16
ENDMDL
MODEL 2
REMARK VINA RESULT:     -13.3      0.516      7.950
REMARK SMILES COC(=O)c1ccc(C)c2c1[C@H]1C=CC[C@H]1[C@@H](c1ccc(C(=O)NCCCNC(=O)c3ccc(-c4c5nc(c(-c6c(F)cc(S(=O)(=O)[O-])cc6F)c6ccc([nH]6)c(-c6c(F)cc(S(=O)(=O)[O-])cc6F)c6nc(c(-c7c(F)cc(S(=O)(=O)[O-])cc7F)c7ccc4[nH]7)C=C6)C=C5)cc3)cc1)N2
REMARK SMILES IDX 26 1 25 2 24 3 22 4 23 5 21 7 18 8 19 9 98 10 20 11 97 12
REMARK SMILES IDX 17 13 5 14 6 15 11 16 7 17 10 18 12 19 8 20 99 21 13 22
REMARK SMILES IDX 16 23 9 24 14 26 15 27 3 28 4 29 2 30 1 31 27 32 28 33 29 34
REMARK SMILES IDX 30 36 31 37 32 38 96 39 33 40 95 41 34 42 35 43 36 44 89 45
REMARK SMILES IDX 37 46 94 47 88 48 90 49 38 50 93 51 87 52 86 53 39 55 73 56
REMARK SMILES IDX 52 57 72 58 53 59 56 60 71 61 91 62 54 63 55 64 70 66 92 67
REMARK SMILES IDX 57 68 40 69 41 70 50 71 42 72 43 73 49 74 51 75 44 76 45 77
REMARK SMILES IDX 46 78 47 79 48 80 74 81 75 82 84 83 76 84 77 85 83 86 85 87
REMARK SMILES IDX 78 88 79 89 80 90 81 91 82 92 58 93 59 94 68 95 60 96 61 97
REMARK SMILES IDX 67 98 69 99 62 100 63 101 64 102 65 103 66 104
REMARK H PARENT 24 6 99 25 28 35 90 54 56 65
REMARK Flexibility Score: inf
ROOT
ATOM      1  C   UNL A   1      39.708  22.392  26.253  1.00  0.00     0.042 C 
ENDROOT
BRANCH   1   2
ATOM      2  C   UNL A   1      38.275  22.914  26.169  1.00  0.00     0.118 C 
BRANCH   2   3
ATOM      3  N   UNL A   1      37.832  22.949  24.793  1.00  0.00    -0.352 N 
ATOM      4  C   UNL A   1      36.623  23.233  24.224  1.00  0.00     0.251 C 
ATOM      5  O   UNL A   1      36.558  23.171  22.995  1.00  0.00    -0.269 OA
ATOM      6  H   UNL A   1      38.536  22.726  24.142  1.00  0.00     0.163 HD
BRANCH   4   7
ATOM      7  C   UNL A   1      35.420  23.647  24.998  1.00  0.00     0.039 A 
ATOM      8  C   UNL A   1      33.059  24.618  26.257  1.00  0.00    -0.025 A 
ATOM      9  C   UNL A   1      33.779  25.399  25.342  1.00  0.00     0.006 A 
ATOM     10  C   UNL A   1      33.580  23.356  26.568  1.00  0.00     0.006 A 
ATOM     11  C   UNL A   1      34.935  24.926  24.723  1.00  0.00     0.014 A 
ATOM     12  C   UNL A   1      34.719  22.863  25.917  1.00  0.00     0.014 A 
BRANCH   8  13
ATOM     13  C   UNL A   1      31.693  25.018  26.821  1.00  0.00     0.114 C 
ATOM     14  C   UNL A   1      30.813  28.059  23.984  1.00  0.00     0.065 A 
ATOM     15  C   UNL A   1      31.372  29.326  24.181  1.00  0.00     0.016 A 
ATOM     16  C   UNL A   1      30.873  27.077  24.997  1.00  0.00    -0.003 A 
ATOM     17  C   UNL A   1      31.984  29.636  25.389  1.00  0.00     0.006 A 
ATOM     18  C   UNL A   1      31.484  27.405  26.238  1.00  0.00     0.042 A 
ATOM     19  C   UNL A   1      30.313  25.682  24.768  1.00  0.00     0.050 C 
ATOM     20  C   UNL A   1      32.053  28.689  26.423  1.00  0.00    -0.028 A 
ATOM     21  N   UNL A   1      31.662  26.421  27.202  1.00  0.00    -0.377 N 
ATOM     22  C   UNL A   1      30.958  24.866  23.673  1.00  0.00    -0.023 C 
ATOM     23  C   UNL A   1      30.443  24.716  25.966  1.00  0.00     0.031 C 
ATOM     24  C   UNL A   1      32.799  29.104  27.665  1.00  0.00     0.046 C 
ATOM     25  H   UNL A   1      31.766  26.675  28.147  1.00  0.00     0.161 HD
ATOM     26  C   UNL A   1      31.001  23.563  23.983  1.00  0.00    -0.030 C 
ATOM     27  C   UNL A   1      30.426  23.313  25.339  1.00  0.00     0.034 C 
BRANCH  14  28
ATOM     28  C   UNL A   1      30.153  27.796  22.683  1.00  0.00     0.338 C 
ATOM     29  O   UNL A   1      30.734  27.501  21.657  1.00  0.00    -0.246 OA
BRANCH  28  30
ATOM     30  O   UNL A   1      28.814  27.977  22.835  1.00  0.00    -0.465 OA
ATOM     31  C   UNL A   1      28.354  29.258  22.402  1.00  0.00     0.282 C 
ENDBRANCH  28  30
ENDBRANCH  14  28
ENDBRANCH   8  13
ENDBRANCH   4   7
ENDBRANCH   2   3
ENDBRANCH   1   2
BRANCH   1  32
ATOM     32  C   UNL A   1      40.633  23.371  26.970  1.00  0.00     0.118 C 
BRANCH  32  33
ATOM     33  N   UNL A   1      41.283  24.260  26.016  1.00  0.00    -0.352 N 
ATOM     34  C   UNL A   1      41.380  25.626  26.050  1.00  0.00     0.251 C 
ATOM     35  H   UNL A   1      41.709  23.821  25.244  1.00  0.00     0.163 HD
ATOM     36  O   UNL A   1      41.599  26.251  25.016  1.00  0.00    -0.269 OA
BRANCH  34  37
ATOM     37  C   UNL A   1      41.252  26.329  27.340  1.00  0.00     0.039 A 
ATOM     38  C   UNL A   1      40.095  26.159  28.105  1.00  0.00     0.014 A 
ATOM     39  C   UNL A   1      42.254  27.214  27.750  1.00  0.00     0.014 A 
ATOM     40  C   UNL A   1      39.951  26.870  29.297  1.00  0.00     0.010 A 
ATOM     41  C   UNL A   1      42.137  27.876  28.963  1.00  0.00     0.010 A 
ATOM     42  C   UNL A   1      40.970  27.732  29.728  1.00  0.00    -0.014 A 
BRANCH  42  43
ATOM     43  C   UNL A   1      40.803  28.595  30.917  1.00  0.00     0.031 A 
ATOM     44  C   UNL A   1      39.777  29.692  30.874  1.00  0.00     0.074 A 
ATOM     45  C   UNL A   1      41.598  28.431  31.990  1.00  0.00     0.049 A 
ATOM     46  N   UNL A   1      39.546  30.643  31.739  1.00  0.00    -0.248 NA
ATOM     47  C   UNL A   1      38.908  29.737  29.683  1.00  0.00     0.031 C 
ATOM     48  C   UNL A   1      42.624  27.398  32.135  1.00  0.00     0.029 A 
ATOM     49  N   UNL A   1      41.674  29.144  33.157  1.00  0.00    -0.354 N 
ATOM     50  C   UNL A   1      38.509  31.395  31.201  1.00  0.00     0.074 A 
ATOM     51  C   UNL A   1      38.194  30.829  29.908  1.00  0.00     0.031 C 
ATOM     52  C   UNL A   1      43.223  27.541  33.329  1.00  0.00     0.029 A 
ATOM     53  C   UNL A   1      42.651  28.696  34.014  1.00  0.00     0.049 A 
ATOM     54  H   UNL A   1      41.084  29.906  33.363  1.00  0.00     0.167 HD
ATOM     55  C   UNL A   1      37.859  32.448  31.750  1.00  0.00     0.037 A 
ATOM     56  C   UNL A   1      43.043  29.180  35.209  1.00  0.00     0.037 A 
ATOM     57  C   UNL A   1      38.174  32.996  33.042  1.00  0.00     0.049 A 
ATOM     58  C   UNL A   1      42.345  30.394  35.767  1.00  0.00     0.074 A 
ATOM     59  C   UNL A   1      37.569  34.051  33.700  1.00  0.00     0.029 A 
ATOM     60  N   UNL A   1      39.182  32.529  33.874  1.00  0.00    -0.354 N 
ATOM     61  N   UNL A   1      41.352  31.084  35.257  1.00  0.00    -0.248 NA
ATOM     62  C   UNL A   1      42.824  30.894  37.063  1.00  0.00     0.031 C 
ATOM     63  C   UNL A   1      38.240  34.251  34.911  1.00  0.00     0.029 A 
ATOM     64  C   UNL A   1      39.229  33.288  35.031  1.00  0.00     0.049 A 
ATOM     65  H   UNL A   1      39.776  31.771  33.671  1.00  0.00     0.167 HD
ATOM     66  C   UNL A   1      41.072  32.086  36.182  1.00  0.00     0.074 A 
ATOM     67  C   UNL A   1      41.984  31.893  37.291  1.00  0.00     0.031 C 
ATOM     68  C   UNL A   1      40.151  33.080  36.120  1.00  0.00     0.037 A 
BRANCH  55  69
ATOM     69  C   UNL A   1      36.735  33.063  30.965  1.00  0.00     0.058 A 
ATOM     70  C   UNL A   1      35.393  32.846  31.317  1.00  0.00     0.135 A 
ATOM     71  C   UNL A   1      36.998  33.925  29.889  1.00  0.00     0.135 A 
ATOM     72  F   UNL A   1      35.084  32.011  32.322  1.00  0.00    -0.206 F 
ATOM     73  C   UNL A   1      34.352  33.453  30.625  1.00  0.00     0.059 A 
ATOM     74  C   UNL A   1      35.973  34.566  29.199  1.00  0.00     0.059 A 
ATOM     75  F   UNL A   1      38.262  34.160  29.503  1.00  0.00    -0.206 F 
ATOM     76  C   UNL A   1      34.652  34.320  29.573  1.00  0.00     0.060 A 
BRANCH  76  77
ATOM     77  S   UNL A   1      33.287  35.133  28.717  1.00  0.00     0.124 S 
ATOM     78  O   UNL A   1      32.473  35.596  29.837  1.00  0.00    -0.237 OA
ATOM     79  O   UNL A   1      33.974  36.174  27.959  1.00  0.00    -0.237 OA
ATOM     80  O   UNL A   1      32.699  34.062  27.918  1.00  0.00    -0.744 OA
ENDBRANCH  76  77
ENDBRANCH  55  69
BRANCH  56  81
ATOM     81  C   UNL A   1      44.136  28.514  35.967  1.00  0.00     0.058 A 
ATOM     82  C   UNL A   1      45.472  28.901  35.784  1.00  0.00     0.135 A 
ATOM     83  C   UNL A   1      43.875  27.477  36.875  1.00  0.00     0.135 A 
ATOM     84  F   UNL A   1      45.774  29.883  34.920  1.00  0.00    -0.206 F 
ATOM     85  C   UNL A   1      46.514  28.270  36.457  1.00  0.00     0.059 A 
ATOM     86  C   UNL A   1      44.898  26.848  37.581  1.00  0.00     0.059 A 
ATOM     87  F   UNL A   1      42.614  27.077  37.097  1.00  0.00    -0.206 F 
ATOM     88  C   UNL A   1      46.215  27.244  37.356  1.00  0.00     0.060 A 
BRANCH  88  89
ATOM     89  S   UNL A   1      47.575  26.458  38.245  1.00  0.00     0.124 S 
ATOM     90  O   UNL A   1      47.798  25.260  37.445  1.00  0.00    -0.237 OA
ATOM     91  O   UNL A   1      48.615  27.479  38.173  1.00  0.00    -0.237 OA
ATOM     92  O   UNL A   1      47.019  26.233  39.577  1.00  0.00    -0.744 OA
ENDBRANCH  88  89
ENDBRANCH  56  81
BRANCH  68  93
ATOM     93  C   UNL A   1      40.077  34.023  37.290  1.00  0.00     0.058 A 
ATOM     94  C   UNL A   1      40.833  35.206  37.328  1.00  0.00     0.135 A 
ATOM     95  C   UNL A   1      39.218  33.760  38.369  1.00  0.00     0.135 A 
ATOM     96  F   UNL A   1      41.671  35.504  36.322  1.00  0.00    -0.206 F 
ATOM     97  C   UNL A   1      40.771  36.072  38.413  1.00  0.00     0.059 A 
ATOM     98  C   UNL A   1      39.114  34.630  39.449  1.00  0.00     0.059 A 
ATOM     99  F   UNL A   1      38.460  32.652  38.376  1.00  0.00    -0.206 F 
ATOM    100  C   UNL A   1      39.909  35.775  39.470  1.00  0.00     0.060 A 
BRANCH 100 101
ATOM    101  S   UNL A   1      39.841  36.911  40.871  1.00  0.00     0.124 S 
ATOM    102  O   UNL A   1      41.182  36.770  41.429  1.00  0.00    -0.237 OA
ATOM    103  O   UNL A   1      39.556  38.187  40.222  1.00  0.00    -0.237 OA
ATOM    104  O   UNL A   1      38.759  36.375  41.692  1.00  0.00    -0.744 OA
ENDBRANCH 100 101
ENDBRANCH  68  93
ENDBRANCH  42  43
ENDBRANCH  34  37
ENDBRANCH  32  33
ENDBRANCH   1  32
TORSDOF 16
ENDMDL
MODEL 3
REMARK VINA RESULT:     -13.2      6.348     11.760
REMARK SMILES COC(=O)c1ccc(C)c2c1[C@H]1C=CC[C@H]1[C@@H](c1ccc(C(=O)NCCCNC(=O)c3ccc(-c4c5nc(c(-c6c(F)cc(S(=O)(=O)[O-])cc6F)c6ccc([nH]6)c(-c6c(F)cc(S(=O)(=O)[O-])cc6F)c6nc(c(-c7c(F)cc(S(=O)(=O)[O-])cc7F)c7ccc4[nH]7)C=C6)C=C5)cc3)cc1)N2
REMARK SMILES IDX 26 1 25 2 24 3 22 4 23 5 21 7 18 8 19 9 98 10 20 11 97 12
REMARK SMILES IDX 17 13 5 14 6 15 11 16 7 17 10 18 12 19 8 20 99 21 13 22
REMARK SMILES IDX 16 23 9 24 14 26 15 27 3 28 4 29 2 30 1 31 27 32 28 33 29 34
REMARK SMILES IDX 30 36 31 37 32 38 96 39 33 40 95 41 34 42 35 43 36 44 89 45
REMARK SMILES IDX 37 46 94 47 88 48 90 49 38 50 93 51 87 52 86 53 39 55 73 56
REMARK SMILES IDX 52 57 72 58 53 59 56 60 71 61 91 62 54 63 55 64 70 66 92 67
REMARK SMILES IDX 57 68 40 69 41 70 50 71 42 72 43 73 49 74 51 75 44 76 45 77
REMARK SMILES IDX 46 78 47 79 48 80 74 81 75 82 84 83 76 84 77 85 83 86 85 87
REMARK SMILES IDX 78 88 79 89 80 90 81 91 82 92 58 93 59 94 68 95 60 96 61 97
REMARK SMILES IDX 67 98 69 99 62 100 63 101 64 102 65 103 66 104
REMARK H PARENT 24 6 99 25 28 35 90 54 56 65
REMARK Flexibility Score: inf
ROOT
ATOM      1  C   UNL A   1      34.712  30.005  27.287  1.00  0.00     0.042 C 
ENDROOT
BRANCH   1   2
ATOM      2  C   UNL A   1      33.303  30.573  27.124  1.00  0.00     0.118 C 
BRANCH   2   3
ATOM      3  N   UNL A   1      32.323  29.636  27.628  1.00  0.00    -0.352 N 
ATOM      4  C   UNL A   1      31.950  28.388  27.218  1.00  0.00     0.251 C 
ATOM      5  O   UNL A   1      31.059  27.833  27.865  1.00  0.00    -0.269 OA
ATOM      6  H   UNL A   1      31.832  29.961  28.417  1.00  0.00     0.163 HD
BRANCH   4   7
ATOM      7  C   UNL A   1      32.583  27.665  26.082  1.00  0.00     0.039 A 
ATOM      8  C   UNL A   1      33.753  26.039  24.059  1.00  0.00    -0.025 A 
ATOM      9  C   UNL A   1      33.762  25.655  25.409  1.00  0.00     0.006 A 
ATOM     10  C   UNL A   1      33.190  27.284  23.753  1.00  0.00     0.006 A 
ATOM     11  C   UNL A   1      33.190  26.449  26.400  1.00  0.00     0.014 A 
ATOM     12  C   UNL A   1      32.579  28.065  24.743  1.00  0.00     0.014 A 
BRANCH   8  13
ATOM     13  C   UNL A   1      34.203  25.124  22.916  1.00  0.00     0.114 C 
ATOM     14  C   UNL A   1      33.524  21.423  24.894  1.00  0.00     0.065 A 
ATOM     15  C   UNL A   1      34.503  20.959  25.778  1.00  0.00     0.016 A 
ATOM     16  C   UNL A   1      33.782  22.515  24.037  1.00  0.00    -0.003 A 
ATOM     17  C   UNL A   1      35.753  21.564  25.812  1.00  0.00     0.006 A 
ATOM     18  C   UNL A   1      35.069  23.120  24.063  1.00  0.00     0.042 A 
ATOM     19  C   UNL A   1      32.704  23.056  23.113  1.00  0.00     0.050 C 
ATOM     20  C   UNL A   1      36.050  22.646  24.967  1.00  0.00    -0.028 A 
ATOM     21  N   UNL A   1      35.307  24.268  23.319  1.00  0.00    -0.377 N 
ATOM     22  C   UNL A   1      31.467  23.621  23.773  1.00  0.00    -0.023 C 
ATOM     23  C   UNL A   1      33.131  24.249  22.230  1.00  0.00     0.031 C 
ATOM     24  C   UNL A   1      37.411  23.273  25.133  1.00  0.00     0.046 C 
ATOM     25  H   UNL A   1      36.228  24.503  23.062  1.00  0.00     0.161 HD
ATOM     26  C   UNL A   1      30.977  24.668  23.097  1.00  0.00    -0.030 C 
ATOM     27  C   UNL A   1      31.821  24.985  21.906  1.00  0.00     0.034 C 
BRANCH  14  28
ATOM     28  C   UNL A   1      32.218  20.721  24.887  1.00  0.00     0.338 C 
ATOM     29  O   UNL A   1      31.309  20.940  25.664  1.00  0.00    -0.246 OA
BRANCH  28  30
ATOM     30  O   UNL A   1      32.238  19.784  23.902  1.00  0.00    -0.465 OA
ATOM     31  C   UNL A   1      32.416  18.451  24.380  1.00  0.00     0.282 C 
ENDBRANCH  28  30
ENDBRANCH  14  28
ENDBRANCH   8  13
ENDBRANCH   4   7
ENDBRANCH   2   3
ENDBRANCH   1   2
BRANCH   1  32
ATOM     32  C   UNL A   1      35.641  30.975  28.012  1.00  0.00     0.118 C 
BRANCH  32  33
ATOM     33  N   UNL A   1      35.553  30.792  29.454  1.00  0.00    -0.352 N 
ATOM     34  C   UNL A   1      36.396  30.096  30.280  1.00  0.00     0.251 C 
ATOM     35  H   UNL A   1      34.788  31.227  29.894  1.00  0.00     0.163 HD
ATOM     36  O   UNL A   1      35.999  29.705  31.373  1.00  0.00    -0.269 OA
BRANCH  34  37
ATOM     37  C   UNL A   1      37.787  29.852  29.855  1.00  0.00     0.039 A 
ATOM     38  C   UNL A   1      38.087  29.771  28.493  1.00  0.00     0.014 A 
ATOM     39  C   UNL A   1      38.777  29.631  30.818  1.00  0.00     0.014 A 
ATOM     40  C   UNL A   1      39.394  29.482  28.095  1.00  0.00     0.010 A 
ATOM     41  C   UNL A   1      40.087  29.401  30.421  1.00  0.00     0.010 A 
ATOM     42  C   UNL A   1      40.396  29.294  29.057  1.00  0.00    -0.014 A 
BRANCH  42  43
ATOM     43  C   UNL A   1      41.760  28.865  28.682  1.00  0.00     0.031 A 
ATOM     44  C   UNL A   1      42.853  29.894  28.636  1.00  0.00     0.074 A 
ATOM     45  C   UNL A   1      41.995  27.586  28.334  1.00  0.00     0.049 A 
ATOM     46  N   UNL A   1      44.084  29.775  28.214  1.00  0.00    -0.248 NA
ATOM     47  C   UNL A   1      42.507  31.247  29.109  1.00  0.00     0.031 C 
ATOM     48  C   UNL A   1      41.005  26.509  28.344  1.00  0.00     0.029 A 
ATOM     49  N   UNL A   1      43.142  26.983  27.889  1.00  0.00    -0.354 N 
ATOM     50  C   UNL A   1      44.657  31.031  28.371  1.00  0.00     0.074 A 
ATOM     51  C   UNL A   1      43.626  31.914  28.870  1.00  0.00     0.031 C 
ATOM     52  C   UNL A   1      41.591  25.372  27.931  1.00  0.00     0.029 A 
ATOM     53  C   UNL A   1      42.984  25.651  27.591  1.00  0.00     0.049 A 
ATOM     54  H   UNL A   1      43.999  27.459  27.792  1.00  0.00     0.167 HD
ATOM     55  C   UNL A   1      45.937  31.406  28.145  1.00  0.00     0.037 A 
ATOM     56  C   UNL A   1      43.865  24.766  27.086  1.00  0.00     0.037 A 
ATOM     57  C   UNL A   1      46.958  30.517  27.658  1.00  0.00     0.049 A 
ATOM     58  C   UNL A   1      45.267  25.228  26.781  1.00  0.00     0.074 A 
ATOM     59  C   UNL A   1      48.290  30.789  27.408  1.00  0.00     0.029 A 
ATOM     60  N   UNL A   1      46.757  29.179  27.349  1.00  0.00    -0.354 N 
ATOM     61  N   UNL A   1      45.802  26.414  26.954  1.00  0.00    -0.248 NA
ATOM     62  C   UNL A   1      46.183  24.230  26.213  1.00  0.00     0.031 C 
ATOM     63  C   UNL A   1      48.885  29.628  26.907  1.00  0.00     0.029 A 
ATOM     64  C   UNL A   1      47.937  28.617  26.891  1.00  0.00     0.049 A 
ATOM     65  H   UNL A   1      45.902  28.700  27.441  1.00  0.00     0.167 HD
ATOM     66  C   UNL A   1      47.125  26.298  26.536  1.00  0.00     0.074 A 
ATOM     67  C   UNL A   1      47.312  24.920  26.128  1.00  0.00     0.031 C 
ATOM     68  C   UNL A   1      48.097  27.243  26.487  1.00  0.00     0.037 A 
BRANCH  55  69
ATOM     69  C   UNL A   1      46.311  32.833  28.436  1.00  0.00     0.058 A 
ATOM     70  C   UNL A   1      46.813  33.216  29.691  1.00  0.00     0.135 A 
ATOM     71  C   UNL A   1      46.222  33.817  27.438  1.00  0.00     0.135 A 
ATOM     72  F   UNL A   1      46.894  32.321  30.688  1.00  0.00    -0.206 F 
ATOM     73  C   UNL A   1      47.206  34.524  29.948  1.00  0.00     0.059 A 
ATOM     74  C   UNL A   1      46.636  35.126  27.666  1.00  0.00     0.059 A 
ATOM     75  F   UNL A   1      45.740  33.508  26.224  1.00  0.00    -0.206 F 
ATOM     76  C   UNL A   1      47.123  35.470  28.926  1.00  0.00     0.060 A 
BRANCH  76  77
ATOM     77  S   UNL A   1      47.681  37.152  29.270  1.00  0.00     0.124 S 
ATOM     78  O   UNL A   1      46.909  37.479  30.465  1.00  0.00    -0.237 OA
ATOM     79  O   UNL A   1      49.115  36.965  29.472  1.00  0.00    -0.237 OA
ATOM     80  O   UNL A   1      47.310  37.888  28.065  1.00  0.00    -0.744 OA
ENDBRANCH  76  77
ENDBRANCH  55  69
BRANCH  56  81
ATOM     81  C   UNL A   1      43.460  23.354  26.849  1.00  0.00     0.058 A 
ATOM     82  C   UNL A   1      43.258  22.478  27.925  1.00  0.00     0.135 A 
ATOM     83  C   UNL A   1      43.279  22.849  25.552  1.00  0.00     0.135 A 
ATOM     84  F   UNL A   1      43.427  22.911  29.184  1.00  0.00    -0.206 F 
ATOM     85  C   UNL A   1      42.913  21.145  27.726  1.00  0.00     0.059 A 
ATOM     86  C   UNL A   1      42.906  21.526  25.328  1.00  0.00     0.059 A 
ATOM     87  F   UNL A   1      43.447  23.649  24.487  1.00  0.00    -0.206 F 
ATOM     88  C   UNL A   1      42.737  20.679  26.421  1.00  0.00     0.060 A 
BRANCH  88  89
ATOM     89  S   UNL A   1      42.257  18.956  26.181  1.00  0.00     0.124 S 
ATOM     90  O   UNL A   1      43.179  18.535  25.133  1.00  0.00    -0.237 OA
ATOM     91  O   UNL A   1      42.491  18.388  27.505  1.00  0.00    -0.237 OA
ATOM     92  O   UNL A   1      40.853  19.050  25.787  1.00  0.00    -0.744 OA
ENDBRANCH  88  89
ENDBRANCH  56  81
BRANCH  68  93
ATOM     93  C   UNL A   1      49.450  26.813  25.987  1.00  0.00     0.058 A 
ATOM     94  C   UNL A   1      49.846  27.035  24.658  1.00  0.00     0.135 A 
ATOM     95  C   UNL A   1      50.372  26.202  26.852  1.00  0.00     0.135 A 
ATOM     96  F   UNL A   1      49.001  27.614  23.789  1.00  0.00    -0.206 F 
ATOM     97  C   UNL A   1      51.092  26.630  24.195  1.00  0.00     0.059 A 
ATOM     98  C   UNL A   1      51.637  25.820  26.418  1.00  0.00     0.059 A 
ATOM     99  F   UNL A   1      50.051  25.981  28.136  1.00  0.00    -0.206 F 
ATOM    100  C   UNL A   1      51.981  26.021  25.083  1.00  0.00     0.060 A 
BRANCH 100 101
ATOM    101  S   UNL A   1      53.595  25.501  24.465  1.00  0.00     0.124 S 
ATOM    102  O   UNL A   1      54.497  26.286  25.301  1.00  0.00    -0.237 OA
ATOM    103  O   UNL A   1      53.578  24.065  24.723  1.00  0.00    -0.237 OA
ATOM    104  O   UNL A   1      53.557  25.880  23.055  1.00  0.00    -0.744 OA
ENDBRANCH 100 101
ENDBRANCH  68  93
ENDBRANCH  42  43
ENDBRANCH  34  37
ENDBRANCH  32  33
ENDBRANCH   1  32
TORSDOF 16
ENDMDL
