MODEL 1
REMARK VINA RESULT:     -12.7      0.000      0.000
REMARK SMILES O=C(NCCCNC(=O)C1CC[NH+]([C@@H]2CCO[C@]3(CCOC3)C2)CC1)c1ccc(-c2c3nc(c(-c4c(F)cc(S(=O)(=O)[O-])cc4F)c4ccc([nH]4)c(-c4c(F)cc(S(=O)(=O)[O-])cc4F)c4nc(c(-c5c(F)cc(S(=O)(=O)[O-])cc5F)c5ccc2[nH]5)C=C4)C=C3)cc1
REMARK SMILES IDX 4 1 3 2 1 3 2 4 26 6 27 7 91 8 28 9 90 10 29 11 30 12 31 13
REMARK SMILES IDX 84 14 32 15 89 16 83 17 85 18 33 19 88 20 82 21 81 22 34 24
REMARK SMILES IDX 68 25 47 26 67 27 48 28 51 29 66 30 86 31 49 32 50 33 65 35
REMARK SMILES IDX 87 36 52 37 35 38 36 39 45 40 37 41 38 42 44 43 46 44 39 45
REMARK SMILES IDX 40 46 41 47 42 48 43 49 69 50 70 51 79 52 71 53 72 54 78 55
REMARK SMILES IDX 80 56 73 57 74 58 75 59 76 60 77 61 53 62 54 63 63 64 55 65
REMARK SMILES IDX 56 66 62 67 64 68 57 69 58 70 59 71 60 72 61 73 5 74 6 75
REMARK SMILES IDX 7 76 8 77 9 79 10 80 11 81 25 82 12 83 24 84 13 85 14 87
REMARK SMILES IDX 15 88 23 89 16 90 18 91 17 92 19 93 22 94 20 95 21 96
REMARK H PARENT 3 5 85 23 51 34 7 78 13 86
REMARK Flexibility Score: inf
ROOT
ATOM      1  C   UNL A   1      36.565  32.912  29.522  1.00  0.00     0.118 C 
ENDROOT
BRANCH   1   2
ATOM      2  N   UNL A   1      36.080  31.838  30.374  1.00  0.00    -0.352 N 
ATOM      3  O   UNL A   1      35.849  29.703  31.037  1.00  0.00    -0.269 OA
ATOM      4  C   UNL A   1      36.569  30.571  30.529  1.00  0.00     0.251 C 
ATOM      5  H   UNL A   1      35.288  32.055  30.916  1.00  0.00     0.163 HD
BRANCH   4   6
ATOM      6  C   UNL A   1      37.938  30.236  30.096  1.00  0.00     0.039 A 
ATOM      7  C   UNL A   1      38.968  30.095  31.032  1.00  0.00     0.014 A 
ATOM      8  C   UNL A   1      38.183  29.990  28.742  1.00  0.00     0.014 A 
ATOM      9  C   UNL A   1      40.261  29.805  30.608  1.00  0.00     0.010 A 
ATOM     10  C   UNL A   1      39.468  29.630  28.325  1.00  0.00     0.010 A 
ATOM     11  C   UNL A   1      40.518  29.548  29.253  1.00  0.00    -0.014 A 
BRANCH  11  12
ATOM     12  C   UNL A   1      41.872  29.123  28.820  1.00  0.00     0.031 A 
ATOM     13  C   UNL A   1      42.999  30.112  28.748  1.00  0.00     0.074 A 
ATOM     14  C   UNL A   1      42.069  27.838  28.466  1.00  0.00     0.049 A 
ATOM     15  N   UNL A   1      44.223  29.935  28.323  1.00  0.00    -0.248 NA
ATOM     16  C   UNL A   1      42.711  31.480  29.201  1.00  0.00     0.031 C 
ATOM     17  C   UNL A   1      41.043  26.792  28.491  1.00  0.00     0.029 A 
ATOM     18  N   UNL A   1      43.189  27.194  28.008  1.00  0.00    -0.354 N 
ATOM     19  C   UNL A   1      44.848  31.171  28.435  1.00  0.00     0.074 A 
ATOM     20  C   UNL A   1      43.858  32.095  28.949  1.00  0.00     0.031 C 
ATOM     21  C   UNL A   1      41.585  25.635  28.081  1.00  0.00     0.029 A 
ATOM     22  C   UNL A   1      42.976  25.869  27.710  1.00  0.00     0.049 A 
ATOM     23  H   UNL A   1      44.061  27.637  27.903  1.00  0.00     0.167 HD
ATOM     24  C   UNL A   1      46.128  31.501  28.138  1.00  0.00     0.037 A 
ATOM     25  C   UNL A   1      43.798  24.949  27.170  1.00  0.00     0.037 A 
ATOM     26  C   UNL A   1      47.103  30.569  27.630  1.00  0.00     0.049 A 
ATOM     27  C   UNL A   1      45.206  25.342  26.829  1.00  0.00     0.074 A 
ATOM     28  C   UNL A   1      48.433  30.795  27.323  1.00  0.00     0.029 A 
ATOM     29  N   UNL A   1      46.850  29.233  27.347  1.00  0.00    -0.354 N 
ATOM     30  N   UNL A   1      45.789  26.509  26.965  1.00  0.00    -0.248 NA
ATOM     31  C   UNL A   1      46.069  24.298  26.261  1.00  0.00     0.031 C 
ATOM     32  C   UNL A   1      48.973  29.608  26.816  1.00  0.00     0.029 A 
ATOM     33  C   UNL A   1      47.994  28.628  26.852  1.00  0.00     0.049 A 
ATOM     34  H   UNL A   1      45.985  28.783  27.477  1.00  0.00     0.167 HD
ATOM     35  C   UNL A   1      47.094  26.336  26.523  1.00  0.00     0.074 A 
ATOM     36  C   UNL A   1      47.216  24.949  26.118  1.00  0.00     0.031 C 
ATOM     37  C   UNL A   1      48.100  27.242  26.462  1.00  0.00     0.037 A 
BRANCH  24  38
ATOM     38  C   UNL A   1      46.535  32.936  28.327  1.00  0.00     0.058 A 
ATOM     39  C   UNL A   1      46.401  33.887  27.302  1.00  0.00     0.135 A 
ATOM     40  C   UNL A   1      47.064  33.371  29.554  1.00  0.00     0.135 A 
ATOM     41  F   UNL A   1      45.914  33.524  26.104  1.00  0.00    -0.206 F 
ATOM     42  C   UNL A   1      46.816  35.204  27.472  1.00  0.00     0.059 A 
ATOM     43  C   UNL A   1      47.461  34.690  29.755  1.00  0.00     0.059 A 
ATOM     44  F   UNL A   1      47.212  32.505  30.571  1.00  0.00    -0.206 F 
ATOM     45  C   UNL A   1      47.353  35.594  28.700  1.00  0.00     0.060 A 
BRANCH  45  46
ATOM     46  S   UNL A   1      47.924  37.296  28.892  1.00  0.00     0.124 S 
ATOM     47  O   UNL A   1      48.702  37.201  30.124  1.00  0.00    -0.237 OA
ATOM     48  O   UNL A   1      48.694  37.509  27.671  1.00  0.00    -0.237 OA
ATOM     49  O   UNL A   1      46.685  38.061  28.990  1.00  0.00    -0.744 OA
ENDBRANCH  45  46
ENDBRANCH  24  38
BRANCH  25  50
ATOM     50  C   UNL A   1      43.290  23.575  26.929  1.00  0.00     0.058 A 
ATOM     51  C   UNL A   1      43.006  23.128  25.632  1.00  0.00     0.135 A 
ATOM     52  C   UNL A   1      43.149  22.659  27.984  1.00  0.00     0.135 A 
ATOM     53  F   UNL A   1      43.121  23.969  24.592  1.00  0.00    -0.206 F 
ATOM     54  C   UNL A   1      42.603  21.819  25.386  1.00  0.00     0.059 A 
ATOM     55  C   UNL A   1      42.771  21.339  27.760  1.00  0.00     0.059 A 
ATOM     56  F   UNL A   1      43.427  23.035  29.242  1.00  0.00    -0.206 F 
ATOM     57  C   UNL A   1      42.499  20.929  26.457  1.00  0.00     0.060 A 
BRANCH  57  58
ATOM     58  S   UNL A   1      42.063  19.210  26.115  1.00  0.00     0.124 S 
ATOM     59  O   UNL A   1      42.968  18.892  25.016  1.00  0.00    -0.237 OA
ATOM     60  O   UNL A   1      42.354  18.561  27.389  1.00  0.00    -0.237 OA
ATOM     61  O   UNL A   1      40.647  19.286  25.768  1.00  0.00    -0.744 OA
ENDBRANCH  57  58
ENDBRANCH  25  50
BRANCH  37  62
ATOM     62  C   UNL A   1      49.438  26.759  25.980  1.00  0.00     0.058 A 
ATOM     63  C   UNL A   1      49.861  26.955  24.657  1.00  0.00     0.135 A 
ATOM     64  C   UNL A   1      50.335  26.155  26.876  1.00  0.00     0.135 A 
ATOM     65  F   UNL A   1      49.036  27.519  23.761  1.00  0.00    -0.206 F 
ATOM     66  C   UNL A   1      51.126  26.559  24.235  1.00  0.00     0.059 A 
ATOM     67  C   UNL A   1      51.613  25.773  26.482  1.00  0.00     0.059 A 
ATOM     68  F   UNL A   1      49.979  25.952  28.155  1.00  0.00    -0.206 F 
ATOM     69  C   UNL A   1      51.998  25.973  25.157  1.00  0.00     0.060 A 
BRANCH  69  70
ATOM     70  S   UNL A   1      53.657  25.517  24.613  1.00  0.00     0.124 S 
ATOM     71  O   UNL A   1      54.489  26.288  25.532  1.00  0.00    -0.237 OA
ATOM     72  O   UNL A   1      53.665  24.072  24.810  1.00  0.00    -0.237 OA
ATOM     73  O   UNL A   1      53.690  25.955  23.220  1.00  0.00    -0.744 OA
ENDBRANCH  69  70
ENDBRANCH  37  62
ENDBRANCH  11  12
ENDBRANCH   4   6
ENDBRANCH   1   2
BRANCH   1  74
ATOM     74  C   UNL A   1      36.055  32.772  28.088  1.00  0.00     0.042 C 
BRANCH  74  75
ATOM     75  C   UNL A   1      34.761  31.970  27.971  1.00  0.00     0.117 C 
BRANCH  75  76
ATOM     76  N   UNL A   1      34.986  30.713  27.298  1.00  0.00    -0.356 N 
ATOM     77  C   UNL A   1      34.211  29.625  27.122  1.00  0.00     0.223 C 
ATOM     78  H   UNL A   1      35.878  30.637  26.888  1.00  0.00     0.163 HD
ATOM     79  O   UNL A   1      34.779  28.677  26.565  1.00  0.00    -0.275 OA
BRANCH  77  80
ATOM     80  C   UNL A   1      32.711  29.584  27.452  1.00  0.00     0.089 C 
ATOM     81  C   UNL A   1      31.970  28.238  27.535  1.00  0.00     0.075 C 
ATOM     82  C   UNL A   1      31.997  30.422  26.383  1.00  0.00     0.075 C 
ATOM     83  C   UNL A   1      31.690  27.563  26.180  1.00  0.00     0.263 C 
ATOM     84  C   UNL A   1      32.002  29.636  25.070  1.00  0.00     0.263 C 
ATOM     85  N   UNL A   1      31.085  28.508  25.220  1.00  0.00    -0.332 N 
ATOM     86  H   UNL A   1      30.206  28.893  25.566  1.00  0.00     0.348 HD
BRANCH  85  87
ATOM     87  C   UNL A   1      30.637  27.833  23.977  1.00  0.00     0.189 C 
ATOM     88  C   UNL A   1      31.587  27.854  22.780  1.00  0.00     0.093 C 
ATOM     89  C   UNL A   1      29.234  28.280  23.501  1.00  0.00     0.103 C 
ATOM     90  C   UNL A   1      31.540  29.160  22.002  1.00  0.00     0.167 C 
ATOM     91  C   UNL A   1      29.208  29.569  22.662  1.00  0.00     0.099 C 
ATOM     92  O   UNL A   1      30.227  29.580  21.657  1.00  0.00    -0.372 OA
ATOM     93  C   UNL A   1      29.118  30.827  23.528  1.00  0.00     0.066 C 
ATOM     94  C   UNL A   1      27.888  29.701  21.884  1.00  0.00     0.195 C 
ATOM     95  C   UNL A   1      27.653  31.223  23.566  1.00  0.00     0.163 C 
ATOM     96  O   UNL A   1      26.932  30.292  22.764  1.00  0.00    -0.378 OA
ENDBRANCH  85  87
ENDBRANCH  77  80
ENDBRANCH  75  76
ENDBRANCH  74  75
ENDBRANCH   1  74
TORSDOF 14
ENDMDL
MODEL 2
REMARK VINA RESULT:     -12.4      7.289     12.792
REMARK SMILES O=C(NCCCNC(=O)C1CC[NH+]([C@@H]2CCO[C@]3(CCOC3)C2)CC1)c1ccc(-c2c3nc(c(-c4c(F)cc(S(=O)(=O)[O-])cc4F)c4ccc([nH]4)c(-c4c(F)cc(S(=O)(=O)[O-])cc4F)c4nc(c(-c5c(F)cc(S(=O)(=O)[O-])cc5F)c5ccc2[nH]5)C=C4)C=C3)cc1
REMARK SMILES IDX 4 1 3 2 1 3 2 4 26 6 27 7 91 8 28 9 90 10 29 11 30 12 31 13
REMARK SMILES IDX 84 14 32 15 89 16 83 17 85 18 33 19 88 20 82 21 81 22 34 24
REMARK SMILES IDX 68 25 47 26 67 27 48 28 51 29 66 30 86 31 49 32 50 33 65 35
REMARK SMILES IDX 87 36 52 37 35 38 36 39 45 40 37 41 38 42 44 43 46 44 39 45
REMARK SMILES IDX 40 46 41 47 42 48 43 49 69 50 70 51 79 52 71 53 72 54 78 55
REMARK SMILES IDX 80 56 73 57 74 58 75 59 76 60 77 61 53 62 54 63 63 64 55 65
REMARK SMILES IDX 56 66 62 67 64 68 57 69 58 70 59 71 60 72 61 73 5 74 6 75
REMARK SMILES IDX 7 76 8 77 9 79 10 80 11 81 25 82 12 83 24 84 13 85 14 87
REMARK SMILES IDX 15 88 23 89 16 90 18 91 17 92 19 93 22 94 20 95 21 96
REMARK H PARENT 3 5 85 23 51 34 7 78 13 86
REMARK Flexibility Score: inf
ROOT
ATOM      1  C   UNL A   1      42.191  23.077  27.554  1.00  0.00     0.118 C 
ENDROOT
BRANCH   1   2
ATOM      2  N   UNL A   1      42.064  23.875  26.345  1.00  0.00    -0.352 N 
ATOM      3  O   UNL A   1      41.249  25.537  25.070  1.00  0.00    -0.269 OA
ATOM      4  C   UNL A   1      41.584  25.146  26.195  1.00  0.00     0.251 C 
ATOM      5  H   UNL A   1      42.368  23.437  25.517  1.00  0.00     0.163 HD
BRANCH   4   6
ATOM      6  C   UNL A   1      41.464  26.045  27.358  1.00  0.00     0.039 A 
ATOM      7  C   UNL A   1      42.400  27.061  27.574  1.00  0.00     0.014 A 
ATOM      8  C   UNL A   1      40.361  25.917  28.207  1.00  0.00     0.014 A 
ATOM      9  C   UNL A   1      42.290  27.886  28.690  1.00  0.00     0.010 A 
ATOM     10  C   UNL A   1      40.213  26.791  29.287  1.00  0.00     0.010 A 
ATOM     11  C   UNL A   1      41.183  27.772  29.544  1.00  0.00    -0.014 A 
BRANCH  11  12
ATOM     12  C   UNL A   1      41.006  28.730  30.664  1.00  0.00     0.031 A 
ATOM     13  C   UNL A   1      41.872  28.646  31.887  1.00  0.00     0.074 A 
ATOM     14  C   UNL A   1      40.036  29.660  30.577  1.00  0.00     0.049 A 
ATOM     15  N   UNL A   1      41.810  29.348  32.989  1.00  0.00    -0.248 NA
ATOM     16  C   UNL A   1      42.939  27.635  31.876  1.00  0.00     0.031 C 
ATOM     17  C   UNL A   1      39.131  29.829  29.437  1.00  0.00     0.029 A 
ATOM     18  N   UNL A   1      39.642  30.631  31.461  1.00  0.00    -0.354 N 
ATOM     19  C   UNL A   1      42.813  28.853  33.813  1.00  0.00     0.074 A 
ATOM     20  C   UNL A   1      43.454  27.774  33.090  1.00  0.00     0.031 C 
ATOM     21  C   UNL A   1      38.297  30.850  29.686  1.00  0.00     0.029 A 
ATOM     22  C   UNL A   1      38.569  31.369  31.021  1.00  0.00     0.049 A 
ATOM     23  H   UNL A   1      40.084  30.785  32.327  1.00  0.00     0.167 HD
ATOM     24  C   UNL A   1      43.164  29.263  35.056  1.00  0.00     0.037 A 
ATOM     25  C   UNL A   1      37.861  32.337  31.633  1.00  0.00     0.037 A 
ATOM     26  C   UNL A   1      42.519  30.341  35.761  1.00  0.00     0.049 A 
ATOM     27  C   UNL A   1      38.254  32.761  33.019  1.00  0.00     0.074 A 
ATOM     28  C   UNL A   1      42.815  30.851  37.013  1.00  0.00     0.029 A 
ATOM     29  N   UNL A   1      41.439  31.068  35.280  1.00  0.00    -0.354 N 
ATOM     30  N   UNL A   1      39.221  32.300  33.775  1.00  0.00    -0.248 NA
ATOM     31  C   UNL A   1      37.464  33.834  33.636  1.00  0.00     0.031 C 
ATOM     32  C   UNL A   1      41.891  31.861  37.304  1.00  0.00     0.029 A 
ATOM     33  C   UNL A   1      41.047  32.012  36.215  1.00  0.00     0.049 A 
ATOM     34  H   UNL A   1      41.013  30.933  34.402  1.00  0.00     0.167 HD
ATOM     35  C   UNL A   1      39.173  33.041  34.949  1.00  0.00     0.074 A 
ATOM     36  C   UNL A   1      38.083  33.984  34.800  1.00  0.00     0.031 C 
ATOM     37  C   UNL A   1      39.963  32.951  36.047  1.00  0.00     0.037 A 
BRANCH  24  38
ATOM     38  C   UNL A   1      44.278  28.520  35.741  1.00  0.00     0.058 A 
ATOM     39  C   UNL A   1      44.032  27.424  36.583  1.00  0.00     0.135 A 
ATOM     40  C   UNL A   1      45.615  28.907  35.549  1.00  0.00     0.135 A 
ATOM     41  F   UNL A   1      42.772  27.019  36.813  1.00  0.00    -0.206 F 
ATOM     42  C   UNL A   1      45.065  26.766  37.244  1.00  0.00     0.059 A 
ATOM     43  C   UNL A   1      46.667  28.247  36.179  1.00  0.00     0.059 A 
ATOM     44  F   UNL A   1      45.911  29.947  34.751  1.00  0.00    -0.206 F 
ATOM     45  C   UNL A   1      46.379  27.191  37.042  1.00  0.00     0.060 A 
BRANCH  45  46
ATOM     46  S   UNL A   1      47.705  26.355  37.937  1.00  0.00     0.124 S 
ATOM     47  O   UNL A   1      47.590  24.995  37.418  1.00  0.00    -0.237 OA
ATOM     48  O   UNL A   1      48.888  27.097  37.512  1.00  0.00    -0.237 OA
ATOM     49  O   UNL A   1      47.330  26.526  39.337  1.00  0.00    -0.744 OA
ENDBRANCH  45  46
ENDBRANCH  24  38
BRANCH  25  50
ATOM     50  C   UNL A   1      36.714  32.958  30.923  1.00  0.00     0.058 A 
ATOM     51  C   UNL A   1      35.395  32.673  31.297  1.00  0.00     0.135 A 
ATOM     52  C   UNL A   1      36.919  33.903  29.905  1.00  0.00     0.135 A 
ATOM     53  F   UNL A   1      35.149  31.773  32.262  1.00  0.00    -0.206 F 
ATOM     54  C   UNL A   1      34.314  33.307  30.690  1.00  0.00     0.059 A 
ATOM     55  C   UNL A   1      35.857  34.567  29.301  1.00  0.00     0.059 A 
ATOM     56  F   UNL A   1      38.166  34.223  29.525  1.00  0.00    -0.206 F 
ATOM     57  C   UNL A   1      34.557  34.260  29.699  1.00  0.00     0.060 A 
BRANCH  57  58
ATOM     58  S   UNL A   1      33.152  35.141  28.983  1.00  0.00     0.124 S 
ATOM     59  O   UNL A   1      32.327  35.382  30.160  1.00  0.00    -0.237 OA
ATOM     60  O   UNL A   1      33.792  36.316  28.399  1.00  0.00    -0.237 OA
ATOM     61  O   UNL A   1      32.615  34.186  28.017  1.00  0.00    -0.744 OA
ENDBRANCH  57  58
ENDBRANCH  25  50
BRANCH  37  62
ATOM     62  C   UNL A   1      39.710  33.924  37.162  1.00  0.00     0.058 A 
ATOM     63  C   UNL A   1      38.940  33.578  38.283  1.00  0.00     0.135 A 
ATOM     64  C   UNL A   1      40.306  35.195  37.140  1.00  0.00     0.135 A 
ATOM     65  F   UNL A   1      38.342  32.379  38.348  1.00  0.00    -0.206 F 
ATOM     66  C   UNL A   1      38.762  34.464  39.341  1.00  0.00     0.059 A 
ATOM     67  C   UNL A   1      40.161  36.087  38.196  1.00  0.00     0.059 A 
ATOM     68  F   UNL A   1      41.058  35.570  36.092  1.00  0.00    -0.206 F 
ATOM     69  C   UNL A   1      39.382  35.716  39.290  1.00  0.00     0.060 A 
BRANCH  69  70
ATOM     70  S   UNL A   1      39.192  36.835  40.694  1.00  0.00     0.124 S 
ATOM     71  O   UNL A   1      40.583  37.086  41.059  1.00  0.00    -0.237 OA
ATOM     72  O   UNL A   1      38.479  37.962  40.102  1.00  0.00    -0.237 OA
ATOM     73  O   UNL A   1      38.423  36.048  41.654  1.00  0.00    -0.744 OA
ENDBRANCH  69  70
ENDBRANCH  37  62
ENDBRANCH  11  12
ENDBRANCH   4   6
ENDBRANCH   1   2
BRANCH   1  74
ATOM     74  C   UNL A   1      40.895  22.337  27.883  1.00  0.00     0.042 C 
BRANCH  74  75
ATOM     75  C   UNL A   1      39.985  22.124  26.675  1.00  0.00     0.117 C 
BRANCH  75  76
ATOM     76  N   UNL A   1      38.804  22.948  26.760  1.00  0.00    -0.356 N 
ATOM     77  C   UNL A   1      37.818  23.216  25.883  1.00  0.00     0.223 C 
ATOM     78  H   UNL A   1      38.698  23.401  27.628  1.00  0.00     0.163 HD
ATOM     79  O   UNL A   1      37.001  24.060  26.272  1.00  0.00    -0.275 OA
BRANCH  77  80
ATOM     80  C   UNL A   1      37.622  22.456  24.562  1.00  0.00     0.089 C 
ATOM     81  C   UNL A   1      36.679  23.009  23.479  1.00  0.00     0.075 C 
ATOM     82  C   UNL A   1      37.113  21.055  24.926  1.00  0.00     0.075 C 
ATOM     83  C   UNL A   1      35.177  22.861  23.786  1.00  0.00     0.263 C 
ATOM     84  C   UNL A   1      35.657  21.173  25.382  1.00  0.00     0.263 C 
ATOM     85  N   UNL A   1      34.843  21.486  24.208  1.00  0.00    -0.332 N 
ATOM     86  H   UNL A   1      35.087  20.798  23.494  1.00  0.00     0.348 HD
BRANCH  85  87
ATOM     87  C   UNL A   1      33.380  21.276  24.326  1.00  0.00     0.189 C 
ATOM     88  C   UNL A   1      32.769  21.325  25.726  1.00  0.00     0.093 C 
ATOM     89  C   UNL A   1      32.878  19.997  23.614  1.00  0.00     0.103 C 
ATOM     90  C   UNL A   1      32.945  20.028  26.501  1.00  0.00     0.167 C 
ATOM     91  C   UNL A   1      33.004  18.701  24.432  1.00  0.00     0.099 C 
ATOM     92  O   UNL A   1      32.553  18.868  25.780  1.00  0.00    -0.372 OA
ATOM     93  C   UNL A   1      34.374  18.039  24.270  1.00  0.00     0.066 C 
ATOM     94  C   UNL A   1      32.114  17.588  23.854  1.00  0.00     0.195 C 
ATOM     95  C   UNL A   1      34.210  16.959  23.215  1.00  0.00     0.163 C 
ATOM     96  O   UNL A   1      32.846  16.958  22.803  1.00  0.00    -0.378 OA
ENDBRANCH  85  87
ENDBRANCH  77  80
ENDBRANCH  75  76
ENDBRANCH  74  75
ENDBRANCH   1  74
TORSDOF 14
ENDMDL
MODEL 3
REMARK VINA RESULT:     -12.3      3.796      7.052
REMARK SMILES O=C(NCCCNC(=O)C1CC[NH+]([C@@H]2CCO[C@]3(CCOC3)C2)CC1)c1ccc(-c2c3nc(c(-c4c(F)cc(S(=O)(=O)[O-])cc4F)c4ccc([nH]4)c(-c4c(F)cc(S(=O)(=O)[O-])cc4F)c4nc(c(-c5c(F)cc(S(=O)(=O)[O-])cc5F)c5ccc2[nH]5)C=C4)C=C3)cc1
REMARK SMILES IDX 4 1 3 2 1 3 2 4 26 6 27 7 91 8 28 9 90 10 29 11 30 12 31 13
REMARK SMILES IDX 84 14 32 15 89 16 83 17 85 18 33 19 88 20 82 21 81 22 34 24
REMARK SMILES IDX 68 25 47 26 67 27 48 28 51 29 66 30 86 31 49 32 50 33 65 35
REMARK SMILES IDX 87 36 52 37 35 38 36 39 45 40 37 41 38 42 44 43 46 44 39 45
REMARK SMILES IDX 40 46 41 47 42 48 43 49 69 50 70 51 79 52 71 53 72 54 78 55
REMARK SMILES IDX 80 56 73 57 74 58 75 59 76 60 77 61 53 62 54 63 63 64 55 65
REMARK SMILES IDX 56 66 62 67 64 68 57 69 58 70 59 71 60 72 61 73 5 74 6 75
REMARK SMILES IDX 7 76 8 77 9 79 10 80 11 81 25 82 12 83 24 84 13 85 14 87
REMARK SMILES IDX 15 88 23 89 16 90 18 91 17 92 19 93 22 94 20 95 21 96
REMARK H PARENT 3 5 85 23 51 34 7 78 13 86
REMARK Flexibility Score: inf
ROOT
ATOM      1  C   UNL A   1      34.606  32.812  28.203  1.00  0.00     0.118 C 
ENDROOT
BRANCH   1   2
ATOM      2  N   UNL A   1      33.815  31.596  28.110  1.00  0.00    -0.352 N 
ATOM      3  O   UNL A   1      33.420  29.454  27.553  1.00  0.00    -0.269 OA
ATOM      4  C   UNL A   1      34.233  30.306  27.933  1.00  0.00     0.251 C 
ATOM      5  H   UNL A   1      32.841  31.718  28.185  1.00  0.00     0.163 HD
BRANCH   4   6
ATOM      6  C   UNL A   1      35.635  29.929  28.191  1.00  0.00     0.039 A 
ATOM      7  C   UNL A   1      36.608  30.079  27.196  1.00  0.00     0.014 A 
ATOM      8  C   UNL A   1      35.998  29.487  29.466  1.00  0.00     0.014 A 
ATOM      9  C   UNL A   1      37.922  29.694  27.444  1.00  0.00     0.010 A 
ATOM     10  C   UNL A   1      37.332  29.168  29.734  1.00  0.00     0.010 A 
ATOM     11  C   UNL A   1      38.300  29.257  28.722  1.00  0.00    -0.014 A 
BRANCH  11  12
ATOM     12  C   UNL A   1      39.725  28.961  29.015  1.00  0.00     0.031 A 
ATOM     13  C   UNL A   1      40.617  30.010  29.614  1.00  0.00     0.074 A 
ATOM     14  C   UNL A   1      40.213  27.744  28.710  1.00  0.00     0.049 A 
ATOM     15  N   UNL A   1      41.899  29.953  29.867  1.00  0.00    -0.248 NA
ATOM     16  C   UNL A   1      39.990  31.293  29.963  1.00  0.00     0.031 C 
ATOM     17  C   UNL A   1      39.438  26.650  28.118  1.00  0.00     0.029 A 
ATOM     18  N   UNL A   1      41.474  27.223  28.844  1.00  0.00    -0.354 N 
ATOM     19  C   UNL A   1      42.240  31.196  30.385  1.00  0.00     0.074 A 
ATOM     20  C   UNL A   1      41.032  31.995  30.389  1.00  0.00     0.031 C 
ATOM     21  C   UNL A   1      40.236  25.584  27.954  1.00  0.00     0.029 A 
ATOM     22  C   UNL A   1      41.588  25.936  28.372  1.00  0.00     0.049 A 
ATOM     23  H   UNL A   1      42.225  27.721  29.239  1.00  0.00     0.167 HD
ATOM     24  C   UNL A   1      43.450  31.628  30.817  1.00  0.00     0.037 A 
ATOM     25  C   UNL A   1      42.666  25.136  28.261  1.00  0.00     0.037 A 
ATOM     26  C   UNL A   1      44.643  30.820  30.810  1.00  0.00     0.049 A 
ATOM     27  C   UNL A   1      44.000  25.643  28.726  1.00  0.00     0.074 A 
ATOM     28  C   UNL A   1      45.912  31.154  31.251  1.00  0.00     0.029 A 
ATOM     29  N   UNL A   1      44.717  29.520  30.330  1.00  0.00    -0.354 N 
ATOM     30  N   UNL A   1      44.302  26.813  29.237  1.00  0.00    -0.248 NA
ATOM     31  C   UNL A   1      45.140  24.726  28.602  1.00  0.00     0.031 C 
ATOM     32  C   UNL A   1      46.761  30.070  31.001  1.00  0.00     0.029 A 
ATOM     33  C   UNL A   1      46.012  29.043  30.448  1.00  0.00     0.049 A 
ATOM     34  H   UNL A   1      43.960  29.011  29.960  1.00  0.00     0.167 HD
ATOM     35  C   UNL A   1      45.661  26.766  29.518  1.00  0.00     0.074 A 
ATOM     36  C   UNL A   1      46.122  25.450  29.123  1.00  0.00     0.031 C 
ATOM     37  C   UNL A   1      46.453  27.724  30.058  1.00  0.00     0.037 A 
BRANCH  24  38
ATOM     38  C   UNL A   1      43.544  33.048  31.305  1.00  0.00     0.058 A 
ATOM     39  C   UNL A   1      43.693  34.128  30.419  1.00  0.00     0.135 A 
ATOM     40  C   UNL A   1      43.482  33.335  32.679  1.00  0.00     0.135 A 
ATOM     41  F   UNL A   1      43.772  33.911  29.096  1.00  0.00    -0.206 F 
ATOM     42  C   UNL A   1      43.818  35.435  30.880  1.00  0.00     0.059 A 
ATOM     43  C   UNL A   1      43.579  34.637  33.161  1.00  0.00     0.059 A 
ATOM     44  F   UNL A   1      43.337  32.341  33.571  1.00  0.00    -0.206 F 
ATOM     45  C   UNL A   1      43.769  35.679  32.253  1.00  0.00     0.060 A 
BRANCH  45  46
ATOM     46  S   UNL A   1      43.974  37.374  32.839  1.00  0.00     0.124 S 
ATOM     47  O   UNL A   1      43.765  38.131  31.608  1.00  0.00    -0.237 OA
ATOM     48  O   UNL A   1      42.920  37.490  33.841  1.00  0.00    -0.237 OA
ATOM     49  O   UNL A   1      45.337  37.390  33.361  1.00  0.00    -0.744 OA
ENDBRANCH  45  46
ENDBRANCH  24  38
BRANCH  25  50
ATOM     50  C   UNL A   1      42.505  23.778  27.682  1.00  0.00     0.058 A 
ATOM     51  C   UNL A   1      42.569  23.572  26.298  1.00  0.00     0.135 A 
ATOM     52  C   UNL A   1      42.356  22.653  28.507  1.00  0.00     0.135 A 
ATOM     53  F   UNL A   1      42.706  24.618  25.468  1.00  0.00    -0.206 F 
ATOM     54  C   UNL A   1      42.497  22.296  25.749  1.00  0.00     0.059 A 
ATOM     55  C   UNL A   1      42.306  21.365  27.984  1.00  0.00     0.059 A 
ATOM     56  F   UNL A   1      42.308  22.798  29.841  1.00  0.00    -0.206 F 
ATOM     57  C   UNL A   1      42.374  21.197  26.602  1.00  0.00     0.060 A 
BRANCH  57  58
ATOM     58  S   UNL A   1      42.373  19.540  25.885  1.00  0.00     0.124 S 
ATOM     59  O   UNL A   1      43.397  19.665  24.855  1.00  0.00    -0.237 OA
ATOM     60  O   UNL A   1      42.720  18.708  27.033  1.00  0.00    -0.237 OA
ATOM     61  O   UNL A   1      41.004  19.385  25.401  1.00  0.00    -0.744 OA
ENDBRANCH  57  58
ENDBRANCH  25  50
BRANCH  37  62
ATOM     62  C   UNL A   1      47.894  27.378  30.296  1.00  0.00     0.058 A 
ATOM     63  C   UNL A   1      48.870  27.552  29.303  1.00  0.00     0.135 A 
ATOM     64  C   UNL A   1      48.314  26.931  31.559  1.00  0.00     0.135 A 
ATOM     65  F   UNL A   1      48.519  27.968  28.076  1.00  0.00    -0.206 F 
ATOM     66  C   UNL A   1      50.213  27.286  29.552  1.00  0.00     0.059 A 
ATOM     67  C   UNL A   1      49.653  26.682  31.838  1.00  0.00     0.059 A 
ATOM     68  F   UNL A   1      47.418  26.754  32.545  1.00  0.00    -0.206 F 
ATOM     69  C   UNL A   1      50.595  26.856  30.825  1.00  0.00     0.060 A 
BRANCH  69  70
ATOM     70  S   UNL A   1      52.347  26.570  31.154  1.00  0.00     0.124 S 
ATOM     71  O   UNL A   1      52.938  26.833  29.846  1.00  0.00    -0.237 OA
ATOM     72  O   UNL A   1      52.636  27.557  32.190  1.00  0.00    -0.237 OA
ATOM     73  O   UNL A   1      52.387  25.179  31.594  1.00  0.00    -0.744 OA
ENDBRANCH  69  70
ENDBRANCH  37  62
ENDBRANCH  11  12
ENDBRANCH   4   6
ENDBRANCH   1   2
BRANCH   1  74
ATOM     74  C   UNL A   1      33.724  34.055  28.316  1.00  0.00     0.042 C 
BRANCH  74  75
ATOM     75  C   UNL A   1      34.042  34.926  29.529  1.00  0.00     0.117 C 
BRANCH  75  76
ATOM     76  N   UNL A   1      33.788  34.217  30.761  1.00  0.00    -0.356 N 
ATOM     77  C   UNL A   1      34.591  33.529  31.595  1.00  0.00     0.223 C 
ATOM     78  H   UNL A   1      32.846  34.241  31.045  1.00  0.00     0.163 HD
ATOM     79  O   UNL A   1      34.000  32.960  32.522  1.00  0.00    -0.275 OA
BRANCH  77  80
ATOM     80  C   UNL A   1      36.126  33.544  31.507  1.00  0.00     0.089 C 
ATOM     81  C   UNL A   1      36.926  32.242  31.680  1.00  0.00     0.075 C 
ATOM     82  C   UNL A   1      36.623  34.522  32.580  1.00  0.00     0.075 C 
ATOM     83  C   UNL A   1      37.015  31.719  33.126  1.00  0.00     0.263 C 
ATOM     84  C   UNL A   1      36.442  33.868  33.952  1.00  0.00     0.263 C 
ATOM     85  N   UNL A   1      37.419  32.786  34.064  1.00  0.00    -0.332 N 
ATOM     86  H   UNL A   1      38.325  33.186  33.819  1.00  0.00     0.348 HD
BRANCH  85  87
ATOM     87  C   UNL A   1      37.691  32.261  35.424  1.00  0.00     0.189 C 
ATOM     88  C   UNL A   1      38.362  33.204  36.424  1.00  0.00     0.093 C 
ATOM     89  C   UNL A   1      38.454  30.915  35.428  1.00  0.00     0.103 C 
ATOM     90  C   UNL A   1      39.869  33.299  36.237  1.00  0.00     0.167 C 
ATOM     91  C   UNL A   1      39.982  31.029  35.302  1.00  0.00     0.099 C 
ATOM     92  O   UNL A   1      40.521  32.039  36.160  1.00  0.00    -0.372 OA
ATOM     93  C   UNL A   1      40.445  31.082  33.844  1.00  0.00     0.066 C 
ATOM     94  C   UNL A   1      40.676  29.728  35.741  1.00  0.00     0.195 C 
ATOM     95  C   UNL A   1      40.856  29.669  33.469  1.00  0.00     0.163 C 
ATOM     96  O   UNL A   1      40.681  28.846  34.619  1.00  0.00    -0.378 OA
ENDBRANCH  85  87
ENDBRANCH  77  80
ENDBRANCH  75  76
ENDBRANCH  74  75
ENDBRANCH   1  74
TORSDOF 14
ENDMDL
