MODEL 1
REMARK VINA RESULT:     -11.4      0.000      0.000
REMARK SMILES C[C@@H]1CC[C@@]1(SC1CCCCC1)C(=O)NCCCNC(=O)c1ccc(-c2c3nc(c(-c4c(F)cc(S(=O)(=O)[O-])cc4F)c4ccc([nH]4)c(-c4c(F)cc(S(=O)(=O)[O-])cc4F)c4nc(c(-c5c(F)cc(S(=O)(=O)[O-])cc5F)c5ccc2[nH]5)C=C4)C=C3)cc1
REMARK SMILES IDX 17 1 16 2 15 3 13 4 14 5 5 7 1 8 2 9 3 10 4 11 6 12 7 13
REMARK SMILES IDX 8 14 12 15 9 16 11 17 10 18 18 19 19 20 20 21 21 23 22 24
REMARK SMILES IDX 23 25 87 26 24 27 86 28 25 29 26 30 27 31 80 32 28 33 85 34
REMARK SMILES IDX 79 35 81 36 29 37 84 38 78 39 77 40 30 42 64 43 43 44 63 45
REMARK SMILES IDX 44 46 47 47 62 48 82 49 45 50 46 51 61 53 83 54 48 55 31 56
REMARK SMILES IDX 32 57 41 58 33 59 34 60 40 61 42 62 35 63 36 64 37 65 38 66
REMARK SMILES IDX 39 67 65 68 66 69 75 70 67 71 68 72 74 73 76 74 69 75 70 76
REMARK SMILES IDX 71 77 72 78 73 79 49 80 50 81 59 82 51 83 52 84 58 85 60 86
REMARK SMILES IDX 53 87 54 88 55 89 56 90 57 91
REMARK H PARENT 15 6 19 22 81 41 47 52
REMARK Flexibility Score: inf
ROOT
ATOM      1  C   UNL A   1      37.617  23.254  25.855  1.00  0.00     0.042 C 
ENDROOT
BRANCH   1   2
ATOM      2  C   UNL A   1      36.174  23.712  25.748  1.00  0.00     0.117 C 
BRANCH   2   3
ATOM      3  N   UNL A   1      35.448  22.981  24.731  1.00  0.00    -0.355 N 
ATOM      4  C   UNL A   1      34.157  23.131  24.278  1.00  0.00     0.236 C 
ATOM      5  O   UNL A   1      33.879  22.459  23.272  1.00  0.00    -0.273 OA
ATOM      6  H   UNL A   1      35.959  22.262  24.295  1.00  0.00     0.163 HD
BRANCH   4   7
ATOM      7  C   UNL A   1      33.120  24.065  25.013  1.00  0.00     0.097 C 
ATOM      8  C   UNL A   1      30.684  23.990  23.708  1.00  0.00     0.009 C 
ATOM      9  C   UNL A   1      31.630  23.501  24.791  1.00  0.00     0.012 C 
ATOM     10  C   UNL A   1      31.285  23.946  26.221  1.00  0.00     0.007 C 
ATOM     11  C   UNL A   1      32.784  23.949  26.533  1.00  0.00     0.028 C 
BRANCH   7  12
ATOM     12  S   UNL A   1      33.215  25.843  24.419  1.00  0.00    -0.141 SA
BRANCH  12  13
ATOM     13  C   UNL A   1      33.035  26.918  25.892  1.00  0.00     0.047 C 
ATOM     14  C   UNL A   1      34.133  27.979  25.990  1.00  0.00     0.014 C 
ATOM     15  C   UNL A   1      31.630  27.459  26.170  1.00  0.00     0.014 C 
ATOM     16  C   UNL A   1      34.032  28.780  27.286  1.00  0.00     0.001 C 
ATOM     17  C   UNL A   1      31.562  28.343  27.419  1.00  0.00     0.001 C 
ATOM     18  C   UNL A   1      32.652  29.410  27.430  1.00  0.00     0.000 C 
ENDBRANCH  12  13
ENDBRANCH   7  12
ENDBRANCH   4   7
ENDBRANCH   2   3
ENDBRANCH   1   2
BRANCH   1  19
ATOM     19  C   UNL A   1      38.511  24.287  26.525  1.00  0.00     0.118 C 
BRANCH  19  20
ATOM     20  N   UNL A   1      39.886  24.227  26.042  1.00  0.00    -0.352 N 
ATOM     21  C   UNL A   1      40.962  25.008  26.375  1.00  0.00     0.251 C 
ATOM     22  H   UNL A   1      40.068  23.521  25.379  1.00  0.00     0.163 HD
ATOM     23  O   UNL A   1      41.991  24.942  25.705  1.00  0.00    -0.269 OA
BRANCH  21  24
ATOM     24  C   UNL A   1      40.874  25.930  27.524  1.00  0.00     0.039 A 
ATOM     25  C   UNL A   1      41.753  27.012  27.595  1.00  0.00     0.014 A 
ATOM     26  C   UNL A   1      39.929  25.723  28.534  1.00  0.00     0.014 A 
ATOM     27  C   UNL A   1      41.649  27.914  28.654  1.00  0.00     0.010 A 
ATOM     28  C   UNL A   1      39.763  26.674  29.531  1.00  0.00     0.010 A 
ATOM     29  C   UNL A   1      40.632  27.769  29.615  1.00  0.00    -0.014 A 
BRANCH  29  30
ATOM     30  C   UNL A   1      40.481  28.743  30.725  1.00  0.00     0.031 A 
ATOM     31  C   UNL A   1      41.332  28.612  31.960  1.00  0.00     0.074 A 
ATOM     32  C   UNL A   1      39.543  29.705  30.642  1.00  0.00     0.049 A 
ATOM     33  N   UNL A   1      41.322  29.336  33.049  1.00  0.00    -0.248 NA
ATOM     34  C   UNL A   1      42.301  27.504  31.989  1.00  0.00     0.031 C 
ATOM     35  C   UNL A   1      38.619  29.893  29.521  1.00  0.00     0.029 A 
ATOM     36  N   UNL A   1      39.205  30.703  31.520  1.00  0.00    -0.354 N 
ATOM     37  C   UNL A   1      42.266  28.764  33.894  1.00  0.00     0.074 A 
ATOM     38  C   UNL A   1      42.784  27.596  33.218  1.00  0.00     0.031 C 
ATOM     39  C   UNL A   1      37.841  30.958  29.766  1.00  0.00     0.029 A 
ATOM     40  C   UNL A   1      38.181  31.506  31.075  1.00  0.00     0.049 A 
ATOM     41  H   UNL A   1      39.653  30.833  32.387  1.00  0.00     0.167 HD
ATOM     42  C   UNL A   1      42.683  29.190  35.109  1.00  0.00     0.037 A 
ATOM     43  C   UNL A   1      37.580  32.562  31.659  1.00  0.00     0.037 A 
ATOM     44  C   UNL A   1      42.175  30.367  35.763  1.00  0.00     0.049 A 
ATOM     45  C   UNL A   1      38.065  33.021  33.007  1.00  0.00     0.074 A 
ATOM     46  C   UNL A   1      42.573  30.924  36.965  1.00  0.00     0.029 A 
ATOM     47  N   UNL A   1      41.154  31.169  35.271  1.00  0.00    -0.354 N 
ATOM     48  N   UNL A   1      39.013  32.514  33.760  1.00  0.00    -0.248 NA
ATOM     49  C   UNL A   1      37.409  34.203  33.579  1.00  0.00     0.031 C 
ATOM     50  C   UNL A   1      41.755  32.028  37.228  1.00  0.00     0.029 A 
ATOM     51  C   UNL A   1      40.890  32.199  36.158  1.00  0.00     0.049 A 
ATOM     52  H   UNL A   1      40.685  31.025  34.417  1.00  0.00     0.167 HD
ATOM     53  C   UNL A   1      39.086  33.331  34.882  1.00  0.00     0.074 A 
ATOM     54  C   UNL A   1      38.096  34.374  34.702  1.00  0.00     0.031 C 
ATOM     55  C   UNL A   1      39.901  33.231  35.962  1.00  0.00     0.037 A 
BRANCH  42  56
ATOM     56  C   UNL A   1      43.737  28.373  35.810  1.00  0.00     0.058 A 
ATOM     57  C   UNL A   1      43.403  27.338  36.699  1.00  0.00     0.135 A 
ATOM     58  C   UNL A   1      45.100  28.616  35.576  1.00  0.00     0.135 A 
ATOM     59  F   UNL A   1      42.116  27.069  36.974  1.00  0.00    -0.206 F 
ATOM     60  C   UNL A   1      44.381  26.599  37.359  1.00  0.00     0.059 A 
ATOM     61  C   UNL A   1      46.095  27.867  36.199  1.00  0.00     0.059 A 
ATOM     62  F   UNL A   1      45.479  29.592  34.737  1.00  0.00    -0.206 F 
ATOM     63  C   UNL A   1      45.725  26.872  37.103  1.00  0.00     0.060 A 
BRANCH  63  64
ATOM     64  S   UNL A   1      46.980  25.908  37.970  1.00  0.00     0.124 S 
ATOM     65  O   UNL A   1      47.059  24.716  37.131  1.00  0.00    -0.237 OA
ATOM     66  O   UNL A   1      48.140  26.792  37.924  1.00  0.00    -0.237 OA
ATOM     67  O   UNL A   1      46.400  25.705  39.294  1.00  0.00    -0.744 OA
ENDBRANCH  63  64
ENDBRANCH  42  56
BRANCH  43  68
ATOM     68  C   UNL A   1      36.477  33.267  30.954  1.00  0.00     0.058 A 
ATOM     69  C   UNL A   1      35.147  33.134  31.379  1.00  0.00     0.135 A 
ATOM     70  C   UNL A   1      36.733  34.111  29.861  1.00  0.00     0.135 A 
ATOM     71  F   UNL A   1      34.850  32.336  32.415  1.00  0.00    -0.206 F 
ATOM     72  C   UNL A   1      34.107  33.803  30.739  1.00  0.00     0.059 A 
ATOM     73  C   UNL A   1      35.714  34.811  29.224  1.00  0.00     0.059 A 
ATOM     74  F   UNL A   1      37.991  34.287  29.428  1.00  0.00    -0.206 F 
ATOM     75  C   UNL A   1      34.402  34.645  29.666  1.00  0.00     0.060 A 
BRANCH  75  76
ATOM     76  S   UNL A   1      33.054  35.555  28.883  1.00  0.00     0.124 S 
ATOM     77  O   UNL A   1      32.317  36.045  30.042  1.00  0.00    -0.237 OA
ATOM     78  O   UNL A   1      33.775  36.563  28.111  1.00  0.00    -0.237 OA
ATOM     79  O   UNL A   1      32.377  34.535  28.088  1.00  0.00    -0.744 OA
ENDBRANCH  75  76
ENDBRANCH  43  68
BRANCH  55  80
ATOM     80  C   UNL A   1      39.785  34.298  37.018  1.00  0.00     0.058 A 
ATOM     81  C   UNL A   1      39.088  34.083  38.217  1.00  0.00     0.135 A 
ATOM     82  C   UNL A   1      40.421  35.538  36.844  1.00  0.00     0.135 A 
ATOM     83  F   UNL A   1      38.458  32.917  38.434  1.00  0.00    -0.206 F 
ATOM     84  C   UNL A   1      38.999  35.070  39.192  1.00  0.00     0.059 A 
ATOM     85  C   UNL A   1      40.374  36.528  37.819  1.00  0.00     0.059 A 
ATOM     86  F   UNL A   1      41.112  35.791  35.721  1.00  0.00    -0.206 F 
ATOM     87  C   UNL A   1      39.646  36.291  38.984  1.00  0.00     0.060 A 
BRANCH  87  88
ATOM     88  S   UNL A   1      39.541  37.557  40.266  1.00  0.00     0.124 S 
ATOM     89  O   UNL A   1      38.896  36.823  41.350  1.00  0.00    -0.237 OA
ATOM     90  O   UNL A   1      40.943  37.900  40.480  1.00  0.00    -0.237 OA
ATOM     91  O   UNL A   1      38.733  38.603  39.646  1.00  0.00    -0.744 OA
ENDBRANCH  87  88
ENDBRANCH  55  80
ENDBRANCH  29  30
ENDBRANCH  21  24
ENDBRANCH  19  20
ENDBRANCH   1  19
TORSDOF 15
ENDMDL
MODEL 2
REMARK VINA RESULT:     -11.4      4.805     10.483
REMARK SMILES C[C@@H]1CC[C@@]1(SC1CCCCC1)C(=O)NCCCNC(=O)c1ccc(-c2c3nc(c(-c4c(F)cc(S(=O)(=O)[O-])cc4F)c4ccc([nH]4)c(-c4c(F)cc(S(=O)(=O)[O-])cc4F)c4nc(c(-c5c(F)cc(S(=O)(=O)[O-])cc5F)c5ccc2[nH]5)C=C4)C=C3)cc1
REMARK SMILES IDX 17 1 16 2 15 3 13 4 14 5 5 7 1 8 2 9 3 10 4 11 6 12 7 13
REMARK SMILES IDX 8 14 12 15 9 16 11 17 10 18 18 19 19 20 20 21 21 23 22 24
REMARK SMILES IDX 23 25 87 26 24 27 86 28 25 29 26 30 27 31 80 32 28 33 85 34
REMARK SMILES IDX 79 35 81 36 29 37 84 38 78 39 77 40 30 42 64 43 43 44 63 45
REMARK SMILES IDX 44 46 47 47 62 48 82 49 45 50 46 51 61 53 83 54 48 55 31 56
REMARK SMILES IDX 32 57 41 58 33 59 34 60 40 61 42 62 35 63 36 64 37 65 38 66
REMARK SMILES IDX 39 67 65 68 66 69 75 70 67 71 68 72 74 73 76 74 69 75 70 76
REMARK SMILES IDX 71 77 72 78 73 79 49 80 50 81 59 82 51 83 52 84 58 85 60 86
REMARK SMILES IDX 53 87 54 88 55 89 56 90 57 91
REMARK H PARENT 15 6 19 22 81 41 47 52
REMARK Flexibility Score: inf
ROOT
ATOM      1  C   UNL A   1      32.154  27.669  27.341  1.00  0.00     0.042 C 
ENDROOT
BRANCH   1   2
ATOM      2  C   UNL A   1      31.943  26.672  26.218  1.00  0.00     0.117 C 
BRANCH   2   3
ATOM      3  N   UNL A   1      31.103  25.565  26.627  1.00  0.00    -0.355 N 
ATOM      4  C   UNL A   1      31.332  24.210  26.580  1.00  0.00     0.236 C 
ATOM      5  O   UNL A   1      30.484  23.519  27.166  1.00  0.00    -0.273 OA
ATOM      6  H   UNL A   1      30.230  25.825  26.998  1.00  0.00     0.163 HD
BRANCH   4   7
ATOM      7  C   UNL A   1      32.566  23.600  25.809  1.00  0.00     0.097 C 
ATOM      8  C   UNL A   1      32.078  20.953  25.178  1.00  0.00     0.009 C 
ATOM      9  C   UNL A   1      32.066  22.430  24.825  1.00  0.00     0.012 C 
ATOM     10  C   UNL A   1      33.131  22.875  23.810  1.00  0.00     0.007 C 
ATOM     11  C   UNL A   1      33.171  24.233  24.517  1.00  0.00     0.028 C 
BRANCH   7  12
ATOM     12  S   UNL A   1      33.874  22.926  26.975  1.00  0.00    -0.141 SA
BRANCH  12  13
ATOM     13  C   UNL A   1      35.417  22.732  26.006  1.00  0.00     0.047 C 
ATOM     14  C   UNL A   1      36.518  23.700  26.444  1.00  0.00     0.014 C 
ATOM     15  C   UNL A   1      35.908  21.298  25.791  1.00  0.00     0.014 C 
ATOM     16  C   UNL A   1      37.748  23.603  25.544  1.00  0.00     0.001 C 
ATOM     17  C   UNL A   1      37.198  21.221  24.969  1.00  0.00     0.001 C 
ATOM     18  C   UNL A   1      38.271  22.174  25.489  1.00  0.00     0.000 C 
ENDBRANCH  12  13
ENDBRANCH   7  12
ENDBRANCH   4   7
ENDBRANCH   2   3
ENDBRANCH   1   2
BRANCH   1  19
ATOM     19  C   UNL A   1      33.509  28.360  27.264  1.00  0.00     0.118 C 
BRANCH  19  20
ATOM     20  N   UNL A   1      33.411  29.798  27.482  1.00  0.00    -0.352 N 
ATOM     21  C   UNL A   1      34.321  30.660  28.037  1.00  0.00     0.251 C 
ATOM     22  H   UNL A   1      32.567  30.211  27.186  1.00  0.00     0.163 HD
ATOM     23  O   UNL A   1      33.975  31.803  28.330  1.00  0.00    -0.269 OA
BRANCH  21  24
ATOM     24  C   UNL A   1      35.703  30.207  28.291  1.00  0.00     0.039 A 
ATOM     25  C   UNL A   1      36.631  30.244  27.249  1.00  0.00     0.014 A 
ATOM     26  C   UNL A   1      36.079  29.741  29.554  1.00  0.00     0.014 A 
ATOM     27  C   UNL A   1      37.950  29.860  27.491  1.00  0.00     0.010 A 
ATOM     28  C   UNL A   1      37.412  29.455  29.816  1.00  0.00     0.010 A 
ATOM     29  C   UNL A   1      38.359  29.491  28.784  1.00  0.00    -0.014 A 
BRANCH  29  30
ATOM     30  C   UNL A   1      39.768  29.120  29.068  1.00  0.00     0.031 A 
ATOM     31  C   UNL A   1      40.706  30.132  29.668  1.00  0.00     0.074 A 
ATOM     32  C   UNL A   1      40.212  27.893  28.733  1.00  0.00     0.049 A 
ATOM     33  N   UNL A   1      41.977  30.012  29.951  1.00  0.00    -0.248 NA
ATOM     34  C   UNL A   1      40.152  31.464  29.960  1.00  0.00     0.031 C 
ATOM     35  C   UNL A   1      39.411  26.848  28.091  1.00  0.00     0.029 A 
ATOM     36  N   UNL A   1      41.448  27.318  28.881  1.00  0.00    -0.354 N 
ATOM     37  C   UNL A   1      42.376  31.252  30.438  1.00  0.00     0.074 A 
ATOM     38  C   UNL A   1      41.229  32.128  30.351  1.00  0.00     0.031 C 
ATOM     39  C   UNL A   1      40.166  25.752  27.928  1.00  0.00     0.029 A 
ATOM     40  C   UNL A   1      41.514  26.026  28.415  1.00  0.00     0.049 A 
ATOM     41  H   UNL A   1      42.215  27.785  29.282  1.00  0.00     0.167 HD
ATOM     42  C   UNL A   1      43.579  31.619  30.937  1.00  0.00     0.037 A 
ATOM     43  C   UNL A   1      42.547  25.160  28.380  1.00  0.00     0.037 A 
ATOM     44  C   UNL A   1      44.708  30.731  31.039  1.00  0.00     0.049 A 
ATOM     45  C   UNL A   1      43.873  25.587  28.948  1.00  0.00     0.074 A 
ATOM     46  C   UNL A   1      45.953  30.981  31.587  1.00  0.00     0.029 A 
ATOM     47  N   UNL A   1      44.731  29.422  30.578  1.00  0.00    -0.354 N 
ATOM     48  N   UNL A   1      44.213  26.740  29.474  1.00  0.00    -0.248 NA
ATOM     49  C   UNL A   1      44.954  24.592  28.928  1.00  0.00     0.031 C 
ATOM     50  C   UNL A   1      46.747  29.843  31.407  1.00  0.00     0.029 A 
ATOM     51  C   UNL A   1      45.976  28.861  30.805  1.00  0.00     0.049 A 
ATOM     52  H   UNL A   1      43.973  28.960  30.151  1.00  0.00     0.167 HD
ATOM     53  C   UNL A   1      45.537  26.600  29.874  1.00  0.00     0.074 A 
ATOM     54  C   UNL A   1      45.931  25.247  29.541  1.00  0.00     0.031 C 
ATOM     55  C   UNL A   1      46.352  27.509  30.467  1.00  0.00     0.037 A 
BRANCH  42  56
ATOM     56  C   UNL A   1      43.736  33.041  31.407  1.00  0.00     0.058 A 
ATOM     57  C   UNL A   1      43.437  33.424  32.725  1.00  0.00     0.135 A 
ATOM     58  C   UNL A   1      44.211  34.032  30.533  1.00  0.00     0.135 A 
ATOM     59  F   UNL A   1      42.964  32.523  33.602  1.00  0.00    -0.206 F 
ATOM     60  C   UNL A   1      43.565  34.744  33.149  1.00  0.00     0.059 A 
ATOM     61  C   UNL A   1      44.380  35.352  30.945  1.00  0.00     0.059 A 
ATOM     62  F   UNL A   1      44.514  33.726  29.262  1.00  0.00    -0.206 F 
ATOM     63  C   UNL A   1      44.036  35.701  32.250  1.00  0.00     0.060 A 
BRANCH  63  64
ATOM     64  S   UNL A   1      44.194  37.408  32.814  1.00  0.00     0.124 S 
ATOM     65  O   UNL A   1      45.566  37.423  33.312  1.00  0.00    -0.237 OA
ATOM     66  O   UNL A   1      43.958  38.164  31.588  1.00  0.00    -0.237 OA
ATOM     67  O   UNL A   1      43.155  37.528  33.832  1.00  0.00    -0.744 OA
ENDBRANCH  63  64
ENDBRANCH  42  56
BRANCH  43  68
ATOM     68  C   UNL A   1      42.352  23.800  27.813  1.00  0.00     0.058 A 
ATOM     69  C   UNL A   1      42.296  23.595  26.427  1.00  0.00     0.135 A 
ATOM     70  C   UNL A   1      42.249  22.672  28.644  1.00  0.00     0.135 A 
ATOM     71  F   UNL A   1      42.385  24.641  25.590  1.00  0.00    -0.206 F 
ATOM     72  C   UNL A   1      42.132  22.325  25.882  1.00  0.00     0.059 A 
ATOM     73  C   UNL A   1      42.112  21.390  28.123  1.00  0.00     0.059 A 
ATOM     74  F   UNL A   1      42.316  22.812  29.978  1.00  0.00    -0.206 F 
ATOM     75  C   UNL A   1      42.048  21.227  26.740  1.00  0.00     0.060 A 
BRANCH  75  76
ATOM     76  S   UNL A   1      41.897  19.577  26.022  1.00  0.00     0.124 S 
ATOM     77  O   UNL A   1      42.336  18.733  27.127  1.00  0.00    -0.237 OA
ATOM     78  O   UNL A   1      40.475  19.516  25.697  1.00  0.00    -0.237 OA
ATOM     79  O   UNL A   1      42.793  19.629  24.871  1.00  0.00    -0.744 OA
ENDBRANCH  75  76
ENDBRANCH  43  68
BRANCH  55  80
ATOM     80  C   UNL A   1      47.742  27.058  30.830  1.00  0.00     0.058 A 
ATOM     81  C   UNL A   1      48.003  26.324  31.997  1.00  0.00     0.135 A 
ATOM     82  C   UNL A   1      48.820  27.327  29.971  1.00  0.00     0.135 A 
ATOM     83  F   UNL A   1      47.010  26.043  32.856  1.00  0.00    -0.206 F 
ATOM     84  C   UNL A   1      49.288  25.900  32.316  1.00  0.00     0.059 A 
ATOM     85  C   UNL A   1      50.108  26.885  30.253  1.00  0.00     0.059 A 
ATOM     86  F   UNL A   1      48.624  28.015  28.835  1.00  0.00    -0.206 F 
ATOM     87  C   UNL A   1      50.336  26.185  31.437  1.00  0.00     0.060 A 
BRANCH  87  88
ATOM     88  S   UNL A   1      51.996  25.611  31.853  1.00  0.00     0.124 S 
ATOM     89  O   UNL A   1      52.323  26.461  32.992  1.00  0.00    -0.237 OA
ATOM     90  O   UNL A   1      51.770  24.202  32.158  1.00  0.00    -0.237 OA
ATOM     91  O   UNL A   1      52.759  25.868  30.635  1.00  0.00    -0.744 OA
ENDBRANCH  87  88
ENDBRANCH  55  80
ENDBRANCH  29  30
ENDBRANCH  21  24
ENDBRANCH  19  20
ENDBRANCH   1  19
TORSDOF 15
ENDMDL
MODEL 3
REMARK VINA RESULT:     -11.4      6.844     12.289
REMARK SMILES C[C@@H]1CC[C@@]1(SC1CCCCC1)C(=O)NCCCNC(=O)c1ccc(-c2c3nc(c(-c4c(F)cc(S(=O)(=O)[O-])cc4F)c4ccc([nH]4)c(-c4c(F)cc(S(=O)(=O)[O-])cc4F)c4nc(c(-c5c(F)cc(S(=O)(=O)[O-])cc5F)c5ccc2[nH]5)C=C4)C=C3)cc1
REMARK SMILES IDX 17 1 16 2 15 3 13 4 14 5 5 7 1 8 2 9 3 10 4 11 6 12 7 13
REMARK SMILES IDX 8 14 12 15 9 16 11 17 10 18 18 19 19 20 20 21 21 23 22 24
REMARK SMILES IDX 23 25 87 26 24 27 86 28 25 29 26 30 27 31 80 32 28 33 85 34
REMARK SMILES IDX 79 35 81 36 29 37 84 38 78 39 77 40 30 42 64 43 43 44 63 45
REMARK SMILES IDX 44 46 47 47 62 48 82 49 45 50 46 51 61 53 83 54 48 55 31 56
REMARK SMILES IDX 32 57 41 58 33 59 34 60 40 61 42 62 35 63 36 64 37 65 38 66
REMARK SMILES IDX 39 67 65 68 66 69 75 70 67 71 68 72 74 73 76 74 69 75 70 76
REMARK SMILES IDX 71 77 72 78 73 79 49 80 50 81 59 82 51 83 52 84 58 85 60 86
REMARK SMILES IDX 53 87 54 88 55 89 56 90 57 91
REMARK H PARENT 15 6 19 22 81 41 47 52
REMARK Flexibility Score: inf
ROOT
ATOM      1  C   UNL A   1      34.679  29.421  27.599  1.00  0.00     0.042 C 
ENDROOT
BRANCH   1   2
ATOM      2  C   UNL A   1      33.516  29.844  26.722  1.00  0.00     0.117 C 
BRANCH   2   3
ATOM      3  N   UNL A   1      33.807  29.670  25.314  1.00  0.00    -0.355 N 
ATOM      4  C   UNL A   1      33.269  28.799  24.395  1.00  0.00     0.236 C 
ATOM      5  O   UNL A   1      33.607  29.010  23.220  1.00  0.00    -0.273 OA
ATOM      6  H   UNL A   1      34.502  30.269  24.959  1.00  0.00     0.163 HD
BRANCH   4   7
ATOM      7  C   UNL A   1      32.320  27.615  24.826  1.00  0.00     0.097 C 
ATOM      8  C   UNL A   1      33.573  25.188  24.396  1.00  0.00     0.009 C 
ATOM      9  C   UNL A   1      33.204  26.355  25.295  1.00  0.00     0.012 C 
ATOM     10  C   UNL A   1      32.145  26.054  26.367  1.00  0.00     0.007 C 
ATOM     11  C   UNL A   1      31.671  27.505  26.242  1.00  0.00     0.028 C 
BRANCH   7  12
ATOM     12  S   UNL A   1      31.159  27.091  23.448  1.00  0.00    -0.141 SA
BRANCH  12  13
ATOM     13  C   UNL A   1      29.906  28.414  23.260  1.00  0.00     0.047 C 
ATOM     14  C   UNL A   1      30.288  29.446  22.197  1.00  0.00     0.014 C 
ATOM     15  C   UNL A   1      28.446  27.960  23.180  1.00  0.00     0.014 C 
ATOM     16  C   UNL A   1      29.290  30.601  22.146  1.00  0.00     0.001 C 
ATOM     17  C   UNL A   1      27.462  29.123  23.030  1.00  0.00     0.001 C 
ATOM     18  C   UNL A   1      27.874  30.087  21.921  1.00  0.00     0.000 C 
ENDBRANCH  12  13
ENDBRANCH   7  12
ENDBRANCH   4   7
ENDBRANCH   2   3
ENDBRANCH   1   2
BRANCH   1  19
ATOM     19  C   UNL A   1      35.532  30.598  28.049  1.00  0.00     0.118 C 
BRANCH  19  20
ATOM     20  N   UNL A   1      35.495  30.790  29.494  1.00  0.00    -0.352 N 
ATOM     21  C   UNL A   1      36.457  30.525  30.433  1.00  0.00     0.251 C 
ATOM     22  H   UNL A   1      34.655  31.164  29.846  1.00  0.00     0.163 HD
ATOM     23  O   UNL A   1      36.165  30.554  31.627  1.00  0.00    -0.269 OA
BRANCH  21  24
ATOM     24  C   UNL A   1      37.831  30.195  30.006  1.00  0.00     0.039 A 
ATOM     25  C   UNL A   1      38.795  29.916  30.977  1.00  0.00     0.014 A 
ATOM     26  C   UNL A   1      38.169  30.169  28.650  1.00  0.00     0.014 A 
ATOM     27  C   UNL A   1      40.085  29.560  30.582  1.00  0.00     0.010 A 
ATOM     28  C   UNL A   1      39.423  29.718  28.258  1.00  0.00     0.010 A 
ATOM     29  C   UNL A   1      40.401  29.428  29.219  1.00  0.00    -0.014 A 
BRANCH  29  30
ATOM     30  C   UNL A   1      41.757  29.010  28.782  1.00  0.00     0.031 A 
ATOM     31  C   UNL A   1      42.868  30.024  28.706  1.00  0.00     0.074 A 
ATOM     32  C   UNL A   1      41.969  27.736  28.402  1.00  0.00     0.049 A 
ATOM     33  N   UNL A   1      44.104  29.864  28.313  1.00  0.00    -0.248 NA
ATOM     34  C   UNL A   1      42.538  31.405  29.095  1.00  0.00     0.031 C 
ATOM     35  C   UNL A   1      40.955  26.680  28.375  1.00  0.00     0.029 A 
ATOM     36  N   UNL A   1      43.108  27.112  27.959  1.00  0.00    -0.354 N 
ATOM     37  C   UNL A   1      44.693  31.120  28.391  1.00  0.00     0.074 A 
ATOM     38  C   UNL A   1      43.661  32.044  28.807  1.00  0.00     0.031 C 
ATOM     39  C   UNL A   1      41.523  25.534  27.968  1.00  0.00     0.029 A 
ATOM     40  C   UNL A   1      42.929  25.781  27.667  1.00  0.00     0.049 A 
ATOM     41  H   UNL A   1      43.971  27.574  27.860  1.00  0.00     0.167 HD
ATOM     42  C   UNL A   1      45.981  31.468  28.164  1.00  0.00     0.037 A 
ATOM     43  C   UNL A   1      43.800  24.862  27.203  1.00  0.00     0.037 A 
ATOM     44  C   UNL A   1      47.004  30.535  27.770  1.00  0.00     0.049 A 
ATOM     45  C   UNL A   1      45.229  25.270  26.965  1.00  0.00     0.074 A 
ATOM     46  C   UNL A   1      48.354  30.770  27.576  1.00  0.00     0.029 A 
ATOM     47  N   UNL A   1      46.791  29.189  27.506  1.00  0.00    -0.354 N 
ATOM     48  N   UNL A   1      45.788  26.447  27.117  1.00  0.00    -0.248 NA
ATOM     49  C   UNL A   1      46.148  24.222  26.504  1.00  0.00     0.031 C 
ATOM     50  C   UNL A   1      48.946  29.579  27.140  1.00  0.00     0.029 A 
ATOM     51  C   UNL A   1      47.978  28.587  27.125  1.00  0.00     0.049 A 
ATOM     52  H   UNL A   1      45.923  28.731  27.579  1.00  0.00     0.167 HD
ATOM     53  C   UNL A   1      47.130  26.276  26.798  1.00  0.00     0.074 A 
ATOM     54  C   UNL A   1      47.300  24.878  26.458  1.00  0.00     0.031 C 
ATOM     55  C   UNL A   1      48.131  27.191  26.790  1.00  0.00     0.037 A 
BRANCH  42  56
ATOM     56  C   UNL A   1      46.353  32.918  28.331  1.00  0.00     0.058 A 
ATOM     57  C   UNL A   1      46.837  33.423  29.550  1.00  0.00     0.135 A 
ATOM     58  C   UNL A   1      46.243  33.811  27.254  1.00  0.00     0.135 A 
ATOM     59  F   UNL A   1      46.949  32.620  30.620  1.00  0.00    -0.206 F 
ATOM     60  C   UNL A   1      47.161  34.768  29.705  1.00  0.00     0.059 A 
ATOM     61  C   UNL A   1      46.594  35.154  27.377  1.00  0.00     0.059 A 
ATOM     62  F   UNL A   1      45.787  33.386  26.065  1.00  0.00    -0.206 F 
ATOM     63  C   UNL A   1      47.034  35.626  28.612  1.00  0.00     0.060 A 
BRANCH  63  64
ATOM     64  S   UNL A   1      47.455  37.367  28.831  1.00  0.00     0.124 S 
ATOM     65  O   UNL A   1      47.699  37.427  30.269  1.00  0.00    -0.237 OA
ATOM     66  O   UNL A   1      48.634  37.512  27.983  1.00  0.00    -0.237 OA
ATOM     67  O   UNL A   1      46.262  38.067  28.367  1.00  0.00    -0.744 OA
ENDBRANCH  63  64
ENDBRANCH  42  56
BRANCH  43  68
ATOM     68  C   UNL A   1      43.346  23.467  26.965  1.00  0.00     0.058 A 
ATOM     69  C   UNL A   1      43.121  22.992  25.665  1.00  0.00     0.135 A 
ATOM     70  C   UNL A   1      43.156  22.571  28.030  1.00  0.00     0.135 A 
ATOM     71  F   UNL A   1      43.283  23.810  24.614  1.00  0.00    -0.206 F 
ATOM     72  C   UNL A   1      42.712  21.682  25.427  1.00  0.00     0.059 A 
ATOM     73  C   UNL A   1      42.775  21.251  27.816  1.00  0.00     0.059 A 
ATOM     74  F   UNL A   1      43.376  22.971  29.292  1.00  0.00    -0.206 F 
ATOM     75  C   UNL A   1      42.548  20.817  26.510  1.00  0.00     0.060 A 
BRANCH  75  76
ATOM     76  S   UNL A   1      42.078  19.104  26.186  1.00  0.00     0.124 S 
ATOM     77  O   UNL A   1      42.985  18.750  25.100  1.00  0.00    -0.237 OA
ATOM     78  O   UNL A   1      42.343  18.468  27.473  1.00  0.00    -0.237 OA
ATOM     79  O   UNL A   1      40.668  19.205  25.824  1.00  0.00    -0.744 OA
ENDBRANCH  75  76
ENDBRANCH  43  68
BRANCH  55  80
ATOM     80  C   UNL A   1      49.512  26.704  26.440  1.00  0.00     0.058 A 
ATOM     81  C   UNL A   1      50.342  26.083  27.385  1.00  0.00     0.135 A 
ATOM     82  C   UNL A   1      49.990  26.819  25.124  1.00  0.00     0.135 A 
ATOM     83  F   UNL A   1      49.936  25.950  28.659  1.00  0.00    -0.206 F 
ATOM     84  C   UNL A   1      51.610  25.623  27.048  1.00  0.00     0.059 A 
ATOM     85  C   UNL A   1      51.242  26.337  24.756  1.00  0.00     0.059 A 
ATOM     86  F   UNL A   1      49.231  27.393  24.177  1.00  0.00    -0.206 F 
ATOM     87  C   UNL A   1      52.051  25.754  25.729  1.00  0.00     0.060 A 
BRANCH  87  88
ATOM     88  S   UNL A   1      53.691  25.134  25.299  1.00  0.00     0.124 S 
ATOM     89  O   UNL A   1      53.484  23.692  25.359  1.00  0.00    -0.237 OA
ATOM     90  O   UNL A   1      53.894  25.691  23.965  1.00  0.00    -0.237 OA
ATOM     91  O   UNL A   1      54.549  25.691  26.340  1.00  0.00    -0.744 OA
ENDBRANCH  87  88
ENDBRANCH  55  80
ENDBRANCH  29  30
ENDBRANCH  21  24
ENDBRANCH  19  20
ENDBRANCH   1  19
TORSDOF 15
ENDMDL
