MODEL 1
REMARK VINA RESULT:     -12.8      0.000      0.000
REMARK SMILES CC(C)CCn1nc(C(=O)NCCCNC(=O)c2ccc(-c3c4nc(c(-c5c(F)cc(S(=O)(=O)[O-])cc5F)c5ccc([nH]5)c(-c5c(F)cc(S(=O)(=O)[O-])cc5F)c5nc(c(-c6c(F)cc(S(=O)(=O)[O-])cc6F)c6ccc3[nH]6)C=C5)C=C4)cc2)c2c1CCN(C(=O)[C@@H]1CCc3nn(C)c(=O)n3C1)C2
REMARK SMILES IDX 13 1 12 2 11 3 9 4 10 5 8 7 6 8 7 9 85 10 84 11 86 12 102 13
REMARK SMILES IDX 87 14 88 15 5 16 4 17 2 18 1 19 3 20 89 21 90 22 91 23 92 24
REMARK SMILES IDX 101 25 93 26 100 27 94 28 98 29 95 30 96 31 99 32 97 33
REMARK SMILES IDX 14 34 15 35 16 36 17 38 18 39 19 40 83 41 20 42 82 43 21 44
REMARK SMILES IDX 22 45 23 46 76 47 24 48 81 49 75 50 77 51 25 52 80 53 74 54
REMARK SMILES IDX 73 55 26 57 60 58 39 59 59 60 40 61 43 62 58 63 78 64 41 65
REMARK SMILES IDX 42 66 57 68 79 69 44 70 27 71 28 72 37 73 29 74 30 75 36 76
REMARK SMILES IDX 38 77 31 78 32 79 33 80 34 81 35 82 61 83 62 84 71 85 63 86
REMARK SMILES IDX 64 87 70 88 72 89 65 90 66 91 67 92 68 93 69 94 45 95 46 96
REMARK SMILES IDX 55 97 47 98 48 99 54 100 56 101 49 102 50 103 51 104 52 105
REMARK SMILES IDX 53 106
REMARK H PARENT 11 6 15 37 77 56 43 67
REMARK Flexibility Score: inf
ROOT
ATOM      1  C   UNL A   1      39.550  31.488  31.745  1.00  0.00     0.042 C 
ENDROOT
BRANCH   1   2
ATOM      2  C   UNL A   1      38.041  31.491  31.423  1.00  0.00     0.118 C 
BRANCH   2   3
ATOM      3  N   UNL A   1      37.557  30.317  30.646  1.00  0.00    -0.351 N 
ATOM      4  C   UNL A   1      36.819  30.029  29.486  1.00  0.00     0.272 C 
ATOM      5  O   UNL A   1      37.078  28.910  29.024  1.00  0.00    -0.267 OA
ATOM      6  H   UNL A   1      37.845  29.482  31.080  1.00  0.00     0.163 HD
BRANCH   4   7
ATOM      7  C   UNL A   1      35.819  30.921  28.788  1.00  0.00     0.155 A 
ATOM      8  N   UNL A   1      34.595  32.699  28.409  1.00  0.00    -0.268 N 
ATOM      9  N   UNL A   1      35.661  32.235  29.127  1.00  0.00    -0.167 NA
ATOM     10  C   UNL A   1      33.923  31.690  27.797  1.00  0.00     0.046 A 
ATOM     11  C   UNL A   1      34.916  30.635  27.722  1.00  0.00     0.026 A 
ATOM     12  C   UNL A   1      32.290  31.698  27.231  1.00  0.00     0.078 C 
ATOM     13  C   UNL A   1      34.835  29.219  26.957  1.00  0.00     0.159 C 
ATOM     14  C   UNL A   1      31.650  30.039  26.539  1.00  0.00     0.126 C 
ATOM     15  N   UNL A   1      33.294  28.644  26.264  1.00  0.00    -0.338 N 
BRANCH   8  16
ATOM     16  C   UNL A   1      34.395  34.131  28.243  1.00  0.00     0.145 C 
BRANCH  16  17
ATOM     17  C   UNL A   1      33.034  34.727  28.662  1.00  0.00     0.027 C 
BRANCH  17  18
ATOM     18  C   UNL A   1      33.036  35.461  30.019  1.00  0.00    -0.016 C 
ATOM     19  C   UNL A   1      34.006  34.870  31.020  1.00  0.00     0.007 C 
ATOM     20  C   UNL A   1      33.255  36.972  29.843  1.00  0.00     0.007 C 
ENDBRANCH  17  18
ENDBRANCH  16  17
ENDBRANCH   8  16
BRANCH  15  21
ATOM     21  C   UNL A   1      33.720  27.536  25.277  1.00  0.00     0.227 C 
ATOM     22  O   UNL A   1      34.049  26.408  25.644  1.00  0.00    -0.274 OA
BRANCH  21  23
ATOM     23  C   UNL A   1      33.928  27.944  23.769  1.00  0.00     0.099 C 
ATOM     24  C   UNL A   1      32.806  28.852  23.185  1.00  0.00     0.023 C 
ATOM     25  C   UNL A   1      33.850  26.642  23.053  1.00  0.00     0.142 C 
ATOM     26  C   UNL A   1      31.532  28.675  23.953  1.00  0.00     0.078 C 
ATOM     27  N   UNL A   1      32.693  26.111  23.678  1.00  0.00    -0.278 N 
ATOM     28  C   UNL A   1      31.443  27.237  24.288  1.00  0.00     0.133 A 
ATOM     29  C   UNL A   1      33.129  24.766  24.803  1.00  0.00     0.345 A 
ATOM     30  N   UNL A   1      30.853  26.695  25.596  1.00  0.00    -0.155 NA
ATOM     31  N   UNL A   1      31.837  25.006  26.104  1.00  0.00    -0.216 N 
ATOM     32  O   UNL A   1      33.973  23.895  24.709  1.00  0.00    -0.246 OA
ATOM     33  C   UNL A   1      31.652  23.837  26.992  1.00  0.00     0.179 C 
ENDBRANCH  21  23
ENDBRANCH  15  21
ENDBRANCH   4   7
ENDBRANCH   2   3
ENDBRANCH   1   2
BRANCH   1  34
ATOM     34  C   UNL A   1      40.224  32.735  32.179  1.00  0.00     0.118 C 
BRANCH  34  35
ATOM     35  N   UNL A   1      40.613  33.644  31.090  1.00  0.00    -0.352 N 
ATOM     36  C   UNL A   1      41.855  33.622  30.447  1.00  0.00     0.251 C 
ATOM     37  H   UNL A   1      39.954  34.311  30.792  1.00  0.00     0.163 HD
ATOM     38  O   UNL A   1      42.301  34.598  29.860  1.00  0.00    -0.269 OA
BRANCH  36  39
ATOM     39  C   UNL A   1      42.571  32.328  30.481  1.00  0.00     0.039 A 
ATOM     40  C   UNL A   1      43.657  31.908  31.234  1.00  0.00     0.014 A 
ATOM     41  C   UNL A   1      42.137  31.423  29.552  1.00  0.00     0.014 A 
ATOM     42  C   UNL A   1      44.117  30.586  30.983  1.00  0.00     0.010 A 
ATOM     43  C   UNL A   1      42.058  30.149  29.976  1.00  0.00     0.010 A 
ATOM     44  C   UNL A   1      43.324  29.724  30.175  1.00  0.00    -0.014 A 
BRANCH  44  45
ATOM     45  C   UNL A   1      43.404  28.272  29.999  1.00  0.00     0.031 A 
ATOM     46  C   UNL A   1      44.062  27.737  31.231  1.00  0.00     0.074 A 
ATOM     47  C   UNL A   1      42.767  27.562  29.009  1.00  0.00     0.049 A 
ATOM     48  N   UNL A   1      45.346  27.706  31.407  1.00  0.00    -0.248 NA
ATOM     49  C   UNL A   1      43.341  27.653  32.529  1.00  0.00     0.031 C 
ATOM     50  C   UNL A   1      41.846  28.012  27.939  1.00  0.00     0.029 A 
ATOM     51  N   UNL A   1      42.850  26.211  28.708  1.00  0.00    -0.354 N 
ATOM     52  C   UNL A   1      45.519  27.107  32.647  1.00  0.00     0.074 A 
ATOM     53  C   UNL A   1      44.348  27.447  33.390  1.00  0.00     0.031 C 
ATOM     54  C   UNL A   1      41.286  26.951  27.289  1.00  0.00     0.029 A 
ATOM     55  C   UNL A   1      41.895  25.719  27.761  1.00  0.00     0.049 A 
ATOM     56  H   UNL A   1      43.524  25.624  29.122  1.00  0.00     0.167 HD
ATOM     57  C   UNL A   1      46.341  26.021  32.726  1.00  0.00     0.037 A 
ATOM     58  C   UNL A   1      41.785  24.428  27.277  1.00  0.00     0.037 A 
ATOM     59  C   UNL A   1      47.096  25.929  31.491  1.00  0.00     0.049 A 
ATOM     60  C   UNL A   1      43.097  23.804  27.580  1.00  0.00     0.074 A 
ATOM     61  C   UNL A   1      48.084  26.673  30.877  1.00  0.00     0.029 A 
ATOM     62  N   UNL A   1      46.375  25.318  30.494  1.00  0.00    -0.354 N 
ATOM     63  N   UNL A   1      44.211  24.201  27.023  1.00  0.00    -0.248 NA
ATOM     64  C   UNL A   1      43.219  23.169  28.881  1.00  0.00     0.031 C 
ATOM     65  C   UNL A   1      47.825  26.594  29.473  1.00  0.00     0.029 A 
ATOM     66  C   UNL A   1      46.804  25.673  29.251  1.00  0.00     0.049 A 
ATOM     67  H   UNL A   1      45.632  24.694  30.660  1.00  0.00     0.167 HD
ATOM     68  C   UNL A   1      45.102  24.287  28.080  1.00  0.00     0.074 A 
ATOM     69  C   UNL A   1      44.462  23.554  29.182  1.00  0.00     0.031 C 
ATOM     70  C   UNL A   1      46.093  25.232  28.072  1.00  0.00     0.037 A 
BRANCH  57  71
ATOM     71  C   UNL A   1      46.080  24.778  33.560  1.00  0.00     0.058 A 
ATOM     72  C   UNL A   1      47.124  24.292  34.378  1.00  0.00     0.135 A 
ATOM     73  C   UNL A   1      44.978  23.903  33.420  1.00  0.00     0.135 A 
ATOM     74  F   UNL A   1      48.231  25.025  34.576  1.00  0.00    -0.206 F 
ATOM     75  C   UNL A   1      47.088  23.033  34.980  1.00  0.00     0.059 A 
ATOM     76  C   UNL A   1      44.904  22.660  34.043  1.00  0.00     0.059 A 
ATOM     77  F   UNL A   1      43.940  24.171  32.619  1.00  0.00    -0.206 F 
ATOM     78  C   UNL A   1      45.969  22.225  34.812  1.00  0.00     0.060 A 
BRANCH  78  79
ATOM     79  S   UNL A   1      45.913  20.622  35.630  1.00  0.00     0.124 S 
ATOM     80  O   UNL A   1      45.694  21.001  37.020  1.00  0.00    -0.237 OA
ATOM     81  O   UNL A   1      44.785  19.987  34.954  1.00  0.00    -0.237 OA
ATOM     82  O   UNL A   1      47.219  20.043  35.330  1.00  0.00    -0.744 OA
ENDBRANCH  78  79
ENDBRANCH  57  71
BRANCH  58  83
ATOM     83  C   UNL A   1      40.583  23.526  27.042  1.00  0.00     0.058 A 
ATOM     84  C   UNL A   1      39.225  23.947  27.137  1.00  0.00     0.135 A 
ATOM     85  C   UNL A   1      40.767  22.310  26.371  1.00  0.00     0.135 A 
ATOM     86  F   UNL A   1      38.919  25.115  27.727  1.00  0.00    -0.206 F 
ATOM     87  C   UNL A   1      38.143  23.218  26.578  1.00  0.00     0.059 A 
ATOM     88  C   UNL A   1      39.716  21.578  25.797  1.00  0.00     0.059 A 
ATOM     89  F   UNL A   1      42.007  21.843  26.166  1.00  0.00    -0.206 F 
ATOM     90  C   UNL A   1      38.405  22.037  25.887  1.00  0.00     0.060 A 
BRANCH  90  91
ATOM     91  S   UNL A   1      37.075  21.141  25.018  1.00  0.00     0.124 S 
ATOM     92  O   UNL A   1      35.978  21.204  25.978  1.00  0.00    -0.237 OA
ATOM     93  O   UNL A   1      36.899  21.929  23.803  1.00  0.00    -0.237 OA
ATOM     94  O   UNL A   1      37.642  19.809  24.815  1.00  0.00    -0.744 OA
ENDBRANCH  90  91
ENDBRANCH  58  83
BRANCH  70  95
ATOM     95  C   UNL A   1      46.486  25.863  26.763  1.00  0.00     0.058 A 
ATOM     96  C   UNL A   1      46.130  27.140  26.289  1.00  0.00     0.135 A 
ATOM     97  C   UNL A   1      47.417  25.138  26.009  1.00  0.00     0.135 A 
ATOM     98  F   UNL A   1      45.308  27.933  26.992  1.00  0.00    -0.206 F 
ATOM     99  C   UNL A   1      46.662  27.652  25.097  1.00  0.00     0.059 A 
ATOM    100  C   UNL A   1      47.979  25.636  24.846  1.00  0.00     0.059 A 
ATOM    101  F   UNL A   1      47.839  23.938  26.443  1.00  0.00    -0.206 F 
ATOM    102  C   UNL A   1      47.587  26.886  24.380  1.00  0.00     0.060 A 
BRANCH 102 103
ATOM    103  S   UNL A   1      48.307  27.521  22.851  1.00  0.00     0.124 S 
ATOM    104  O   UNL A   1      47.243  28.380  22.343  1.00  0.00    -0.237 OA
ATOM    105  O   UNL A   1      49.505  28.206  23.325  1.00  0.00    -0.237 OA
ATOM    106  O   UNL A   1      48.559  26.315  22.065  1.00  0.00    -0.744 OA
ENDBRANCH 102 103
ENDBRANCH  70  95
ENDBRANCH  44  45
ENDBRANCH  36  39
ENDBRANCH  34  35
ENDBRANCH   1  34
TORSDOF 18
ENDMDL
MODEL 2
REMARK VINA RESULT:     -12.0      6.948     13.643
REMARK SMILES CC(C)CCn1nc(C(=O)NCCCNC(=O)c2ccc(-c3c4nc(c(-c5c(F)cc(S(=O)(=O)[O-])cc5F)c5ccc([nH]5)c(-c5c(F)cc(S(=O)(=O)[O-])cc5F)c5nc(c(-c6c(F)cc(S(=O)(=O)[O-])cc6F)c6ccc3[nH]6)C=C5)C=C4)cc2)c2c1CCN(C(=O)[C@@H]1CCc3nn(C)c(=O)n3C1)C2
REMARK SMILES IDX 13 1 12 2 11 3 9 4 10 5 8 7 6 8 7 9 85 10 84 11 86 12 102 13
REMARK SMILES IDX 87 14 88 15 5 16 4 17 2 18 1 19 3 20 89 21 90 22 91 23 92 24
REMARK SMILES IDX 101 25 93 26 100 27 94 28 98 29 95 30 96 31 99 32 97 33
REMARK SMILES IDX 14 34 15 35 16 36 17 38 18 39 19 40 83 41 20 42 82 43 21 44
REMARK SMILES IDX 22 45 23 46 76 47 24 48 81 49 75 50 77 51 25 52 80 53 74 54
REMARK SMILES IDX 73 55 26 57 60 58 39 59 59 60 40 61 43 62 58 63 78 64 41 65
REMARK SMILES IDX 42 66 57 68 79 69 44 70 27 71 28 72 37 73 29 74 30 75 36 76
REMARK SMILES IDX 38 77 31 78 32 79 33 80 34 81 35 82 61 83 62 84 71 85 63 86
REMARK SMILES IDX 64 87 70 88 72 89 65 90 66 91 67 92 68 93 69 94 45 95 46 96
REMARK SMILES IDX 55 97 47 98 48 99 54 100 56 101 49 102 50 103 51 104 52 105
REMARK SMILES IDX 53 106
REMARK H PARENT 11 6 15 37 77 56 43 67
REMARK Flexibility Score: inf
ROOT
ATOM      1  C   UNL A   1      43.998  32.271  34.298  1.00  0.00     0.042 C 
ENDROOT
BRANCH   1   2
ATOM      2  C   UNL A   1      42.742  32.137  33.410  1.00  0.00     0.118 C 
BRANCH   2   3
ATOM      3  N   UNL A   1      42.864  32.724  32.047  1.00  0.00    -0.351 N 
ATOM      4  C   UNL A   1      42.140  32.806  30.847  1.00  0.00     0.272 C 
ATOM      5  O   UNL A   1      42.464  33.784  30.162  1.00  0.00    -0.267 OA
ATOM      6  H   UNL A   1      43.717  33.207  31.962  1.00  0.00     0.163 HD
BRANCH   4   7
ATOM      7  C   UNL A   1      41.053  31.873  30.364  1.00  0.00     0.155 A 
ATOM      8  N   UNL A   1      40.130  30.236  29.236  1.00  0.00    -0.268 N 
ATOM      9  N   UNL A   1      41.332  30.764  29.614  1.00  0.00    -0.167 NA
ATOM     10  C   UNL A   1      39.100  31.076  29.516  1.00  0.00     0.046 A 
ATOM     11  C   UNL A   1      39.642  31.919  30.565  1.00  0.00     0.026 A 
ATOM     12  C   UNL A   1      37.528  31.097  28.799  1.00  0.00     0.078 C 
ATOM     13  C   UNL A   1      38.891  33.018  31.472  1.00  0.00     0.159 C 
ATOM     14  C   UNL A   1      36.386  32.518  29.360  1.00  0.00     0.126 C 
ATOM     15  N   UNL A   1      37.227  33.535  31.088  1.00  0.00    -0.338 N 
BRANCH   8  16
ATOM     16  C   UNL A   1      40.054  28.863  28.760  1.00  0.00     0.145 C 
BRANCH  16  17
ATOM     17  C   UNL A   1      40.887  27.792  29.497  1.00  0.00     0.027 C 
BRANCH  17  18
ATOM     18  C   UNL A   1      40.841  26.385  28.864  1.00  0.00    -0.016 C 
ATOM     19  C   UNL A   1      39.658  26.178  27.944  1.00  0.00     0.007 C 
ATOM     20  C   UNL A   1      42.168  26.036  28.170  1.00  0.00     0.007 C 
ENDBRANCH  17  18
ENDBRANCH  16  17
ENDBRANCH   8  16
BRANCH  15  21
ATOM     21  C   UNL A   1      36.737  34.210  32.385  1.00  0.00     0.227 C 
ATOM     22  O   UNL A   1      36.306  35.363  32.415  1.00  0.00    -0.274 OA
BRANCH  21  23
ATOM     23  C   UNL A   1      36.993  33.452  33.743  1.00  0.00     0.099 C 
ATOM     24  C   UNL A   1      36.730  31.918  33.685  1.00  0.00     0.023 C 
ATOM     25  C   UNL A   1      35.970  34.034  34.654  1.00  0.00     0.142 C 
ATOM     26  C   UNL A   1      35.773  31.589  32.581  1.00  0.00     0.078 C 
ATOM     27  N   UNL A   1      34.842  33.966  33.798  1.00  0.00    -0.278 N 
ATOM     28  C   UNL A   1      34.769  32.676  32.560  1.00  0.00     0.133 A 
ATOM     29  C   UNL A   1      34.372  35.612  33.219  1.00  0.00     0.345 A 
ATOM     30  N   UNL A   1      34.122  33.223  31.281  1.00  0.00    -0.155 NA
ATOM     31  N   UNL A   1      33.747  35.191  31.531  1.00  0.00    -0.216 N 
ATOM     32  O   UNL A   1      34.382  36.686  33.790  1.00  0.00    -0.246 OA
ATOM     33  C   UNL A   1      32.919  36.251  30.914  1.00  0.00     0.179 C 
ENDBRANCH  21  23
ENDBRANCH  15  21
ENDBRANCH   4   7
ENDBRANCH   2   3
ENDBRANCH   1   2
BRANCH   1  34
ATOM     34  C   UNL A   1      44.266  33.533  35.028  1.00  0.00     0.118 C 
BRANCH  34  35
ATOM     35  N   UNL A   1      43.067  34.275  35.447  1.00  0.00    -0.352 N 
ATOM     36  C   UNL A   1      42.924  35.663  35.356  1.00  0.00     0.251 C 
ATOM     37  H   UNL A   1      42.314  33.759  35.814  1.00  0.00     0.163 HD
ATOM     38  O   UNL A   1      42.134  36.283  36.055  1.00  0.00    -0.269 OA
BRANCH  36  39
ATOM     39  C   UNL A   1      43.755  36.326  34.327  1.00  0.00     0.039 A 
ATOM     40  C   UNL A   1      44.915  37.078  34.438  1.00  0.00     0.014 A 
ATOM     41  C   UNL A   1      43.242  36.252  33.061  1.00  0.00     0.014 A 
ATOM     42  C   UNL A   1      45.437  37.603  33.225  1.00  0.00     0.010 A 
ATOM     43  C   UNL A   1      44.140  36.034  32.084  1.00  0.00     0.010 A 
ATOM     44  C   UNL A   1      44.895  37.150  31.989  1.00  0.00    -0.014 A 
BRANCH  44  45
ATOM     45  C   UNL A   1      45.419  37.293  30.630  1.00  0.00     0.031 A 
ATOM     46  C   UNL A   1      44.568  38.324  29.960  1.00  0.00     0.074 A 
ATOM     47  C   UNL A   1      46.604  36.758  30.182  1.00  0.00     0.049 A 
ATOM     48  N   UNL A   1      43.425  38.067  29.406  1.00  0.00    -0.248 NA
ATOM     49  C   UNL A   1      44.695  39.771  30.280  1.00  0.00     0.031 C 
ATOM     50  C   UNL A   1      47.644  35.981  30.897  1.00  0.00     0.029 A 
ATOM     51  N   UNL A   1      47.139  36.763  28.903  1.00  0.00    -0.354 N 
ATOM     52  C   UNL A   1      43.003  39.281  28.882  1.00  0.00     0.074 A 
ATOM     53  C   UNL A   1      43.578  40.272  29.735  1.00  0.00     0.031 C 
ATOM     54  C   UNL A   1      48.756  35.813  30.124  1.00  0.00     0.029 A 
ATOM     55  C   UNL A   1      48.497  36.324  28.789  1.00  0.00     0.049 A 
ATOM     56  H   UNL A   1      46.617  37.051  28.119  1.00  0.00     0.167 HD
ATOM     57  C   UNL A   1      42.668  39.328  27.560  1.00  0.00     0.037 A 
ATOM     58  C   UNL A   1      49.246  36.210  27.631  1.00  0.00     0.037 A 
ATOM     59  C   UNL A   1      42.551  37.967  27.071  1.00  0.00     0.049 A 
ATOM     60  C   UNL A   1      48.242  36.195  26.538  1.00  0.00     0.074 A 
ATOM     61  C   UNL A   1      41.692  36.908  27.285  1.00  0.00     0.029 A 
ATOM     62  N   UNL A   1      43.775  37.433  26.747  1.00  0.00    -0.354 N 
ATOM     63  N   UNL A   1      47.378  35.226  26.390  1.00  0.00    -0.248 NA
ATOM     64  C   UNL A   1      47.852  37.490  26.007  1.00  0.00     0.031 C 
ATOM     65  C   UNL A   1      42.494  35.726  27.219  1.00  0.00     0.029 A 
ATOM     66  C   UNL A   1      43.776  36.071  26.797  1.00  0.00     0.049 A 
ATOM     67  H   UNL A   1      44.562  37.972  26.506  1.00  0.00     0.167 HD
ATOM     68  C   UNL A   1      46.175  35.878  26.171  1.00  0.00     0.074 A 
ATOM     69  C   UNL A   1      46.545  37.267  25.857  1.00  0.00     0.031 C 
ATOM     70  C   UNL A   1      45.001  35.328  26.611  1.00  0.00     0.037 A 
BRANCH  57  71
ATOM     71  C   UNL A   1      43.006  40.460  26.605  1.00  0.00     0.058 A 
ATOM     72  C   UNL A   1      41.975  40.973  25.788  1.00  0.00     0.135 A 
ATOM     73  C   UNL A   1      44.308  40.896  26.266  1.00  0.00     0.135 A 
ATOM     74  F   UNL A   1      40.697  40.621  26.001  1.00  0.00    -0.206 F 
ATOM     75  C   UNL A   1      42.220  41.823  24.707  1.00  0.00     0.059 A 
ATOM     76  C   UNL A   1      44.571  41.774  25.217  1.00  0.00     0.059 A 
ATOM     77  F   UNL A   1      45.405  40.446  26.885  1.00  0.00    -0.206 F 
ATOM     78  C   UNL A   1      43.522  42.224  24.433  1.00  0.00     0.060 A 
BRANCH  78  79
ATOM     79  S   UNL A   1      43.824  43.356  23.065  1.00  0.00     0.124 S 
ATOM     80  O   UNL A   1      44.092  42.436  21.967  1.00  0.00    -0.237 OA
ATOM     81  O   UNL A   1      42.558  44.080  22.999  1.00  0.00    -0.237 OA
ATOM     82  O   UNL A   1      44.964  44.145  23.524  1.00  0.00    -0.744 OA
ENDBRANCH  78  79
ENDBRANCH  57  71
BRANCH  58  83
ATOM     83  C   UNL A   1      50.679  36.599  27.302  1.00  0.00     0.058 A 
ATOM     84  C   UNL A   1      51.549  35.848  26.459  1.00  0.00     0.135 A 
ATOM     85  C   UNL A   1      51.096  37.917  27.539  1.00  0.00     0.135 A 
ATOM     86  F   UNL A   1      51.241  34.583  26.127  1.00  0.00    -0.206 F 
ATOM     87  C   UNL A   1      52.727  36.387  25.878  1.00  0.00     0.059 A 
ATOM     88  C   UNL A   1      52.250  38.476  26.966  1.00  0.00     0.059 A 
ATOM     89  F   UNL A   1      50.328  38.739  28.268  1.00  0.00    -0.206 F 
ATOM     90  C   UNL A   1      53.058  37.718  26.124  1.00  0.00     0.060 A 
BRANCH  90  91
ATOM     91  S   UNL A   1      54.473  38.505  25.285  1.00  0.00     0.124 S 
ATOM     92  O   UNL A   1      55.401  38.735  26.388  1.00  0.00    -0.237 OA
ATOM     93  O   UNL A   1      54.878  37.490  24.319  1.00  0.00    -0.237 OA
ATOM     94  O   UNL A   1      53.891  39.714  24.706  1.00  0.00    -0.744 OA
ENDBRANCH  90  91
ENDBRANCH  58  83
BRANCH  70  95
ATOM     95  C   UNL A   1      44.960  33.855  26.921  1.00  0.00     0.058 A 
ATOM     96  C   UNL A   1      45.196  33.238  28.164  1.00  0.00     0.135 A 
ATOM     97  C   UNL A   1      44.503  33.040  25.879  1.00  0.00     0.135 A 
ATOM     98  F   UNL A   1      45.557  33.959  29.236  1.00  0.00    -0.206 F 
ATOM     99  C   UNL A   1      45.010  31.858  28.343  1.00  0.00     0.059 A 
ATOM    100  C   UNL A   1      44.283  31.682  26.040  1.00  0.00     0.059 A 
ATOM    101  F   UNL A   1      44.204  33.584  24.687  1.00  0.00    -0.206 F 
ATOM    102  C   UNL A   1      44.555  31.089  27.268  1.00  0.00     0.060 A 
BRANCH 102 103
ATOM    103  S   UNL A   1      44.286  29.314  27.466  1.00  0.00     0.124 S 
ATOM    104  O   UNL A   1      43.006  29.119  26.794  1.00  0.00    -0.237 OA
ATOM    105  O   UNL A   1      45.450  28.741  26.797  1.00  0.00    -0.237 OA
ATOM    106  O   UNL A   1      44.260  29.133  28.916  1.00  0.00    -0.744 OA
ENDBRANCH 102 103
ENDBRANCH  70  95
ENDBRANCH  44  45
ENDBRANCH  36  39
ENDBRANCH  34  35
ENDBRANCH   1  34
TORSDOF 18
ENDMDL
MODEL 3
REMARK VINA RESULT:     -11.9      4.382      7.482
REMARK SMILES CC(C)CCn1nc(C(=O)NCCCNC(=O)c2ccc(-c3c4nc(c(-c5c(F)cc(S(=O)(=O)[O-])cc5F)c5ccc([nH]5)c(-c5c(F)cc(S(=O)(=O)[O-])cc5F)c5nc(c(-c6c(F)cc(S(=O)(=O)[O-])cc6F)c6ccc3[nH]6)C=C5)C=C4)cc2)c2c1CCN(C(=O)[C@@H]1CCc3nn(C)c(=O)n3C1)C2
REMARK SMILES IDX 13 1 12 2 11 3 9 4 10 5 8 7 6 8 7 9 85 10 84 11 86 12 102 13
REMARK SMILES IDX 87 14 88 15 5 16 4 17 2 18 1 19 3 20 89 21 90 22 91 23 92 24
REMARK SMILES IDX 101 25 93 26 100 27 94 28 98 29 95 30 96 31 99 32 97 33
REMARK SMILES IDX 14 34 15 35 16 36 17 38 18 39 19 40 83 41 20 42 82 43 21 44
REMARK SMILES IDX 22 45 23 46 76 47 24 48 81 49 75 50 77 51 25 52 80 53 74 54
REMARK SMILES IDX 73 55 26 57 60 58 39 59 59 60 40 61 43 62 58 63 78 64 41 65
REMARK SMILES IDX 42 66 57 68 79 69 44 70 27 71 28 72 37 73 29 74 30 75 36 76
REMARK SMILES IDX 38 77 31 78 32 79 33 80 34 81 35 82 61 83 62 84 71 85 63 86
REMARK SMILES IDX 64 87 70 88 72 89 65 90 66 91 67 92 68 93 69 94 45 95 46 96
REMARK SMILES IDX 55 97 47 98 48 99 54 100 56 101 49 102 50 103 51 104 52 105
REMARK SMILES IDX 53 106
REMARK H PARENT 11 6 15 37 77 56 43 67
REMARK Flexibility Score: inf
ROOT
ATOM      1  C   UNL A   1      41.824  34.816  29.423  1.00  0.00     0.042 C 
ENDROOT
BRANCH   1   2
ATOM      2  C   UNL A   1      40.450  35.001  28.743  1.00  0.00     0.118 C 
BRANCH   2   3
ATOM      3  N   UNL A   1      39.275  34.633  29.579  1.00  0.00    -0.351 N 
ATOM      4  C   UNL A   1      38.807  33.563  30.357  1.00  0.00     0.272 C 
ATOM      5  O   UNL A   1      37.986  33.920  31.213  1.00  0.00    -0.267 OA
ATOM      6  H   UNL A   1      38.623  35.370  29.590  1.00  0.00     0.163 HD
BRANCH   4   7
ATOM      7  C   UNL A   1      39.211  32.109  30.261  1.00  0.00     0.155 A 
ATOM      8  N   UNL A   1      39.152  30.021  29.598  1.00  0.00    -0.268 N 
ATOM      9  N   UNL A   1      38.685  31.273  29.316  1.00  0.00    -0.167 NA
ATOM     10  C   UNL A   1      39.770  29.975  30.807  1.00  0.00     0.046 A 
ATOM     11  C   UNL A   1      40.142  31.358  31.037  1.00  0.00     0.026 A 
ATOM     12  C   UNL A   1      40.054  28.587  31.797  1.00  0.00     0.078 C 
ATOM     13  C   UNL A   1      41.058  31.980  32.207  1.00  0.00     0.159 C 
ATOM     14  C   UNL A   1      40.838  28.936  33.500  1.00  0.00     0.126 C 
ATOM     15  N   UNL A   1      41.557  30.986  33.602  1.00  0.00    -0.338 N 
BRANCH   8  16
ATOM     16  C   UNL A   1      39.099  28.977  28.586  1.00  0.00     0.145 C 
BRANCH  16  17
ATOM     17  C   UNL A   1      39.954  29.154  27.313  1.00  0.00     0.027 C 
BRANCH  17  18
ATOM     18  C   UNL A   1      41.203  28.252  27.240  1.00  0.00    -0.016 C 
ATOM     19  C   UNL A   1      41.491  27.517  28.531  1.00  0.00     0.007 C 
ATOM     20  C   UNL A   1      41.134  27.289  26.043  1.00  0.00     0.007 C 
ENDBRANCH  17  18
ENDBRANCH  16  17
ENDBRANCH   8  16
BRANCH  15  21
ATOM     21  C   UNL A   1      42.733  31.771  34.218  1.00  0.00     0.227 C 
ATOM     22  O   UNL A   1      43.013  32.923  33.885  1.00  0.00    -0.274 OA
BRANCH  21  23
ATOM     23  C   UNL A   1      43.722  30.984  35.160  1.00  0.00     0.099 C 
ATOM     24  C   UNL A   1      43.044  29.888  36.036  1.00  0.00     0.023 C 
ATOM     25  C   UNL A   1      44.216  32.036  36.088  1.00  0.00     0.142 C 
ATOM     26  C   UNL A   1      41.590  30.193  36.229  1.00  0.00     0.078 C 
ATOM     27  N   UNL A   1      42.979  32.650  36.412  1.00  0.00    -0.278 N 
ATOM     28  C   UNL A   1      41.488  31.661  36.385  1.00  0.00     0.133 A 
ATOM     29  C   UNL A   1      42.839  34.272  35.628  1.00  0.00     0.345 A 
ATOM     30  N   UNL A   1      40.321  32.502  35.854  1.00  0.00    -0.155 NA
ATOM     31  N   UNL A   1      41.018  34.319  35.314  1.00  0.00    -0.216 N 
ATOM     32  O   UNL A   1      43.677  35.131  35.428  1.00  0.00    -0.246 OA
ATOM     33  C   UNL A   1      40.490  35.672  35.030  1.00  0.00     0.179 C 
ENDBRANCH  21  23
ENDBRANCH  15  21
ENDBRANCH   4   7
ENDBRANCH   2   3
ENDBRANCH   1   2
BRANCH   1  34
ATOM     34  C   UNL A   1      43.073  35.028  28.654  1.00  0.00     0.118 C 
BRANCH  34  35
ATOM     35  N   UNL A   1      42.900  35.104  27.195  1.00  0.00    -0.352 N 
ATOM     36  C   UNL A   1      43.721  34.456  26.266  1.00  0.00     0.251 C 
ATOM     37  H   UNL A   1      42.155  35.646  26.849  1.00  0.00     0.163 HD
ATOM     38  O   UNL A   1      43.822  34.839  25.109  1.00  0.00    -0.269 OA
BRANCH  36  39
ATOM     39  C   UNL A   1      44.420  33.250  26.761  1.00  0.00     0.039 A 
ATOM     40  C   UNL A   1      45.636  33.105  27.413  1.00  0.00     0.014 A 
ATOM     41  C   UNL A   1      43.797  32.073  26.447  1.00  0.00     0.014 A 
ATOM     42  C   UNL A   1      46.025  31.772  27.718  1.00  0.00     0.010 A 
ATOM     43  C   UNL A   1      43.799  31.140  27.415  1.00  0.00     0.010 A 
ATOM     44  C   UNL A   1      45.076  30.724  27.555  1.00  0.00    -0.014 A 
BRANCH  44  45
ATOM     45  C   UNL A   1      45.108  29.348  28.055  1.00  0.00     0.031 A 
ATOM     46  C   UNL A   1      45.014  29.442  29.545  1.00  0.00     0.074 A 
ATOM     47  C   UNL A   1      44.994  28.223  27.273  1.00  0.00     0.049 A 
ATOM     48  N   UNL A   1      46.030  29.661  30.319  1.00  0.00    -0.248 NA
ATOM     49  C   UNL A   1      43.736  29.779  30.228  1.00  0.00     0.031 C 
ATOM     50  C   UNL A   1      44.774  28.079  25.815  1.00  0.00     0.029 A 
ATOM     51  N   UNL A   1      45.100  26.889  27.637  1.00  0.00    -0.354 N 
ATOM     52  C   UNL A   1      45.508  29.633  31.605  1.00  0.00     0.074 A 
ATOM     53  C   UNL A   1      44.156  30.072  31.466  1.00  0.00     0.031 C 
ATOM     54  C   UNL A   1      44.525  26.781  25.477  1.00  0.00     0.029 A 
ATOM     55  C   UNL A   1      44.708  25.935  26.644  1.00  0.00     0.049 A 
ATOM     56  H   UNL A   1      45.424  26.614  28.525  1.00  0.00     0.167 HD
ATOM     57  C   UNL A   1      46.084  28.792  32.513  1.00  0.00     0.037 A 
ATOM     58  C   UNL A   1      44.745  24.555  26.747  1.00  0.00     0.037 A 
ATOM     59  C   UNL A   1      47.344  28.326  31.967  1.00  0.00     0.049 A 
ATOM     60  C   UNL A   1      45.670  24.292  27.877  1.00  0.00     0.074 A 
ATOM     61  C   UNL A   1      48.566  28.895  31.670  1.00  0.00     0.029 A 
ATOM     62  N   UNL A   1      47.168  27.276  31.099  1.00  0.00    -0.354 N 
ATOM     63  N   UNL A   1      46.942  24.587  27.828  1.00  0.00    -0.248 NA
ATOM     64  C   UNL A   1      45.071  24.247  29.200  1.00  0.00     0.031 C 
ATOM     65  C   UNL A   1      49.038  28.231  30.495  1.00  0.00     0.029 A 
ATOM     66  C   UNL A   1      48.190  27.165  30.204  1.00  0.00     0.049 A 
ATOM     67  H   UNL A   1      46.391  26.672  31.120  1.00  0.00     0.167 HD
ATOM     68  C   UNL A   1      47.190  25.207  29.042  1.00  0.00     0.074 A 
ATOM     69  C   UNL A   1      46.024  24.889  29.879  1.00  0.00     0.031 C 
ATOM     70  C   UNL A   1      48.129  26.200  29.131  1.00  0.00     0.037 A 
BRANCH  57  71
ATOM     71  C   UNL A   1      45.335  27.958  33.539  1.00  0.00     0.058 A 
ATOM     72  C   UNL A   1      45.841  27.910  34.856  1.00  0.00     0.135 A 
ATOM     73  C   UNL A   1      44.317  27.018  33.257  1.00  0.00     0.135 A 
ATOM     74  F   UNL A   1      46.822  28.743  35.240  1.00  0.00    -0.206 F 
ATOM     75  C   UNL A   1      45.394  26.987  35.804  1.00  0.00     0.059 A 
ATOM     76  C   UNL A   1      43.829  26.115  34.198  1.00  0.00     0.059 A 
ATOM     77  F   UNL A   1      43.784  26.874  32.039  1.00  0.00    -0.206 F 
ATOM     78  C   UNL A   1      44.381  26.096  35.467  1.00  0.00     0.060 A 
BRANCH  78  79
ATOM     79  S   UNL A   1      43.779  24.940  36.710  1.00  0.00     0.124 S 
ATOM     80  O   UNL A   1      44.790  23.891  36.658  1.00  0.00    -0.237 OA
ATOM     81  O   UNL A   1      43.779  25.772  37.910  1.00  0.00    -0.237 OA
ATOM     82  O   UNL A   1      42.456  24.570  36.214  1.00  0.00    -0.744 OA
ENDBRANCH  78  79
ENDBRANCH  57  71
BRANCH  58  83
ATOM     83  C   UNL A   1      43.748  23.477  26.351  1.00  0.00     0.058 A 
ATOM     84  C   UNL A   1      44.099  22.230  25.755  1.00  0.00     0.135 A 
ATOM     85  C   UNL A   1      42.452  23.521  26.883  1.00  0.00     0.135 A 
ATOM     86  F   UNL A   1      45.326  22.049  25.241  1.00  0.00    -0.206 F 
ATOM     87  C   UNL A   1      43.227  21.110  25.724  1.00  0.00     0.059 A 
ATOM     88  C   UNL A   1      41.577  22.423  26.876  1.00  0.00     0.059 A 
ATOM     89  F   UNL A   1      42.032  24.621  27.523  1.00  0.00    -0.206 F 
ATOM     90  C   UNL A   1      41.967  21.213  26.310  1.00  0.00     0.060 A 
BRANCH  90  91
ATOM     91  S   UNL A   1      40.867  19.764  26.435  1.00  0.00     0.124 S 
ATOM     92  O   UNL A   1      39.649  20.242  25.788  1.00  0.00    -0.237 OA
ATOM     93  O   UNL A   1      41.606  18.737  25.709  1.00  0.00    -0.237 OA
ATOM     94  O   UNL A   1      40.757  19.547  27.875  1.00  0.00    -0.744 OA
ENDBRANCH  90  91
ENDBRANCH  58  83
BRANCH  70  95
ATOM     95  C   UNL A   1      49.176  26.309  28.055  1.00  0.00     0.058 A 
ATOM     96  C   UNL A   1      49.152  27.143  26.921  1.00  0.00     0.135 A 
ATOM     97  C   UNL A   1      50.355  25.594  28.298  1.00  0.00     0.135 A 
ATOM     98  F   UNL A   1      48.092  27.923  26.660  1.00  0.00    -0.206 F 
ATOM     99  C   UNL A   1      50.251  27.231  26.054  1.00  0.00     0.059 A 
ATOM    100  C   UNL A   1      51.464  25.689  27.474  1.00  0.00     0.059 A 
ATOM    101  F   UNL A   1      50.458  24.828  29.397  1.00  0.00    -0.206 F 
ATOM    102  C   UNL A   1      51.404  26.494  26.341  1.00  0.00     0.060 A 
BRANCH 102 103
ATOM    103  S   UNL A   1      52.846  26.598  25.258  1.00  0.00     0.124 S 
ATOM    104  O   UNL A   1      52.388  27.518  24.223  1.00  0.00    -0.237 OA
ATOM    105  O   UNL A   1      53.879  27.109  26.153  1.00  0.00    -0.237 OA
ATOM    106  O   UNL A   1      53.043  25.217  24.819  1.00  0.00    -0.744 OA
ENDBRANCH 102 103
ENDBRANCH  70  95
ENDBRANCH  44  45
ENDBRANCH  36  39
ENDBRANCH  34  35
ENDBRANCH   1  34
TORSDOF 18
ENDMDL
