MODEL 1
REMARK VINA RESULT:     -12.0      0.000      0.000
REMARK SMILES C[C@H](NC(=O)[C@]1(C)Sc2ccccc2NC1=O)C(=O)NCCCNC(=O)c1ccc(-c2c3nc(c(-c4c(F)cc(S(=O)(=O)[O-])cc4F)c4ccc([nH]4)c(-c4c(F)cc(S(=O)(=O)[O-])cc4F)c4nc(c(-c5c(F)cc(S(=O)(=O)[O-])cc5F)c5ccc2[nH]5)C=C4)C=C3)cc1
REMARK SMILES IDX 22 1 21 2 20 3 18 4 19 5 2 7 1 8 3 9 4 10 5 12 6 13 8 14
REMARK SMILES IDX 16 15 7 16 9 17 15 18 17 19 10 20 14 21 11 23 13 24 12 25
REMARK SMILES IDX 23 26 24 27 25 28 26 30 27 31 28 32 92 33 29 34 91 35 30 36
REMARK SMILES IDX 31 37 32 38 85 39 33 40 90 41 84 42 86 43 34 44 89 45 83 46
REMARK SMILES IDX 82 47 35 49 69 50 48 51 68 52 49 53 52 54 67 55 87 56 50 57
REMARK SMILES IDX 51 58 66 60 88 61 53 62 36 63 37 64 46 65 38 66 39 67 45 68
REMARK SMILES IDX 47 69 40 70 41 71 42 72 43 73 44 74 70 75 71 76 80 77 72 78
REMARK SMILES IDX 73 79 79 80 81 81 74 82 75 83 76 84 77 85 78 86 54 87 55 88
REMARK SMILES IDX 64 89 56 90 57 91 63 92 65 93 58 94 59 95 60 96 61 97 62 98
REMARK H PARENT 20 6 3 11 15 22 24 29 86 48 52 59
REMARK Flexibility Score: inf
ROOT
ATOM      1  C   UNL A   1      31.971  28.001  27.061  1.00  0.00     0.042 C 
ENDROOT
BRANCH   1   2
ATOM      2  C   UNL A   1      31.863  26.605  26.440  1.00  0.00     0.117 C 
BRANCH   2   3
ATOM      3  N   UNL A   1      31.062  26.403  25.246  1.00  0.00    -0.354 N 
ATOM      4  C   UNL A   1      31.262  25.579  24.174  1.00  0.00     0.242 C 
ATOM      5  O   UNL A   1      30.256  25.160  23.592  1.00  0.00    -0.273 OA
ATOM      6  H   UNL A   1      30.242  26.947  25.201  1.00  0.00     0.163 HD
BRANCH   4   7
ATOM      7  C   UNL A   1      32.651  25.090  23.740  1.00  0.00     0.168 C 
ATOM      8  C   UNL A   1      33.310  26.098  22.791  1.00  0.00     0.041 C 
BRANCH   7   9
ATOM      9  N   UNL A   1      32.653  23.761  23.157  1.00  0.00    -0.343 N 
ATOM     10  C   UNL A   1      32.731  22.521  23.700  1.00  0.00     0.246 C 
ATOM     11  H   UNL A   1      32.585  23.759  22.175  1.00  0.00     0.164 HD
ATOM     12  O   UNL A   1      32.837  21.636  22.837  1.00  0.00    -0.273 OA
BRANCH  10  13
ATOM     13  C   UNL A   1      32.630  22.156  25.211  1.00  0.00     0.175 C 
ATOM     14  S   UNL A   1      33.693  23.197  26.270  1.00  0.00    -0.097 SA
ATOM     15  C   UNL A   1      33.042  20.673  25.328  1.00  0.00     0.250 C 
ATOM     16  C   UNL A   1      31.223  22.310  25.795  1.00  0.00     0.045 C 
ATOM     17  C   UNL A   1      35.274  22.553  25.823  1.00  0.00     0.032 A 
ATOM     18  N   UNL A   1      34.374  20.361  25.206  1.00  0.00    -0.323 N 
ATOM     19  O   UNL A   1      32.217  19.755  25.384  1.00  0.00    -0.273 OA
ATOM     20  C   UNL A   1      36.387  23.367  26.055  1.00  0.00     0.017 A 
ATOM     21  C   UNL A   1      35.444  21.262  25.315  1.00  0.00     0.054 A 
ATOM     22  H   UNL A   1      34.597  19.420  25.024  1.00  0.00     0.170 HD
ATOM     23  C   UNL A   1      37.662  22.916  25.726  1.00  0.00     0.001 A 
ATOM     24  C   UNL A   1      36.721  20.819  24.970  1.00  0.00     0.027 A 
ATOM     25  C   UNL A   1      37.825  21.652  25.164  1.00  0.00     0.002 A 
ENDBRANCH  10  13
ENDBRANCH   7   9
ENDBRANCH   4   7
ENDBRANCH   2   3
ENDBRANCH   1   2
BRANCH   1  26
ATOM     26  C   UNL A   1      33.278  28.796  27.182  1.00  0.00     0.118 C 
BRANCH  26  27
ATOM     27  N   UNL A   1      33.236  30.156  27.674  1.00  0.00    -0.352 N 
ATOM     28  C   UNL A   1      34.304  30.871  28.198  1.00  0.00     0.251 C 
ATOM     29  H   UNL A   1      32.368  30.619  27.632  1.00  0.00     0.163 HD
ATOM     30  O   UNL A   1      34.164  32.020  28.576  1.00  0.00    -0.269 OA
BRANCH  28  31
ATOM     31  C   UNL A   1      35.612  30.183  28.343  1.00  0.00     0.039 A 
ATOM     32  C   UNL A   1      36.025  29.681  29.579  1.00  0.00     0.014 A 
ATOM     33  C   UNL A   1      36.463  30.118  27.236  1.00  0.00     0.014 A 
ATOM     34  C   UNL A   1      37.343  29.248  29.743  1.00  0.00     0.010 A 
ATOM     35  C   UNL A   1      37.771  29.644  27.394  1.00  0.00     0.010 A 
ATOM     36  C   UNL A   1      38.241  29.259  28.662  1.00  0.00    -0.014 A 
BRANCH  36  37
ATOM     37  C   UNL A   1      39.681  28.943  28.878  1.00  0.00     0.031 A 
ATOM     38  C   UNL A   1      40.587  29.960  29.527  1.00  0.00     0.074 A 
ATOM     39  C   UNL A   1      40.166  27.733  28.540  1.00  0.00     0.049 A 
ATOM     40  N   UNL A   1      41.868  29.882  29.790  1.00  0.00    -0.248 NA
ATOM     41  C   UNL A   1      39.975  31.236  29.930  1.00  0.00     0.031 C 
ATOM     42  C   UNL A   1      39.388  26.656  27.928  1.00  0.00     0.029 A 
ATOM     43  N   UNL A   1      41.424  27.199  28.678  1.00  0.00    -0.354 N 
ATOM     44  C   UNL A   1      42.216  31.096  30.375  1.00  0.00     0.074 A 
ATOM     45  C   UNL A   1      41.018  31.906  30.401  1.00  0.00     0.031 C 
ATOM     46  C   UNL A   1      40.175  25.578  27.777  1.00  0.00     0.029 A 
ATOM     47  C   UNL A   1      41.524  25.900  28.237  1.00  0.00     0.049 A 
ATOM     48  H   UNL A   1      42.184  27.699  29.056  1.00  0.00     0.167 HD
ATOM     49  C   UNL A   1      43.418  31.492  30.858  1.00  0.00     0.037 A 
ATOM     50  C   UNL A   1      42.581  25.064  28.199  1.00  0.00     0.037 A 
ATOM     51  C   UNL A   1      44.603  30.673  30.852  1.00  0.00     0.049 A 
ATOM     52  C   UNL A   1      43.915  25.541  28.705  1.00  0.00     0.074 A 
ATOM     53  C   UNL A   1      45.866  30.983  31.327  1.00  0.00     0.029 A 
ATOM     54  N   UNL A   1      44.671  29.380  30.352  1.00  0.00    -0.354 N 
ATOM     55  N   UNL A   1      44.227  26.696  29.243  1.00  0.00    -0.248 NA
ATOM     56  C   UNL A   1      45.045  24.608  28.590  1.00  0.00     0.031 C 
ATOM     57  C   UNL A   1      46.707  29.891  31.082  1.00  0.00     0.029 A 
ATOM     58  C   UNL A   1      45.957  28.885  30.492  1.00  0.00     0.049 A 
ATOM     59  H   UNL A   1      43.916  28.888  29.956  1.00  0.00     0.167 HD
ATOM     60  C   UNL A   1      45.584  26.627  29.535  1.00  0.00     0.074 A 
ATOM     61  C   UNL A   1      46.031  25.309  29.134  1.00  0.00     0.031 C 
ATOM     62  C   UNL A   1      46.388  27.572  30.082  1.00  0.00     0.037 A 
BRANCH  49  63
ATOM     63  C   UNL A   1      43.523  32.880  31.433  1.00  0.00     0.058 A 
ATOM     64  C   UNL A   1      43.424  33.114  32.814  1.00  0.00     0.135 A 
ATOM     65  C   UNL A   1      43.777  33.983  30.601  1.00  0.00     0.135 A 
ATOM     66  F   UNL A   1      43.167  32.100  33.655  1.00  0.00    -0.206 F 
ATOM     67  C   UNL A   1      43.553  34.393  33.347  1.00  0.00     0.059 A 
ATOM     68  C   UNL A   1      43.934  35.268  31.114  1.00  0.00     0.059 A 
ATOM     69  F   UNL A   1      43.883  33.816  29.273  1.00  0.00    -0.206 F 
ATOM     70  C   UNL A   1      43.808  35.465  32.489  1.00  0.00     0.060 A 
BRANCH  70  71
ATOM     71  S   UNL A   1      43.976  37.117  33.199  1.00  0.00     0.124 S 
ATOM     72  O   UNL A   1      42.783  37.196  34.037  1.00  0.00    -0.237 OA
ATOM     73  O   UNL A   1      45.245  37.021  33.914  1.00  0.00    -0.237 OA
ATOM     74  O   UNL A   1      43.980  37.992  32.032  1.00  0.00    -0.744 OA
ENDBRANCH  70  71
ENDBRANCH  49  63
BRANCH  50  75
ATOM     75  C   UNL A   1      42.412  23.686  27.664  1.00  0.00     0.058 A 
ATOM     76  C   UNL A   1      42.426  23.442  26.283  1.00  0.00     0.135 A 
ATOM     77  C   UNL A   1      42.277  22.584  28.521  1.00  0.00     0.135 A 
ATOM     78  F   UNL A   1      42.539  24.465  25.422  1.00  0.00    -0.206 F 
ATOM     79  C   UNL A   1      42.316  22.153  25.770  1.00  0.00     0.059 A 
ATOM     80  C   UNL A   1      42.190  21.283  28.034  1.00  0.00     0.059 A 
ATOM     81  F   UNL A   1      42.266  22.764  29.851  1.00  0.00    -0.206 F 
ATOM     82  C   UNL A   1      42.207  21.078  26.655  1.00  0.00     0.060 A 
BRANCH  82  83
ATOM     83  S   UNL A   1      42.144  19.404  25.980  1.00  0.00     0.124 S 
ATOM     84  O   UNL A   1      43.013  19.524  24.814  1.00  0.00    -0.237 OA
ATOM     85  O   UNL A   1      42.667  18.607  27.086  1.00  0.00    -0.237 OA
ATOM     86  O   UNL A   1      40.726  19.210  25.693  1.00  0.00    -0.744 OA
ENDBRANCH  82  83
ENDBRANCH  50  75
BRANCH  62  87
ATOM     87  C   UNL A   1      47.836  27.222  30.281  1.00  0.00     0.058 A 
ATOM     88  C   UNL A   1      48.781  27.422  29.264  1.00  0.00     0.135 A 
ATOM     89  C   UNL A   1      48.295  26.755  31.523  1.00  0.00     0.135 A 
ATOM     90  F   UNL A   1      48.392  27.861  28.057  1.00  0.00    -0.206 F 
ATOM     91  C   UNL A   1      50.132  27.163  29.468  1.00  0.00     0.059 A 
ATOM     92  C   UNL A   1      49.644  26.511  31.757  1.00  0.00     0.059 A 
ATOM     93  F   UNL A   1      47.431  26.557  32.532  1.00  0.00    -0.206 F 
ATOM     94  C   UNL A   1      50.555  26.712  30.720  1.00  0.00     0.060 A 
BRANCH  94  95
ATOM     95  S   UNL A   1      52.319  26.430  30.984  1.00  0.00     0.124 S 
ATOM     96  O   UNL A   1      52.319  25.096  31.575  1.00  0.00    -0.237 OA
ATOM     97  O   UNL A   1      52.857  26.525  29.631  1.00  0.00    -0.237 OA
ATOM     98  O   UNL A   1      52.706  27.513  31.883  1.00  0.00    -0.744 OA
ENDBRANCH  94  95
ENDBRANCH  62  87
ENDBRANCH  36  37
ENDBRANCH  28  31
ENDBRANCH  26  27
ENDBRANCH   1  26
TORSDOF 15
ENDMDL
MODEL 2
REMARK VINA RESULT:     -11.8      0.568      8.287
REMARK SMILES C[C@H](NC(=O)[C@]1(C)Sc2ccccc2NC1=O)C(=O)NCCCNC(=O)c1ccc(-c2c3nc(c(-c4c(F)cc(S(=O)(=O)[O-])cc4F)c4ccc([nH]4)c(-c4c(F)cc(S(=O)(=O)[O-])cc4F)c4nc(c(-c5c(F)cc(S(=O)(=O)[O-])cc5F)c5ccc2[nH]5)C=C4)C=C3)cc1
REMARK SMILES IDX 22 1 21 2 20 3 18 4 19 5 2 7 1 8 3 9 4 10 5 12 6 13 8 14
REMARK SMILES IDX 16 15 7 16 9 17 15 18 17 19 10 20 14 21 11 23 13 24 12 25
REMARK SMILES IDX 23 26 24 27 25 28 26 30 27 31 28 32 92 33 29 34 91 35 30 36
REMARK SMILES IDX 31 37 32 38 85 39 33 40 90 41 84 42 86 43 34 44 89 45 83 46
REMARK SMILES IDX 82 47 35 49 69 50 48 51 68 52 49 53 52 54 67 55 87 56 50 57
REMARK SMILES IDX 51 58 66 60 88 61 53 62 36 63 37 64 46 65 38 66 39 67 45 68
REMARK SMILES IDX 47 69 40 70 41 71 42 72 43 73 44 74 70 75 71 76 80 77 72 78
REMARK SMILES IDX 73 79 79 80 81 81 74 82 75 83 76 84 77 85 78 86 54 87 55 88
REMARK SMILES IDX 64 89 56 90 57 91 63 92 65 93 58 94 59 95 60 96 61 97 62 98
REMARK H PARENT 20 6 3 11 15 22 24 29 86 48 52 59
REMARK Flexibility Score: inf
ROOT
ATOM      1  C   UNL A   1      33.003  28.089  25.995  1.00  0.00     0.042 C 
ENDROOT
BRANCH   1   2
ATOM      2  C   UNL A   1      31.659  27.374  25.823  1.00  0.00     0.117 C 
BRANCH   2   3
ATOM      3  N   UNL A   1      31.060  27.263  24.505  1.00  0.00    -0.354 N 
ATOM      4  C   UNL A   1      31.366  26.440  23.459  1.00  0.00     0.242 C 
ATOM      5  O   UNL A   1      30.441  26.123  22.703  1.00  0.00    -0.273 OA
ATOM      6  H   UNL A   1      30.310  27.880  24.340  1.00  0.00     0.163 HD
BRANCH   4   7
ATOM      7  C   UNL A   1      32.760  25.833  23.251  1.00  0.00     0.168 C 
ATOM      8  C   UNL A   1      33.616  26.732  22.350  1.00  0.00     0.041 C 
BRANCH   7   9
ATOM      9  N   UNL A   1      32.742  24.471  22.747  1.00  0.00    -0.343 N 
ATOM     10  C   UNL A   1      32.733  23.264  23.365  1.00  0.00     0.246 C 
ATOM     11  H   UNL A   1      32.735  24.413  21.765  1.00  0.00     0.164 HD
ATOM     12  O   UNL A   1      32.855  22.325  22.563  1.00  0.00    -0.273 OA
BRANCH  10  13
ATOM     13  C   UNL A   1      32.523  22.996  24.885  1.00  0.00     0.175 C 
ATOM     14  S   UNL A   1      33.677  23.937  25.942  1.00  0.00    -0.097 SA
ATOM     15  C   UNL A   1      32.721  21.479  25.090  1.00  0.00     0.250 C 
ATOM     16  C   UNL A   1      31.129  23.371  25.395  1.00  0.00     0.045 C 
ATOM     17  C   UNL A   1      35.170  23.061  25.601  1.00  0.00     0.032 A 
ATOM     18  N   UNL A   1      34.001  20.983  25.044  1.00  0.00    -0.323 N 
ATOM     19  O   UNL A   1      31.775  20.686  25.149  1.00  0.00    -0.273 OA
ATOM     20  C   UNL A   1      36.375  23.727  25.845  1.00  0.00     0.017 A 
ATOM     21  C   UNL A   1      35.180  21.734  25.161  1.00  0.00     0.054 A 
ATOM     22  H   UNL A   1      34.099  20.012  24.916  1.00  0.00     0.170 HD
ATOM     23  C   UNL A   1      37.587  23.091  25.597  1.00  0.00     0.001 A 
ATOM     24  C   UNL A   1      36.396  21.105  24.897  1.00  0.00     0.027 A 
ATOM     25  C   UNL A   1      37.597  21.788  25.103  1.00  0.00     0.002 A 
ENDBRANCH  10  13
ENDBRANCH   7   9
ENDBRANCH   4   7
ENDBRANCH   2   3
ENDBRANCH   1   2
BRANCH   1  26
ATOM     26  C   UNL A   1      33.599  28.499  27.347  1.00  0.00     0.118 C 
BRANCH  26  27
ATOM     27  N   UNL A   1      33.501  29.878  27.776  1.00  0.00    -0.352 N 
ATOM     28  C   UNL A   1      34.539  30.662  28.259  1.00  0.00     0.251 C 
ATOM     29  H   UNL A   1      32.613  30.299  27.721  1.00  0.00     0.163 HD
ATOM     30  O   UNL A   1      34.350  31.820  28.585  1.00  0.00    -0.269 OA
BRANCH  28  31
ATOM     31  C   UNL A   1      35.878  30.039  28.424  1.00  0.00     0.039 A 
ATOM     32  C   UNL A   1      36.285  29.533  29.660  1.00  0.00     0.014 A 
ATOM     33  C   UNL A   1      36.758  30.042  27.338  1.00  0.00     0.014 A 
ATOM     34  C   UNL A   1      37.619  29.166  29.849  1.00  0.00     0.010 A 
ATOM     35  C   UNL A   1      38.084  29.633  27.520  1.00  0.00     0.010 A 
ATOM     36  C   UNL A   1      38.542  29.246  28.792  1.00  0.00    -0.014 A 
BRANCH  36  37
ATOM     37  C   UNL A   1      39.990  28.999  29.039  1.00  0.00     0.031 A 
ATOM     38  C   UNL A   1      40.601  27.668  28.678  1.00  0.00     0.074 A 
ATOM     39  C   UNL A   1      40.768  29.979  29.539  1.00  0.00     0.049 A 
ATOM     40  N   UNL A   1      41.836  27.254  28.826  1.00  0.00    -0.248 NA
ATOM     41  C   UNL A   1      39.708  26.666  28.075  1.00  0.00     0.031 C 
ATOM     42  C   UNL A   1      40.303  31.316  29.906  1.00  0.00     0.029 A 
ATOM     43  N   UNL A   1      42.114  30.007  29.810  1.00  0.00    -0.354 N 
ATOM     44  C   UNL A   1      41.863  25.947  28.349  1.00  0.00     0.074 A 
ATOM     45  C   UNL A   1      40.515  25.624  27.933  1.00  0.00     0.031 C 
ATOM     46  C   UNL A   1      41.351  32.047  30.319  1.00  0.00     0.029 A 
ATOM     47  C   UNL A   1      42.555  31.218  30.291  1.00  0.00     0.049 A 
ATOM     48  H   UNL A   1      42.708  29.235  29.673  1.00  0.00     0.167 HD
ATOM     49  C   UNL A   1      42.916  25.100  28.251  1.00  0.00     0.037 A 
ATOM     50  C   UNL A   1      43.785  31.616  30.673  1.00  0.00     0.037 A 
ATOM     51  C   UNL A   1      44.262  25.433  28.642  1.00  0.00     0.049 A 
ATOM     52  C   UNL A   1      44.931  30.646  30.594  1.00  0.00     0.074 A 
ATOM     53  C   UNL A   1      45.398  24.646  28.574  1.00  0.00     0.029 A 
ATOM     54  N   UNL A   1      44.654  26.655  29.170  1.00  0.00    -0.354 N 
ATOM     55  N   UNL A   1      44.934  29.410  30.151  1.00  0.00    -0.248 NA
ATOM     56  C   UNL A   1      46.238  31.114  31.074  1.00  0.00     0.031 C 
ATOM     57  C   UNL A   1      46.472  25.379  29.093  1.00  0.00     0.029 A 
ATOM     58  C   UNL A   1      46.012  26.638  29.446  1.00  0.00     0.049 A 
ATOM     59  H   UNL A   1      44.056  27.422  29.325  1.00  0.00     0.167 HD
ATOM     60  C   UNL A   1      46.241  28.958  30.295  1.00  0.00     0.074 A 
ATOM     61  C   UNL A   1      47.006  30.058  30.846  1.00  0.00     0.031 C 
ATOM     62  C   UNL A   1      46.758  27.740  30.001  1.00  0.00     0.037 A 
BRANCH  49  63
ATOM     63  C   UNL A   1      42.662  23.720  27.704  1.00  0.00     0.058 A 
ATOM     64  C   UNL A   1      42.673  23.462  26.323  1.00  0.00     0.135 A 
ATOM     65  C   UNL A   1      42.457  22.633  28.569  1.00  0.00     0.135 A 
ATOM     66  F   UNL A   1      42.849  24.465  25.449  1.00  0.00    -0.206 F 
ATOM     67  C   UNL A   1      42.470  22.181  25.821  1.00  0.00     0.059 A 
ATOM     68  C   UNL A   1      42.275  21.338  28.089  1.00  0.00     0.059 A 
ATOM     69  F   UNL A   1      42.438  22.822  29.898  1.00  0.00    -0.206 F 
ATOM     70  C   UNL A   1      42.272  21.124  26.712  1.00  0.00     0.060 A 
BRANCH  70  71
ATOM     71  S   UNL A   1      42.013  19.467  26.040  1.00  0.00     0.124 S 
ATOM     72  O   UNL A   1      42.838  19.510  24.836  1.00  0.00    -0.237 OA
ATOM     73  O   UNL A   1      42.508  18.614  27.115  1.00  0.00    -0.237 OA
ATOM     74  O   UNL A   1      40.573  19.412  25.811  1.00  0.00    -0.744 OA
ENDBRANCH  70  71
ENDBRANCH  49  63
BRANCH  50  75
ATOM     75  C   UNL A   1      43.991  33.006  31.163  1.00  0.00     0.058 A 
ATOM     76  C   UNL A   1      44.263  34.053  30.271  1.00  0.00     0.135 A 
ATOM     77  C   UNL A   1      43.877  33.322  32.526  1.00  0.00     0.135 A 
ATOM     78  F   UNL A   1      44.395  33.800  28.961  1.00  0.00    -0.206 F 
ATOM     79  C   UNL A   1      44.412  35.365  30.711  1.00  0.00     0.059 A 
ATOM     80  C   UNL A   1      43.997  34.629  32.988  1.00  0.00     0.059 A 
ATOM     81  F   UNL A   1      43.609  32.357  33.420  1.00  0.00    -0.206 F 
ATOM     82  C   UNL A   1      44.268  35.645  32.072  1.00  0.00     0.060 A 
BRANCH  82  83
ATOM     83  S   UNL A   1      44.385  37.361  32.620  1.00  0.00     0.124 S 
ATOM     84  O   UNL A   1      45.744  37.409  33.151  1.00  0.00    -0.237 OA
ATOM     85  O   UNL A   1      44.160  38.096  31.379  1.00  0.00    -0.237 OA
ATOM     86  O   UNL A   1      43.316  37.472  33.609  1.00  0.00    -0.744 OA
ENDBRANCH  82  83
ENDBRANCH  50  75
BRANCH  62  87
ATOM     87  C   UNL A   1      48.221  27.523  30.267  1.00  0.00     0.058 A 
ATOM     88  C   UNL A   1      48.674  27.044  31.506  1.00  0.00     0.135 A 
ATOM     89  C   UNL A   1      49.171  27.724  29.252  1.00  0.00     0.135 A 
ATOM     90  F   UNL A   1      47.806  26.842  32.510  1.00  0.00    -0.206 F 
ATOM     91  C   UNL A   1      50.020  26.778  31.732  1.00  0.00     0.059 A 
ATOM     92  C   UNL A   1      50.519  27.444  29.450  1.00  0.00     0.059 A 
ATOM     93  F   UNL A   1      48.787  28.172  28.047  1.00  0.00    -0.206 F 
ATOM     94  C   UNL A   1      50.935  26.977  30.697  1.00  0.00     0.060 A 
BRANCH  94  95
ATOM     95  S   UNL A   1      52.672  26.578  30.992  1.00  0.00     0.124 S 
ATOM     96  O   UNL A   1      53.088  27.687  31.843  1.00  0.00    -0.237 OA
ATOM     97  O   UNL A   1      52.587  25.275  31.643  1.00  0.00    -0.237 OA
ATOM     98  O   UNL A   1      53.250  26.566  29.651  1.00  0.00    -0.744 OA
ENDBRANCH  94  95
ENDBRANCH  62  87
ENDBRANCH  36  37
ENDBRANCH  28  31
ENDBRANCH  26  27
ENDBRANCH   1  26
TORSDOF 15
ENDMDL
MODEL 3
REMARK VINA RESULT:     -11.7      2.808      9.435
REMARK SMILES C[C@H](NC(=O)[C@]1(C)Sc2ccccc2NC1=O)C(=O)NCCCNC(=O)c1ccc(-c2c3nc(c(-c4c(F)cc(S(=O)(=O)[O-])cc4F)c4ccc([nH]4)c(-c4c(F)cc(S(=O)(=O)[O-])cc4F)c4nc(c(-c5c(F)cc(S(=O)(=O)[O-])cc5F)c5ccc2[nH]5)C=C4)C=C3)cc1
REMARK SMILES IDX 22 1 21 2 20 3 18 4 19 5 2 7 1 8 3 9 4 10 5 12 6 13 8 14
REMARK SMILES IDX 16 15 7 16 9 17 15 18 17 19 10 20 14 21 11 23 13 24 12 25
REMARK SMILES IDX 23 26 24 27 25 28 26 30 27 31 28 32 92 33 29 34 91 35 30 36
REMARK SMILES IDX 31 37 32 38 85 39 33 40 90 41 84 42 86 43 34 44 89 45 83 46
REMARK SMILES IDX 82 47 35 49 69 50 48 51 68 52 49 53 52 54 67 55 87 56 50 57
REMARK SMILES IDX 51 58 66 60 88 61 53 62 36 63 37 64 46 65 38 66 39 67 45 68
REMARK SMILES IDX 47 69 40 70 41 71 42 72 43 73 44 74 70 75 71 76 80 77 72 78
REMARK SMILES IDX 73 79 79 80 81 81 74 82 75 83 76 84 77 85 78 86 54 87 55 88
REMARK SMILES IDX 64 89 56 90 57 91 63 92 65 93 58 94 59 95 60 96 61 97 62 98
REMARK H PARENT 20 6 3 11 15 22 24 29 86 48 52 59
REMARK Flexibility Score: inf
ROOT
ATOM      1  C   UNL A   1      36.316  23.172  23.945  1.00  0.00     0.042 C 
ENDROOT
BRANCH   1   2
ATOM      2  C   UNL A   1      34.962  23.856  23.743  1.00  0.00     0.117 C 
BRANCH   2   3
ATOM      3  N   UNL A   1      33.741  23.071  23.773  1.00  0.00    -0.354 N 
ATOM      4  C   UNL A   1      32.484  23.402  24.195  1.00  0.00     0.242 C 
ATOM      5  O   UNL A   1      31.536  22.835  23.641  1.00  0.00    -0.273 OA
ATOM      6  H   UNL A   1      33.833  22.152  23.432  1.00  0.00     0.163 HD
BRANCH   4   7
ATOM      7  C   UNL A   1      32.212  24.495  25.238  1.00  0.00     0.168 C 
ATOM      8  C   UNL A   1      32.219  23.909  26.655  1.00  0.00     0.041 C 
BRANCH   7   9
ATOM      9  N   UNL A   1      30.992  25.246  25.001  1.00  0.00    -0.343 N 
ATOM     10  C   UNL A   1      30.725  26.356  24.268  1.00  0.00     0.246 C 
ATOM     11  H   UNL A   1      30.205  24.878  25.462  1.00  0.00     0.164 HD
ATOM     12  O   UNL A   1      29.566  26.762  24.437  1.00  0.00    -0.273 OA
BRANCH  10  13
ATOM     13  C   UNL A   1      31.679  27.055  23.254  1.00  0.00     0.175 C 
ATOM     14  S   UNL A   1      33.367  27.292  23.907  1.00  0.00    -0.097 SA
ATOM     15  C   UNL A   1      31.035  28.418  22.922  1.00  0.00     0.250 C 
ATOM     16  C   UNL A   1      31.868  26.283  21.945  1.00  0.00     0.045 C 
ATOM     17  C   UNL A   1      33.053  28.569  25.083  1.00  0.00     0.032 A 
ATOM     18  N   UNL A   1      31.099  29.410  23.869  1.00  0.00    -0.323 N 
ATOM     19  O   UNL A   1      30.350  28.602  21.910  1.00  0.00    -0.273 OA
ATOM     20  C   UNL A   1      33.977  28.729  26.120  1.00  0.00     0.017 A 
ATOM     21  C   UNL A   1      31.965  29.441  24.972  1.00  0.00     0.054 A 
ATOM     22  H   UNL A   1      30.480  30.168  23.765  1.00  0.00     0.170 HD
ATOM     23  C   UNL A   1      33.786  29.720  27.078  1.00  0.00     0.001 A 
ATOM     24  C   UNL A   1      31.767  30.422  25.944  1.00  0.00     0.027 A 
ATOM     25  C   UNL A   1      32.670  30.551  27.002  1.00  0.00     0.002 A 
ENDBRANCH  10  13
ENDBRANCH   7   9
ENDBRANCH   4   7
ENDBRANCH   2   3
ENDBRANCH   1   2
BRANCH   1  26
ATOM     26  C   UNL A   1      37.220  23.382  25.166  1.00  0.00     0.118 C 
BRANCH  26  27
ATOM     27  N   UNL A   1      38.381  22.537  25.343  1.00  0.00    -0.352 N 
ATOM     28  C   UNL A   1      39.503  22.835  26.104  1.00  0.00     0.251 C 
ATOM     29  H   UNL A   1      38.375  21.669  24.879  1.00  0.00     0.163 HD
ATOM     30  O   UNL A   1      40.426  22.046  26.194  1.00  0.00    -0.269 OA
BRANCH  28  31
ATOM     31  C   UNL A   1      39.579  24.165  26.761  1.00  0.00     0.039 A 
ATOM     32  C   UNL A   1      40.290  25.214  26.174  1.00  0.00     0.014 A 
ATOM     33  C   UNL A   1      38.995  24.326  28.020  1.00  0.00     0.014 A 
ATOM     34  C   UNL A   1      40.541  26.374  26.910  1.00  0.00     0.010 A 
ATOM     35  C   UNL A   1      39.213  25.508  28.738  1.00  0.00     0.010 A 
ATOM     36  C   UNL A   1      40.036  26.519  28.214  1.00  0.00    -0.014 A 
BRANCH  36  37
ATOM     37  C   UNL A   1      40.434  27.688  29.047  1.00  0.00     0.031 A 
ATOM     38  C   UNL A   1      41.804  27.732  29.680  1.00  0.00     0.074 A 
ATOM     39  C   UNL A   1      39.593  28.729  29.199  1.00  0.00     0.049 A 
ATOM     40  N   UNL A   1      42.334  28.652  30.448  1.00  0.00    -0.248 NA
ATOM     41  C   UNL A   1      42.695  26.591  29.419  1.00  0.00     0.031 C 
ATOM     42  C   UNL A   1      38.253  28.818  28.620  1.00  0.00     0.029 A 
ATOM     43  N   UNL A   1      39.746  29.917  29.871  1.00  0.00    -0.354 N 
ATOM     44  C   UNL A   1      43.608  28.196  30.771  1.00  0.00     0.074 A 
ATOM     45  C   UNL A   1      43.763  26.903  30.140  1.00  0.00     0.031 C 
ATOM     46  C   UNL A   1      37.720  30.011  28.929  1.00  0.00     0.029 A 
ATOM     47  C   UNL A   1      38.660  30.754  29.767  1.00  0.00     0.049 A 
ATOM     48  H   UNL A   1      40.557  30.149  30.380  1.00  0.00     0.167 HD
ATOM     49  C   UNL A   1      44.566  28.804  31.511  1.00  0.00     0.037 A 
ATOM     50  C   UNL A   1      38.439  31.976  30.292  1.00  0.00     0.037 A 
ATOM     51  C   UNL A   1      44.418  30.103  32.117  1.00  0.00     0.049 A 
ATOM     52  C   UNL A   1      39.501  32.615  31.144  1.00  0.00     0.074 A 
ATOM     53  C   UNL A   1      45.334  30.807  32.879  1.00  0.00     0.029 A 
ATOM     54  N   UNL A   1      43.281  30.895  32.027  1.00  0.00    -0.354 N 
ATOM     55  N   UNL A   1      40.696  32.163  31.447  1.00  0.00    -0.248 NA
ATOM     56  C   UNL A   1      39.187  33.923  31.734  1.00  0.00     0.031 C 
ATOM     57  C   UNL A   1      44.740  32.010  33.279  1.00  0.00     0.029 A 
ATOM     58  C   UNL A   1      43.468  32.073  32.731  1.00  0.00     0.049 A 
ATOM     59  H   UNL A   1      42.464  30.654  31.534  1.00  0.00     0.167 HD
ATOM     60  C   UNL A   1      41.275  33.132  32.258  1.00  0.00     0.074 A 
ATOM     61  C   UNL A   1      40.310  34.205  32.381  1.00  0.00     0.031 C 
ATOM     62  C   UNL A   1      42.494  33.130  32.850  1.00  0.00     0.037 A 
BRANCH  49  63
ATOM     63  C   UNL A   1      45.867  28.075  31.718  1.00  0.00     0.058 A 
ATOM     64  C   UNL A   1      46.957  28.254  30.851  1.00  0.00     0.135 A 
ATOM     65  C   UNL A   1      46.044  27.226  32.823  1.00  0.00     0.135 A 
ATOM     66  F   UNL A   1      46.840  29.041  29.771  1.00  0.00    -0.206 F 
ATOM     67  C   UNL A   1      48.169  27.603  31.062  1.00  0.00     0.059 A 
ATOM     68  C   UNL A   1      47.256  26.583  33.067  1.00  0.00     0.059 A 
ATOM     69  F   UNL A   1      45.036  27.020  33.685  1.00  0.00    -0.206 F 
ATOM     70  C   UNL A   1      48.309  26.769  32.173  1.00  0.00     0.060 A 
BRANCH  70  71
ATOM     71  S   UNL A   1      49.891  25.936  32.431  1.00  0.00     0.124 S 
ATOM     72  O   UNL A   1      49.455  24.610  32.861  1.00  0.00    -0.237 OA
ATOM     73  O   UNL A   1      50.498  26.002  31.106  1.00  0.00    -0.237 OA
ATOM     74  O   UNL A   1      50.540  26.745  33.458  1.00  0.00    -0.744 OA
ENDBRANCH  70  71
ENDBRANCH  49  63
BRANCH  50  75
ATOM     75  C   UNL A   1      37.154  32.674  30.018  1.00  0.00     0.058 A 
ATOM     76  C   UNL A   1      36.002  32.385  30.764  1.00  0.00     0.135 A 
ATOM     77  C   UNL A   1      37.062  33.673  29.036  1.00  0.00     0.135 A 
ATOM     78  F   UNL A   1      36.035  31.429  31.705  1.00  0.00    -0.206 F 
ATOM     79  C   UNL A   1      34.806  33.063  30.550  1.00  0.00     0.059 A 
ATOM     80  C   UNL A   1      35.885  34.383  28.821  1.00  0.00     0.059 A 
ATOM     81  F   UNL A   1      38.139  33.992  28.300  1.00  0.00    -0.206 F 
ATOM     82  C   UNL A   1      34.760  34.068  29.581  1.00  0.00     0.060 A 
BRANCH  82  83
ATOM     83  S   UNL A   1      33.225  34.995  29.367  1.00  0.00     0.124 S 
ATOM     84  O   UNL A   1      32.524  34.180  28.380  1.00  0.00    -0.237 OA
ATOM     85  O   UNL A   1      32.667  34.981  30.716  1.00  0.00    -0.237 OA
ATOM     86  O   UNL A   1      33.683  36.300  28.899  1.00  0.00    -0.744 OA
ENDBRANCH  82  83
ENDBRANCH  50  75
BRANCH  62  87
ATOM     87  C   UNL A   1      42.862  34.321  33.688  1.00  0.00     0.058 A 
ATOM     88  C   UNL A   1      42.755  34.291  35.087  1.00  0.00     0.135 A 
ATOM     89  C   UNL A   1      43.397  35.476  33.095  1.00  0.00     0.135 A 
ATOM     90  F   UNL A   1      42.244  33.212  35.701  1.00  0.00    -0.206 F 
ATOM     91  C   UNL A   1      43.158  35.368  35.869  1.00  0.00     0.059 A 
ATOM     92  C   UNL A   1      43.827  36.557  33.859  1.00  0.00     0.059 A 
ATOM     93  F   UNL A   1      43.529  35.552  31.761  1.00  0.00    -0.206 F 
ATOM     94  C   UNL A   1      43.697  36.494  35.247  1.00  0.00     0.060 A 
BRANCH  94  95
ATOM     95  S   UNL A   1      44.264  37.863  36.280  1.00  0.00     0.124 S 
ATOM     96  O   UNL A   1      45.642  37.472  36.558  1.00  0.00    -0.237 OA
ATOM     97  O   UNL A   1      44.096  39.012  35.395  1.00  0.00    -0.237 OA
ATOM     98  O   UNL A   1      43.358  37.824  37.424  1.00  0.00    -0.744 OA
ENDBRANCH  94  95
ENDBRANCH  62  87
ENDBRANCH  36  37
ENDBRANCH  28  31
ENDBRANCH  26  27
ENDBRANCH   1  26
TORSDOF 15
ENDMDL
