MODEL 1
REMARK VINA RESULT:     -11.4      0.000      0.000
REMARK SMILES CC[C@@H](NC(=O)N1CCO[C@H](CC(=O)NCCCNC(=O)c2ccc(-c3c4nc(c(-c5c(F)cc(S(=O)(=O)[O-])cc5F)c5ccc([nH]5)c(-c5c(F)cc(S(=O)(=O)[O-])cc5F)c5nc(c(-c6c(F)cc(S(=O)(=O)[O-])cc6F)c6ccc3[nH]6)C=C5)C=C4)cc2)C1)c1cccs1
REMARK SMILES IDX 16 1 15 2 13 3 14 4 12 6 11 7 7 8 8 9 88 10 9 11 10 12 5 13
REMARK SMILES IDX 4 14 6 16 3 17 2 18 1 19 89 20 90 21 93 22 91 23 92 24 17 25
REMARK SMILES IDX 18 26 19 27 20 28 21 30 22 31 23 32 87 33 24 34 86 35 25 36
REMARK SMILES IDX 26 37 27 38 80 39 28 40 85 41 79 42 81 43 29 44 84 45 78 46
REMARK SMILES IDX 77 47 30 49 64 50 43 51 63 52 44 53 47 54 62 55 82 56 45 57
REMARK SMILES IDX 46 58 61 60 83 61 48 62 31 63 32 64 41 65 33 66 34 67 40 68
REMARK SMILES IDX 42 69 35 70 36 71 37 72 38 73 39 74 65 75 66 76 75 77 67 78
REMARK SMILES IDX 68 79 74 80 76 81 69 82 70 83 71 84 72 85 73 86 49 87 50 88
REMARK SMILES IDX 59 89 51 90 52 91 58 92 60 93 53 94 54 95 55 96 56 97 57 98
REMARK H PARENT 15 5 4 15 19 29 81 48 47 59
REMARK Flexibility Score: inf
ROOT
ATOM      1  C   UNL A   1      34.648  29.368  27.173  1.00  0.00     0.117 C 
ENDROOT
BRANCH   1   2
ATOM      2  N   UNL A   1      34.388  29.098  25.764  1.00  0.00    -0.356 N 
ATOM      3  C   UNL A   1      33.229  28.818  25.103  1.00  0.00     0.222 C 
ATOM      4  O   UNL A   1      33.203  28.979  23.882  1.00  0.00    -0.275 OA
ATOM      5  H   UNL A   1      35.188  29.123  25.191  1.00  0.00     0.163 HD
BRANCH   3   6
ATOM      6  C   UNL A   1      31.982  28.360  25.827  1.00  0.00     0.133 C 
BRANCH   6   7
ATOM      7  C   UNL A   1      31.996  26.929  26.389  1.00  0.00     0.147 C 
ATOM      8  N   UNL A   1      32.213  25.534  24.360  1.00  0.00    -0.320 N 
ATOM      9  C   UNL A   1      30.909  24.948  24.607  1.00  0.00     0.150 C 
ATOM     10  C   UNL A   1      32.832  25.892  25.630  1.00  0.00     0.154 C 
ATOM     11  C   UNL A   1      30.028  25.934  25.387  1.00  0.00     0.182 C 
ATOM     12  O   UNL A   1      30.654  26.415  26.595  1.00  0.00    -0.374 OA
BRANCH   8  13
ATOM     13  C   UNL A   1      33.004  25.418  23.264  1.00  0.00     0.318 C 
ATOM     14  N   UNL A   1      34.040  24.585  23.125  1.00  0.00    -0.330 N 
ATOM     15  H   UNL A   1      34.738  25.023  22.586  1.00  0.00     0.166 HD
ATOM     16  O   UNL A   1      32.805  26.133  22.272  1.00  0.00    -0.249 OA
BRANCH  14  17
ATOM     17  C   UNL A   1      34.493  23.234  23.499  1.00  0.00     0.124 C 
BRANCH  17  18
ATOM     18  C   UNL A   1      33.372  22.268  23.938  1.00  0.00     0.027 C 
ATOM     19  C   UNL A   1      32.455  21.818  22.808  1.00  0.00     0.006 C 
ENDBRANCH  17  18
BRANCH  17  20
ATOM     20  C   UNL A   1      35.672  23.187  24.422  1.00  0.00     0.027 A 
ATOM     21  C   UNL A   1      36.031  24.065  25.431  1.00  0.00     0.017 A 
ATOM     22  S   UNL A   1      36.741  21.836  24.371  1.00  0.00    -0.147 S 
ATOM     23  C   UNL A   1      37.260  23.702  26.055  1.00  0.00     0.012 A 
ATOM     24  C   UNL A   1      37.775  22.536  25.539  1.00  0.00     0.065 A 
ENDBRANCH  17  20
ENDBRANCH  14  17
ENDBRANCH   8  13
ENDBRANCH   6   7
ENDBRANCH   3   6
ENDBRANCH   1   2
BRANCH   1  25
ATOM     25  C   UNL A   1      34.282  30.769  27.695  1.00  0.00     0.042 C 
BRANCH  25  26
ATOM     26  C   UNL A   1      35.379  31.532  28.442  1.00  0.00     0.118 C 
BRANCH  26  27
ATOM     27  N   UNL A   1      35.386  31.212  29.860  1.00  0.00    -0.352 N 
ATOM     28  C   UNL A   1      36.265  30.461  30.602  1.00  0.00     0.251 C 
ATOM     29  H   UNL A   1      34.640  31.598  30.373  1.00  0.00     0.163 HD
ATOM     30  O   UNL A   1      35.924  30.111  31.731  1.00  0.00    -0.269 OA
BRANCH  28  31
ATOM     31  C   UNL A   1      37.594  30.041  30.083  1.00  0.00     0.039 A 
ATOM     32  C   UNL A   1      38.595  29.740  31.014  1.00  0.00     0.014 A 
ATOM     33  C   UNL A   1      37.914  30.055  28.722  1.00  0.00     0.014 A 
ATOM     34  C   UNL A   1      39.892  29.424  30.587  1.00  0.00     0.010 A 
ATOM     35  C   UNL A   1      39.198  29.689  28.292  1.00  0.00     0.010 A 
ATOM     36  C   UNL A   1      40.206  29.377  29.219  1.00  0.00    -0.014 A 
BRANCH  36  37
ATOM     37  C   UNL A   1      41.577  28.997  28.771  1.00  0.00     0.031 A 
ATOM     38  C   UNL A   1      42.685  30.019  28.693  1.00  0.00     0.074 A 
ATOM     39  C   UNL A   1      41.831  27.721  28.411  1.00  0.00     0.049 A 
ATOM     40  N   UNL A   1      43.932  29.859  28.327  1.00  0.00    -0.248 NA
ATOM     41  C   UNL A   1      42.345  31.402  29.060  1.00  0.00     0.031 C 
ATOM     42  C   UNL A   1      40.844  26.640  28.396  1.00  0.00     0.029 A 
ATOM     43  N   UNL A   1      42.989  27.117  27.983  1.00  0.00    -0.354 N 
ATOM     44  C   UNL A   1      44.523  31.116  28.408  1.00  0.00     0.074 A 
ATOM     45  C   UNL A   1      43.487  32.036  28.825  1.00  0.00     0.031 C 
ATOM     46  C   UNL A   1      41.441  25.505  27.995  1.00  0.00     0.029 A 
ATOM     47  C   UNL A   1      42.842  25.780  27.694  1.00  0.00     0.049 A 
ATOM     48  H   UNL A   1      43.844  27.597  27.893  1.00  0.00     0.167 HD
ATOM     49  C   UNL A   1      45.811  31.469  28.173  1.00  0.00     0.037 A 
ATOM     50  C   UNL A   1      43.729  24.877  27.229  1.00  0.00     0.037 A 
ATOM     51  C   UNL A   1      46.852  30.549  27.787  1.00  0.00     0.049 A 
ATOM     52  C   UNL A   1      45.154  25.293  26.982  1.00  0.00     0.074 A 
ATOM     53  C   UNL A   1      48.201  30.805  27.605  1.00  0.00     0.029 A 
ATOM     54  N   UNL A   1      46.663  29.203  27.513  1.00  0.00    -0.354 N 
ATOM     55  N   UNL A   1      45.707  26.470  27.144  1.00  0.00    -0.248 NA
ATOM     56  C   UNL A   1      46.076  24.256  26.494  1.00  0.00     0.031 C 
ATOM     57  C   UNL A   1      48.820  29.626  27.177  1.00  0.00     0.029 A 
ATOM     58  C   UNL A   1      47.865  28.623  27.137  1.00  0.00     0.049 A 
ATOM     59  H   UNL A   1      45.803  28.728  27.577  1.00  0.00     0.167 HD
ATOM     60  C   UNL A   1      47.044  26.312  26.794  1.00  0.00     0.074 A 
ATOM     61  C   UNL A   1      47.221  24.922  26.431  1.00  0.00     0.031 C 
ATOM     62  C   UNL A   1      48.035  27.239  26.774  1.00  0.00     0.037 A 
BRANCH  49  63
ATOM     63  C   UNL A   1      46.186  32.918  28.333  1.00  0.00     0.058 A 
ATOM     64  C   UNL A   1      46.087  33.826  27.268  1.00  0.00     0.135 A 
ATOM     65  C   UNL A   1      46.574  33.421  29.586  1.00  0.00     0.135 A 
ATOM     66  F   UNL A   1      45.728  33.400  26.047  1.00  0.00    -0.206 F 
ATOM     67  C   UNL A   1      46.380  35.177  27.433  1.00  0.00     0.059 A 
ATOM     68  C   UNL A   1      46.848  34.772  29.781  1.00  0.00     0.059 A 
ATOM     69  F   UNL A   1      46.679  32.597  30.642  1.00  0.00    -0.206 F 
ATOM     70  C   UNL A   1      46.757  35.641  28.694  1.00  0.00     0.060 A 
BRANCH  70  71
ATOM     71  S   UNL A   1      47.112  37.399  28.904  1.00  0.00     0.124 S 
ATOM     72  O   UNL A   1      48.489  37.477  28.414  1.00  0.00    -0.237 OA
ATOM     73  O   UNL A   1      46.105  38.023  28.044  1.00  0.00    -0.237 OA
ATOM     74  O   UNL A   1      46.939  37.620  30.328  1.00  0.00    -0.744 OA
ENDBRANCH  70  71
ENDBRANCH  49  63
BRANCH  50  75
ATOM     75  C   UNL A   1      43.293  23.479  26.965  1.00  0.00     0.058 A 
ATOM     76  C   UNL A   1      43.102  23.011  25.657  1.00  0.00     0.135 A 
ATOM     77  C   UNL A   1      43.061  22.583  28.021  1.00  0.00     0.135 A 
ATOM     78  F   UNL A   1      43.301  23.833  24.616  1.00  0.00    -0.206 F 
ATOM     79  C   UNL A   1      42.679  21.711  25.403  1.00  0.00     0.059 A 
ATOM     80  C   UNL A   1      42.661  21.270  27.791  1.00  0.00     0.059 A 
ATOM     81  F   UNL A   1      43.244  22.976  29.290  1.00  0.00    -0.206 F 
ATOM     82  C   UNL A   1      42.462  20.846  26.478  1.00  0.00     0.060 A 
BRANCH  82  83
ATOM     83  S   UNL A   1      41.956  19.146  26.138  1.00  0.00     0.124 S 
ATOM     84  O   UNL A   1      40.537  19.314  25.851  1.00  0.00    -0.237 OA
ATOM     85  O   UNL A   1      42.802  18.794  25.000  1.00  0.00    -0.237 OA
ATOM     86  O   UNL A   1      42.273  18.449  27.381  1.00  0.00    -0.744 OA
ENDBRANCH  82  83
ENDBRANCH  50  75
BRANCH  62  87
ATOM     87  C   UNL A   1      49.406  26.780  26.359  1.00  0.00     0.058 A 
ATOM     88  C   UNL A   1      50.243  26.076  27.238  1.00  0.00     0.135 A 
ATOM     89  C   UNL A   1      49.870  27.005  25.052  1.00  0.00     0.135 A 
ATOM     90  F   UNL A   1      49.851  25.842  28.501  1.00  0.00    -0.206 F 
ATOM     91  C   UNL A   1      51.501  25.630  26.845  1.00  0.00     0.059 A 
ATOM     92  C   UNL A   1      51.113  26.545  24.630  1.00  0.00     0.059 A 
ATOM     93  F   UNL A   1      49.106  27.666  24.167  1.00  0.00    -0.206 F 
ATOM     94  C   UNL A   1      51.927  25.868  25.537  1.00  0.00     0.060 A 
BRANCH  94  95
ATOM     95  S   UNL A   1      53.548  25.254  25.028  1.00  0.00     0.124 S 
ATOM     96  O   UNL A   1      53.449  23.841  25.376  1.00  0.00    -0.237 OA
ATOM     97  O   UNL A   1      53.563  25.556  23.600  1.00  0.00    -0.237 OA
ATOM     98  O   UNL A   1      54.476  26.038  25.838  1.00  0.00    -0.744 OA
ENDBRANCH  94  95
ENDBRANCH  62  87
ENDBRANCH  36  37
ENDBRANCH  28  31
ENDBRANCH  26  27
ENDBRANCH  25  26
ENDBRANCH   1  25
TORSDOF 18
ENDMDL
MODEL 2
REMARK VINA RESULT:     -11.3      6.536     12.002
REMARK SMILES CC[C@@H](NC(=O)N1CCO[C@H](CC(=O)NCCCNC(=O)c2ccc(-c3c4nc(c(-c5c(F)cc(S(=O)(=O)[O-])cc5F)c5ccc([nH]5)c(-c5c(F)cc(S(=O)(=O)[O-])cc5F)c5nc(c(-c6c(F)cc(S(=O)(=O)[O-])cc6F)c6ccc3[nH]6)C=C5)C=C4)cc2)C1)c1cccs1
REMARK SMILES IDX 16 1 15 2 13 3 14 4 12 6 11 7 7 8 8 9 88 10 9 11 10 12 5 13
REMARK SMILES IDX 4 14 6 16 3 17 2 18 1 19 89 20 90 21 93 22 91 23 92 24 17 25
REMARK SMILES IDX 18 26 19 27 20 28 21 30 22 31 23 32 87 33 24 34 86 35 25 36
REMARK SMILES IDX 26 37 27 38 80 39 28 40 85 41 79 42 81 43 29 44 84 45 78 46
REMARK SMILES IDX 77 47 30 49 64 50 43 51 63 52 44 53 47 54 62 55 82 56 45 57
REMARK SMILES IDX 46 58 61 60 83 61 48 62 31 63 32 64 41 65 33 66 34 67 40 68
REMARK SMILES IDX 42 69 35 70 36 71 37 72 38 73 39 74 65 75 66 76 75 77 67 78
REMARK SMILES IDX 68 79 74 80 76 81 69 82 70 83 71 84 72 85 73 86 49 87 50 88
REMARK SMILES IDX 59 89 51 90 52 91 58 92 60 93 53 94 54 95 55 96 56 97 57 98
REMARK H PARENT 15 5 4 15 19 29 81 48 47 59
REMARK Flexibility Score: inf
ROOT
ATOM      1  C   UNL A   1      37.044  22.314  25.498  1.00  0.00     0.117 C 
ENDROOT
BRANCH   1   2
ATOM      2  N   UNL A   1      35.997  22.317  26.512  1.00  0.00    -0.356 N 
ATOM      3  C   UNL A   1      34.700  22.735  26.461  1.00  0.00     0.222 C 
ATOM      4  O   UNL A   1      33.920  22.316  27.318  1.00  0.00    -0.275 OA
ATOM      5  H   UNL A   1      36.274  21.955  27.385  1.00  0.00     0.163 HD
BRANCH   3   6
ATOM      6  C   UNL A   1      34.195  23.655  25.372  1.00  0.00     0.133 C 
BRANCH   6   7
ATOM      7  C   UNL A   1      33.562  22.986  24.141  1.00  0.00     0.147 C 
ATOM      8  N   UNL A   1      32.467  24.873  22.979  1.00  0.00    -0.320 N 
ATOM      9  C   UNL A   1      31.166  24.268  23.197  1.00  0.00     0.150 C 
ATOM     10  C   UNL A   1      33.474  23.826  22.861  1.00  0.00     0.154 C 
ATOM     11  C   UNL A   1      31.196  23.393  24.457  1.00  0.00     0.182 C 
ATOM     12  O   UNL A   1      32.260  22.419  24.440  1.00  0.00    -0.374 OA
BRANCH   8  13
ATOM     13  C   UNL A   1      32.762  26.111  22.511  1.00  0.00     0.318 C 
ATOM     14  N   UNL A   1      32.167  27.253  22.875  1.00  0.00    -0.330 N 
ATOM     15  H   UNL A   1      32.113  27.852  22.096  1.00  0.00     0.166 HD
ATOM     16  O   UNL A   1      33.646  26.263  21.657  1.00  0.00    -0.249 OA
BRANCH  14  17
ATOM     17  C   UNL A   1      31.567  27.920  24.043  1.00  0.00     0.124 C 
BRANCH  17  18
ATOM     18  C   UNL A   1      30.523  29.008  23.709  1.00  0.00     0.027 C 
ATOM     19  C   UNL A   1      29.483  28.582  22.680  1.00  0.00     0.006 C 
ENDBRANCH  17  18
BRANCH  17  20
ATOM     20  C   UNL A   1      32.537  28.372  25.090  1.00  0.00     0.027 A 
ATOM     21  C   UNL A   1      33.652  27.722  25.591  1.00  0.00     0.017 A 
ATOM     22  S   UNL A   1      32.394  29.954  25.759  1.00  0.00    -0.147 S 
ATOM     23  C   UNL A   1      34.294  28.463  26.626  1.00  0.00     0.012 A 
ATOM     24  C   UNL A   1      33.681  29.674  26.848  1.00  0.00     0.065 A 
ENDBRANCH  17  20
ENDBRANCH  14  17
ENDBRANCH   8  13
ENDBRANCH   6   7
ENDBRANCH   3   6
ENDBRANCH   1   2
BRANCH   1  25
ATOM     25  C   UNL A   1      38.498  22.230  25.997  1.00  0.00     0.042 C 
BRANCH  25  26
ATOM     26  C   UNL A   1      39.085  23.500  26.619  1.00  0.00     0.118 C 
BRANCH  26  27
ATOM     27  N   UNL A   1      40.427  23.769  26.130  1.00  0.00    -0.352 N 
ATOM     28  C   UNL A   1      41.274  24.821  26.379  1.00  0.00     0.251 C 
ATOM     29  H   UNL A   1      40.788  23.085  25.521  1.00  0.00     0.163 HD
ATOM     30  O   UNL A   1      42.253  24.966  25.649  1.00  0.00    -0.269 OA
BRANCH  28  31
ATOM     31  C   UNL A   1      41.039  25.793  27.479  1.00  0.00     0.039 A 
ATOM     32  C   UNL A   1      41.985  26.808  27.670  1.00  0.00     0.014 A 
ATOM     33  C   UNL A   1      39.990  25.662  28.394  1.00  0.00     0.014 A 
ATOM     34  C   UNL A   1      41.864  27.700  28.744  1.00  0.00     0.010 A 
ATOM     35  C   UNL A   1      39.841  26.587  29.439  1.00  0.00     0.010 A 
ATOM     36  C   UNL A   1      40.780  27.612  29.632  1.00  0.00    -0.014 A 
BRANCH  36  37
ATOM     37  C   UNL A   1      40.635  28.593  30.747  1.00  0.00     0.031 A 
ATOM     38  C   UNL A   1      41.473  28.485  31.997  1.00  0.00     0.074 A 
ATOM     39  C   UNL A   1      39.726  29.586  30.646  1.00  0.00     0.049 A 
ATOM     40  N   UNL A   1      41.476  29.252  33.059  1.00  0.00    -0.248 NA
ATOM     41  C   UNL A   1      42.421  27.362  32.071  1.00  0.00     0.031 C 
ATOM     42  C   UNL A   1      38.820  29.785  29.514  1.00  0.00     0.029 A 
ATOM     43  N   UNL A   1      39.409  30.610  31.506  1.00  0.00    -0.354 N 
ATOM     44  C   UNL A   1      42.412  28.704  33.929  1.00  0.00     0.074 A 
ATOM     45  C   UNL A   1      42.933  27.516  33.286  1.00  0.00     0.031 C 
ATOM     46  C   UNL A   1      38.060  30.868  29.743  1.00  0.00     0.029 A 
ATOM     47  C   UNL A   1      38.400  31.426  31.048  1.00  0.00     0.049 A 
ATOM     48  H   UNL A   1      39.862  30.746  32.370  1.00  0.00     0.167 HD
ATOM     49  C   UNL A   1      42.813  29.154  35.144  1.00  0.00     0.037 A 
ATOM     50  C   UNL A   1      37.807  32.496  31.615  1.00  0.00     0.037 A 
ATOM     51  C   UNL A   1      42.317  30.352  35.774  1.00  0.00     0.049 A 
ATOM     52  C   UNL A   1      38.274  32.979  32.961  1.00  0.00     0.074 A 
ATOM     53  C   UNL A   1      42.724  30.927  36.968  1.00  0.00     0.029 A 
ATOM     54  N   UNL A   1      41.304  31.154  35.273  1.00  0.00    -0.354 N 
ATOM     55  N   UNL A   1      39.218  32.490  33.729  1.00  0.00    -0.248 NA
ATOM     56  C   UNL A   1      37.600  34.162  33.516  1.00  0.00     0.031 C 
ATOM     57  C   UNL A   1      41.926  32.049  37.210  1.00  0.00     0.029 A 
ATOM     58  C   UNL A   1      41.052  32.202  36.146  1.00  0.00     0.049 A 
ATOM     59  H   UNL A   1      40.831  31.003  34.422  1.00  0.00     0.167 HD
ATOM     60  C   UNL A   1      39.261  33.315  34.849  1.00  0.00     0.074 A 
ATOM     61  C   UNL A   1      38.263  34.345  34.650  1.00  0.00     0.031 C 
ATOM     62  C   UNL A   1      40.056  33.223  35.944  1.00  0.00     0.037 A 
BRANCH  49  63
ATOM     63  C   UNL A   1      43.851  28.354  35.885  1.00  0.00     0.058 A 
ATOM     64  C   UNL A   1      43.495  27.330  36.776  1.00  0.00     0.135 A 
ATOM     65  C   UNL A   1      45.219  28.564  35.644  1.00  0.00     0.135 A 
ATOM     66  F   UNL A   1      42.203  27.091  37.050  1.00  0.00    -0.206 F 
ATOM     67  C   UNL A   1      44.458  26.555  37.416  1.00  0.00     0.059 A 
ATOM     68  C   UNL A   1      46.199  27.785  36.255  1.00  0.00     0.059 A 
ATOM     69  F   UNL A   1      45.616  29.528  34.796  1.00  0.00    -0.206 F 
ATOM     70  C   UNL A   1      45.807  26.789  37.148  1.00  0.00     0.060 A 
BRANCH  70  71
ATOM     71  S   UNL A   1      47.047  25.762  37.966  1.00  0.00     0.124 S 
ATOM     72  O   UNL A   1      47.065  24.583  37.100  1.00  0.00    -0.237 OA
ATOM     73  O   UNL A   1      48.241  26.607  37.900  1.00  0.00    -0.237 OA
ATOM     74  O   UNL A   1      46.502  25.557  39.296  1.00  0.00    -0.744 OA
ENDBRANCH  70  71
ENDBRANCH  49  63
BRANCH  50  75
ATOM     75  C   UNL A   1      36.698  33.190  30.906  1.00  0.00     0.058 A 
ATOM     76  C   UNL A   1      35.360  32.989  31.275  1.00  0.00     0.135 A 
ATOM     77  C   UNL A   1      36.958  34.070  29.843  1.00  0.00     0.135 A 
ATOM     78  F   UNL A   1      35.061  32.149  32.279  1.00  0.00    -0.206 F 
ATOM     79  C   UNL A   1      34.316  33.621  30.608  1.00  0.00     0.059 A 
ATOM     80  C   UNL A   1      35.933  34.733  29.176  1.00  0.00     0.059 A 
ATOM     81  F   UNL A   1      38.221  34.308  29.461  1.00  0.00    -0.206 F 
ATOM     82  C   UNL A   1      34.613  34.493  29.558  1.00  0.00     0.060 A 
BRANCH  82  83
ATOM     83  S   UNL A   1      33.256  35.345  28.725  1.00  0.00     0.124 S 
ATOM     84  O   UNL A   1      33.976  36.307  27.900  1.00  0.00    -0.237 OA
ATOM     85  O   UNL A   1      32.600  34.253  28.009  1.00  0.00    -0.237 OA
ATOM     86  O   UNL A   1      32.487  35.908  29.830  1.00  0.00    -0.744 OA
ENDBRANCH  82  83
ENDBRANCH  50  75
BRANCH  62  87
ATOM     87  C   UNL A   1      39.893  34.272  37.009  1.00  0.00     0.058 A 
ATOM     88  C   UNL A   1      40.616  35.474  36.974  1.00  0.00     0.135 A 
ATOM     89  C   UNL A   1      38.969  34.094  38.053  1.00  0.00     0.135 A 
ATOM     90  F   UNL A   1      41.518  35.692  36.003  1.00  0.00    -0.206 F 
ATOM     91  C   UNL A   1      40.445  36.455  37.947  1.00  0.00     0.059 A 
ATOM     92  C   UNL A   1      38.763  35.071  39.021  1.00  0.00     0.059 A 
ATOM     93  F   UNL A   1      38.244  32.965  38.129  1.00  0.00    -0.206 F 
ATOM     94  C   UNL A   1      39.515  36.245  38.966  1.00  0.00     0.060 A 
BRANCH  94  95
ATOM     95  S   UNL A   1      39.277  37.539  40.204  1.00  0.00     0.124 S 
ATOM     96  O   UNL A   1      40.576  38.204  40.185  1.00  0.00    -0.237 OA
ATOM     97  O   UNL A   1      38.166  38.304  39.648  1.00  0.00    -0.237 OA
ATOM     98  O   UNL A   1      38.971  36.792  41.420  1.00  0.00    -0.744 OA
ENDBRANCH  94  95
ENDBRANCH  62  87
ENDBRANCH  36  37
ENDBRANCH  28  31
ENDBRANCH  26  27
ENDBRANCH  25  26
ENDBRANCH   1  25
TORSDOF 18
ENDMDL
MODEL 3
REMARK VINA RESULT:     -11.0      6.510     11.948
REMARK SMILES CC[C@@H](NC(=O)N1CCO[C@H](CC(=O)NCCCNC(=O)c2ccc(-c3c4nc(c(-c5c(F)cc(S(=O)(=O)[O-])cc5F)c5ccc([nH]5)c(-c5c(F)cc(S(=O)(=O)[O-])cc5F)c5nc(c(-c6c(F)cc(S(=O)(=O)[O-])cc6F)c6ccc3[nH]6)C=C5)C=C4)cc2)C1)c1cccs1
REMARK SMILES IDX 16 1 15 2 13 3 14 4 12 6 11 7 7 8 8 9 88 10 9 11 10 12 5 13
REMARK SMILES IDX 4 14 6 16 3 17 2 18 1 19 89 20 90 21 93 22 91 23 92 24 17 25
REMARK SMILES IDX 18 26 19 27 20 28 21 30 22 31 23 32 87 33 24 34 86 35 25 36
REMARK SMILES IDX 26 37 27 38 80 39 28 40 85 41 79 42 81 43 29 44 84 45 78 46
REMARK SMILES IDX 77 47 30 49 64 50 43 51 63 52 44 53 47 54 62 55 82 56 45 57
REMARK SMILES IDX 46 58 61 60 83 61 48 62 31 63 32 64 41 65 33 66 34 67 40 68
REMARK SMILES IDX 42 69 35 70 36 71 37 72 38 73 39 74 65 75 66 76 75 77 67 78
REMARK SMILES IDX 68 79 74 80 76 81 69 82 70 83 71 84 72 85 73 86 49 87 50 88
REMARK SMILES IDX 59 89 51 90 52 91 58 92 60 93 53 94 54 95 55 96 56 97 57 98
REMARK H PARENT 15 5 4 15 19 29 81 48 47 59
REMARK Flexibility Score: inf
ROOT
ATOM      1  C   UNL A   1      37.975  22.735  25.998  1.00  0.00     0.117 C 
ENDROOT
BRANCH   1   2
ATOM      2  N   UNL A   1      37.658  22.665  24.577  1.00  0.00    -0.356 N 
ATOM      3  C   UNL A   1      36.474  22.801  23.915  1.00  0.00     0.222 C 
ATOM      4  O   UNL A   1      36.510  23.054  22.709  1.00  0.00    -0.275 OA
ATOM      5  H   UNL A   1      38.433  22.488  23.996  1.00  0.00     0.163 HD
BRANCH   3   6
ATOM      6  C   UNL A   1      35.141  22.690  24.620  1.00  0.00     0.133 C 
BRANCH   6   7
ATOM      7  C   UNL A   1      33.886  22.719  23.733  1.00  0.00     0.147 C 
ATOM      8  N   UNL A   1      32.095  23.346  25.317  1.00  0.00    -0.320 N 
ATOM      9  C   UNL A   1      31.447  22.064  25.112  1.00  0.00     0.150 C 
ATOM     10  C   UNL A   1      32.797  23.734  24.101  1.00  0.00     0.154 C 
ATOM     11  C   UNL A   1      32.485  21.006  24.717  1.00  0.00     0.182 C 
ATOM     12  O   UNL A   1      33.293  21.402  23.589  1.00  0.00    -0.374 OA
BRANCH   8  13
ATOM     13  C   UNL A   1      31.817  24.302  26.239  1.00  0.00     0.318 C 
ATOM     14  N   UNL A   1      31.588  25.595  25.987  1.00  0.00    -0.330 N 
ATOM     15  H   UNL A   1      31.958  26.138  26.720  1.00  0.00     0.166 HD
ATOM     16  O   UNL A   1      31.769  24.014  27.443  1.00  0.00    -0.249 OA
BRANCH  14  17
ATOM     17  C   UNL A   1      30.968  26.484  24.990  1.00  0.00     0.124 C 
BRANCH  17  18
ATOM     18  C   UNL A   1      29.926  25.810  24.072  1.00  0.00     0.027 C 
ATOM     19  C   UNL A   1      28.597  26.551  23.984  1.00  0.00     0.006 C 
ENDBRANCH  17  18
BRANCH  17  20
ATOM     20  C   UNL A   1      31.921  27.348  24.222  1.00  0.00     0.027 A 
ATOM     21  C   UNL A   1      31.673  28.191  23.153  1.00  0.00     0.017 A 
ATOM     22  S   UNL A   1      33.566  27.457  24.724  1.00  0.00    -0.147 S 
ATOM     23  C   UNL A   1      32.860  28.806  22.658  1.00  0.00     0.012 A 
ATOM     24  C   UNL A   1      33.967  28.453  23.394  1.00  0.00     0.065 A 
ENDBRANCH  17  20
ENDBRANCH  14  17
ENDBRANCH   8  13
ENDBRANCH   6   7
ENDBRANCH   3   6
ENDBRANCH   1   2
BRANCH   1  25
ATOM     25  C   UNL A   1      39.331  22.154  26.441  1.00  0.00     0.042 C 
BRANCH  25  26
ATOM     26  C   UNL A   1      40.301  23.121  27.126  1.00  0.00     0.118 C 
BRANCH  26  27
ATOM     27  N   UNL A   1      41.099  23.858  26.160  1.00  0.00    -0.352 N 
ATOM     28  C   UNL A   1      41.400  25.196  26.087  1.00  0.00     0.251 C 
ATOM     29  H   UNL A   1      41.486  23.309  25.442  1.00  0.00     0.163 HD
ATOM     30  O   UNL A   1      41.871  25.631  25.037  1.00  0.00    -0.269 OA
BRANCH  28  31
ATOM     31  C   UNL A   1      41.158  26.133  27.216  1.00  0.00     0.039 A 
ATOM     32  C   UNL A   1      42.086  27.161  27.424  1.00  0.00     0.014 A 
ATOM     33  C   UNL A   1      40.124  25.956  28.140  1.00  0.00     0.014 A 
ATOM     34  C   UNL A   1      41.960  28.021  28.523  1.00  0.00     0.010 A 
ATOM     35  C   UNL A   1      39.968  26.847  29.211  1.00  0.00     0.010 A 
ATOM     36  C   UNL A   1      40.889  27.886  29.422  1.00  0.00    -0.014 A 
BRANCH  36  37
ATOM     37  C   UNL A   1      40.738  28.833  30.565  1.00  0.00     0.031 A 
ATOM     38  C   UNL A   1      41.604  28.716  31.795  1.00  0.00     0.074 A 
ATOM     39  C   UNL A   1      39.800  29.801  30.509  1.00  0.00     0.049 A 
ATOM     40  N   UNL A   1      41.606  29.455  32.877  1.00  0.00    -0.248 NA
ATOM     41  C   UNL A   1      42.585  27.621  31.821  1.00  0.00     0.031 C 
ATOM     42  C   UNL A   1      38.866  30.003  29.399  1.00  0.00     0.029 A 
ATOM     43  N   UNL A   1      39.470  30.792  31.402  1.00  0.00    -0.354 N 
ATOM     44  C   UNL A   1      42.574  28.912  33.715  1.00  0.00     0.074 A 
ATOM     45  C   UNL A   1      43.116  27.757  33.030  1.00  0.00     0.031 C 
ATOM     46  C   UNL A   1      38.080  31.057  29.672  1.00  0.00     0.029 A 
ATOM     47  C   UNL A   1      38.430  31.590  30.985  1.00  0.00     0.049 A 
ATOM     48  H   UNL A   1      39.935  30.919  32.260  1.00  0.00     0.167 HD
ATOM     49  C   UNL A   1      42.986  29.342  34.934  1.00  0.00     0.037 A 
ATOM     50  C   UNL A   1      37.817  32.627  31.591  1.00  0.00     0.037 A 
ATOM     51  C   UNL A   1      42.468  30.508  35.605  1.00  0.00     0.049 A 
ATOM     52  C   UNL A   1      38.296  33.088  32.941  1.00  0.00     0.074 A 
ATOM     53  C   UNL A   1      42.882  31.062  36.805  1.00  0.00     0.029 A 
ATOM     54  N   UNL A   1      41.422  31.293  35.145  1.00  0.00    -0.354 N 
ATOM     55  N   UNL A   1      39.269  32.607  33.677  1.00  0.00    -0.248 NA
ATOM     56  C   UNL A   1      37.599  34.236  33.540  1.00  0.00     0.031 C 
ATOM     57  C   UNL A   1      42.057  32.154  37.093  1.00  0.00     0.029 A 
ATOM     58  C   UNL A   1      41.158  32.309  36.050  1.00  0.00     0.049 A 
ATOM     59  H   UNL A   1      40.938  31.150  34.299  1.00  0.00     0.167 HD
ATOM     60  C   UNL A   1      39.310  33.403  34.817  1.00  0.00     0.074 A 
ATOM     61  C   UNL A   1      38.280  34.408  34.665  1.00  0.00     0.031 C 
ATOM     62  C   UNL A   1      40.129  33.306  35.894  1.00  0.00     0.037 A 
BRANCH  49  63
ATOM     63  C   UNL A   1      44.061  28.554  35.633  1.00  0.00     0.058 A 
ATOM     64  C   UNL A   1      45.423  28.811  35.415  1.00  0.00     0.135 A 
ATOM     65  C   UNL A   1      43.725  27.582  36.590  1.00  0.00     0.135 A 
ATOM     66  F   UNL A   1      45.802  29.722  34.506  1.00  0.00    -0.206 F 
ATOM     67  C   UNL A   1      46.414  28.119  36.105  1.00  0.00     0.059 A 
ATOM     68  C   UNL A   1      44.699  26.894  37.311  1.00  0.00     0.059 A 
ATOM     69  F   UNL A   1      42.436  27.300  36.843  1.00  0.00    -0.206 F 
ATOM     70  C   UNL A   1      46.042  27.164  37.053  1.00  0.00     0.060 A 
BRANCH  70  71
ATOM     71  S   UNL A   1      47.336  26.289  37.959  1.00  0.00     0.124 S 
ATOM     72  O   UNL A   1      47.644  27.247  39.021  1.00  0.00    -0.237 OA
ATOM     73  O   UNL A   1      46.642  25.075  38.393  1.00  0.00    -0.237 OA
ATOM     74  O   UNL A   1      48.378  26.091  36.969  1.00  0.00    -0.744 OA
ENDBRANCH  70  71
ENDBRANCH  49  63
BRANCH  50  75
ATOM     75  C   UNL A   1      36.675  33.307  30.922  1.00  0.00     0.058 A 
ATOM     76  C   UNL A   1      35.355  33.108  31.355  1.00  0.00     0.135 A 
ATOM     77  C   UNL A   1      36.883  34.171  29.835  1.00  0.00     0.135 A 
ATOM     78  F   UNL A   1      35.105  32.283  32.384  1.00  0.00    -0.206 F 
ATOM     79  C   UNL A   1      34.280  33.726  30.725  1.00  0.00     0.059 A 
ATOM     80  C   UNL A   1      35.826  34.820  29.205  1.00  0.00     0.059 A 
ATOM     81  F   UNL A   1      38.127  34.407  29.392  1.00  0.00    -0.206 F 
ATOM     82  C   UNL A   1      34.527  34.583  29.650  1.00  0.00     0.060 A 
BRANCH  82  83
ATOM     83  S   UNL A   1      33.130  35.417  28.866  1.00  0.00     0.124 S 
ATOM     84  O   UNL A   1      33.806  36.437  28.072  1.00  0.00    -0.237 OA
ATOM     85  O   UNL A   1      32.505  34.332  28.114  1.00  0.00    -0.237 OA
ATOM     86  O   UNL A   1      32.355  35.908  30.001  1.00  0.00    -0.744 OA
ENDBRANCH  82  83
ENDBRANCH  50  75
BRANCH  62  87
ATOM     87  C   UNL A   1      39.957  34.321  36.991  1.00  0.00     0.058 A 
ATOM     88  C   UNL A   1      39.136  34.070  38.101  1.00  0.00     0.135 A 
ATOM     89  C   UNL A   1      40.656  35.538  36.955  1.00  0.00     0.135 A 
ATOM     90  F   UNL A   1      38.438  32.926  38.181  1.00  0.00    -0.206 F 
ATOM     91  C   UNL A   1      38.997  34.999  39.128  1.00  0.00     0.059 A 
ATOM     92  C   UNL A   1      40.553  36.470  37.983  1.00  0.00     0.059 A 
ATOM     93  F   UNL A   1      41.463  35.825  35.920  1.00  0.00    -0.206 F 
ATOM     94  C   UNL A   1      39.712  36.197  39.061  1.00  0.00     0.060 A 
BRANCH  94  95
ATOM     95  S   UNL A   1      39.550  37.380  40.416  1.00  0.00     0.124 S 
ATOM     96  O   UNL A   1      39.650  36.508  41.581  1.00  0.00    -0.237 OA
ATOM     97  O   UNL A   1      40.685  38.271  40.191  1.00  0.00    -0.237 OA
ATOM     98  O   UNL A   1      38.237  37.978  40.189  1.00  0.00    -0.744 OA
ENDBRANCH  94  95
ENDBRANCH  62  87
ENDBRANCH  36  37
ENDBRANCH  28  31
ENDBRANCH  26  27
ENDBRANCH  25  26
ENDBRANCH   1  25
TORSDOF 18
ENDMDL
