MODEL 1
REMARK VINA RESULT:     -10.9      0.000      0.000
REMARK SMILES CCC[C@@H]1SC[C@H](C(=O)NCCCNC(=O)c2ccc(-c3c4nc(c(-c5c(F)cc(S(=O)(=O)[O-])cc5F)c5ccc([nH]5)c(-c5c(F)cc(S(=O)(=O)[O-])cc5F)c5nc(c(-c6c(F)cc(S(=O)(=O)[O-])cc6F)c6ccc3[nH]6)C=C5)C=C4)cc2)N1C(=O)C[NH+]1CCC([NH3+])CC1
REMARK SMILES IDX 11 1 10 2 8 3 9 4 7 6 4 7 5 8 83 9 6 10 3 11 2 12 1 13 84 14
REMARK SMILES IDX 85 15 86 16 87 17 88 18 93 19 89 21 92 22 90 23 91 24 12 28
REMARK SMILES IDX 13 29 14 30 15 31 16 33 17 34 18 35 82 36 19 37 81 38 20 39
REMARK SMILES IDX 21 40 22 41 75 42 23 43 80 44 74 45 76 46 24 47 79 48 73 49
REMARK SMILES IDX 72 50 25 52 59 53 38 54 58 55 39 56 42 57 57 58 77 59 40 60
REMARK SMILES IDX 41 61 56 63 78 64 43 65 26 66 27 67 36 68 28 69 29 70 35 71
REMARK SMILES IDX 37 72 30 73 31 74 32 75 33 76 34 77 60 78 61 79 70 80 62 81
REMARK SMILES IDX 63 82 69 83 71 84 64 85 65 86 66 87 67 88 68 89 44 90 45 91
REMARK SMILES IDX 54 92 46 93 47 94 53 95 55 96 48 97 49 98 50 99 51 100
REMARK SMILES IDX 52 101
REMARK H PARENT 10 5 87 20 91 25 91 26 91 27 14 32 76 51 42 62
REMARK Flexibility Score: inf
ROOT
ATOM      1  C   UNL A   1      37.252  22.532  25.638  1.00  0.00     0.117 C 
ENDROOT
BRANCH   1   2
ATOM      2  N   UNL A   1      36.118  22.211  26.494  1.00  0.00    -0.354 N 
ATOM      3  C   UNL A   1      34.770  22.189  26.247  1.00  0.00     0.243 C 
ATOM      4  O   UNL A   1      34.021  21.934  27.194  1.00  0.00    -0.273 OA
ATOM      5  H   UNL A   1      36.364  21.967  27.416  1.00  0.00     0.163 HD
BRANCH   3   6
ATOM      6  C   UNL A   1      34.243  22.466  24.820  1.00  0.00     0.185 C 
ATOM      7  C   UNL A   1      32.769  23.610  23.245  1.00  0.00     0.144 C 
ATOM      8  S   UNL A   1      32.401  21.820  23.013  1.00  0.00    -0.134 SA
ATOM      9  N   UNL A   1      33.488  23.699  24.518  1.00  0.00    -0.313 N 
ATOM     10  C   UNL A   1      33.352  21.282  24.446  1.00  0.00     0.107 C 
BRANCH   7  11
ATOM     11  C   UNL A   1      31.480  24.437  23.110  1.00  0.00     0.036 C 
BRANCH  11  12
ATOM     12  C   UNL A   1      31.631  25.636  22.153  1.00  0.00    -0.000 C 
ATOM     13  C   UNL A   1      33.037  25.861  21.620  1.00  0.00     0.004 C 
ENDBRANCH  11  12
ENDBRANCH   7  11
BRANCH   9  14
ATOM     14  C   UNL A   1      33.907  24.861  25.138  1.00  0.00     0.279 C 
ATOM     15  O   UNL A   1      35.058  25.274  24.943  1.00  0.00    -0.268 OA
BRANCH  14  16
ATOM     16  C   UNL A   1      33.036  25.672  26.109  1.00  0.00     0.363 C 
BRANCH  16  17
ATOM     17  N   UNL A   1      32.251  26.776  25.522  1.00  0.00    -0.327 N 
ATOM     18  C   UNL A   1      31.307  27.316  26.524  1.00  0.00     0.268 C 
ATOM     19  C   UNL A   1      33.045  27.860  24.924  1.00  0.00     0.268 C 
ATOM     20  H   UNL A   1      31.745  26.363  24.739  1.00  0.00     0.348 HD
ATOM     21  C   UNL A   1      31.946  28.237  27.572  1.00  0.00     0.126 C 
ATOM     22  C   UNL A   1      33.714  28.814  25.906  1.00  0.00     0.126 C 
ATOM     23  C   UNL A   1      32.691  29.381  26.885  1.00  0.00     0.192 C 
BRANCH  23  24
ATOM     24  N   UNL A   1      33.367  30.252  27.846  1.00  0.00    -0.355 N 
ATOM     25  H   UNL A   1      34.376  30.147  27.747  1.00  0.00     0.344 HD
ATOM     26  H   UNL A   1      33.089  29.995  28.793  1.00  0.00     0.344 HD
ATOM     27  H   UNL A   1      33.107  31.222  27.666  1.00  0.00     0.344 HD
ENDBRANCH  23  24
ENDBRANCH  16  17
ENDBRANCH  14  16
ENDBRANCH   9  14
ENDBRANCH   3   6
ENDBRANCH   1   2
BRANCH   1  28
ATOM     28  C   UNL A   1      38.048  23.756  26.089  1.00  0.00     0.042 C 
BRANCH  28  29
ATOM     29  C   UNL A   1      39.260  23.444  26.955  1.00  0.00     0.118 C 
BRANCH  29  30
ATOM     30  N   UNL A   1      40.506  23.635  26.224  1.00  0.00    -0.352 N 
ATOM     31  C   UNL A   1      41.425  24.652  26.329  1.00  0.00     0.251 C 
ATOM     32  H   UNL A   1      40.720  22.937  25.563  1.00  0.00     0.163 HD
ATOM     33  O   UNL A   1      42.287  24.785  25.466  1.00  0.00    -0.269 OA
BRANCH  31  34
ATOM     34  C   UNL A   1      41.363  25.595  27.470  1.00  0.00     0.039 A 
ATOM     35  C   UNL A   1      42.434  26.463  27.698  1.00  0.00     0.014 A 
ATOM     36  C   UNL A   1      40.255  25.613  28.322  1.00  0.00     0.014 A 
ATOM     37  C   UNL A   1      42.366  27.392  28.742  1.00  0.00     0.010 A 
ATOM     38  C   UNL A   1      40.159  26.586  29.315  1.00  0.00     0.010 A 
ATOM     39  C   UNL A   1      41.213  27.485  29.538  1.00  0.00    -0.014 A 
BRANCH  39  40
ATOM     40  C   UNL A   1      41.080  28.511  30.607  1.00  0.00     0.031 A 
ATOM     41  C   UNL A   1      41.914  28.415  31.855  1.00  0.00     0.074 A 
ATOM     42  C   UNL A   1      40.141  29.472  30.500  1.00  0.00     0.049 A 
ATOM     43  N   UNL A   1      41.858  29.135  32.947  1.00  0.00    -0.248 NA
ATOM     44  C   UNL A   1      42.926  27.347  31.890  1.00  0.00     0.031 C 
ATOM     45  C   UNL A   1      39.231  29.643  29.366  1.00  0.00     0.029 A 
ATOM     46  N   UNL A   1      39.779  30.470  31.370  1.00  0.00    -0.354 N 
ATOM     47  C   UNL A   1      42.808  28.594  33.806  1.00  0.00     0.074 A 
ATOM     48  C   UNL A   1      43.389  27.457  33.126  1.00  0.00     0.031 C 
ATOM     49  C   UNL A   1      38.414  30.680  29.611  1.00  0.00     0.029 A 
ATOM     50  C   UNL A   1      38.715  31.224  30.932  1.00  0.00     0.049 A 
ATOM     51  H   UNL A   1      40.236  30.631  32.226  1.00  0.00     0.167 HD
ATOM     52  C   UNL A   1      43.175  29.018  35.040  1.00  0.00     0.037 A 
ATOM     53  C   UNL A   1      38.043  32.226  31.531  1.00  0.00     0.037 A 
ATOM     54  C   UNL A   1      42.605  30.161  35.706  1.00  0.00     0.049 A 
ATOM     55  C   UNL A   1      38.473  32.693  32.894  1.00  0.00     0.074 A 
ATOM     56  C   UNL A   1      42.950  30.706  36.929  1.00  0.00     0.029 A 
ATOM     57  N   UNL A   1      41.564  30.931  35.205  1.00  0.00    -0.354 N 
ATOM     58  N   UNL A   1      39.419  32.214  33.666  1.00  0.00    -0.248 NA
ATOM     59  C   UNL A   1      37.755  33.842  33.462  1.00  0.00     0.031 C 
ATOM     60  C   UNL A   1      42.091  31.780  37.188  1.00  0.00     0.029 A 
ATOM     61  C   UNL A   1      41.242  31.935  36.104  1.00  0.00     0.049 A 
ATOM     62  H   UNL A   1      41.119  30.783  34.339  1.00  0.00     0.167 HD
ATOM     63  C   UNL A   1      39.424  33.014  34.803  1.00  0.00     0.074 A 
ATOM     64  C   UNL A   1      38.393  34.015  34.613  1.00  0.00     0.031 C 
ATOM     65  C   UNL A   1      40.213  32.928  35.903  1.00  0.00     0.037 A 
BRANCH  52  66
ATOM     66  C   UNL A   1      44.242  28.227  35.749  1.00  0.00     0.058 A 
ATOM     67  C   UNL A   1      43.922  27.180  36.631  1.00  0.00     0.135 A 
ATOM     68  C   UNL A   1      45.601  28.523  35.554  1.00  0.00     0.135 A 
ATOM     69  F   UNL A   1      42.639  26.860  36.863  1.00  0.00    -0.206 F 
ATOM     70  C   UNL A   1      44.908  26.493  37.333  1.00  0.00     0.059 A 
ATOM     71  C   UNL A   1      46.605  27.827  36.223  1.00  0.00     0.059 A 
ATOM     72  F   UNL A   1      45.965  29.507  34.718  1.00  0.00    -0.206 F 
ATOM     73  C   UNL A   1      46.246  26.830  37.130  1.00  0.00     0.060 A 
BRANCH  73  74
ATOM     74  S   UNL A   1      47.510  25.958  38.077  1.00  0.00     0.124 S 
ATOM     75  O   UNL A   1      48.733  26.476  37.471  1.00  0.00    -0.237 OA
ATOM     76  O   UNL A   1      47.245  26.401  39.441  1.00  0.00    -0.237 OA
ATOM     77  O   UNL A   1      47.225  24.551  37.811  1.00  0.00    -0.744 OA
ENDBRANCH  73  74
ENDBRANCH  52  66
BRANCH  53  78
ATOM     78  C   UNL A   1      36.895  32.855  30.826  1.00  0.00     0.058 A 
ATOM     79  C   UNL A   1      37.090  33.897  29.909  1.00  0.00     0.135 A 
ATOM     80  C   UNL A   1      35.587  32.380  31.008  1.00  0.00     0.135 A 
ATOM     81  F   UNL A   1      38.323  34.390  29.707  1.00  0.00    -0.206 F 
ATOM     82  C   UNL A   1      36.032  34.443  29.191  1.00  0.00     0.059 A 
ATOM     83  C   UNL A   1      34.515  32.895  30.287  1.00  0.00     0.059 A 
ATOM     84  F   UNL A   1      35.350  31.370  31.860  1.00  0.00    -0.206 F 
ATOM     85  C   UNL A   1      34.748  33.927  29.380  1.00  0.00     0.060 A 
BRANCH  85  86
ATOM     86  S   UNL A   1      33.395  34.564  28.366  1.00  0.00     0.124 S 
ATOM     87  O   UNL A   1      34.119  35.310  27.345  1.00  0.00    -0.237 OA
ATOM     88  O   UNL A   1      32.742  33.337  27.923  1.00  0.00    -0.237 OA
ATOM     89  O   UNL A   1      32.622  35.367  29.311  1.00  0.00    -0.744 OA
ENDBRANCH  85  86
ENDBRANCH  53  78
BRANCH  65  90
ATOM     90  C   UNL A   1      40.019  33.959  36.981  1.00  0.00     0.058 A 
ATOM     91  C   UNL A   1      40.600  35.232  36.899  1.00  0.00     0.135 A 
ATOM     92  C   UNL A   1      39.190  33.685  38.081  1.00  0.00     0.135 A 
ATOM     93  F   UNL A   1      41.407  35.542  35.872  1.00  0.00    -0.206 F 
ATOM     94  C   UNL A   1      40.382  36.196  37.879  1.00  0.00     0.059 A 
ATOM     95  C   UNL A   1      38.937  34.641  39.061  1.00  0.00     0.059 A 
ATOM     96  F   UNL A   1      38.602  32.484  38.204  1.00  0.00    -0.206 F 
ATOM     97  C   UNL A   1      39.546  35.891  38.956  1.00  0.00     0.060 A 
BRANCH  97  98
ATOM     98  S   UNL A   1      39.238  37.162  40.201  1.00  0.00     0.124 S 
ATOM     99  O   UNL A   1      38.490  38.151  39.431  1.00  0.00    -0.237 OA
ATOM    100  O   UNL A   1      38.475  36.434  41.210  1.00  0.00    -0.237 OA
ATOM    101  O   UNL A   1      40.579  37.569  40.611  1.00  0.00    -0.744 OA
ENDBRANCH  97  98
ENDBRANCH  65  90
ENDBRANCH  39  40
ENDBRANCH  31  34
ENDBRANCH  29  30
ENDBRANCH  28  29
ENDBRANCH   1  28
TORSDOF 19
ENDMDL
MODEL 2
REMARK VINA RESULT:     -10.9      1.507      3.218
REMARK SMILES CCC[C@@H]1SC[C@H](C(=O)NCCCNC(=O)c2ccc(-c3c4nc(c(-c5c(F)cc(S(=O)(=O)[O-])cc5F)c5ccc([nH]5)c(-c5c(F)cc(S(=O)(=O)[O-])cc5F)c5nc(c(-c6c(F)cc(S(=O)(=O)[O-])cc6F)c6ccc3[nH]6)C=C5)C=C4)cc2)N1C(=O)C[NH+]1CCC([NH3+])CC1
REMARK SMILES IDX 11 1 10 2 8 3 9 4 7 6 4 7 5 8 83 9 6 10 3 11 2 12 1 13 84 14
REMARK SMILES IDX 85 15 86 16 87 17 88 18 93 19 89 21 92 22 90 23 91 24 12 28
REMARK SMILES IDX 13 29 14 30 15 31 16 33 17 34 18 35 82 36 19 37 81 38 20 39
REMARK SMILES IDX 21 40 22 41 75 42 23 43 80 44 74 45 76 46 24 47 79 48 73 49
REMARK SMILES IDX 72 50 25 52 59 53 38 54 58 55 39 56 42 57 57 58 77 59 40 60
REMARK SMILES IDX 41 61 56 63 78 64 43 65 26 66 27 67 36 68 28 69 29 70 35 71
REMARK SMILES IDX 37 72 30 73 31 74 32 75 33 76 34 77 60 78 61 79 70 80 62 81
REMARK SMILES IDX 63 82 69 83 71 84 64 85 65 86 66 87 67 88 68 89 44 90 45 91
REMARK SMILES IDX 54 92 46 93 47 94 53 95 55 96 48 97 49 98 50 99 51 100
REMARK SMILES IDX 52 101
REMARK H PARENT 10 5 87 20 91 25 91 26 91 27 14 32 76 51 42 62
REMARK Flexibility Score: inf
ROOT
ATOM      1  C   UNL A   1      36.120  24.066  25.606  1.00  0.00     0.117 C 
ENDROOT
BRANCH   1   2
ATOM      2  N   UNL A   1      35.612  24.094  24.241  1.00  0.00    -0.354 N 
ATOM      3  C   UNL A   1      34.423  24.540  23.723  1.00  0.00     0.243 C 
ATOM      4  O   UNL A   1      34.235  24.382  22.514  1.00  0.00    -0.273 OA
ATOM      5  H   UNL A   1      36.234  23.728  23.571  1.00  0.00     0.163 HD
BRANCH   3   6
ATOM      6  C   UNL A   1      33.386  25.219  24.647  1.00  0.00     0.185 C 
ATOM      7  C   UNL A   1      31.130  26.007  25.150  1.00  0.00     0.144 C 
ATOM      8  S   UNL A   1      32.186  27.512  25.260  1.00  0.00    -0.134 SA
ATOM      9  N   UNL A   1      31.937  25.015  24.438  1.00  0.00    -0.313 N 
ATOM     10  C   UNL A   1      33.651  26.723  24.568  1.00  0.00     0.107 C 
BRANCH   7  11
ATOM     11  C   UNL A   1      29.762  26.362  24.545  1.00  0.00     0.036 C 
BRANCH  11  12
ATOM     12  C   UNL A   1      29.867  27.303  23.329  1.00  0.00    -0.000 C 
ATOM     13  C   UNL A   1      28.759  28.338  23.218  1.00  0.00     0.004 C 
ENDBRANCH  11  12
ENDBRANCH   7  11
BRANCH   9  14
ATOM     14  C   UNL A   1      31.529  23.749  24.061  1.00  0.00     0.279 C 
ATOM     15  O   UNL A   1      30.788  23.616  23.077  1.00  0.00    -0.268 OA
BRANCH  14  16
ATOM     16  C   UNL A   1      31.907  22.469  24.821  1.00  0.00     0.363 C 
BRANCH  16  17
ATOM     17  N   UNL A   1      32.984  21.649  24.232  1.00  0.00    -0.327 N 
ATOM     18  C   UNL A   1      33.991  21.317  25.264  1.00  0.00     0.268 C 
ATOM     19  C   UNL A   1      32.537  20.433  23.537  1.00  0.00     0.268 C 
ATOM     20  H   UNL A   1      33.399  22.229  23.502  1.00  0.00     0.348 HD
ATOM     21  C   UNL A   1      33.572  20.197  26.226  1.00  0.00     0.126 C 
ATOM     22  C   UNL A   1      32.102  19.278  24.430  1.00  0.00     0.126 C 
ATOM     23  C   UNL A   1      33.191  18.941  25.442  1.00  0.00     0.192 C 
BRANCH  23  24
ATOM     24  N   UNL A   1      32.728  17.867  26.318  1.00  0.00    -0.355 N 
ATOM     25  H   UNL A   1      32.892  16.967  25.867  1.00  0.00     0.344 HD
ATOM     26  H   UNL A   1      31.730  17.980  26.499  1.00  0.00     0.344 HD
ATOM     27  H   UNL A   1      33.240  17.903  27.200  1.00  0.00     0.344 HD
ENDBRANCH  23  24
ENDBRANCH  16  17
ENDBRANCH  14  16
ENDBRANCH   9  14
ENDBRANCH   3   6
ENDBRANCH   1   2
BRANCH   1  28
ATOM     28  C   UNL A   1      37.498  23.421  25.746  1.00  0.00     0.042 C 
BRANCH  28  29
ATOM     29  C   UNL A   1      38.493  24.217  26.579  1.00  0.00     0.118 C 
BRANCH  29  30
ATOM     30  N   UNL A   1      39.862  24.006  26.126  1.00  0.00    -0.352 N 
ATOM     31  C   UNL A   1      40.997  24.714  26.442  1.00  0.00     0.251 C 
ATOM     32  H   UNL A   1      39.991  23.250  25.508  1.00  0.00     0.163 HD
ATOM     33  O   UNL A   1      42.018  24.555  25.780  1.00  0.00    -0.269 OA
BRANCH  31  34
ATOM     34  C   UNL A   1      40.983  25.679  27.565  1.00  0.00     0.039 A 
ATOM     35  C   UNL A   1      41.997  26.637  27.657  1.00  0.00     0.014 A 
ATOM     36  C   UNL A   1      39.978  25.631  28.536  1.00  0.00     0.014 A 
ATOM     37  C   UNL A   1      41.967  27.586  28.685  1.00  0.00     0.010 A 
ATOM     38  C   UNL A   1      39.911  26.620  29.516  1.00  0.00     0.010 A 
ATOM     39  C   UNL A   1      40.905  27.606  29.603  1.00  0.00    -0.014 A 
BRANCH  39  40
ATOM     40  C   UNL A   1      40.806  28.646  30.663  1.00  0.00     0.031 A 
ATOM     41  C   UNL A   1      41.655  28.548  31.900  1.00  0.00     0.074 A 
ATOM     42  C   UNL A   1      39.884  29.624  30.556  1.00  0.00     0.049 A 
ATOM     43  N   UNL A   1      41.627  29.282  32.984  1.00  0.00    -0.248 NA
ATOM     44  C   UNL A   1      42.647  27.462  31.935  1.00  0.00     0.031 C 
ATOM     45  C   UNL A   1      38.962  29.800  29.433  1.00  0.00     0.029 A 
ATOM     46  N   UNL A   1      39.553  30.639  31.420  1.00  0.00    -0.354 N 
ATOM     47  C   UNL A   1      42.578  28.732  33.837  1.00  0.00     0.074 A 
ATOM     48  C   UNL A   1      43.128  27.576  33.163  1.00  0.00     0.031 C 
ATOM     49  C   UNL A   1      38.169  30.855  29.676  1.00  0.00     0.029 A 
ATOM     50  C   UNL A   1      38.498  31.408  30.987  1.00  0.00     0.049 A 
ATOM     51  H   UNL A   1      40.025  30.800  32.268  1.00  0.00     0.167 HD
ATOM     52  C   UNL A   1      42.969  29.162  35.062  1.00  0.00     0.037 A 
ATOM     53  C   UNL A   1      37.853  32.430  31.584  1.00  0.00     0.037 A 
ATOM     54  C   UNL A   1      42.430  30.323  35.722  1.00  0.00     0.049 A 
ATOM     55  C   UNL A   1      38.310  32.903  32.935  1.00  0.00     0.074 A 
ATOM     56  C   UNL A   1      42.802  30.876  36.934  1.00  0.00     0.029 A 
ATOM     57  N   UNL A   1      41.398  31.108  35.226  1.00  0.00    -0.354 N 
ATOM     58  N   UNL A   1      39.257  32.414  33.701  1.00  0.00    -0.248 NA
ATOM     59  C   UNL A   1      37.622  34.072  33.500  1.00  0.00     0.031 C 
ATOM     60  C   UNL A   1      41.967  31.969  37.191  1.00  0.00     0.029 A 
ATOM     61  C   UNL A   1      41.106  32.128  36.117  1.00  0.00     0.049 A 
ATOM     62  H   UNL A   1      40.939  30.959  34.368  1.00  0.00     0.167 HD
ATOM     63  C   UNL A   1      39.292  33.227  34.828  1.00  0.00     0.074 A 
ATOM     64  C   UNL A   1      38.279  34.245  34.640  1.00  0.00     0.031 C 
ATOM     65  C   UNL A   1      40.094  33.138  35.918  1.00  0.00     0.037 A 
BRANCH  52  66
ATOM     66  C   UNL A   1      44.031  28.359  35.766  1.00  0.00     0.058 A 
ATOM     67  C   UNL A   1      45.399  28.597  35.553  1.00  0.00     0.135 A 
ATOM     68  C   UNL A   1      43.678  27.333  36.657  1.00  0.00     0.135 A 
ATOM     69  F   UNL A   1      45.795  29.559  34.703  1.00  0.00    -0.206 F 
ATOM     70  C   UNL A   1      46.378  27.812  36.155  1.00  0.00     0.059 A 
ATOM     71  C   UNL A   1      44.641  26.555  37.295  1.00  0.00     0.059 A 
ATOM     72  F   UNL A   1      42.387  27.066  36.904  1.00  0.00    -0.206 F 
ATOM     73  C   UNL A   1      45.988  26.787  37.017  1.00  0.00     0.060 A 
BRANCH  73  74
ATOM     74  S   UNL A   1      47.265  25.751  37.761  1.00  0.00     0.124 S 
ATOM     75  O   UNL A   1      46.940  24.443  37.200  1.00  0.00    -0.237 OA
ATOM     76  O   UNL A   1      48.494  26.363  37.267  1.00  0.00    -0.237 OA
ATOM     77  O   UNL A   1      47.030  25.896  39.195  1.00  0.00    -0.744 OA
ENDBRANCH  73  74
ENDBRANCH  52  66
BRANCH  53  78
ATOM     78  C   UNL A   1      36.709  33.072  30.886  1.00  0.00     0.058 A 
ATOM     79  C   UNL A   1      35.390  32.865  31.315  1.00  0.00     0.135 A 
ATOM     80  C   UNL A   1      36.918  33.958  29.818  1.00  0.00     0.135 A 
ATOM     81  F   UNL A   1      35.139  32.021  32.328  1.00  0.00    -0.206 F 
ATOM     82  C   UNL A   1      34.318  33.517  30.715  1.00  0.00     0.059 A 
ATOM     83  C   UNL A   1      35.865  34.638  29.215  1.00  0.00     0.059 A 
ATOM     84  F   UNL A   1      38.164  34.205  29.383  1.00  0.00    -0.206 F 
ATOM     85  C   UNL A   1      34.568  34.411  29.671  1.00  0.00     0.060 A 
BRANCH  85  86
ATOM     86  S   UNL A   1      33.186  35.338  28.968  1.00  0.00     0.124 S 
ATOM     87  O   UNL A   1      33.877  36.420  28.279  1.00  0.00    -0.237 OA
ATOM     88  O   UNL A   1      32.550  34.338  28.116  1.00  0.00    -0.237 OA
ATOM     89  O   UNL A   1      32.413  35.725  30.145  1.00  0.00    -0.744 OA
ENDBRANCH  85  86
ENDBRANCH  53  78
BRANCH  65  90
ATOM     90  C   UNL A   1      39.934  34.185  36.987  1.00  0.00     0.058 A 
ATOM     91  C   UNL A   1      40.533  35.448  36.879  1.00  0.00     0.135 A 
ATOM     92  C   UNL A   1      39.121  33.937  38.105  1.00  0.00     0.135 A 
ATOM     93  F   UNL A   1      41.326  35.734  35.835  1.00  0.00    -0.206 F 
ATOM     94  C   UNL A   1      40.346  36.426  37.851  1.00  0.00     0.059 A 
ATOM     95  C   UNL A   1      38.899  34.908  39.076  1.00  0.00     0.059 A 
ATOM     96  F   UNL A   1      38.518  32.746  38.252  1.00  0.00    -0.206 F 
ATOM     97  C   UNL A   1      39.525  36.147  38.946  1.00  0.00     0.060 A 
BRANCH  97  98
ATOM     98  S   UNL A   1      39.257  37.438  40.181  1.00  0.00     0.124 S 
ATOM     99  O   UNL A   1      38.390  38.361  39.456  1.00  0.00    -0.237 OA
ATOM    100  O   UNL A   1      38.628  36.701  41.272  1.00  0.00    -0.237 OA
ATOM    101  O   UNL A   1      40.605  37.928  40.458  1.00  0.00    -0.744 OA
ENDBRANCH  97  98
ENDBRANCH  65  90
ENDBRANCH  39  40
ENDBRANCH  31  34
ENDBRANCH  29  30
ENDBRANCH  28  29
ENDBRANCH   1  28
TORSDOF 19
ENDMDL
MODEL 3
REMARK VINA RESULT:     -10.8      1.267      2.346
REMARK SMILES CCC[C@@H]1SC[C@H](C(=O)NCCCNC(=O)c2ccc(-c3c4nc(c(-c5c(F)cc(S(=O)(=O)[O-])cc5F)c5ccc([nH]5)c(-c5c(F)cc(S(=O)(=O)[O-])cc5F)c5nc(c(-c6c(F)cc(S(=O)(=O)[O-])cc6F)c6ccc3[nH]6)C=C5)C=C4)cc2)N1C(=O)C[NH+]1CCC([NH3+])CC1
REMARK SMILES IDX 11 1 10 2 8 3 9 4 7 6 4 7 5 8 83 9 6 10 3 11 2 12 1 13 84 14
REMARK SMILES IDX 85 15 86 16 87 17 88 18 93 19 89 21 92 22 90 23 91 24 12 28
REMARK SMILES IDX 13 29 14 30 15 31 16 33 17 34 18 35 82 36 19 37 81 38 20 39
REMARK SMILES IDX 21 40 22 41 75 42 23 43 80 44 74 45 76 46 24 47 79 48 73 49
REMARK SMILES IDX 72 50 25 52 59 53 38 54 58 55 39 56 42 57 57 58 77 59 40 60
REMARK SMILES IDX 41 61 56 63 78 64 43 65 26 66 27 67 36 68 28 69 29 70 35 71
REMARK SMILES IDX 37 72 30 73 31 74 32 75 33 76 34 77 60 78 61 79 70 80 62 81
REMARK SMILES IDX 63 82 69 83 71 84 64 85 65 86 66 87 67 88 68 89 44 90 45 91
REMARK SMILES IDX 54 92 46 93 47 94 53 95 55 96 48 97 49 98 50 99 51 100
REMARK SMILES IDX 52 101
REMARK H PARENT 10 5 87 20 91 25 91 26 91 27 14 32 76 51 42 62
REMARK Flexibility Score: inf
ROOT
ATOM      1  C   UNL A   1      37.459  22.801  25.793  1.00  0.00     0.117 C 
ENDROOT
BRANCH   1   2
ATOM      2  N   UNL A   1      37.363  22.954  24.348  1.00  0.00    -0.354 N 
ATOM      3  C   UNL A   1      36.332  22.721  23.475  1.00  0.00     0.243 C 
ATOM      4  O   UNL A   1      36.555  22.883  22.273  1.00  0.00    -0.273 OA
ATOM      5  H   UNL A   1      38.187  23.283  23.921  1.00  0.00     0.163 HD
BRANCH   3   6
ATOM      6  C   UNL A   1      34.950  22.285  24.015  1.00  0.00     0.185 C 
ATOM      7  C   UNL A   1      33.094  22.457  25.592  1.00  0.00     0.144 C 
ATOM      8  S   UNL A   1      33.684  20.719  25.752  1.00  0.00    -0.134 SA
ATOM      9  N   UNL A   1      34.169  23.172  24.901  1.00  0.00    -0.313 N 
ATOM     10  C   UNL A   1      35.168  20.970  24.762  1.00  0.00     0.107 C 
BRANCH   7  11
ATOM     11  C   UNL A   1      32.662  22.998  26.965  1.00  0.00     0.036 C 
BRANCH  11  12
ATOM     12  C   UNL A   1      31.342  23.792  26.911  1.00  0.00    -0.000 C 
ATOM     13  C   UNL A   1      30.080  22.944  26.931  1.00  0.00     0.004 C 
ENDBRANCH  11  12
ENDBRANCH   7  11
BRANCH   9  14
ATOM     14  C   UNL A   1      34.200  24.525  24.623  1.00  0.00     0.279 C 
ATOM     15  O   UNL A   1      35.080  25.232  25.133  1.00  0.00    -0.268 OA
BRANCH  14  16
ATOM     16  C   UNL A   1      33.170  25.238  23.735  1.00  0.00     0.363 C 
BRANCH  16  17
ATOM     17  N   UNL A   1      32.984  26.683  23.973  1.00  0.00    -0.327 N 
ATOM     18  C   UNL A   1      32.487  27.340  22.745  1.00  0.00     0.268 C 
ATOM     19  C   UNL A   1      32.132  27.024  25.122  1.00  0.00     0.268 C 
ATOM     20  H   UNL A   1      33.908  27.038  24.221  1.00  0.00     0.348 HD
ATOM     21  C   UNL A   1      30.993  27.126  22.466  1.00  0.00     0.126 C 
ATOM     22  C   UNL A   1      30.634  26.831  24.919  1.00  0.00     0.126 C 
ATOM     23  C   UNL A   1      30.162  27.568  23.670  1.00  0.00     0.192 C 
BRANCH  23  24
ATOM     24  N   UNL A   1      28.735  27.325  23.471  1.00  0.00    -0.355 N 
ATOM     25  H   UNL A   1      28.254  27.372  24.369  1.00  0.00     0.344 HD
ATOM     26  H   UNL A   1      28.599  26.401  23.060  1.00  0.00     0.344 HD
ATOM     27  H   UNL A   1      28.353  28.035  22.845  1.00  0.00     0.344 HD
ENDBRANCH  23  24
ENDBRANCH  16  17
ENDBRANCH  14  16
ENDBRANCH   9  14
ENDBRANCH   3   6
ENDBRANCH   1   2
BRANCH   1  28
ATOM     28  C   UNL A   1      38.201  23.939  26.493  1.00  0.00     0.042 C 
BRANCH  28  29
ATOM     29  C   UNL A   1      39.487  23.524  27.196  1.00  0.00     0.118 C 
BRANCH  29  30
ATOM     30  N   UNL A   1      40.662  23.857  26.403  1.00  0.00    -0.352 N 
ATOM     31  C   UNL A   1      41.373  25.033  26.358  1.00  0.00     0.251 C 
ATOM     32  H   UNL A   1      40.995  23.138  25.817  1.00  0.00     0.163 HD
ATOM     33  O   UNL A   1      42.181  25.222  25.454  1.00  0.00    -0.269 OA
BRANCH  31  34
ATOM     34  C   UNL A   1      41.149  26.076  27.385  1.00  0.00     0.039 A 
ATOM     35  C   UNL A   1      40.215  25.846  28.400  1.00  0.00     0.014 A 
ATOM     36  C   UNL A   1      41.848  27.285  27.341  1.00  0.00     0.014 A 
ATOM     37  C   UNL A   1      40.030  26.802  29.405  1.00  0.00     0.010 A 
ATOM     38  C   UNL A   1      41.715  28.203  28.381  1.00  0.00     0.010 A 
ATOM     39  C   UNL A   1      40.804  27.974  29.423  1.00  0.00    -0.014 A 
BRANCH  39  40
ATOM     40  C   UNL A   1      40.683  28.975  30.517  1.00  0.00     0.031 A 
ATOM     41  C   UNL A   1      41.524  28.845  31.757  1.00  0.00     0.074 A 
ATOM     42  C   UNL A   1      39.750  29.944  30.437  1.00  0.00     0.049 A 
ATOM     43  N   UNL A   1      41.478  29.540  32.866  1.00  0.00    -0.248 NA
ATOM     44  C   UNL A   1      42.530  27.771  31.762  1.00  0.00     0.031 C 
ATOM     45  C   UNL A   1      38.834  30.147  29.313  1.00  0.00     0.029 A 
ATOM     46  N   UNL A   1      39.398  30.924  31.333  1.00  0.00    -0.354 N 
ATOM     47  C   UNL A   1      42.429  28.973  33.707  1.00  0.00     0.074 A 
ATOM     48  C   UNL A   1      43.000  27.849  32.998  1.00  0.00     0.031 C 
ATOM     49  C   UNL A   1      38.026  31.183  29.586  1.00  0.00     0.029 A 
ATOM     50  C   UNL A   1      38.337  31.694  30.918  1.00  0.00     0.049 A 
ATOM     51  H   UNL A   1      39.861  31.061  32.190  1.00  0.00     0.167 HD
ATOM     52  C   UNL A   1      42.806  29.366  34.949  1.00  0.00     0.037 A 
ATOM     53  C   UNL A   1      37.675  32.686  31.544  1.00  0.00     0.037 A 
ATOM     54  C   UNL A   1      42.246  30.496  35.644  1.00  0.00     0.049 A 
ATOM     55  C   UNL A   1      38.115  33.118  32.915  1.00  0.00     0.074 A 
ATOM     56  C   UNL A   1      42.602  31.011  36.878  1.00  0.00     0.029 A 
ATOM     57  N   UNL A   1      41.207  31.284  35.167  1.00  0.00    -0.354 N 
ATOM     58  N   UNL A   1      39.062  32.615  33.671  1.00  0.00    -0.248 NA
ATOM     59  C   UNL A   1      37.407  34.258  33.514  1.00  0.00     0.031 C 
ATOM     60  C   UNL A   1      41.750  32.083  37.166  1.00  0.00     0.029 A 
ATOM     61  C   UNL A   1      40.896  32.268  36.091  1.00  0.00     0.049 A 
ATOM     62  H   UNL A   1      40.757  31.159  34.301  1.00  0.00     0.167 HD
ATOM     63  C   UNL A   1      39.078  33.389  34.826  1.00  0.00     0.074 A 
ATOM     64  C   UNL A   1      38.052  34.400  34.665  1.00  0.00     0.031 C 
ATOM     65  C   UNL A   1      39.872  33.272  35.919  1.00  0.00     0.037 A 
BRANCH  52  66
ATOM     66  C   UNL A   1      43.872  28.552  35.633  1.00  0.00     0.058 A 
ATOM     67  C   UNL A   1      43.550  27.494  36.501  1.00  0.00     0.135 A 
ATOM     68  C   UNL A   1      45.231  28.836  35.428  1.00  0.00     0.135 A 
ATOM     69  F   UNL A   1      42.266  27.184  36.744  1.00  0.00    -0.206 F 
ATOM     70  C   UNL A   1      44.536  26.786  37.182  1.00  0.00     0.059 A 
ATOM     71  C   UNL A   1      46.235  28.119  36.074  1.00  0.00     0.059 A 
ATOM     72  F   UNL A   1      45.598  29.830  34.604  1.00  0.00    -0.206 F 
ATOM     73  C   UNL A   1      45.875  27.112  36.969  1.00  0.00     0.060 A 
BRANCH  73  74
ATOM     74  S   UNL A   1      47.141  26.211  37.888  1.00  0.00     0.124 S 
ATOM     75  O   UNL A   1      47.486  27.177  38.926  1.00  0.00    -0.237 OA
ATOM     76  O   UNL A   1      46.418  25.028  38.341  1.00  0.00    -0.237 OA
ATOM     77  O   UNL A   1      48.176  25.965  36.889  1.00  0.00    -0.744 OA
ENDBRANCH  73  74
ENDBRANCH  52  66
BRANCH  53  78
ATOM     78  C   UNL A   1      36.527  33.338  30.860  1.00  0.00     0.058 A 
ATOM     79  C   UNL A   1      35.214  33.159  31.317  1.00  0.00     0.135 A 
ATOM     80  C   UNL A   1      36.730  34.204  29.775  1.00  0.00     0.135 A 
ATOM     81  F   UNL A   1      34.969  32.333  32.348  1.00  0.00    -0.206 F 
ATOM     82  C   UNL A   1      34.141  33.820  30.729  1.00  0.00     0.059 A 
ATOM     83  C   UNL A   1      35.676  34.893  29.183  1.00  0.00     0.059 A 
ATOM     84  F   UNL A   1      37.971  34.425  29.313  1.00  0.00    -0.206 F 
ATOM     85  C   UNL A   1      34.385  34.695  29.668  1.00  0.00     0.060 A 
BRANCH  85  86
ATOM     86  S   UNL A   1      33.005  35.635  28.979  1.00  0.00     0.124 S 
ATOM     87  O   UNL A   1      32.355  34.633  28.142  1.00  0.00    -0.237 OA
ATOM     88  O   UNL A   1      32.278  36.036  30.180  1.00  0.00    -0.237 OA
ATOM     89  O   UNL A   1      33.667  36.724  28.267  1.00  0.00    -0.744 OA
ENDBRANCH  85  86
ENDBRANCH  53  78
BRANCH  65  90
ATOM     90  C   UNL A   1      39.690  34.278  37.022  1.00  0.00     0.058 A 
ATOM     91  C   UNL A   1      38.868  34.022  38.129  1.00  0.00     0.135 A 
ATOM     92  C   UNL A   1      40.396  35.492  36.997  1.00  0.00     0.135 A 
ATOM     93  F   UNL A   1      38.165  32.880  38.199  1.00  0.00    -0.206 F 
ATOM     94  C   UNL A   1      38.738  34.940  39.166  1.00  0.00     0.059 A 
ATOM     95  C   UNL A   1      40.301  36.415  38.034  1.00  0.00     0.059 A 
ATOM     96  F   UNL A   1      41.203  35.784  35.964  1.00  0.00    -0.206 F 
ATOM     97  C   UNL A   1      39.460  36.133  39.111  1.00  0.00     0.060 A 
BRANCH  97  98
ATOM     98  S   UNL A   1      39.314  37.300  40.482  1.00  0.00     0.124 S 
ATOM     99  O   UNL A   1      38.258  38.186  40.002  1.00  0.00    -0.237 OA
ATOM    100  O   UNL A   1      38.956  36.430  41.596  1.00  0.00    -0.237 OA
ATOM    101  O   UNL A   1      40.645  37.897  40.563  1.00  0.00    -0.744 OA
ENDBRANCH  97  98
ENDBRANCH  65  90
ENDBRANCH  39  40
ENDBRANCH  31  34
ENDBRANCH  29  30
ENDBRANCH  28  29
ENDBRANCH   1  28
TORSDOF 19
ENDMDL
