MODEL 1
REMARK VINA RESULT:     -12.0      0.000      0.000
REMARK SMILES COc1ccc(-c2cccc(/C=C\C(=O)NCCCNC(=O)c3ccc(-c4c5nc(c(-c6c(F)cc(S(=O)(=O)[O-])cc6F)c6ccc([nH]6)c(-c6c(F)cc(S(=O)(=O)[O-])cc6F)c6nc(c(-c7c(F)cc(S(=O)(=O)[O-])cc7F)c7ccc4[nH]7)C=C6)C=C5)cc3)c2)c(Cl)c1OC
REMARK SMILES IDX 18 1 17 2 16 3 14 4 15 5 13 7 12 8 11 9 7 10 8 11 89 12 9 13
REMARK SMILES IDX 10 14 6 15 3 16 4 17 92 18 5 19 90 20 91 21 2 22 1 23 93 24
REMARK SMILES IDX 94 25 19 26 20 27 21 28 22 30 23 31 24 32 88 33 25 34 87 35
REMARK SMILES IDX 26 36 27 37 28 38 81 39 29 40 86 41 80 42 82 43 30 44 85 45
REMARK SMILES IDX 79 46 78 47 31 49 65 50 44 51 64 52 45 53 48 54 63 55 83 56
REMARK SMILES IDX 46 57 47 58 62 60 84 61 49 62 32 63 33 64 42 65 34 66 35 67
REMARK SMILES IDX 41 68 43 69 36 70 37 71 38 72 39 73 40 74 66 75 67 76 76 77
REMARK SMILES IDX 68 78 69 79 75 80 77 81 70 82 71 83 72 84 73 85 74 86 50 87
REMARK SMILES IDX 51 88 60 89 52 90 53 91 59 92 61 93 54 94 55 95 56 96 57 97
REMARK SMILES IDX 58 98
REMARK H PARENT 16 6 20 29 82 48 48 59
REMARK Flexibility Score: inf
ROOT
ATOM      1  C   UNL A   1      31.960  29.247  26.657  1.00  0.00     0.042 C 
ENDROOT
BRANCH   1   2
ATOM      2  C   UNL A   1      31.804  29.745  25.231  1.00  0.00     0.118 C 
BRANCH   2   3
ATOM      3  N   UNL A   1      32.899  29.433  24.333  1.00  0.00    -0.352 N 
ATOM      4  C   UNL A   1      32.863  28.960  23.059  1.00  0.00     0.244 C 
ATOM      5  O   UNL A   1      33.925  28.805  22.452  1.00  0.00    -0.270 OA
ATOM      6  H   UNL A   1      33.800  29.585  24.701  1.00  0.00     0.163 HD
BRANCH   4   7
ATOM      7  C   UNL A   1      31.608  28.515  22.391  1.00  0.00     0.072 C 
ATOM      8  C   UNL A   1      30.721  27.536  22.645  1.00  0.00     0.014 C 
BRANCH   8   9
ATOM      9  C   UNL A   1      30.771  26.521  23.699  1.00  0.00    -0.025 A 
ATOM     10  C   UNL A   1      32.120  24.896  24.951  1.00  0.00    -0.016 A 
ATOM     11  C   UNL A   1      31.100  24.896  25.926  1.00  0.00     0.009 A 
ATOM     12  C   UNL A   1      31.933  25.735  23.838  1.00  0.00     0.017 A 
ATOM     13  C   UNL A   1      29.892  25.572  25.732  1.00  0.00     0.001 A 
ATOM     14  C   UNL A   1      29.715  26.362  24.600  1.00  0.00     0.008 A 
BRANCH  10  15
ATOM     15  C   UNL A   1      33.251  23.926  25.062  1.00  0.00     0.004 A 
ATOM     16  C   UNL A   1      35.492  22.282  25.586  1.00  0.00     0.162 A 
ATOM     17  C   UNL A   1      35.508  23.617  25.966  1.00  0.00     0.051 A 
ATOM     18  C   UNL A   1      34.397  21.744  24.869  1.00  0.00     0.180 A 
ATOM     19  C   UNL A   1      34.396  24.409  25.732  1.00  0.00     0.014 A 
ATOM     20  C   UNL A   1      33.283  22.580  24.589  1.00  0.00     0.094 A 
ATOM     21  Cl  UNL A   1      31.984  22.046  23.562  1.00  0.00    -0.079 Cl
BRANCH  16  22
ATOM     22  O   UNL A   1      36.564  21.460  25.851  1.00  0.00    -0.493 OA
ATOM     23  C   UNL A   1      37.742  21.773  25.112  1.00  0.00     0.278 C 
ENDBRANCH  16  22
BRANCH  18  24
ATOM     24  O   UNL A   1      34.623  20.443  24.495  1.00  0.00    -0.491 OA
ATOM     25  C   UNL A   1      33.806  19.370  24.932  1.00  0.00     0.278 C 
ENDBRANCH  18  24
ENDBRANCH  10  15
ENDBRANCH   8   9
ENDBRANCH   4   7
ENDBRANCH   2   3
ENDBRANCH   1   2
BRANCH   1  26
ATOM     26  C   UNL A   1      33.372  29.399  27.225  1.00  0.00     0.118 C 
BRANCH  26  27
ATOM     27  N   UNL A   1      33.592  30.609  28.013  1.00  0.00    -0.352 N 
ATOM     28  C   UNL A   1      34.658  31.081  28.756  1.00  0.00     0.251 C 
ATOM     29  H   UNL A   1      32.819  31.217  28.016  1.00  0.00     0.163 HD
ATOM     30  O   UNL A   1      34.514  32.105  29.408  1.00  0.00    -0.269 OA
BRANCH  28  31
ATOM     31  C   UNL A   1      35.945  30.344  28.823  1.00  0.00     0.039 A 
ATOM     32  C   UNL A   1      36.736  30.258  27.671  1.00  0.00     0.014 A 
ATOM     33  C   UNL A   1      36.390  29.744  29.996  1.00  0.00     0.014 A 
ATOM     34  C   UNL A   1      38.022  29.707  27.740  1.00  0.00     0.010 A 
ATOM     35  C   UNL A   1      37.709  29.313  30.097  1.00  0.00     0.010 A 
ATOM     36  C   UNL A   1      38.553  29.314  28.978  1.00  0.00    -0.014 A 
BRANCH  36  37
ATOM     37  C   UNL A   1      39.992  28.972  29.160  1.00  0.00     0.031 A 
ATOM     38  C   UNL A   1      40.993  30.040  29.513  1.00  0.00     0.074 A 
ATOM     39  C   UNL A   1      40.422  27.732  28.841  1.00  0.00     0.049 A 
ATOM     40  N   UNL A   1      42.300  29.988  29.497  1.00  0.00    -0.248 NA
ATOM     41  C   UNL A   1      40.450  31.355  29.885  1.00  0.00     0.031 C 
ATOM     42  C   UNL A   1      39.567  26.625  28.403  1.00  0.00     0.029 A 
ATOM     43  N   UNL A   1      41.689  27.204  28.798  1.00  0.00    -0.354 N 
ATOM     44  C   UNL A   1      42.735  31.273  29.804  1.00  0.00     0.074 A 
ATOM     45  C   UNL A   1      41.550  32.090  29.961  1.00  0.00     0.031 C 
ATOM     46  C   UNL A   1      40.330  25.553  28.143  1.00  0.00     0.029 A 
ATOM     47  C   UNL A   1      41.730  25.907  28.341  1.00  0.00     0.049 A 
ATOM     48  H   UNL A   1      42.492  27.707  29.067  1.00  0.00     0.167 HD
ATOM     49  C   UNL A   1      44.002  31.726  29.957  1.00  0.00     0.037 A 
ATOM     50  C   UNL A   1      42.774  25.097  28.077  1.00  0.00     0.037 A 
ATOM     51  C   UNL A   1      45.172  30.893  29.853  1.00  0.00     0.049 A 
ATOM     52  C   UNL A   1      44.170  25.601  28.299  1.00  0.00     0.074 A 
ATOM     53  C   UNL A   1      46.491  31.224  30.114  1.00  0.00     0.029 A 
ATOM     54  N   UNL A   1      45.166  29.565  29.450  1.00  0.00    -0.354 N 
ATOM     55  N   UNL A   1      44.560  26.794  28.680  1.00  0.00    -0.248 NA
ATOM     56  C   UNL A   1      45.267  24.656  28.054  1.00  0.00     0.031 C 
ATOM     57  C   UNL A   1      47.285  30.108  29.829  1.00  0.00     0.029 A 
ATOM     58  C   UNL A   1      46.460  29.070  29.425  1.00  0.00     0.049 A 
ATOM     59  H   UNL A   1      44.359  29.051  29.216  1.00  0.00     0.167 HD
ATOM     60  C   UNL A   1      45.948  26.745  28.721  1.00  0.00     0.074 A 
ATOM     61  C   UNL A   1      46.329  25.397  28.348  1.00  0.00     0.031 C 
ATOM     62  C   UNL A   1      46.825  27.730  29.034  1.00  0.00     0.037 A 
BRANCH  49  63
ATOM     63  C   UNL A   1      44.184  33.191  30.250  1.00  0.00     0.058 A 
ATOM     64  C   UNL A   1      44.368  34.136  29.226  1.00  0.00     0.135 A 
ATOM     65  C   UNL A   1      44.183  33.659  31.575  1.00  0.00     0.135 A 
ATOM     66  F   UNL A   1      44.387  33.744  27.942  1.00  0.00    -0.206 F 
ATOM     67  C   UNL A   1      44.602  35.478  29.505  1.00  0.00     0.059 A 
ATOM     68  C   UNL A   1      44.385  35.004  31.877  1.00  0.00     0.059 A 
ATOM     69  F   UNL A   1      44.004  32.805  32.594  1.00  0.00    -0.206 F 
ATOM     70  C   UNL A   1      44.620  35.901  30.836  1.00  0.00     0.060 A 
BRANCH  70  71
ATOM     71  S   UNL A   1      44.968  37.637  31.186  1.00  0.00     0.124 S 
ATOM     72  O   UNL A   1      43.776  38.286  30.649  1.00  0.00    -0.237 OA
ATOM     73  O   UNL A   1      45.091  37.646  32.641  1.00  0.00    -0.237 OA
ATOM     74  O   UNL A   1      46.205  37.890  30.455  1.00  0.00    -0.744 OA
ENDBRANCH  70  71
ENDBRANCH  49  63
BRANCH  50  75
ATOM     75  C   UNL A   1      42.515  23.722  27.572  1.00  0.00     0.058 A 
ATOM     76  C   UNL A   1      42.471  23.457  26.197  1.00  0.00     0.135 A 
ATOM     77  C   UNL A   1      42.394  22.635  28.453  1.00  0.00     0.135 A 
ATOM     78  F   UNL A   1      42.572  24.465  25.316  1.00  0.00    -0.206 F 
ATOM     79  C   UNL A   1      42.329  22.161  25.708  1.00  0.00     0.059 A 
ATOM     80  C   UNL A   1      42.272  21.329  27.989  1.00  0.00     0.059 A 
ATOM     81  F   UNL A   1      42.446  22.835  29.779  1.00  0.00    -0.206 F 
ATOM     82  C   UNL A   1      42.242  21.102  26.613  1.00  0.00     0.060 A 
BRANCH  82  83
ATOM     83  S   UNL A   1      42.174  19.413  25.972  1.00  0.00     0.124 S 
ATOM     84  O   UNL A   1      43.073  19.498  24.827  1.00  0.00    -0.237 OA
ATOM     85  O   UNL A   1      42.658  18.632  27.106  1.00  0.00    -0.237 OA
ATOM     86  O   UNL A   1      40.760  19.231  25.657  1.00  0.00    -0.744 OA
ENDBRANCH  82  83
ENDBRANCH  50  75
BRANCH  62  87
ATOM     87  C   UNL A   1      48.289  27.396  28.978  1.00  0.00     0.058 A 
ATOM     88  C   UNL A   1      49.059  27.689  27.842  1.00  0.00     0.135 A 
ATOM     89  C   UNL A   1      48.941  26.844  30.091  1.00  0.00     0.135 A 
ATOM     90  F   UNL A   1      48.480  28.208  26.748  1.00  0.00    -0.206 F 
ATOM     91  C   UNL A   1      50.427  27.439  27.809  1.00  0.00     0.059 A 
ATOM     92  C   UNL A   1      50.313  26.606  30.088  1.00  0.00     0.059 A 
ATOM     93  F   UNL A   1      48.250  26.551  31.204  1.00  0.00    -0.206 F 
ATOM     94  C   UNL A   1      51.046  26.902  28.940  1.00  0.00     0.060 A 
BRANCH  94  95
ATOM     95  S   UNL A   1      52.832  26.635  28.903  1.00  0.00     0.124 S 
ATOM     96  O   UNL A   1      52.985  25.838  27.691  1.00  0.00    -0.237 OA
ATOM     97  O   UNL A   1      53.351  27.997  28.836  1.00  0.00    -0.237 OA
ATOM     98  O   UNL A   1      53.095  25.932  30.155  1.00  0.00    -0.744 OA
ENDBRANCH  94  95
ENDBRANCH  62  87
ENDBRANCH  36  37
ENDBRANCH  28  31
ENDBRANCH  26  27
ENDBRANCH   1  26
TORSDOF 17
ENDMDL
MODEL 2
REMARK VINA RESULT:     -11.6      5.572     11.026
REMARK SMILES COc1ccc(-c2cccc(/C=C\C(=O)NCCCNC(=O)c3ccc(-c4c5nc(c(-c6c(F)cc(S(=O)(=O)[O-])cc6F)c6ccc([nH]6)c(-c6c(F)cc(S(=O)(=O)[O-])cc6F)c6nc(c(-c7c(F)cc(S(=O)(=O)[O-])cc7F)c7ccc4[nH]7)C=C6)C=C5)cc3)c2)c(Cl)c1OC
REMARK SMILES IDX 18 1 17 2 16 3 14 4 15 5 13 7 12 8 11 9 7 10 8 11 89 12 9 13
REMARK SMILES IDX 10 14 6 15 3 16 4 17 92 18 5 19 90 20 91 21 2 22 1 23 93 24
REMARK SMILES IDX 94 25 19 26 20 27 21 28 22 30 23 31 24 32 88 33 25 34 87 35
REMARK SMILES IDX 26 36 27 37 28 38 81 39 29 40 86 41 80 42 82 43 30 44 85 45
REMARK SMILES IDX 79 46 78 47 31 49 65 50 44 51 64 52 45 53 48 54 63 55 83 56
REMARK SMILES IDX 46 57 47 58 62 60 84 61 49 62 32 63 33 64 42 65 34 66 35 67
REMARK SMILES IDX 41 68 43 69 36 70 37 71 38 72 39 73 40 74 66 75 67 76 76 77
REMARK SMILES IDX 68 78 69 79 75 80 77 81 70 82 71 83 72 84 73 85 74 86 50 87
REMARK SMILES IDX 51 88 60 89 52 90 53 91 59 92 61 93 54 94 55 95 56 96 57 97
REMARK SMILES IDX 58 98
REMARK H PARENT 16 6 20 29 82 48 48 59
REMARK Flexibility Score: inf
ROOT
ATOM      1  C   UNL A   1      40.399  21.720  27.238  1.00  0.00     0.042 C 
ENDROOT
BRANCH   1   2
ATOM      2  C   UNL A   1      39.360  21.859  26.140  1.00  0.00     0.118 C 
BRANCH   2   3
ATOM      3  N   UNL A   1      38.216  22.691  26.458  1.00  0.00    -0.352 N 
ATOM      4  C   UNL A   1      37.151  23.029  25.683  1.00  0.00     0.244 C 
ATOM      5  O   UNL A   1      36.255  23.720  26.173  1.00  0.00    -0.270 OA
ATOM      6  H   UNL A   1      38.210  23.066  27.369  1.00  0.00     0.163 HD
BRANCH   4   7
ATOM      7  C   UNL A   1      37.062  22.697  24.234  1.00  0.00     0.072 C 
ATOM      8  C   UNL A   1      36.049  22.677  23.349  1.00  0.00     0.014 C 
BRANCH   8   9
ATOM      9  C   UNL A   1      34.631  22.947  23.592  1.00  0.00    -0.025 A 
ATOM     10  C   UNL A   1      32.779  24.557  23.500  1.00  0.00    -0.016 A 
ATOM     11  C   UNL A   1      31.902  23.457  23.610  1.00  0.00     0.009 A 
ATOM     12  C   UNL A   1      34.156  24.269  23.483  1.00  0.00     0.017 A 
ATOM     13  C   UNL A   1      32.367  22.161  23.847  1.00  0.00     0.001 A 
ATOM     14  C   UNL A   1      33.735  21.910  23.869  1.00  0.00     0.008 A 
BRANCH  10  15
ATOM     15  C   UNL A   1      32.236  25.948  23.552  1.00  0.00     0.004 A 
ATOM     16  C   UNL A   1      30.920  28.449  23.440  1.00  0.00     0.162 A 
ATOM     17  C   UNL A   1      30.800  27.554  22.386  1.00  0.00     0.051 A 
ATOM     18  C   UNL A   1      31.756  28.160  24.545  1.00  0.00     0.180 A 
ATOM     19  C   UNL A   1      31.423  26.320  22.460  1.00  0.00     0.014 A 
ATOM     20  C   UNL A   1      32.433  26.912  24.587  1.00  0.00     0.094 A 
ATOM     21  Cl  UNL A   1      33.612  26.559  25.816  1.00  0.00    -0.079 Cl
BRANCH  16  22
ATOM     22  O   UNL A   1      30.270  29.662  23.415  1.00  0.00    -0.493 OA
ATOM     23  C   UNL A   1      29.304  29.789  22.375  1.00  0.00     0.278 C 
ENDBRANCH  16  22
BRANCH  18  24
ATOM     24  O   UNL A   1      31.823  29.213  25.422  1.00  0.00    -0.491 OA
ATOM     25  C   UNL A   1      31.779  29.040  26.828  1.00  0.00     0.278 C 
ENDBRANCH  18  24
ENDBRANCH  10  15
ENDBRANCH   8   9
ENDBRANCH   4   7
ENDBRANCH   2   3
ENDBRANCH   1   2
BRANCH   1  26
ATOM     26  C   UNL A   1      41.618  22.628  27.069  1.00  0.00     0.118 C 
BRANCH  26  27
ATOM     27  N   UNL A   1      41.475  23.668  26.053  1.00  0.00    -0.352 N 
ATOM     28  C   UNL A   1      41.321  25.041  26.110  1.00  0.00     0.251 C 
ATOM     29  H   UNL A   1      41.491  23.318  25.133  1.00  0.00     0.163 HD
ATOM     30  O   UNL A   1      41.117  25.654  25.072  1.00  0.00    -0.269 OA
BRANCH  28  31
ATOM     31  C   UNL A   1      41.340  25.771  27.402  1.00  0.00     0.039 A 
ATOM     32  C   UNL A   1      42.513  26.434  27.787  1.00  0.00     0.014 A 
ATOM     33  C   UNL A   1      40.230  25.822  28.236  1.00  0.00     0.014 A 
ATOM     34  C   UNL A   1      42.514  27.258  28.919  1.00  0.00     0.010 A 
ATOM     35  C   UNL A   1      40.191  26.734  29.286  1.00  0.00     0.010 A 
ATOM     36  C   UNL A   1      41.324  27.487  29.625  1.00  0.00    -0.014 A 
BRANCH  36  37
ATOM     37  C   UNL A   1      41.200  28.547  30.666  1.00  0.00     0.031 A 
ATOM     38  C   UNL A   1      42.001  28.465  31.938  1.00  0.00     0.074 A 
ATOM     39  C   UNL A   1      40.244  29.491  30.537  1.00  0.00     0.049 A 
ATOM     40  N   UNL A   1      41.875  29.154  33.043  1.00  0.00    -0.248 NA
ATOM     41  C   UNL A   1      43.050  27.435  31.992  1.00  0.00     0.031 C 
ATOM     42  C   UNL A   1      39.341  29.633  29.392  1.00  0.00     0.029 A 
ATOM     43  N   UNL A   1      39.843  30.486  31.396  1.00  0.00    -0.354 N 
ATOM     44  C   UNL A   1      42.788  28.609  33.938  1.00  0.00     0.074 A 
ATOM     45  C   UNL A   1      43.432  27.505  33.259  1.00  0.00     0.031 C 
ATOM     46  C   UNL A   1      38.502  30.656  29.613  1.00  0.00     0.029 A 
ATOM     47  C   UNL A   1      38.765  31.208  30.937  1.00  0.00     0.049 A 
ATOM     48  H   UNL A   1      40.285  30.665  32.257  1.00  0.00     0.167 HD
ATOM     49  C   UNL A   1      43.075  29.001  35.203  1.00  0.00     0.037 A 
ATOM     50  C   UNL A   1      38.043  32.184  31.522  1.00  0.00     0.037 A 
ATOM     51  C   UNL A   1      42.467  30.135  35.850  1.00  0.00     0.049 A 
ATOM     52  C   UNL A   1      38.407  32.638  32.905  1.00  0.00     0.074 A 
ATOM     53  C   UNL A   1      42.777  30.694  37.078  1.00  0.00     0.029 A 
ATOM     54  N   UNL A   1      41.421  30.881  35.325  1.00  0.00    -0.354 N 
ATOM     55  N   UNL A   1      39.338  32.172  33.703  1.00  0.00    -0.248 NA
ATOM     56  C   UNL A   1      37.625  33.746  33.470  1.00  0.00     0.031 C 
ATOM     57  C   UNL A   1      41.891  31.751  37.313  1.00  0.00     0.029 A 
ATOM     58  C   UNL A   1      41.052  31.875  36.216  1.00  0.00     0.049 A 
ATOM     59  H   UNL A   1      41.003  30.725  34.447  1.00  0.00     0.167 HD
ATOM     60  C   UNL A   1      39.255  32.928  34.866  1.00  0.00     0.074 A 
ATOM     61  C   UNL A   1      38.198  33.898  34.658  1.00  0.00     0.031 C 
ATOM     62  C   UNL A   1      39.985  32.823  36.003  1.00  0.00     0.037 A 
BRANCH  49  63
ATOM     63  C   UNL A   1      44.089  28.193  35.966  1.00  0.00     0.058 A 
ATOM     64  C   UNL A   1      43.711  27.147  36.824  1.00  0.00     0.135 A 
ATOM     65  C   UNL A   1      45.461  28.473  35.846  1.00  0.00     0.135 A 
ATOM     66  F   UNL A   1      42.414  26.841  36.985  1.00  0.00    -0.206 F 
ATOM     67  C   UNL A   1      44.647  26.447  37.578  1.00  0.00     0.059 A 
ATOM     68  C   UNL A   1      46.419  27.765  36.568  1.00  0.00     0.059 A 
ATOM     69  F   UNL A   1      45.883  29.456  35.035  1.00  0.00    -0.206 F 
ATOM     70  C   UNL A   1      45.999  26.771  37.451  1.00  0.00     0.060 A 
BRANCH  70  71
ATOM     71  S   UNL A   1      47.200  25.886  38.468  1.00  0.00     0.124 S 
ATOM     72  O   UNL A   1      47.822  25.007  37.483  1.00  0.00    -0.237 OA
ATOM     73  O   UNL A   1      48.042  26.966  38.973  1.00  0.00    -0.237 OA
ATOM     74  O   UNL A   1      46.372  25.221  39.469  1.00  0.00    -0.744 OA
ENDBRANCH  70  71
ENDBRANCH  49  63
BRANCH  50  75
ATOM     75  C   UNL A   1      36.903  32.785  30.780  1.00  0.00     0.058 A 
ATOM     76  C   UNL A   1      35.585  32.382  31.037  1.00  0.00     0.135 A 
ATOM     77  C   UNL A   1      37.101  33.832  29.866  1.00  0.00     0.135 A 
ATOM     78  F   UNL A   1      35.346  31.379  31.895  1.00  0.00    -0.206 F 
ATOM     79  C   UNL A   1      34.501  33.004  30.425  1.00  0.00     0.059 A 
ATOM     80  C   UNL A   1      36.033  34.484  29.258  1.00  0.00     0.059 A 
ATOM     81  F   UNL A   1      38.343  34.265  29.599  1.00  0.00    -0.206 F 
ATOM     82  C   UNL A   1      34.735  34.063  29.545  1.00  0.00     0.060 A 
BRANCH  82  83
ATOM     83  S   UNL A   1      33.319  34.940  28.843  1.00  0.00     0.124 S 
ATOM     84  O   UNL A   1      32.763  33.931  27.949  1.00  0.00    -0.237 OA
ATOM     85  O   UNL A   1      32.527  35.249  30.028  1.00  0.00    -0.237 OA
ATOM     86  O   UNL A   1      33.931  36.095  28.192  1.00  0.00    -0.744 OA
ENDBRANCH  82  83
ENDBRANCH  50  75
BRANCH  62  87
ATOM     87  C   UNL A   1      39.664  33.773  37.121  1.00  0.00     0.058 A 
ATOM     88  C   UNL A   1      38.839  33.388  38.190  1.00  0.00     0.135 A 
ATOM     89  C   UNL A   1      40.239  35.052  37.163  1.00  0.00     0.135 A 
ATOM     90  F   UNL A   1      38.257  32.179  38.192  1.00  0.00    -0.206 F 
ATOM     91  C   UNL A   1      38.590  34.242  39.259  1.00  0.00     0.059 A 
ATOM     92  C   UNL A   1      40.022  35.915  38.233  1.00  0.00     0.059 A 
ATOM     93  F   UNL A   1      41.040  35.466  36.168  1.00  0.00    -0.206 F 
ATOM     94  C   UNL A   1      39.191  35.503  39.274  1.00  0.00     0.060 A 
BRANCH  94  95
ATOM     95  S   UNL A   1      38.903  36.581  40.694  1.00  0.00     0.124 S 
ATOM     96  O   UNL A   1      37.942  35.800  41.466  1.00  0.00    -0.237 OA
ATOM     97  O   UNL A   1      40.238  36.696  41.274  1.00  0.00    -0.237 OA
ATOM     98  O   UNL A   1      38.381  37.804  40.092  1.00  0.00    -0.744 OA
ENDBRANCH  94  95
ENDBRANCH  62  87
ENDBRANCH  36  37
ENDBRANCH  28  31
ENDBRANCH  26  27
ENDBRANCH   1  26
TORSDOF 17
ENDMDL
MODEL 3
REMARK VINA RESULT:     -11.5      1.568      2.516
REMARK SMILES COc1ccc(-c2cccc(/C=C\C(=O)NCCCNC(=O)c3ccc(-c4c5nc(c(-c6c(F)cc(S(=O)(=O)[O-])cc6F)c6ccc([nH]6)c(-c6c(F)cc(S(=O)(=O)[O-])cc6F)c6nc(c(-c7c(F)cc(S(=O)(=O)[O-])cc7F)c7ccc4[nH]7)C=C6)C=C5)cc3)c2)c(Cl)c1OC
REMARK SMILES IDX 18 1 17 2 16 3 14 4 15 5 13 7 12 8 11 9 7 10 8 11 89 12 9 13
REMARK SMILES IDX 10 14 6 15 3 16 4 17 92 18 5 19 90 20 91 21 2 22 1 23 93 24
REMARK SMILES IDX 94 25 19 26 20 27 21 28 22 30 23 31 24 32 88 33 25 34 87 35
REMARK SMILES IDX 26 36 27 37 28 38 81 39 29 40 86 41 80 42 82 43 30 44 85 45
REMARK SMILES IDX 79 46 78 47 31 49 65 50 44 51 64 52 45 53 48 54 63 55 83 56
REMARK SMILES IDX 46 57 47 58 62 60 84 61 49 62 32 63 33 64 42 65 34 66 35 67
REMARK SMILES IDX 41 68 43 69 36 70 37 71 38 72 39 73 40 74 66 75 67 76 76 77
REMARK SMILES IDX 68 78 69 79 75 80 77 81 70 82 71 83 72 84 73 85 74 86 50 87
REMARK SMILES IDX 51 88 60 89 52 90 53 91 59 92 61 93 54 94 55 95 56 96 57 97
REMARK SMILES IDX 58 98
REMARK H PARENT 16 6 20 29 82 48 48 59
REMARK Flexibility Score: inf
ROOT
ATOM      1  C   UNL A   1      33.344  30.483  27.576  1.00  0.00     0.042 C 
ENDROOT
BRANCH   1   2
ATOM      2  C   UNL A   1      33.604  29.198  26.812  1.00  0.00     0.118 C 
BRANCH   2   3
ATOM      3  N   UNL A   1      33.859  29.350  25.393  1.00  0.00    -0.352 N 
ATOM      4  C   UNL A   1      33.053  29.070  24.334  1.00  0.00     0.244 C 
ATOM      5  O   UNL A   1      33.456  29.322  23.197  1.00  0.00    -0.270 OA
ATOM      6  H   UNL A   1      34.747  29.709  25.162  1.00  0.00     0.163 HD
BRANCH   4   7
ATOM      7  C   UNL A   1      31.744  28.372  24.472  1.00  0.00     0.072 C 
ATOM      8  C   UNL A   1      31.286  27.174  24.065  1.00  0.00     0.014 C 
BRANCH   8   9
ATOM      9  C   UNL A   1      31.982  26.163  23.266  1.00  0.00    -0.025 A 
ATOM     10  C   UNL A   1      32.795  23.853  23.095  1.00  0.00    -0.016 A 
ATOM     11  C   UNL A   1      32.901  24.061  21.704  1.00  0.00     0.009 A 
ATOM     12  C   UNL A   1      32.317  24.931  23.862  1.00  0.00     0.017 A 
ATOM     13  C   UNL A   1      32.694  25.316  21.126  1.00  0.00     0.001 A 
ATOM     14  C   UNL A   1      32.263  26.378  21.914  1.00  0.00     0.008 A 
BRANCH  10  15
ATOM     15  C   UNL A   1      33.315  22.589  23.698  1.00  0.00     0.004 A 
ATOM     16  C   UNL A   1      34.085  20.016  24.584  1.00  0.00     0.162 A 
ATOM     17  C   UNL A   1      32.823  20.213  24.041  1.00  0.00     0.051 A 
ATOM     18  C   UNL A   1      34.972  21.102  24.773  1.00  0.00     0.180 A 
ATOM     19  C   UNL A   1      32.463  21.469  23.583  1.00  0.00     0.014 A 
ATOM     20  C   UNL A   1      34.572  22.397  24.347  1.00  0.00     0.094 A 
ATOM     21  Cl  UNL A   1      35.528  23.805  24.706  1.00  0.00    -0.079 Cl
BRANCH  16  22
ATOM     22  O   UNL A   1      34.487  18.767  25.001  1.00  0.00    -0.493 OA
ATOM     23  C   UNL A   1      34.052  17.699  24.162  1.00  0.00     0.278 C 
ENDBRANCH  16  22
BRANCH  18  24
ATOM     24  O   UNL A   1      36.119  20.716  25.420  1.00  0.00    -0.491 OA
ATOM     25  C   UNL A   1      37.401  20.812  24.824  1.00  0.00     0.278 C 
ENDBRANCH  18  24
ENDBRANCH  10  15
ENDBRANCH   8   9
ENDBRANCH   4   7
ENDBRANCH   2   3
ENDBRANCH   1   2
BRANCH   1  26
ATOM     26  C   UNL A   1      34.610  31.253  27.958  1.00  0.00     0.118 C 
BRANCH  26  27
ATOM     27  N   UNL A   1      34.710  31.611  29.371  1.00  0.00    -0.352 N 
ATOM     28  C   UNL A   1      35.636  31.336  30.361  1.00  0.00     0.251 C 
ATOM     29  H   UNL A   1      33.960  32.166  29.687  1.00  0.00     0.163 HD
ATOM     30  O   UNL A   1      35.398  31.692  31.505  1.00  0.00    -0.269 OA
BRANCH  28  31
ATOM     31  C   UNL A   1      36.876  30.572  30.072  1.00  0.00     0.039 A 
ATOM     32  C   UNL A   1      37.339  30.507  28.752  1.00  0.00     0.014 A 
ATOM     33  C   UNL A   1      37.593  29.927  31.074  1.00  0.00     0.014 A 
ATOM     34  C   UNL A   1      38.584  29.930  28.472  1.00  0.00     0.010 A 
ATOM     35  C   UNL A   1      38.881  29.467  30.819  1.00  0.00     0.010 A 
ATOM     36  C   UNL A   1      39.406  29.487  29.519  1.00  0.00    -0.014 A 
BRANCH  36  37
ATOM     37  C   UNL A   1      40.834  29.111  29.313  1.00  0.00     0.031 A 
ATOM     38  C   UNL A   1      41.911  30.164  29.325  1.00  0.00     0.074 A 
ATOM     39  C   UNL A   1      41.138  27.848  28.948  1.00  0.00     0.049 A 
ATOM     40  N   UNL A   1      43.161  30.074  28.951  1.00  0.00    -0.248 NA
ATOM     41  C   UNL A   1      41.513  31.509  29.769  1.00  0.00     0.031 C 
ATOM     42  C   UNL A   1      40.178  26.748  28.815  1.00  0.00     0.029 A 
ATOM     43  N   UNL A   1      42.335  27.282  28.581  1.00  0.00    -0.354 N 
ATOM     44  C   UNL A   1      43.685  31.357  29.064  1.00  0.00     0.074 A 
ATOM     45  C   UNL A   1      42.603  32.214  29.503  1.00  0.00     0.031 C 
ATOM     46  C   UNL A   1      40.821  25.645  28.407  1.00  0.00     0.029 A 
ATOM     47  C   UNL A   1      42.227  25.966  28.193  1.00  0.00     0.049 A 
ATOM     48  H   UNL A   1      43.189  27.772  28.594  1.00  0.00     0.167 HD
ATOM     49  C   UNL A   1      44.952  31.780  28.840  1.00  0.00     0.037 A 
ATOM     50  C   UNL A   1      43.143  25.116  27.691  1.00  0.00     0.037 A 
ATOM     51  C   UNL A   1      46.034  30.909  28.457  1.00  0.00     0.049 A 
ATOM     52  C   UNL A   1      44.554  25.588  27.494  1.00  0.00     0.074 A 
ATOM     53  C   UNL A   1      47.378  31.212  28.328  1.00  0.00     0.029 A 
ATOM     54  N   UNL A   1      45.894  29.566  28.134  1.00  0.00    -0.354 N 
ATOM     55  N   UNL A   1      45.054  26.785  27.695  1.00  0.00    -0.248 NA
ATOM     56  C   UNL A   1      45.525  24.602  27.001  1.00  0.00     0.031 C 
ATOM     57  C   UNL A   1      48.045  30.063  27.888  1.00  0.00     0.029 A 
ATOM     58  C   UNL A   1      47.122  29.033  27.777  1.00  0.00     0.049 A 
ATOM     59  H   UNL A   1      45.046  29.066  28.157  1.00  0.00     0.167 HD
ATOM     60  C   UNL A   1      46.398  26.697  27.353  1.00  0.00     0.074 A 
ATOM     61  C   UNL A   1      46.638  25.324  26.955  1.00  0.00     0.031 C 
ATOM     62  C   UNL A   1      47.343  27.669  27.365  1.00  0.00     0.037 A 
BRANCH  49  63
ATOM     63  C   UNL A   1      45.232  33.250  29.000  1.00  0.00     0.058 A 
ATOM     64  C   UNL A   1      45.693  33.789  30.212  1.00  0.00     0.135 A 
ATOM     65  C   UNL A   1      45.027  34.136  27.929  1.00  0.00     0.135 A 
ATOM     66  F   UNL A   1      45.898  32.991  31.272  1.00  0.00    -0.206 F 
ATOM     67  C   UNL A   1      45.886  35.157  30.375  1.00  0.00     0.059 A 
ATOM     68  C   UNL A   1      45.243  35.505  28.060  1.00  0.00     0.059 A 
ATOM     69  F   UNL A   1      44.595  33.677  26.744  1.00  0.00    -0.206 F 
ATOM     70  C   UNL A   1      45.648  36.009  29.295  1.00  0.00     0.060 A 
BRANCH  70  71
ATOM     71  S   UNL A   1      45.860  37.786  29.533  1.00  0.00     0.124 S 
ATOM     72  O   UNL A   1      45.940  38.255  28.153  1.00  0.00    -0.237 OA
ATOM     73  O   UNL A   1      44.645  38.153  30.256  1.00  0.00    -0.237 OA
ATOM     74  O   UNL A   1      47.096  37.881  30.302  1.00  0.00    -0.744 OA
ENDBRANCH  70  71
ENDBRANCH  49  63
BRANCH  50  75
ATOM     75  C   UNL A   1      42.732  23.730  27.343  1.00  0.00     0.058 A 
ATOM     76  C   UNL A   1      42.400  23.386  26.025  1.00  0.00     0.135 A 
ATOM     77  C   UNL A   1      42.747  22.705  28.303  1.00  0.00     0.135 A 
ATOM     78  F   UNL A   1      42.363  24.333  25.075  1.00  0.00    -0.206 F 
ATOM     79  C   UNL A   1      42.111  22.073  25.665  1.00  0.00     0.059 A 
ATOM     80  C   UNL A   1      42.481  21.382  27.963  1.00  0.00     0.059 A 
ATOM     81  F   UNL A   1      43.074  22.980  29.575  1.00  0.00    -0.206 F 
ATOM     82  C   UNL A   1      42.165  21.076  26.640  1.00  0.00     0.060 A 
BRANCH  82  83
ATOM     83  S   UNL A   1      41.901  19.358  26.143  1.00  0.00     0.124 S 
ATOM     84  O   UNL A   1      42.285  18.641  27.354  1.00  0.00    -0.237 OA
ATOM     85  O   UNL A   1      40.478  19.345  25.818  1.00  0.00    -0.237 OA
ATOM     86  O   UNL A   1      42.796  19.198  25.001  1.00  0.00    -0.744 OA
ENDBRANCH  82  83
ENDBRANCH  50  75
BRANCH  62  87
ATOM     87  C   UNL A   1      48.728  27.290  26.923  1.00  0.00     0.058 A 
ATOM     88  C   UNL A   1      49.673  26.794  27.835  1.00  0.00     0.135 A 
ATOM     89  C   UNL A   1      49.092  27.355  25.569  1.00  0.00     0.135 A 
ATOM     90  F   UNL A   1      49.377  26.722  29.142  1.00  0.00    -0.206 F 
ATOM     91  C   UNL A   1      50.935  26.382  27.420  1.00  0.00     0.059 A 
ATOM     92  C   UNL A   1      50.341  26.927  25.128  1.00  0.00     0.059 A 
ATOM     93  F   UNL A   1      48.222  27.816  24.656  1.00  0.00    -0.206 F 
ATOM     94  C   UNL A   1      51.258  26.448  26.062  1.00  0.00     0.060 A 
BRANCH  94  95
ATOM     95  S   UNL A   1      52.880  25.858  25.530  1.00  0.00     0.124 S 
ATOM     96  O   UNL A   1      52.904  26.285  24.134  1.00  0.00    -0.237 OA
ATOM     97  O   UNL A   1      53.782  26.573  26.427  1.00  0.00    -0.237 OA
ATOM     98  O   UNL A   1      52.805  24.417  25.745  1.00  0.00    -0.744 OA
ENDBRANCH  94  95
ENDBRANCH  62  87
ENDBRANCH  36  37
ENDBRANCH  28  31
ENDBRANCH  26  27
ENDBRANCH   1  26
TORSDOF 17
ENDMDL
