MODEL 1
REMARK VINA RESULT:     -11.6      0.000      0.000
REMARK SMILES COCC1CCN(C(=O)NC[C@H]2CC[C@H](C(=O)NCCCNC(=O)c3ccc(-c4c5nc(c(-c6c(F)cc(S(=O)(=O)[O-])cc6F)c6ccc([nH]6)c(-c6c(F)cc(S(=O)(=O)[O-])cc6F)c6nc(c(-c7c(F)cc(S(=O)(=O)[O-])cc7F)c7ccc4[nH]7)C=C6)C=C5)cc3)O2)CC1
REMARK SMILES IDX 19 1 18 2 16 3 17 4 15 6 12 7 13 8 91 9 14 10 11 11 10 12
REMARK SMILES IDX 4 13 5 14 93 15 6 16 92 17 7 18 8 19 9 20 3 22 2 23 1 24
REMARK SMILES IDX 20 25 21 26 22 27 23 28 24 30 25 31 26 32 90 33 27 34 89 35
REMARK SMILES IDX 28 36 29 37 30 38 83 39 31 40 88 41 82 42 84 43 32 44 87 45
REMARK SMILES IDX 81 46 80 47 33 49 67 50 46 51 66 52 47 53 50 54 65 55 85 56
REMARK SMILES IDX 48 57 49 58 64 60 86 61 51 62 34 63 35 64 44 65 36 66 37 67
REMARK SMILES IDX 43 68 45 69 38 70 39 71 40 72 41 73 42 74 68 75 69 76 78 77
REMARK SMILES IDX 70 78 71 79 77 80 79 81 72 82 73 83 74 84 75 85 76 86 52 87
REMARK SMILES IDX 53 88 62 89 54 90 55 91 61 92 63 93 56 94 57 95 58 96 59 97
REMARK SMILES IDX 60 98
REMARK H PARENT 18 5 10 21 22 29 84 48 50 59
REMARK Flexibility Score: inf
ROOT
ATOM      1  C   UNL A   1      36.884  21.276  24.877  1.00  0.00     0.117 C 
ENDROOT
BRANCH   1   2
ATOM      2  N   UNL A   1      36.115  21.399  26.098  1.00  0.00    -0.354 N 
ATOM      3  C   UNL A   1      34.770  21.531  26.283  1.00  0.00     0.249 C 
ATOM      4  O   UNL A   1      34.366  21.601  27.449  1.00  0.00    -0.272 OA
ATOM      5  H   UNL A   1      36.647  21.385  26.926  1.00  0.00     0.163 HD
BRANCH   3   6
ATOM      6  C   UNL A   1      33.785  21.659  25.100  1.00  0.00     0.207 C 
ATOM      7  C   UNL A   1      31.972  23.078  24.652  1.00  0.00     0.138 C 
ATOM      8  C   UNL A   1      31.431  21.883  25.414  1.00  0.00     0.037 C 
ATOM      9  O   UNL A   1      33.411  22.993  24.739  1.00  0.00    -0.363 OA
ATOM     10  C   UNL A   1      32.518  20.847  25.319  1.00  0.00     0.045 C 
BRANCH   7  11
ATOM     11  C   UNL A   1      31.564  23.256  23.180  1.00  0.00     0.149 C 
BRANCH  11  12
ATOM     12  N   UNL A   1      32.479  24.082  22.411  1.00  0.00    -0.335 N 
ATOM     13  C   UNL A   1      30.793  28.739  24.153  1.00  0.00     0.018 C 
ATOM     14  C   UNL A   1      32.228  28.783  23.612  1.00  0.00     0.027 C 
ATOM     15  C   UNL A   1      30.410  27.291  24.454  1.00  0.00     0.027 C 
ATOM     16  C   UNL A   1      32.546  27.749  22.535  1.00  0.00     0.121 C 
ATOM     17  C   UNL A   1      30.707  26.334  23.309  1.00  0.00     0.121 C 
ATOM     18  N   UNL A   1      32.087  26.396  22.854  1.00  0.00    -0.325 N 
ATOM     19  C   UNL A   1      32.818  25.374  22.311  1.00  0.00     0.317 C 
ATOM     20  O   UNL A   1      33.851  25.582  21.663  1.00  0.00    -0.249 OA
ATOM     21  H   UNL A   1      32.999  23.533  21.779  1.00  0.00     0.165 HD
BRANCH  13  22
ATOM     22  C   UNL A   1      29.770  29.450  23.250  1.00  0.00     0.163 C 
BRANCH  22  23
ATOM     23  O   UNL A   1      29.374  30.703  23.790  1.00  0.00    -0.384 OA
ATOM     24  C   UNL A   1      28.080  31.110  23.378  1.00  0.00     0.194 C 
ENDBRANCH  22  23
ENDBRANCH  13  22
ENDBRANCH  11  12
ENDBRANCH   7  11
ENDBRANCH   3   6
ENDBRANCH   1   2
BRANCH   1  25
ATOM     25  C   UNL A   1      37.940  20.182  24.975  1.00  0.00     0.042 C 
BRANCH  25  26
ATOM     26  C   UNL A   1      39.109  20.567  25.871  1.00  0.00     0.118 C 
BRANCH  26  27
ATOM     27  N   UNL A   1      40.073  19.478  25.994  1.00  0.00    -0.352 N 
ATOM     28  C   UNL A   1      41.437  19.515  26.108  1.00  0.00     0.251 C 
ATOM     29  H   UNL A   1      39.680  18.575  25.994  1.00  0.00     0.163 HD
ATOM     30  O   UNL A   1      42.085  18.477  25.934  1.00  0.00    -0.269 OA
BRANCH  28  31
ATOM     31  C   UNL A   1      42.134  20.776  26.426  1.00  0.00     0.039 A 
ATOM     32  C   UNL A   1      42.614  21.571  25.382  1.00  0.00     0.014 A 
ATOM     33  C   UNL A   1      42.340  21.165  27.753  1.00  0.00     0.014 A 
ATOM     34  C   UNL A   1      43.235  22.788  25.666  1.00  0.00     0.010 A 
ATOM     35  C   UNL A   1      42.887  22.412  28.033  1.00  0.00     0.010 A 
ATOM     36  C   UNL A   1      43.338  23.237  26.993  1.00  0.00    -0.014 A 
BRANCH  36  37
ATOM     37  C   UNL A   1      43.890  24.575  27.319  1.00  0.00     0.031 A 
ATOM     38  C   UNL A   1      42.971  25.692  27.729  1.00  0.00     0.074 A 
ATOM     39  C   UNL A   1      45.208  24.801  27.154  1.00  0.00     0.049 A 
ATOM     40  N   UNL A   1      43.247  26.952  27.938  1.00  0.00    -0.248 NA
ATOM     41  C   UNL A   1      41.548  25.353  27.901  1.00  0.00     0.031 C 
ATOM     42  C   UNL A   1      46.188  23.804  26.715  1.00  0.00     0.029 A 
ATOM     43  N   UNL A   1      45.949  25.944  27.314  1.00  0.00    -0.354 N 
ATOM     44  C   UNL A   1      42.037  27.560  28.247  1.00  0.00     0.074 A 
ATOM     45  C   UNL A   1      41.016  26.539  28.156  1.00  0.00     0.031 C 
ATOM     46  C   UNL A   1      47.400  24.377  26.652  1.00  0.00     0.029 A 
ATOM     47  C   UNL A   1      47.278  25.788  27.001  1.00  0.00     0.049 A 
ATOM     48  H   UNL A   1      45.565  26.796  27.624  1.00  0.00     0.167 HD
ATOM     49  C   UNL A   1      41.802  28.848  28.594  1.00  0.00     0.037 A 
ATOM     50  C   UNL A   1      48.283  26.685  26.977  1.00  0.00     0.037 A 
ATOM     51  C   UNL A   1      42.831  29.850  28.703  1.00  0.00     0.049 A 
ATOM     52  C   UNL A   1      47.995  28.112  27.353  1.00  0.00     0.074 A 
ATOM     53  C   UNL A   1      42.710  31.165  29.115  1.00  0.00     0.029 A 
ATOM     54  N   UNL A   1      44.169  29.650  28.394  1.00  0.00    -0.354 N 
ATOM     55  N   UNL A   1      46.855  28.655  27.709  1.00  0.00    -0.248 NA
ATOM     56  C   UNL A   1      49.127  29.049  27.323  1.00  0.00     0.031 C 
ATOM     57  C   UNL A   1      43.965  31.773  29.011  1.00  0.00     0.029 A 
ATOM     58  C   UNL A   1      44.878  30.825  28.577  1.00  0.00     0.049 A 
ATOM     59  H   UNL A   1      44.555  28.798  28.088  1.00  0.00     0.167 HD
ATOM     60  C   UNL A   1      47.134  29.993  27.960  1.00  0.00     0.074 A 
ATOM     61  C   UNL A   1      48.554  30.172  27.733  1.00  0.00     0.031 C 
ATOM     62  C   UNL A   1      46.292  30.984  28.340  1.00  0.00     0.037 A 
BRANCH  49  63
ATOM     63  C   UNL A   1      40.382  29.248  28.883  1.00  0.00     0.058 A 
ATOM     64  C   UNL A   1      39.915  29.411  30.198  1.00  0.00     0.135 A 
ATOM     65  C   UNL A   1      39.485  29.511  27.834  1.00  0.00     0.135 A 
ATOM     66  F   UNL A   1      40.725  29.158  31.238  1.00  0.00    -0.206 F 
ATOM     67  C   UNL A   1      38.604  29.794  30.462  1.00  0.00     0.059 A 
ATOM     68  C   UNL A   1      38.176  29.920  28.075  1.00  0.00     0.059 A 
ATOM     69  F   UNL A   1      39.879  29.370  26.558  1.00  0.00    -0.206 F 
ATOM     70  C   UNL A   1      37.743  30.046  29.394  1.00  0.00     0.060 A 
BRANCH  70  71
ATOM     71  S   UNL A   1      36.047  30.551  29.756  1.00  0.00     0.124 S 
ATOM     72  O   UNL A   1      35.850  29.973  31.082  1.00  0.00    -0.237 OA
ATOM     73  O   UNL A   1      36.137  32.006  29.706  1.00  0.00    -0.237 OA
ATOM     74  O   UNL A   1      35.272  29.936  28.683  1.00  0.00    -0.744 OA
ENDBRANCH  70  71
ENDBRANCH  49  63
BRANCH  50  75
ATOM     75  C   UNL A   1      49.651  26.255  26.583  1.00  0.00     0.058 A 
ATOM     76  C   UNL A   1      50.571  25.811  27.545  1.00  0.00     0.135 A 
ATOM     77  C   UNL A   1      50.059  26.259  25.240  1.00  0.00     0.135 A 
ATOM     78  F   UNL A   1      50.229  25.795  28.841  1.00  0.00    -0.206 F 
ATOM     79  C   UNL A   1      51.851  25.396  27.191  1.00  0.00     0.059 A 
ATOM     80  C   UNL A   1      51.324  25.827  24.858  1.00  0.00     0.059 A 
ATOM     81  F   UNL A   1      49.210  26.659  24.280  1.00  0.00    -0.206 F 
ATOM     82  C   UNL A   1      52.218  25.404  25.843  1.00  0.00     0.060 A 
BRANCH  82  83
ATOM     83  S   UNL A   1      53.861  24.810  25.388  1.00  0.00     0.124 S 
ATOM     84  O   UNL A   1      53.591  23.411  25.079  1.00  0.00    -0.237 OA
ATOM     85  O   UNL A   1      54.191  25.663  24.250  1.00  0.00    -0.237 OA
ATOM     86  O   UNL A   1      54.650  25.052  26.591  1.00  0.00    -0.744 OA
ENDBRANCH  82  83
ENDBRANCH  50  75
BRANCH  62  87
ATOM     87  C   UNL A   1      46.884  32.351  28.544  1.00  0.00     0.058 A 
ATOM     88  C   UNL A   1      46.930  33.292  27.503  1.00  0.00     0.135 A 
ATOM     89  C   UNL A   1      47.362  32.742  29.805  1.00  0.00     0.135 A 
ATOM     90  F   UNL A   1      46.493  32.964  26.276  1.00  0.00    -0.206 F 
ATOM     91  C   UNL A   1      47.445  34.568  27.701  1.00  0.00     0.059 A 
ATOM     92  C   UNL A   1      47.858  34.021  30.031  1.00  0.00     0.059 A 
ATOM     93  F   UNL A   1      47.333  31.882  30.835  1.00  0.00    -0.206 F 
ATOM     94  C   UNL A   1      47.905  34.924  28.971  1.00  0.00     0.060 A 
BRANCH  94  95
ATOM     95  S   UNL A   1      48.536  36.597  29.223  1.00  0.00     0.124 S 
ATOM     96  O   UNL A   1      47.640  37.379  28.376  1.00  0.00    -0.237 OA
ATOM     97  O   UNL A   1      48.369  36.780  30.661  1.00  0.00    -0.237 OA
ATOM     98  O   UNL A   1      49.919  36.511  28.765  1.00  0.00    -0.744 OA
ENDBRANCH  94  95
ENDBRANCH  62  87
ENDBRANCH  36  37
ENDBRANCH  28  31
ENDBRANCH  26  27
ENDBRANCH  25  26
ENDBRANCH   1  25
TORSDOF 17
ENDMDL
MODEL 2
REMARK VINA RESULT:     -11.5      2.489      8.800
REMARK SMILES COCC1CCN(C(=O)NC[C@H]2CC[C@H](C(=O)NCCCNC(=O)c3ccc(-c4c5nc(c(-c6c(F)cc(S(=O)(=O)[O-])cc6F)c6ccc([nH]6)c(-c6c(F)cc(S(=O)(=O)[O-])cc6F)c6nc(c(-c7c(F)cc(S(=O)(=O)[O-])cc7F)c7ccc4[nH]7)C=C6)C=C5)cc3)O2)CC1
REMARK SMILES IDX 19 1 18 2 16 3 17 4 15 6 12 7 13 8 91 9 14 10 11 11 10 12
REMARK SMILES IDX 4 13 5 14 93 15 6 16 92 17 7 18 8 19 9 20 3 22 2 23 1 24
REMARK SMILES IDX 20 25 21 26 22 27 23 28 24 30 25 31 26 32 90 33 27 34 89 35
REMARK SMILES IDX 28 36 29 37 30 38 83 39 31 40 88 41 82 42 84 43 32 44 87 45
REMARK SMILES IDX 81 46 80 47 33 49 67 50 46 51 66 52 47 53 50 54 65 55 85 56
REMARK SMILES IDX 48 57 49 58 64 60 86 61 51 62 34 63 35 64 44 65 36 66 37 67
REMARK SMILES IDX 43 68 45 69 38 70 39 71 40 72 41 73 42 74 68 75 69 76 78 77
REMARK SMILES IDX 70 78 71 79 77 80 79 81 72 82 73 83 74 84 75 85 76 86 52 87
REMARK SMILES IDX 53 88 62 89 54 90 55 91 61 92 63 93 56 94 57 95 58 96 59 97
REMARK SMILES IDX 60 98
REMARK H PARENT 18 5 10 21 22 29 84 48 50 59
REMARK Flexibility Score: inf
ROOT
ATOM      1  C   UNL A   1      33.188  29.706  26.421  1.00  0.00     0.117 C 
ENDROOT
BRANCH   1   2
ATOM      2  N   UNL A   1      33.660  29.688  25.052  1.00  0.00    -0.354 N 
ATOM      3  C   UNL A   1      33.135  29.087  23.946  1.00  0.00     0.249 C 
ATOM      4  O   UNL A   1      33.738  29.245  22.879  1.00  0.00    -0.272 OA
ATOM      5  H   UNL A   1      34.494  30.189  24.894  1.00  0.00     0.163 HD
BRANCH   3   6
ATOM      6  C   UNL A   1      31.880  28.189  24.015  1.00  0.00     0.207 C 
ATOM      7  C   UNL A   1      31.388  26.037  23.224  1.00  0.00     0.138 C 
ATOM      8  C   UNL A   1      31.042  27.013  22.116  1.00  0.00     0.037 C 
ATOM      9  O   UNL A   1      32.122  26.791  24.212  1.00  0.00    -0.363 OA
ATOM     10  C   UNL A   1      30.988  28.355  22.795  1.00  0.00     0.045 C 
BRANCH   7  11
ATOM     11  C   UNL A   1      30.244  25.276  23.916  1.00  0.00     0.149 C 
BRANCH  11  12
ATOM     12  N   UNL A   1      30.497  24.975  25.314  1.00  0.00    -0.335 N 
ATOM     13  C   UNL A   1      33.591  20.804  24.541  1.00  0.00     0.018 C 
ATOM     14  C   UNL A   1      33.807  21.467  25.907  1.00  0.00     0.027 C 
ATOM     15  C   UNL A   1      32.876  21.783  23.610  1.00  0.00     0.027 C 
ATOM     16  C   UNL A   1      32.588  22.192  26.474  1.00  0.00     0.121 C 
ATOM     17  C   UNL A   1      31.642  22.418  24.232  1.00  0.00     0.121 C 
ATOM     18  N   UNL A   1      31.907  23.057  25.511  1.00  0.00    -0.325 N 
ATOM     19  C   UNL A   1      31.258  24.142  26.036  1.00  0.00     0.317 C 
ATOM     20  O   UNL A   1      31.318  24.419  27.240  1.00  0.00    -0.249 OA
ATOM     21  H   UNL A   1      29.952  25.548  25.901  1.00  0.00     0.165 HD
BRANCH  13  22
ATOM     22  C   UNL A   1      32.889  19.437  24.621  1.00  0.00     0.163 C 
BRANCH  22  23
ATOM     23  O   UNL A   1      32.551  18.944  23.333  1.00  0.00    -0.384 OA
ATOM     24  C   UNL A   1      32.937  17.596  23.126  1.00  0.00     0.194 C 
ENDBRANCH  22  23
ENDBRANCH  13  22
ENDBRANCH  11  12
ENDBRANCH   7  11
ENDBRANCH   3   6
ENDBRANCH   1   2
BRANCH   1  25
ATOM     25  C   UNL A   1      33.906  30.758  27.258  1.00  0.00     0.042 C 
BRANCH  25  26
ATOM     26  C   UNL A   1      35.059  30.182  28.069  1.00  0.00     0.118 C 
BRANCH  26  27
ATOM     27  N   UNL A   1      35.184  30.839  29.367  1.00  0.00    -0.352 N 
ATOM     28  C   UNL A   1      36.198  30.795  30.285  1.00  0.00     0.251 C 
ATOM     29  H   UNL A   1      34.417  31.402  29.622  1.00  0.00     0.163 HD
ATOM     30  O   UNL A   1      35.993  31.209  31.430  1.00  0.00    -0.269 OA
BRANCH  28  31
ATOM     31  C   UNL A   1      37.522  30.252  29.921  1.00  0.00     0.039 A 
ATOM     32  C   UNL A   1      37.941  30.313  28.590  1.00  0.00     0.014 A 
ATOM     33  C   UNL A   1      38.340  29.658  30.886  1.00  0.00     0.014 A 
ATOM     34  C   UNL A   1      39.208  29.845  28.240  1.00  0.00     0.010 A 
ATOM     35  C   UNL A   1      39.632  29.265  30.552  1.00  0.00     0.010 A 
ATOM     36  C   UNL A   1      40.079  29.357  29.227  1.00  0.00    -0.014 A 
BRANCH  36  37
ATOM     37  C   UNL A   1      41.472  28.957  28.905  1.00  0.00     0.031 A 
ATOM     38  C   UNL A   1      42.565  29.989  28.872  1.00  0.00     0.074 A 
ATOM     39  C   UNL A   1      41.725  27.682  28.553  1.00  0.00     0.049 A 
ATOM     40  N   UNL A   1      43.811  29.857  28.500  1.00  0.00    -0.248 NA
ATOM     41  C   UNL A   1      42.203  31.354  29.287  1.00  0.00     0.031 C 
ATOM     42  C   UNL A   1      40.732  26.605  28.503  1.00  0.00     0.029 A 
ATOM     43  N   UNL A   1      42.888  27.077  28.149  1.00  0.00    -0.354 N 
ATOM     44  C   UNL A   1      44.377  31.121  28.617  1.00  0.00     0.074 A 
ATOM     45  C   UNL A   1      43.327  32.015  29.055  1.00  0.00     0.031 C 
ATOM     46  C   UNL A   1      41.331  25.472  28.103  1.00  0.00     0.029 A 
ATOM     47  C   UNL A   1      42.737  25.750  27.824  1.00  0.00     0.049 A 
ATOM     48  H   UNL A   1      43.750  27.549  28.095  1.00  0.00     0.167 HD
ATOM     49  C   UNL A   1      45.660  31.495  28.399  1.00  0.00     0.037 A 
ATOM     50  C   UNL A   1      43.623  24.861  27.338  1.00  0.00     0.037 A 
ATOM     51  C   UNL A   1      46.701  30.590  27.987  1.00  0.00     0.049 A 
ATOM     52  C   UNL A   1      45.039  25.303  27.092  1.00  0.00     0.074 A 
ATOM     53  C   UNL A   1      48.048  30.853  27.806  1.00  0.00     0.029 A 
ATOM     54  N   UNL A   1      46.513  29.249  27.684  1.00  0.00    -0.354 N 
ATOM     55  N   UNL A   1      45.574  26.488  27.274  1.00  0.00    -0.248 NA
ATOM     56  C   UNL A   1      45.971  24.293  26.573  1.00  0.00     0.031 C 
ATOM     57  C   UNL A   1      48.664  29.684  27.351  1.00  0.00     0.029 A 
ATOM     58  C   UNL A   1      47.711  28.679  27.290  1.00  0.00     0.049 A 
ATOM     59  H   UNL A   1      45.652  28.774  27.741  1.00  0.00     0.167 HD
ATOM     60  C   UNL A   1      46.908  26.361  26.905  1.00  0.00     0.074 A 
ATOM     61  C   UNL A   1      47.102  24.981  26.510  1.00  0.00     0.031 C 
ATOM     62  C   UNL A   1      47.883  27.303  26.893  1.00  0.00     0.037 A 
BRANCH  49  63
ATOM     63  C   UNL A   1      46.012  32.943  28.604  1.00  0.00     0.058 A 
ATOM     64  C   UNL A   1      45.870  33.889  27.575  1.00  0.00     0.135 A 
ATOM     65  C   UNL A   1      46.458  33.400  29.855  1.00  0.00     0.135 A 
ATOM     66  F   UNL A   1      45.462  33.505  26.356  1.00  0.00    -0.206 F 
ATOM     67  C   UNL A   1      46.183  35.230  27.772  1.00  0.00     0.059 A 
ATOM     68  C   UNL A   1      46.752  34.742  30.082  1.00  0.00     0.059 A 
ATOM     69  F   UNL A   1      46.612  32.538  30.873  1.00  0.00    -0.206 F 
ATOM     70  C   UNL A   1      46.623  35.646  29.029  1.00  0.00     0.060 A 
BRANCH  70  71
ATOM     71  S   UNL A   1      47.016  37.393  29.269  1.00  0.00     0.124 S 
ATOM     72  O   UNL A   1      48.463  37.393  29.075  1.00  0.00    -0.237 OA
ATOM     73  O   UNL A   1      46.237  38.035  28.216  1.00  0.00    -0.237 OA
ATOM     74  O   UNL A   1      46.566  37.659  30.630  1.00  0.00    -0.744 OA
ENDBRANCH  70  71
ENDBRANCH  49  63
BRANCH  50  75
ATOM     75  C   UNL A   1      43.195  23.465  27.056  1.00  0.00     0.058 A 
ATOM     76  C   UNL A   1      43.003  23.023  25.738  1.00  0.00     0.135 A 
ATOM     77  C   UNL A   1      42.991  22.541  28.092  1.00  0.00     0.135 A 
ATOM     78  F   UNL A   1      43.179  23.871  24.715  1.00  0.00    -0.206 F 
ATOM     79  C   UNL A   1      42.613  21.717  25.457  1.00  0.00     0.059 A 
ATOM     80  C   UNL A   1      42.624  21.223  27.836  1.00  0.00     0.059 A 
ATOM     81  F   UNL A   1      43.179  22.909  29.369  1.00  0.00    -0.206 F 
ATOM     82  C   UNL A   1      42.429  20.823  26.514  1.00  0.00     0.060 A 
BRANCH  82  83
ATOM     83  S   UNL A   1      41.978  19.115  26.137  1.00  0.00     0.124 S 
ATOM     84  O   UNL A   1      42.251  18.454  27.407  1.00  0.00    -0.237 OA
ATOM     85  O   UNL A   1      40.571  19.243  25.772  1.00  0.00    -0.237 OA
ATOM     86  O   UNL A   1      42.873  18.768  25.037  1.00  0.00    -0.744 OA
ENDBRANCH  82  83
ENDBRANCH  50  75
BRANCH  62  87
ATOM     87  C   UNL A   1      49.252  26.871  26.446  1.00  0.00     0.058 A 
ATOM     88  C   UNL A   1      50.134  26.216  27.318  1.00  0.00     0.135 A 
ATOM     89  C   UNL A   1      49.665  27.067  25.118  1.00  0.00     0.135 A 
ATOM     90  F   UNL A   1      49.790  26.012  28.601  1.00  0.00    -0.206 F 
ATOM     91  C   UNL A   1      51.386  25.785  26.895  1.00  0.00     0.059 A 
ATOM     92  C   UNL A   1      50.902  26.622  24.667  1.00  0.00     0.059 A 
ATOM     93  F   UNL A   1      48.855  27.682  24.242  1.00  0.00    -0.206 F 
ATOM     94  C   UNL A   1      51.760  25.990  25.565  1.00  0.00     0.060 A 
BRANCH  94  95
ATOM     95  S   UNL A   1      53.374  25.391  25.019  1.00  0.00     0.124 S 
ATOM     96  O   UNL A   1      53.343  24.006  25.480  1.00  0.00    -0.237 OA
ATOM     97  O   UNL A   1      53.304  25.580  23.574  1.00  0.00    -0.237 OA
ATOM     98  O   UNL A   1      54.313  26.264  25.715  1.00  0.00    -0.744 OA
ENDBRANCH  94  95
ENDBRANCH  62  87
ENDBRANCH  36  37
ENDBRANCH  28  31
ENDBRANCH  26  27
ENDBRANCH  25  26
ENDBRANCH   1  25
TORSDOF 17
ENDMDL
MODEL 3
REMARK VINA RESULT:     -11.3      6.203     10.868
REMARK SMILES COCC1CCN(C(=O)NC[C@H]2CC[C@H](C(=O)NCCCNC(=O)c3ccc(-c4c5nc(c(-c6c(F)cc(S(=O)(=O)[O-])cc6F)c6ccc([nH]6)c(-c6c(F)cc(S(=O)(=O)[O-])cc6F)c6nc(c(-c7c(F)cc(S(=O)(=O)[O-])cc7F)c7ccc4[nH]7)C=C6)C=C5)cc3)O2)CC1
REMARK SMILES IDX 19 1 18 2 16 3 17 4 15 6 12 7 13 8 91 9 14 10 11 11 10 12
REMARK SMILES IDX 4 13 5 14 93 15 6 16 92 17 7 18 8 19 9 20 3 22 2 23 1 24
REMARK SMILES IDX 20 25 21 26 22 27 23 28 24 30 25 31 26 32 90 33 27 34 89 35
REMARK SMILES IDX 28 36 29 37 30 38 83 39 31 40 88 41 82 42 84 43 32 44 87 45
REMARK SMILES IDX 81 46 80 47 33 49 67 50 46 51 66 52 47 53 50 54 65 55 85 56
REMARK SMILES IDX 48 57 49 58 64 60 86 61 51 62 34 63 35 64 44 65 36 66 37 67
REMARK SMILES IDX 43 68 45 69 38 70 39 71 40 72 41 73 42 74 68 75 69 76 78 77
REMARK SMILES IDX 70 78 71 79 77 80 79 81 72 82 73 83 74 84 75 85 76 86 52 87
REMARK SMILES IDX 53 88 62 89 54 90 55 91 61 92 63 93 56 94 57 95 58 96 59 97
REMARK SMILES IDX 60 98
REMARK H PARENT 18 5 10 21 22 29 84 48 50 59
REMARK Flexibility Score: inf
ROOT
ATOM      1  C   UNL A   1      36.767  23.150  25.766  1.00  0.00     0.117 C 
ENDROOT
BRANCH   1   2
ATOM      2  N   UNL A   1      37.143  21.766  25.558  1.00  0.00    -0.354 N 
ATOM      3  C   UNL A   1      36.417  20.720  25.071  1.00  0.00     0.249 C 
ATOM      4  O   UNL A   1      36.991  19.629  24.981  1.00  0.00    -0.272 OA
ATOM      5  H   UNL A   1      38.069  21.546  25.810  1.00  0.00     0.163 HD
BRANCH   3   6
ATOM      6  C   UNL A   1      34.922  20.854  24.706  1.00  0.00     0.207 C 
ATOM      7  C   UNL A   1      32.953  20.971  25.975  1.00  0.00     0.138 C 
ATOM      8  C   UNL A   1      33.233  19.504  25.713  1.00  0.00     0.037 C 
ATOM      9  O   UNL A   1      34.140  21.686  25.570  1.00  0.00    -0.363 OA
ATOM     10  C   UNL A   1      34.236  19.501  24.592  1.00  0.00     0.045 C 
BRANCH   7  11
ATOM     11  C   UNL A   1      31.724  21.614  25.310  1.00  0.00     0.149 C 
BRANCH  11  12
ATOM     12  N   UNL A   1      30.872  22.348  26.231  1.00  0.00    -0.335 N 
ATOM     13  C   UNL A   1      32.708  27.146  25.147  1.00  0.00     0.018 C 
ATOM     14  C   UNL A   1      31.294  27.164  25.743  1.00  0.00     0.027 C 
ATOM     15  C   UNL A   1      33.016  25.746  24.616  1.00  0.00     0.027 C 
ATOM     16  C   UNL A   1      30.966  25.990  26.663  1.00  0.00     0.121 C 
ATOM     17  C   UNL A   1      32.713  24.639  25.614  1.00  0.00     0.121 C 
ATOM     18  N   UNL A   1      31.352  24.685  26.127  1.00  0.00    -0.325 N 
ATOM     19  C   UNL A   1      30.594  23.622  26.537  1.00  0.00     0.317 C 
ATOM     20  O   UNL A   1      29.593  23.769  27.249  1.00  0.00    -0.249 OA
ATOM     21  H   UNL A   1      30.348  21.730  26.792  1.00  0.00     0.165 HD
BRANCH  13  22
ATOM     22  C   UNL A   1      33.790  27.671  26.106  1.00  0.00     0.163 C 
BRANCH  22  23
ATOM     23  O   UNL A   1      33.253  28.574  27.060  1.00  0.00    -0.384 OA
ATOM     24  C   UNL A   1      33.781  29.886  26.954  1.00  0.00     0.194 C 
ENDBRANCH  22  23
ENDBRANCH  13  22
ENDBRANCH  11  12
ENDBRANCH   7  11
ENDBRANCH   3   6
ENDBRANCH   1   2
BRANCH   1  25
ATOM     25  C   UNL A   1      37.984  24.057  25.906  1.00  0.00     0.042 C 
BRANCH  25  26
ATOM     26  C   UNL A   1      39.046  23.482  26.833  1.00  0.00     0.118 C 
BRANCH  26  27
ATOM     27  N   UNL A   1      40.386  23.632  26.273  1.00  0.00    -0.352 N 
ATOM     28  C   UNL A   1      41.273  24.670  26.371  1.00  0.00     0.251 C 
ATOM     29  H   UNL A   1      40.701  22.865  25.741  1.00  0.00     0.163 HD
ATOM     30  O   UNL A   1      42.242  24.709  25.607  1.00  0.00    -0.269 OA
BRANCH  28  31
ATOM     31  C   UNL A   1      41.075  25.740  27.369  1.00  0.00     0.039 A 
ATOM     32  C   UNL A   1      40.137  25.556  28.388  1.00  0.00     0.014 A 
ATOM     33  C   UNL A   1      41.794  26.936  27.286  1.00  0.00     0.014 A 
ATOM     34  C   UNL A   1      39.973  26.540  29.364  1.00  0.00     0.010 A 
ATOM     35  C   UNL A   1      41.686  27.880  28.301  1.00  0.00     0.010 A 
ATOM     36  C   UNL A   1      40.778  27.691  29.351  1.00  0.00    -0.014 A 
BRANCH  36  37
ATOM     37  C   UNL A   1      40.706  28.700  30.436  1.00  0.00     0.031 A 
ATOM     38  C   UNL A   1      41.592  28.575  31.644  1.00  0.00     0.074 A 
ATOM     39  C   UNL A   1      39.775  29.672  30.369  1.00  0.00     0.049 A 
ATOM     40  N   UNL A   1      41.594  29.285  32.742  1.00  0.00    -0.248 NA
ATOM     41  C   UNL A   1      42.591  27.494  31.626  1.00  0.00     0.031 C 
ATOM     42  C   UNL A   1      38.828  29.862  29.267  1.00  0.00     0.029 A 
ATOM     43  N   UNL A   1      39.456  30.671  31.254  1.00  0.00    -0.354 N 
ATOM     44  C   UNL A   1      42.576  28.728  33.552  1.00  0.00     0.074 A 
ATOM     45  C   UNL A   1      43.121  27.595  32.836  1.00  0.00     0.031 C 
ATOM     46  C   UNL A   1      38.044  30.917  29.538  1.00  0.00     0.029 A 
ATOM     47  C   UNL A   1      38.399  31.451  30.849  1.00  0.00     0.049 A 
ATOM     48  H   UNL A   1      39.937  30.814  32.101  1.00  0.00     0.167 HD
ATOM     49  C   UNL A   1      42.998  29.138  34.772  1.00  0.00     0.037 A 
ATOM     50  C   UNL A   1      37.773  32.468  31.470  1.00  0.00     0.037 A 
ATOM     51  C   UNL A   1      42.463  30.282  35.463  1.00  0.00     0.049 A 
ATOM     52  C   UNL A   1      38.251  32.897  32.830  1.00  0.00     0.074 A 
ATOM     53  C   UNL A   1      42.868  30.824  36.670  1.00  0.00     0.029 A 
ATOM     54  N   UNL A   1      41.405  31.058  35.013  1.00  0.00    -0.354 N 
ATOM     55  N   UNL A   1      39.227  32.401  33.552  1.00  0.00    -0.248 NA
ATOM     56  C   UNL A   1      37.543  34.019  33.460  1.00  0.00     0.031 C 
ATOM     57  C   UNL A   1      42.025  31.899  36.971  1.00  0.00     0.029 A 
ATOM     58  C   UNL A   1      41.123  32.055  35.931  1.00  0.00     0.049 A 
ATOM     59  H   UNL A   1      40.924  30.919  34.164  1.00  0.00     0.167 HD
ATOM     60  C   UNL A   1      39.261  33.160  34.716  1.00  0.00     0.074 A 
ATOM     61  C   UNL A   1      38.220  34.160  34.592  1.00  0.00     0.031 C 
ATOM     62  C   UNL A   1      40.077  33.039  35.791  1.00  0.00     0.037 A 
BRANCH  49  63
ATOM     63  C   UNL A   1      44.091  28.348  35.437  1.00  0.00     0.058 A 
ATOM     64  C   UNL A   1      43.805  27.285  36.311  1.00  0.00     0.135 A 
ATOM     65  C   UNL A   1      45.441  28.628  35.168  1.00  0.00     0.135 A 
ATOM     66  F   UNL A   1      42.533  26.984  36.615  1.00  0.00    -0.206 F 
ATOM     67  C   UNL A   1      44.818  26.547  36.914  1.00  0.00     0.059 A 
ATOM     68  C   UNL A   1      46.470  27.885  35.740  1.00  0.00     0.059 A 
ATOM     69  F   UNL A   1      45.770  29.633  34.341  1.00  0.00    -0.206 F 
ATOM     70  C   UNL A   1      46.147  26.855  36.622  1.00  0.00     0.060 A 
BRANCH  70  71
ATOM     71  S   UNL A   1      47.450  25.881  37.407  1.00  0.00     0.124 S 
ATOM     72  O   UNL A   1      47.908  26.795  38.449  1.00  0.00    -0.237 OA
ATOM     73  O   UNL A   1      46.722  24.705  37.873  1.00  0.00    -0.237 OA
ATOM     74  O   UNL A   1      48.396  25.641  36.323  1.00  0.00    -0.744 OA
ENDBRANCH  70  71
ENDBRANCH  49  63
BRANCH  50  75
ATOM     75  C   UNL A   1      36.628  33.149  30.808  1.00  0.00     0.058 A 
ATOM     76  C   UNL A   1      35.318  32.973  31.276  1.00  0.00     0.135 A 
ATOM     77  C   UNL A   1      36.823  34.005  29.713  1.00  0.00     0.135 A 
ATOM     78  F   UNL A   1      35.081  32.161  32.316  1.00  0.00    -0.206 F 
ATOM     79  C   UNL A   1      34.238  33.612  30.674  1.00  0.00     0.059 A 
ATOM     80  C   UNL A   1      35.763  34.674  29.109  1.00  0.00     0.059 A 
ATOM     81  F   UNL A   1      38.060  34.220  29.238  1.00  0.00    -0.206 F 
ATOM     82  C   UNL A   1      34.471  34.464  29.592  1.00  0.00     0.060 A 
BRANCH  82  83
ATOM     83  S   UNL A   1      33.071  35.333  28.854  1.00  0.00     0.124 S 
ATOM     84  O   UNL A   1      32.325  35.743  30.037  1.00  0.00    -0.237 OA
ATOM     85  O   UNL A   1      33.731  36.403  28.112  1.00  0.00    -0.237 OA
ATOM     86  O   UNL A   1      32.438  34.309  28.029  1.00  0.00    -0.744 OA
ENDBRANCH  82  83
ENDBRANCH  50  75
BRANCH  62  87
ATOM     87  C   UNL A   1      39.884  34.016  36.916  1.00  0.00     0.058 A 
ATOM     88  C   UNL A   1      40.433  35.307  36.867  1.00  0.00     0.135 A 
ATOM     89  C   UNL A   1      39.098  33.679  38.030  1.00  0.00     0.135 A 
ATOM     90  F   UNL A   1      41.200  35.676  35.828  1.00  0.00    -0.206 F 
ATOM     91  C   UNL A   1      40.226  36.224  37.891  1.00  0.00     0.059 A 
ATOM     92  C   UNL A   1      38.856  34.589  39.054  1.00  0.00     0.059 A 
ATOM     93  F   UNL A   1      38.544  32.460  38.121  1.00  0.00    -0.206 F 
ATOM     94  C   UNL A   1      39.432  35.856  38.980  1.00  0.00     0.060 A 
BRANCH  94  95
ATOM     95  S   UNL A   1      39.138  37.069  40.285  1.00  0.00     0.124 S 
ATOM     96  O   UNL A   1      38.547  38.171  39.532  1.00  0.00    -0.237 OA
ATOM     97  O   UNL A   1      38.233  36.354  41.178  1.00  0.00    -0.237 OA
ATOM     98  O   UNL A   1      40.472  37.319  40.822  1.00  0.00    -0.744 OA
ENDBRANCH  94  95
ENDBRANCH  62  87
ENDBRANCH  36  37
ENDBRANCH  28  31
ENDBRANCH  26  27
ENDBRANCH  25  26
ENDBRANCH   1  25
TORSDOF 17
ENDMDL
