MODEL 1
REMARK VINA RESULT:     -11.6      0.000      0.000
REMARK SMILES Cc1sc(-c2ccco2)nc1C(=O)N[C@@H](C(=O)NCCCNC(=O)c1ccc(-c2c3nc(c(-c4c(F)cc(S(=O)(=O)[O-])cc4F)c4ccc([nH]4)c(-c4c(F)cc(S(=O)(=O)[O-])cc4F)c4nc(c(-c5c(F)cc(S(=O)(=O)[O-])cc5F)c5ccc2[nH]5)C=C4)C=C3)cc1)C(C)C
REMARK SMILES IDX 20 1 19 2 18 3 16 4 17 5 15 7 14 8 12 9 13 10 11 12 1 13
REMARK SMILES IDX 2 14 3 15 4 16 10 17 5 18 6 19 9 20 7 21 8 22 91 23 92 24
REMARK SMILES IDX 93 25 21 26 22 27 23 28 24 30 25 31 26 32 90 33 27 34 89 35
REMARK SMILES IDX 28 36 29 37 30 38 83 39 31 40 88 41 82 42 84 43 32 44 87 45
REMARK SMILES IDX 81 46 80 47 33 49 67 50 46 51 66 52 47 53 50 54 65 55 85 56
REMARK SMILES IDX 48 57 49 58 64 60 86 61 51 62 34 63 35 64 44 65 36 66 37 67
REMARK SMILES IDX 43 68 45 69 38 70 39 71 40 72 41 73 42 74 68 75 69 76 78 77
REMARK SMILES IDX 70 78 71 79 77 80 79 81 72 82 73 83 74 84 75 85 76 86 52 87
REMARK SMILES IDX 53 88 62 89 54 90 55 91 61 92 63 93 56 94 57 95 58 96 59 97
REMARK SMILES IDX 60 98
REMARK H PARENT 18 6 14 11 22 29 84 48 50 59
REMARK Flexibility Score: inf
ROOT
ATOM      1  C   UNL A   1      40.504  21.651  27.240  1.00  0.00     0.042 C 
ENDROOT
BRANCH   1   2
ATOM      2  C   UNL A   1      41.712  20.857  27.711  1.00  0.00     0.117 C 
BRANCH   2   3
ATOM      3  N   UNL A   1      41.763  19.537  27.114  1.00  0.00    -0.354 N 
ATOM      4  C   UNL A   1      42.615  19.025  26.174  1.00  0.00     0.242 C 
ATOM      5  O   UNL A   1      42.422  17.862  25.818  1.00  0.00    -0.273 OA
ATOM      6  H   UNL A   1      41.076  18.910  27.435  1.00  0.00     0.163 HD
BRANCH   4   7
ATOM      7  C   UNL A   1      43.850  19.844  25.711  1.00  0.00     0.174 C 
BRANCH   7   8
ATOM      8  N   UNL A   1      43.444  20.983  24.912  1.00  0.00    -0.339 N 
ATOM      9  C   UNL A   1      43.738  22.321  24.916  1.00  0.00     0.271 C 
ATOM     10  O   UNL A   1      43.134  22.940  24.030  1.00  0.00    -0.267 OA
ATOM     11  H   UNL A   1      42.808  20.739  24.201  1.00  0.00     0.164 HD
BRANCH   9  12
ATOM     12  C   UNL A   1      44.658  23.057  25.839  1.00  0.00     0.142 A 
ATOM     13  C   UNL A   1      47.036  23.701  24.736  1.00  0.00     0.059 C 
ATOM     14  C   UNL A   1      45.932  23.637  25.737  1.00  0.00     0.035 A 
ATOM     15  S   UNL A   1      46.298  24.509  27.197  1.00  0.00    -0.115 S 
ATOM     16  C   UNL A   1      44.959  23.811  27.959  1.00  0.00     0.160 A 
ATOM     17  N   UNL A   1      44.178  23.116  27.174  1.00  0.00    -0.227 NA
BRANCH  16  18
ATOM     18  C   UNL A   1      44.782  23.935  29.372  1.00  0.00     0.162 A 
ATOM     19  C   UNL A   1      44.984  25.052  30.164  1.00  0.00     0.053 A 
ATOM     20  O   UNL A   1      44.277  22.926  30.155  1.00  0.00    -0.462 OA
ATOM     21  C   UNL A   1      44.561  24.716  31.473  1.00  0.00     0.043 A 
ATOM     22  C   UNL A   1      44.164  23.403  31.418  1.00  0.00     0.196 A 
ENDBRANCH  16  18
ENDBRANCH   9  12
ENDBRANCH   7   8
BRANCH   7  23
ATOM     23  C   UNL A   1      44.926  18.976  25.015  1.00  0.00     0.015 C 
ATOM     24  C   UNL A   1      44.863  19.078  23.485  1.00  0.00     0.010 C 
ATOM     25  C   UNL A   1      46.327  19.419  25.470  1.00  0.00     0.010 C 
ENDBRANCH   7  23
ENDBRANCH   4   7
ENDBRANCH   2   3
ENDBRANCH   1   2
BRANCH   1  26
ATOM     26  C   UNL A   1      40.651  23.140  27.514  1.00  0.00     0.118 C 
BRANCH  26  27
ATOM     27  N   UNL A   1      41.164  23.863  26.356  1.00  0.00    -0.352 N 
ATOM     28  C   UNL A   1      41.320  25.211  26.172  1.00  0.00     0.251 C 
ATOM     29  H   UNL A   1      41.438  23.299  25.595  1.00  0.00     0.163 HD
ATOM     30  O   UNL A   1      41.599  25.638  25.049  1.00  0.00    -0.269 OA
BRANCH  28  31
ATOM     31  C   UNL A   1      41.141  26.143  27.302  1.00  0.00     0.039 A 
ATOM     32  C   UNL A   1      40.031  25.991  28.135  1.00  0.00     0.014 A 
ATOM     33  C   UNL A   1      42.052  27.178  27.531  1.00  0.00     0.014 A 
ATOM     34  C   UNL A   1      39.854  26.855  29.217  1.00  0.00     0.010 A 
ATOM     35  C   UNL A   1      41.927  27.975  28.662  1.00  0.00     0.010 A 
ATOM     36  C   UNL A   1      40.812  27.842  29.501  1.00  0.00    -0.014 A 
BRANCH  36  37
ATOM     37  C   UNL A   1      40.636  28.781  30.636  1.00  0.00     0.031 A 
ATOM     38  C   UNL A   1      41.494  28.637  31.865  1.00  0.00     0.074 A 
ATOM     39  C   UNL A   1      39.678  29.727  30.581  1.00  0.00     0.049 A 
ATOM     40  N   UNL A   1      41.465  29.320  32.980  1.00  0.00    -0.248 NA
ATOM     41  C   UNL A   1      42.499  27.559  31.853  1.00  0.00     0.031 C 
ATOM     42  C   UNL A   1      38.749  29.929  29.466  1.00  0.00     0.029 A 
ATOM     43  N   UNL A   1      39.325  30.694  31.487  1.00  0.00    -0.354 N 
ATOM     44  C   UNL A   1      42.428  28.746  33.802  1.00  0.00     0.074 A 
ATOM     45  C   UNL A   1      42.979  27.618  33.085  1.00  0.00     0.031 C 
ATOM     46  C   UNL A   1      37.952  30.974  29.743  1.00  0.00     0.029 A 
ATOM     47  C   UNL A   1      38.289  31.494  31.064  1.00  0.00     0.049 A 
ATOM     48  H   UNL A   1      39.770  30.805  32.357  1.00  0.00     0.167 HD
ATOM     49  C   UNL A   1      42.839  29.140  35.031  1.00  0.00     0.037 A 
ATOM     50  C   UNL A   1      37.683  32.530  31.675  1.00  0.00     0.037 A 
ATOM     51  C   UNL A   1      42.307  30.284  35.724  1.00  0.00     0.049 A 
ATOM     52  C   UNL A   1      38.173  32.965  33.031  1.00  0.00     0.074 A 
ATOM     53  C   UNL A   1      42.685  30.801  36.950  1.00  0.00     0.029 A 
ATOM     54  N   UNL A   1      41.284  31.092  35.247  1.00  0.00    -0.354 N 
ATOM     55  N   UNL A   1      39.123  32.445  33.771  1.00  0.00    -0.248 NA
ATOM     56  C   UNL A   1      37.520  34.138  33.625  1.00  0.00     0.031 C 
ATOM     57  C   UNL A   1      41.864  31.899  37.233  1.00  0.00     0.029 A 
ATOM     58  C   UNL A   1      41.012  32.099  36.159  1.00  0.00     0.049 A 
ATOM     59  H   UNL A   1      40.821  30.969  34.388  1.00  0.00     0.167 HD
ATOM     60  C   UNL A   1      39.208  33.251  34.902  1.00  0.00     0.074 A 
ATOM     61  C   UNL A   1      38.219  34.298  34.740  1.00  0.00     0.031 C 
ATOM     62  C   UNL A   1      40.031  33.139  35.975  1.00  0.00     0.037 A 
BRANCH  49  63
ATOM     63  C   UNL A   1      43.921  28.332  35.696  1.00  0.00     0.058 A 
ATOM     64  C   UNL A   1      43.624  27.279  36.576  1.00  0.00     0.135 A 
ATOM     65  C   UNL A   1      45.276  28.601  35.435  1.00  0.00     0.135 A 
ATOM     66  F   UNL A   1      42.348  26.989  36.877  1.00  0.00    -0.206 F 
ATOM     67  C   UNL A   1      44.627  26.544  37.199  1.00  0.00     0.059 A 
ATOM     68  C   UNL A   1      46.296  27.858  36.022  1.00  0.00     0.059 A 
ATOM     69  F   UNL A   1      45.620  29.597  34.604  1.00  0.00    -0.206 F 
ATOM     70  C   UNL A   1      45.961  26.841  36.916  1.00  0.00     0.060 A 
BRANCH  70  71
ATOM     71  S   UNL A   1      47.250  25.876  37.731  1.00  0.00     0.124 S 
ATOM     72  O   UNL A   1      46.500  24.706  38.178  1.00  0.00    -0.237 OA
ATOM     73  O   UNL A   1      48.199  25.643  36.647  1.00  0.00    -0.237 OA
ATOM     74  O   UNL A   1      47.720  26.761  38.792  1.00  0.00    -0.744 OA
ENDBRANCH  70  71
ENDBRANCH  49  63
BRANCH  50  75
ATOM     75  C   UNL A   1      36.576  33.252  30.993  1.00  0.00     0.058 A 
ATOM     76  C   UNL A   1      35.248  33.112  31.423  1.00  0.00     0.135 A 
ATOM     77  C   UNL A   1      36.822  34.101  29.903  1.00  0.00     0.135 A 
ATOM     78  F   UNL A   1      34.962  32.309  32.460  1.00  0.00    -0.206 F 
ATOM     79  C   UNL A   1      34.201  33.766  30.784  1.00  0.00     0.059 A 
ATOM     80  C   UNL A   1      35.794  34.789  29.264  1.00  0.00     0.059 A 
ATOM     81  F   UNL A   1      38.077  34.286  29.463  1.00  0.00    -0.206 F 
ATOM     82  C   UNL A   1      34.484  34.604  29.706  1.00  0.00     0.060 A 
BRANCH  82  83
ATOM     83  S   UNL A   1      33.120  35.478  28.908  1.00  0.00     0.124 S 
ATOM     84  O   UNL A   1      32.373  35.972  30.059  1.00  0.00    -0.237 OA
ATOM     85  O   UNL A   1      33.823  36.488  28.121  1.00  0.00    -0.237 OA
ATOM     86  O   UNL A   1      32.463  34.434  28.128  1.00  0.00    -0.744 OA
ENDBRANCH  82  83
ENDBRANCH  50  75
BRANCH  62  87
ATOM     87  C   UNL A   1      39.936  34.209  37.029  1.00  0.00     0.058 A 
ATOM     88  C   UNL A   1      40.676  35.398  36.952  1.00  0.00     0.135 A 
ATOM     89  C   UNL A   1      39.071  34.045  38.123  1.00  0.00     0.135 A 
ATOM     90  F   UNL A   1      41.518  35.606  35.927  1.00  0.00    -0.206 F 
ATOM     91  C   UNL A   1      40.597  36.368  37.947  1.00  0.00     0.059 A 
ATOM     92  C   UNL A   1      38.952  35.015  39.113  1.00  0.00     0.059 A 
ATOM     93  F   UNL A   1      38.327  32.933  38.238  1.00  0.00    -0.206 F 
ATOM     94  C   UNL A   1      39.736  36.164  39.026  1.00  0.00     0.060 A 
BRANCH  94  95
ATOM     95  S   UNL A   1      39.645  37.426  40.314  1.00  0.00     0.124 S 
ATOM     96  O   UNL A   1      40.705  38.340  39.904  1.00  0.00    -0.237 OA
ATOM     97  O   UNL A   1      38.282  37.927  40.166  1.00  0.00    -0.237 OA
ATOM     98  O   UNL A   1      39.901  36.677  41.542  1.00  0.00    -0.744 OA
ENDBRANCH  94  95
ENDBRANCH  62  87
ENDBRANCH  36  37
ENDBRANCH  28  31
ENDBRANCH  26  27
ENDBRANCH   1  26
TORSDOF 17
ENDMDL
MODEL 2
REMARK VINA RESULT:     -11.4      3.988      6.354
REMARK SMILES Cc1sc(-c2ccco2)nc1C(=O)N[C@@H](C(=O)NCCCNC(=O)c1ccc(-c2c3nc(c(-c4c(F)cc(S(=O)(=O)[O-])cc4F)c4ccc([nH]4)c(-c4c(F)cc(S(=O)(=O)[O-])cc4F)c4nc(c(-c5c(F)cc(S(=O)(=O)[O-])cc5F)c5ccc2[nH]5)C=C4)C=C3)cc1)C(C)C
REMARK SMILES IDX 20 1 19 2 18 3 16 4 17 5 15 7 14 8 12 9 13 10 11 12 1 13
REMARK SMILES IDX 2 14 3 15 4 16 10 17 5 18 6 19 9 20 7 21 8 22 91 23 92 24
REMARK SMILES IDX 93 25 21 26 22 27 23 28 24 30 25 31 26 32 90 33 27 34 89 35
REMARK SMILES IDX 28 36 29 37 30 38 83 39 31 40 88 41 82 42 84 43 32 44 87 45
REMARK SMILES IDX 81 46 80 47 33 49 67 50 46 51 66 52 47 53 50 54 65 55 85 56
REMARK SMILES IDX 48 57 49 58 64 60 86 61 51 62 34 63 35 64 44 65 36 66 37 67
REMARK SMILES IDX 43 68 45 69 38 70 39 71 40 72 41 73 42 74 68 75 69 76 78 77
REMARK SMILES IDX 70 78 71 79 77 80 79 81 72 82 73 83 74 84 75 85 76 86 52 87
REMARK SMILES IDX 53 88 62 89 54 90 55 91 61 92 63 93 56 94 57 95 58 96 59 97
REMARK SMILES IDX 60 98
REMARK H PARENT 18 6 14 11 22 29 84 48 50 59
REMARK Flexibility Score: inf
ROOT
ATOM      1  C   UNL A   1      37.603  23.376  25.637  1.00  0.00     0.042 C 
ENDROOT
BRANCH   1   2
ATOM      2  C   UNL A   1      36.134  23.654  25.913  1.00  0.00     0.117 C 
BRANCH   2   3
ATOM      3  N   UNL A   1      35.559  22.689  26.829  1.00  0.00    -0.354 N 
ATOM      4  C   UNL A   1      34.270  22.245  26.951  1.00  0.00     0.242 C 
ATOM      5  O   UNL A   1      34.042  21.426  27.842  1.00  0.00    -0.273 OA
ATOM      6  H   UNL A   1      36.196  22.290  27.464  1.00  0.00     0.163 HD
BRANCH   4   7
ATOM      7  C   UNL A   1      33.201  22.657  25.904  1.00  0.00     0.174 C 
BRANCH   7   8
ATOM      8  N   UNL A   1      31.901  22.813  26.527  1.00  0.00    -0.339 N 
ATOM      9  C   UNL A   1      30.968  23.814  26.579  1.00  0.00     0.271 C 
ATOM     10  O   UNL A   1      29.980  23.503  27.257  1.00  0.00    -0.267 OA
ATOM     11  H   UNL A   1      31.625  22.013  27.030  1.00  0.00     0.164 HD
BRANCH   9  12
ATOM     12  C   UNL A   1      31.032  25.166  25.940  1.00  0.00     0.142 A 
ATOM     13  C   UNL A   1      30.047  25.241  23.429  1.00  0.00     0.059 C 
ATOM     14  C   UNL A   1      30.620  25.721  24.719  1.00  0.00     0.035 A 
ATOM     15  S   UNL A   1      30.862  27.443  24.747  1.00  0.00    -0.115 S 
ATOM     16  C   UNL A   1      31.767  27.301  26.168  1.00  0.00     0.160 A 
ATOM     17  N   UNL A   1      31.767  26.110  26.705  1.00  0.00    -0.227 NA
BRANCH  16  18
ATOM     18  C   UNL A   1      32.523  28.410  26.661  1.00  0.00     0.162 A 
ATOM     19  C   UNL A   1      33.829  28.420  27.119  1.00  0.00     0.053 A 
ATOM     20  O   UNL A   1      32.048  29.699  26.661  1.00  0.00    -0.462 OA
ATOM     21  C   UNL A   1      34.169  29.769  27.383  1.00  0.00     0.043 A 
ATOM     22  C   UNL A   1      33.041  30.503  27.112  1.00  0.00     0.196 A 
ENDBRANCH  16  18
ENDBRANCH   9  12
ENDBRANCH   7   8
BRANCH   7  23
ATOM     23  C   UNL A   1      33.167  21.721  24.672  1.00  0.00     0.015 C 
ATOM     24  C   UNL A   1      32.398  20.422  24.943  1.00  0.00     0.010 C 
ATOM     25  C   UNL A   1      32.497  22.440  23.489  1.00  0.00     0.010 C 
ENDBRANCH   7  23
ENDBRANCH   4   7
ENDBRANCH   2   3
ENDBRANCH   1   2
BRANCH   1  26
ATOM     26  C   UNL A   1      38.521  24.158  26.562  1.00  0.00     0.118 C 
BRANCH  26  27
ATOM     27  N   UNL A   1      39.907  24.133  26.110  1.00  0.00    -0.352 N 
ATOM     28  C   UNL A   1      40.949  24.951  26.456  1.00  0.00     0.251 C 
ATOM     29  H   UNL A   1      40.125  23.424  25.462  1.00  0.00     0.163 HD
ATOM     30  O   UNL A   1      42.006  24.882  25.823  1.00  0.00    -0.269 OA
BRANCH  28  31
ATOM     31  C   UNL A   1      40.805  25.914  27.565  1.00  0.00     0.039 A 
ATOM     32  C   UNL A   1      41.675  27.005  27.631  1.00  0.00     0.014 A 
ATOM     33  C   UNL A   1      39.829  25.735  28.550  1.00  0.00     0.014 A 
ATOM     34  C   UNL A   1      41.543  27.933  28.666  1.00  0.00     0.010 A 
ATOM     35  C   UNL A   1      39.637  26.710  29.522  1.00  0.00     0.010 A 
ATOM     36  C   UNL A   1      40.510  27.803  29.608  1.00  0.00    -0.014 A 
BRANCH  36  37
ATOM     37  C   UNL A   1      40.361  28.769  30.725  1.00  0.00     0.031 A 
ATOM     38  C   UNL A   1      41.224  28.631  31.951  1.00  0.00     0.074 A 
ATOM     39  C   UNL A   1      39.424  29.734  30.656  1.00  0.00     0.049 A 
ATOM     40  N   UNL A   1      41.216  29.338  33.052  1.00  0.00    -0.248 NA
ATOM     41  C   UNL A   1      42.205  27.532  31.956  1.00  0.00     0.031 C 
ATOM     42  C   UNL A   1      38.493  29.934  29.542  1.00  0.00     0.029 A 
ATOM     43  N   UNL A   1      39.097  30.728  31.543  1.00  0.00    -0.354 N 
ATOM     44  C   UNL A   1      42.172  28.760  33.880  1.00  0.00     0.074 A 
ATOM     45  C   UNL A   1      42.694  27.606  33.184  1.00  0.00     0.031 C 
ATOM     46  C   UNL A   1      37.720  31.001  29.802  1.00  0.00     0.029 A 
ATOM     47  C   UNL A   1      38.077  31.541  31.110  1.00  0.00     0.049 A 
ATOM     48  H   UNL A   1      39.551  30.847  32.408  1.00  0.00     0.167 HD
ATOM     49  C   UNL A   1      42.599  29.171  35.099  1.00  0.00     0.037 A 
ATOM     50  C   UNL A   1      37.497  32.602  31.702  1.00  0.00     0.037 A 
ATOM     51  C   UNL A   1      42.096  30.340  35.771  1.00  0.00     0.049 A 
ATOM     52  C   UNL A   1      38.005  33.054  33.046  1.00  0.00     0.074 A 
ATOM     53  C   UNL A   1      42.493  30.875  36.984  1.00  0.00     0.029 A 
ATOM     54  N   UNL A   1      41.089  31.160  35.283  1.00  0.00    -0.354 N 
ATOM     55  N   UNL A   1      38.948  32.529  33.791  1.00  0.00    -0.248 NA
ATOM     56  C   UNL A   1      37.381  34.254  33.619  1.00  0.00     0.031 C 
ATOM     57  C   UNL A   1      41.698  31.995  37.248  1.00  0.00     0.029 A 
ATOM     58  C   UNL A   1      40.844  32.192  36.175  1.00  0.00     0.049 A 
ATOM     59  H   UNL A   1      40.617  31.029  34.429  1.00  0.00     0.167 HD
ATOM     60  C   UNL A   1      39.058  33.356  34.905  1.00  0.00     0.074 A 
ATOM     61  C   UNL A   1      38.091  34.421  34.726  1.00  0.00     0.031 C 
ATOM     62  C   UNL A   1      39.885  33.249  35.975  1.00  0.00     0.037 A 
BRANCH  49  63
ATOM     63  C   UNL A   1      43.668  28.354  35.774  1.00  0.00     0.058 A 
ATOM     64  C   UNL A   1      43.353  27.302  36.649  1.00  0.00     0.135 A 
ATOM     65  C   UNL A   1      45.027  28.612  35.527  1.00  0.00     0.135 A 
ATOM     66  F   UNL A   1      42.071  27.022  36.937  1.00  0.00    -0.206 F 
ATOM     67  C   UNL A   1      44.343  26.558  37.282  1.00  0.00     0.059 A 
ATOM     68  C   UNL A   1      46.035  27.860  36.125  1.00  0.00     0.059 A 
ATOM     69  F   UNL A   1      45.388  29.606  34.701  1.00  0.00    -0.206 F 
ATOM     70  C   UNL A   1      45.683  26.845  37.014  1.00  0.00     0.060 A 
BRANCH  70  71
ATOM     71  S   UNL A   1      46.955  25.868  37.841  1.00  0.00     0.124 S 
ATOM     72  O   UNL A   1      47.997  25.823  36.821  1.00  0.00    -0.237 OA
ATOM     73  O   UNL A   1      47.255  26.678  39.018  1.00  0.00    -0.237 OA
ATOM     74  O   UNL A   1      46.288  24.599  38.112  1.00  0.00    -0.744 OA
ENDBRANCH  70  71
ENDBRANCH  49  63
BRANCH  50  75
ATOM     75  C   UNL A   1      36.402  33.334  31.011  1.00  0.00     0.058 A 
ATOM     76  C   UNL A   1      35.085  33.287  31.493  1.00  0.00     0.135 A 
ATOM     77  C   UNL A   1      36.648  34.100  29.862  1.00  0.00     0.135 A 
ATOM     78  F   UNL A   1      34.798  32.565  32.588  1.00  0.00    -0.206 F 
ATOM     79  C   UNL A   1      34.047  33.951  30.848  1.00  0.00     0.059 A 
ATOM     80  C   UNL A   1      35.632  34.797  29.214  1.00  0.00     0.059 A 
ATOM     81  F   UNL A   1      37.894  34.195  29.371  1.00  0.00    -0.206 F 
ATOM     82  C   UNL A   1      34.331  34.705  29.709  1.00  0.00     0.060 A 
BRANCH  82  83
ATOM     83  S   UNL A   1      32.983  35.593  28.902  1.00  0.00     0.124 S 
ATOM     84  O   UNL A   1      32.429  34.562  28.032  1.00  0.00    -0.237 OA
ATOM     85  O   UNL A   1      32.152  35.986  30.037  1.00  0.00    -0.237 OA
ATOM     86  O   UNL A   1      33.663  36.692  28.224  1.00  0.00    -0.744 OA
ENDBRANCH  82  83
ENDBRANCH  50  75
BRANCH  62  87
ATOM     87  C   UNL A   1      39.819  34.343  37.006  1.00  0.00     0.058 A 
ATOM     88  C   UNL A   1      39.039  34.227  38.166  1.00  0.00     0.135 A 
ATOM     89  C   UNL A   1      40.570  35.518  36.836  1.00  0.00     0.135 A 
ATOM     90  F   UNL A   1      38.302  33.126  38.378  1.00  0.00    -0.206 F 
ATOM     91  C   UNL A   1      38.967  35.258  39.099  1.00  0.00     0.059 A 
ATOM     92  C   UNL A   1      40.540  36.547  37.772  1.00  0.00     0.059 A 
ATOM     93  F   UNL A   1      41.347  35.674  35.752  1.00  0.00    -0.206 F 
ATOM     94  C   UNL A   1      39.718  36.415  38.889  1.00  0.00     0.060 A 
BRANCH  94  95
ATOM     95  S   UNL A   1      39.615  37.748  40.104  1.00  0.00     0.124 S 
ATOM     96  O   UNL A   1      38.530  38.557  39.559  1.00  0.00    -0.237 OA
ATOM     97  O   UNL A   1      39.313  37.027  41.336  1.00  0.00    -0.237 OA
ATOM     98  O   UNL A   1      40.941  38.358  40.050  1.00  0.00    -0.744 OA
ENDBRANCH  94  95
ENDBRANCH  62  87
ENDBRANCH  36  37
ENDBRANCH  28  31
ENDBRANCH  26  27
ENDBRANCH   1  26
TORSDOF 17
ENDMDL
MODEL 3
REMARK VINA RESULT:     -11.2      6.803     12.589
REMARK SMILES Cc1sc(-c2ccco2)nc1C(=O)N[C@@H](C(=O)NCCCNC(=O)c1ccc(-c2c3nc(c(-c4c(F)cc(S(=O)(=O)[O-])cc4F)c4ccc([nH]4)c(-c4c(F)cc(S(=O)(=O)[O-])cc4F)c4nc(c(-c5c(F)cc(S(=O)(=O)[O-])cc5F)c5ccc2[nH]5)C=C4)C=C3)cc1)C(C)C
REMARK SMILES IDX 20 1 19 2 18 3 16 4 17 5 15 7 14 8 12 9 13 10 11 12 1 13
REMARK SMILES IDX 2 14 3 15 4 16 10 17 5 18 6 19 9 20 7 21 8 22 91 23 92 24
REMARK SMILES IDX 93 25 21 26 22 27 23 28 24 30 25 31 26 32 90 33 27 34 89 35
REMARK SMILES IDX 28 36 29 37 30 38 83 39 31 40 88 41 82 42 84 43 32 44 87 45
REMARK SMILES IDX 81 46 80 47 33 49 67 50 46 51 66 52 47 53 50 54 65 55 85 56
REMARK SMILES IDX 48 57 49 58 64 60 86 61 51 62 34 63 35 64 44 65 36 66 37 67
REMARK SMILES IDX 43 68 45 69 38 70 39 71 40 72 41 73 42 74 68 75 69 76 78 77
REMARK SMILES IDX 70 78 71 79 77 80 79 81 72 82 73 83 74 84 75 85 76 86 52 87
REMARK SMILES IDX 53 88 62 89 54 90 55 91 61 92 63 93 56 94 57 95 58 96 59 97
REMARK SMILES IDX 60 98
REMARK H PARENT 18 6 14 11 22 29 84 48 50 59
REMARK Flexibility Score: inf
ROOT
ATOM      1  C   UNL A   1      33.987  28.606  27.089  1.00  0.00     0.042 C 
ENDROOT
BRANCH   1   2
ATOM      2  C   UNL A   1      33.074  29.448  26.211  1.00  0.00     0.117 C 
BRANCH   2   3
ATOM      3  N   UNL A   1      33.552  29.526  24.845  1.00  0.00    -0.354 N 
ATOM      4  C   UNL A   1      33.402  28.650  23.805  1.00  0.00     0.242 C 
ATOM      5  O   UNL A   1      33.936  28.952  22.737  1.00  0.00    -0.273 OA
ATOM      6  H   UNL A   1      34.066  30.338  24.632  1.00  0.00     0.163 HD
BRANCH   4   7
ATOM      7  C   UNL A   1      32.469  27.418  23.951  1.00  0.00     0.174 C 
BRANCH   7   8
ATOM      8  N   UNL A   1      32.870  26.357  23.049  1.00  0.00    -0.339 N 
ATOM      9  C   UNL A   1      33.496  25.147  23.197  1.00  0.00     0.271 C 
ATOM     10  O   UNL A   1      33.648  24.559  22.118  1.00  0.00    -0.267 OA
ATOM     11  H   UNL A   1      32.640  26.550  22.111  1.00  0.00     0.164 HD
BRANCH   9  12
ATOM     12  C   UNL A   1      33.988  24.515  24.462  1.00  0.00     0.142 A 
ATOM     13  C   UNL A   1      32.221  24.613  26.499  1.00  0.00     0.059 C 
ATOM     14  C   UNL A   1      33.455  24.269  25.736  1.00  0.00     0.035 A 
ATOM     15  S   UNL A   1      34.565  23.297  26.658  1.00  0.00    -0.115 S 
ATOM     16  C   UNL A   1      35.764  23.544  25.490  1.00  0.00     0.160 A 
ATOM     17  N   UNL A   1      35.359  24.148  24.404  1.00  0.00    -0.227 NA
BRANCH  16  18
ATOM     18  C   UNL A   1      37.119  23.172  25.752  1.00  0.00     0.162 A 
ATOM     19  C   UNL A   1      38.127  23.945  26.303  1.00  0.00     0.053 A 
ATOM     20  O   UNL A   1      37.598  21.900  25.558  1.00  0.00    -0.462 OA
ATOM     21  C   UNL A   1      39.252  23.103  26.474  1.00  0.00     0.043 A 
ATOM     22  C   UNL A   1      38.884  21.875  25.981  1.00  0.00     0.196 A 
ENDBRANCH  16  18
ENDBRANCH   9  12
ENDBRANCH   7   8
BRANCH   7  23
ATOM     23  C   UNL A   1      30.968  27.776  23.825  1.00  0.00     0.015 C 
ATOM     24  C   UNL A   1      30.617  28.359  22.450  1.00  0.00     0.010 C 
ATOM     25  C   UNL A   1      30.112  26.519  24.049  1.00  0.00     0.010 C 
ENDBRANCH   7  23
ENDBRANCH   4   7
ENDBRANCH   2   3
ENDBRANCH   1   2
BRANCH   1  26
ATOM     26  C   UNL A   1      35.258  29.345  27.473  1.00  0.00     0.118 C 
BRANCH  26  27
ATOM     27  N   UNL A   1      35.200  29.867  28.834  1.00  0.00    -0.352 N 
ATOM     28  C   UNL A   1      36.193  29.963  29.772  1.00  0.00     0.251 C 
ATOM     29  H   UNL A   1      34.318  30.201  29.119  1.00  0.00     0.163 HD
ATOM     30  O   UNL A   1      35.901  30.266  30.931  1.00  0.00    -0.269 OA
BRANCH  28  31
ATOM     31  C   UNL A   1      37.596  29.691  29.403  1.00  0.00     0.039 A 
ATOM     32  C   UNL A   1      38.498  29.316  30.401  1.00  0.00     0.014 A 
ATOM     33  C   UNL A   1      38.030  29.824  28.081  1.00  0.00     0.014 A 
ATOM     34  C   UNL A   1      39.825  29.043  30.067  1.00  0.00     0.010 A 
ATOM     35  C   UNL A   1      39.325  29.458  27.735  1.00  0.00     0.010 A 
ATOM     36  C   UNL A   1      40.245  29.092  28.728  1.00  0.00    -0.014 A 
BRANCH  36  37
ATOM     37  C   UNL A   1      41.654  28.820  28.352  1.00  0.00     0.031 A 
ATOM     38  C   UNL A   1      42.065  27.426  27.956  1.00  0.00     0.074 A 
ATOM     39  C   UNL A   1      42.567  29.808  28.415  1.00  0.00     0.049 A 
ATOM     40  N   UNL A   1      43.252  26.971  27.642  1.00  0.00    -0.248 NA
ATOM     41  C   UNL A   1      41.010  26.399  27.940  1.00  0.00     0.031 C 
ATOM     42  C   UNL A   1      42.298  31.185  28.837  1.00  0.00     0.029 A 
ATOM     43  N   UNL A   1      43.908  29.806  28.125  1.00  0.00    -0.354 N 
ATOM     44  C   UNL A   1      43.086  25.610  27.412  1.00  0.00     0.074 A 
ATOM     45  C   UNL A   1      41.701  25.299  27.684  1.00  0.00     0.031 C 
ATOM     46  C   UNL A   1      43.432  31.900  28.752  1.00  0.00     0.029 A 
ATOM     47  C   UNL A   1      44.512  31.028  28.301  1.00  0.00     0.049 A 
ATOM     48  H   UNL A   1      44.391  29.005  27.820  1.00  0.00     0.167 HD
ATOM     49  C   UNL A   1      43.999  24.705  26.982  1.00  0.00     0.037 A 
ATOM     50  C   UNL A   1      45.793  31.401  28.119  1.00  0.00     0.037 A 
ATOM     51  C   UNL A   1      45.368  25.031  26.681  1.00  0.00     0.049 A 
ATOM     52  C   UNL A   1      46.784  30.383  27.617  1.00  0.00     0.074 A 
ATOM     53  C   UNL A   1      46.363  24.203  26.192  1.00  0.00     0.029 A 
ATOM     54  N   UNL A   1      45.934  26.289  26.837  1.00  0.00    -0.354 N 
ATOM     55  N   UNL A   1      46.599  29.112  27.351  1.00  0.00    -0.248 NA
ATOM     56  C   UNL A   1      48.153  30.857  27.375  1.00  0.00     0.031 C 
ATOM     57  C   UNL A   1      47.542  24.951  26.090  1.00  0.00     0.029 A 
ATOM     58  C   UNL A   1      47.268  26.257  26.461  1.00  0.00     0.049 A 
ATOM     59  H   UNL A   1      45.459  27.085  27.164  1.00  0.00     0.167 HD
ATOM     60  C   UNL A   1      47.818  28.642  26.873  1.00  0.00     0.074 A 
ATOM     61  C   UNL A   1      48.727  29.771  26.879  1.00  0.00     0.031 C 
ATOM     62  C   UNL A   1      48.155  27.393  26.463  1.00  0.00     0.037 A 
BRANCH  49  63
ATOM     63  C   UNL A   1      43.538  23.284  26.803  1.00  0.00     0.058 A 
ATOM     64  C   UNL A   1      43.275  22.447  27.900  1.00  0.00     0.135 A 
ATOM     65  C   UNL A   1      43.337  22.754  25.517  1.00  0.00     0.135 A 
ATOM     66  F   UNL A   1      43.469  22.893  29.152  1.00  0.00    -0.206 F 
ATOM     67  C   UNL A   1      42.864  21.129  27.731  1.00  0.00     0.059 A 
ATOM     68  C   UNL A   1      42.895  21.448  25.324  1.00  0.00     0.059 A 
ATOM     69  F   UNL A   1      43.574  23.506  24.431  1.00  0.00    -0.206 F 
ATOM     70  C   UNL A   1      42.677  20.638  26.438  1.00  0.00     0.060 A 
BRANCH  70  71
ATOM     71  S   UNL A   1      42.139  18.927  26.236  1.00  0.00     0.124 S 
ATOM     72  O   UNL A   1      42.273  18.417  27.597  1.00  0.00    -0.237 OA
ATOM     73  O   UNL A   1      40.772  19.084  25.751  1.00  0.00    -0.237 OA
ATOM     74  O   UNL A   1      43.087  18.384  25.268  1.00  0.00    -0.744 OA
ENDBRANCH  70  71
ENDBRANCH  49  63
BRANCH  50  75
ATOM     75  C   UNL A   1      46.203  32.809  28.371  1.00  0.00     0.058 A 
ATOM     76  C   UNL A   1      46.142  33.771  27.352  1.00  0.00     0.135 A 
ATOM     77  C   UNL A   1      46.656  33.222  29.633  1.00  0.00     0.135 A 
ATOM     78  F   UNL A   1      45.717  33.424  26.127  1.00  0.00    -0.206 F 
ATOM     79  C   UNL A   1      46.538  35.087  27.567  1.00  0.00     0.059 A 
ATOM     80  C   UNL A   1      47.032  34.539  29.880  1.00  0.00     0.059 A 
ATOM     81  F   UNL A   1      46.716  32.344  30.647  1.00  0.00    -0.206 F 
ATOM     82  C   UNL A   1      46.981  35.461  28.836  1.00  0.00     0.060 A 
BRANCH  82  83
ATOM     83  S   UNL A   1      47.458  37.181  29.113  1.00  0.00     0.124 S 
ATOM     84  O   UNL A   1      48.489  37.368  28.099  1.00  0.00    -0.237 OA
ATOM     85  O   UNL A   1      46.201  37.887  28.884  1.00  0.00    -0.237 OA
ATOM     86  O   UNL A   1      47.925  37.181  30.496  1.00  0.00    -0.744 OA
ENDBRANCH  82  83
ENDBRANCH  50  75
BRANCH  62  87
ATOM     87  C   UNL A   1      49.549  27.197  25.932  1.00  0.00     0.058 A 
ATOM     88  C   UNL A   1      49.862  27.377  24.576  1.00  0.00     0.135 A 
ATOM     89  C   UNL A   1      50.591  26.841  26.804  1.00  0.00     0.135 A 
ATOM     90  F   UNL A   1      48.903  27.716  23.700  1.00  0.00    -0.206 F 
ATOM     91  C   UNL A   1      51.150  27.166  24.094  1.00  0.00     0.059 A 
ATOM     92  C   UNL A   1      51.893  26.657  26.349  1.00  0.00     0.059 A 
ATOM     93  F   UNL A   1      50.351  26.672  28.113  1.00  0.00    -0.206 F 
ATOM     94  C   UNL A   1      52.158  26.801  24.989  1.00  0.00     0.060 A 
BRANCH  94  95
ATOM     95  S   UNL A   1      53.825  26.526  24.353  1.00  0.00     0.124 S 
ATOM     96  O   UNL A   1      53.569  25.605  23.251  1.00  0.00    -0.237 OA
ATOM     97  O   UNL A   1      54.241  27.872  23.971  1.00  0.00    -0.237 OA
ATOM     98  O   UNL A   1      54.534  25.958  25.496  1.00  0.00    -0.744 OA
ENDBRANCH  94  95
ENDBRANCH  62  87
ENDBRANCH  36  37
ENDBRANCH  28  31
ENDBRANCH  26  27
ENDBRANCH   1  26
TORSDOF 17
ENDMDL
