MODEL 1
REMARK VINA RESULT:     -10.2      0.000      0.000
REMARK SMILES C[C@H]1[C@@H](C(=O)NCCCNC(=O)c2ccc(-c3c4nc(c(-c5c(F)cc(S(=O)(=O)[O-])cc5F)c5ccc([nH]5)c(-c5c(F)cc(S(=O)(=O)[O-])cc5F)c5nc(c(-c6c(F)cc(S(=O)(=O)[O-])cc6F)c6ccc3[nH]6)C=C5)C=C4)cc2)CC[N@@H+]1CC1(O)CCCC1
REMARK SMILES IDX 8 1 7 2 6 3 4 4 5 5 3 7 1 8 2 9 81 10 79 11 80 12 82 14
REMARK SMILES IDX 83 15 85 16 88 17 86 18 87 19 84 20 9 22 10 23 11 24 12 26
REMARK SMILES IDX 13 27 14 28 78 29 15 30 77 31 16 32 17 33 18 34 71 35 19 36
REMARK SMILES IDX 76 37 70 38 72 39 20 40 75 41 69 42 68 43 21 45 55 46 34 47
REMARK SMILES IDX 54 48 35 49 38 50 53 51 73 52 36 53 37 54 52 56 74 57 39 58
REMARK SMILES IDX 22 59 23 60 32 61 24 62 25 63 31 64 33 65 26 66 27 67 28 68
REMARK SMILES IDX 29 69 30 70 56 71 57 72 66 73 58 74 59 75 65 76 67 77 60 78
REMARK SMILES IDX 61 79 62 80 63 81 64 82 40 83 41 84 50 85 42 86 43 87 49 88
REMARK SMILES IDX 51 89 44 90 45 91 46 92 47 93 48 94
REMARK H PARENT 6 6 81 13 84 21 10 25 72 44 38 55
REMARK Flexibility Score: inf
ROOT
ATOM      1  C   UNL A   1      33.710  34.032  28.190  1.00  0.00     0.042 C 
ENDROOT
BRANCH   1   2
ATOM      2  C   UNL A   1      34.243  35.161  29.070  1.00  0.00     0.117 C 
BRANCH   2   3
ATOM      3  N   UNL A   1      33.382  35.335  30.224  1.00  0.00    -0.356 N 
ATOM      4  C   UNL A   1      33.573  35.015  31.533  1.00  0.00     0.229 C 
ATOM      5  O   UNL A   1      32.554  34.949  32.226  1.00  0.00    -0.275 OA
ATOM      6  H   UNL A   1      32.514  35.755  30.028  1.00  0.00     0.163 HD
BRANCH   4   7
ATOM      7  C   UNL A   1      34.978  34.919  32.121  1.00  0.00     0.142 C 
ATOM      8  C   UNL A   1      35.094  32.344  31.535  1.00  0.00     0.076 C 
ATOM      9  C   UNL A   1      35.753  33.583  32.121  1.00  0.00     0.193 C 
ATOM     10  N   UNL A   1      36.042  33.261  33.520  1.00  0.00    -0.330 N 
ATOM     11  C   UNL A   1      34.961  35.340  33.603  1.00  0.00     0.081 C 
ATOM     12  C   UNL A   1      35.165  34.049  34.366  1.00  0.00     0.263 C 
ATOM     13  H   UNL A   1      35.814  32.279  33.675  1.00  0.00     0.348 HD
BRANCH  10  14
ATOM     14  C   UNL A   1      37.452  33.161  33.904  1.00  0.00     0.297 C 
BRANCH  14  15
ATOM     15  C   UNL A   1      38.130  31.783  34.123  1.00  0.00     0.113 C 
ATOM     16  C   UNL A   1      39.662  31.777  34.113  1.00  0.00     0.041 C 
ATOM     17  C   UNL A   1      37.826  30.834  32.955  1.00  0.00     0.041 C 
ATOM     18  C   UNL A   1      40.047  30.326  33.816  1.00  0.00     0.003 C 
ATOM     19  C   UNL A   1      38.841  29.705  33.116  1.00  0.00     0.003 C 
BRANCH  15  20
ATOM     20  O   UNL A   1      37.611  31.166  35.308  1.00  0.00    -0.384 OA
ATOM     21  H   UNL A   1      38.118  30.364  35.505  1.00  0.00     0.211 HD
ENDBRANCH  15  20
ENDBRANCH  14  15
ENDBRANCH  10  14
ENDBRANCH   4   7
ENDBRANCH   2   3
ENDBRANCH   1   2
BRANCH   1  22
ATOM     22  C   UNL A   1      34.600  32.797  28.151  1.00  0.00     0.118 C 
BRANCH  22  23
ATOM     23  N   UNL A   1      33.832  31.573  28.050  1.00  0.00    -0.352 N 
ATOM     24  C   UNL A   1      34.260  30.272  27.939  1.00  0.00     0.251 C 
ATOM     25  H   UNL A   1      32.855  31.690  28.061  1.00  0.00     0.163 HD
ATOM     26  O   UNL A   1      33.442  29.408  27.627  1.00  0.00    -0.269 OA
BRANCH  24  27
ATOM     27  C   UNL A   1      35.680  29.896  28.168  1.00  0.00     0.039 A 
ATOM     28  C   UNL A   1      36.047  29.421  29.431  1.00  0.00     0.014 A 
ATOM     29  C   UNL A   1      36.665  30.064  27.190  1.00  0.00     0.014 A 
ATOM     30  C   UNL A   1      37.380  29.091  29.698  1.00  0.00     0.010 A 
ATOM     31  C   UNL A   1      37.973  29.639  27.425  1.00  0.00     0.010 A 
ATOM     32  C   UNL A   1      38.356  29.177  28.691  1.00  0.00    -0.014 A 
BRANCH  32  33
ATOM     33  C   UNL A   1      39.780  28.845  28.968  1.00  0.00     0.031 A 
ATOM     34  C   UNL A   1      40.683  29.862  29.622  1.00  0.00     0.074 A 
ATOM     35  C   UNL A   1      40.274  27.643  28.608  1.00  0.00     0.049 A 
ATOM     36  N   UNL A   1      41.954  29.769  29.920  1.00  0.00    -0.248 NA
ATOM     37  C   UNL A   1      40.085  31.164  29.961  1.00  0.00     0.031 C 
ATOM     38  C   UNL A   1      39.525  26.594  27.914  1.00  0.00     0.029 A 
ATOM     39  N   UNL A   1      41.525  27.103  28.773  1.00  0.00    -0.354 N 
ATOM     40  C   UNL A   1      42.310  31.001  30.460  1.00  0.00     0.074 A 
ATOM     41  C   UNL A   1      41.137  31.843  30.396  1.00  0.00     0.031 C 
ATOM     42  C   UNL A   1      40.322  25.527  27.738  1.00  0.00     0.029 A 
ATOM     43  C   UNL A   1      41.645  25.826  28.278  1.00  0.00     0.049 A 
ATOM     44  H   UNL A   1      42.267  27.586  29.204  1.00  0.00     0.167 HD
ATOM     45  C   UNL A   1      43.496  31.389  30.991  1.00  0.00     0.037 A 
ATOM     46  C   UNL A   1      42.700  24.987  28.263  1.00  0.00     0.037 A 
ATOM     47  C   UNL A   1      44.651  30.538  31.090  1.00  0.00     0.049 A 
ATOM     48  C   UNL A   1      43.994  25.424  28.892  1.00  0.00     0.074 A 
ATOM     49  C   UNL A   1      45.882  30.817  31.661  1.00  0.00     0.029 A 
ATOM     50  N   UNL A   1      44.720  29.238  30.611  1.00  0.00    -0.354 N 
ATOM     51  N   UNL A   1      44.293  26.573  29.451  1.00  0.00    -0.248 NA
ATOM     52  C   UNL A   1      45.091  24.446  28.902  1.00  0.00     0.031 C 
ATOM     53  C   UNL A   1      46.703  29.695  31.500  1.00  0.00     0.029 A 
ATOM     54  C   UNL A   1      45.972  28.704  30.865  1.00  0.00     0.049 A 
ATOM     55  H   UNL A   1      43.985  28.763  30.157  1.00  0.00     0.167 HD
ATOM     56  C   UNL A   1      45.606  26.451  29.892  1.00  0.00     0.074 A 
ATOM     57  C   UNL A   1      46.036  25.109  29.554  1.00  0.00     0.031 C 
ATOM     58  C   UNL A   1      46.385  27.367  30.519  1.00  0.00     0.037 A 
BRANCH  45  59
ATOM     59  C   UNL A   1      43.590  32.794  31.521  1.00  0.00     0.058 A 
ATOM     60  C   UNL A   1      43.291  33.097  32.860  1.00  0.00     0.135 A 
ATOM     61  C   UNL A   1      43.998  33.850  30.689  1.00  0.00     0.135 A 
ATOM     62  F   UNL A   1      42.880  32.130  33.696  1.00  0.00    -0.206 F 
ATOM     63  C   UNL A   1      43.356  34.399  33.345  1.00  0.00     0.059 A 
ATOM     64  C   UNL A   1      44.097  35.156  31.160  1.00  0.00     0.059 A 
ATOM     65  F   UNL A   1      44.298  33.618  29.401  1.00  0.00    -0.206 F 
ATOM     66  C   UNL A   1      43.756  35.423  32.486  1.00  0.00     0.060 A 
BRANCH  66  67
ATOM     67  S   UNL A   1      43.829  37.110  33.126  1.00  0.00     0.124 S 
ATOM     68  O   UNL A   1      45.125  37.109  33.798  1.00  0.00    -0.237 OA
ATOM     69  O   UNL A   1      43.751  37.911  31.906  1.00  0.00    -0.237 OA
ATOM     70  O   UNL A   1      42.667  37.192  34.001  1.00  0.00    -0.744 OA
ENDBRANCH  66  67
ENDBRANCH  45  59
BRANCH  46  71
ATOM     71  C   UNL A   1      42.560  23.637  27.658  1.00  0.00     0.058 A 
ATOM     72  C   UNL A   1      42.655  23.454  26.270  1.00  0.00     0.135 A 
ATOM     73  C   UNL A   1      42.359  22.500  28.455  1.00  0.00     0.135 A 
ATOM     74  F   UNL A   1      42.842  24.511  25.465  1.00  0.00    -0.206 F 
ATOM     75  C   UNL A   1      42.546  22.193  25.692  1.00  0.00     0.059 A 
ATOM     76  C   UNL A   1      42.268  21.226  27.903  1.00  0.00     0.059 A 
ATOM     77  F   UNL A   1      42.278  22.621  29.789  1.00  0.00    -0.206 F 
ATOM     78  C   UNL A   1      42.356  21.084  26.518  1.00  0.00     0.060 A 
BRANCH  78  79
ATOM     79  S   UNL A   1      42.282  19.443  25.765  1.00  0.00     0.124 S 
ATOM     80  O   UNL A   1      42.687  18.592  26.877  1.00  0.00    -0.237 OA
ATOM     81  O   UNL A   1      40.880  19.350  25.368  1.00  0.00    -0.237 OA
ATOM     82  O   UNL A   1      43.232  19.539  24.662  1.00  0.00    -0.744 OA
ENDBRANCH  78  79
ENDBRANCH  46  71
BRANCH  58  83
ATOM     83  C   UNL A   1      47.777  26.942  30.894  1.00  0.00     0.058 A 
ATOM     84  C   UNL A   1      48.874  27.197  30.057  1.00  0.00     0.135 A 
ATOM     85  C   UNL A   1      48.020  26.300  32.119  1.00  0.00     0.135 A 
ATOM     86  F   UNL A   1      48.693  27.804  28.873  1.00  0.00    -0.206 F 
ATOM     87  C   UNL A   1      50.162  26.804  30.407  1.00  0.00     0.059 A 
ATOM     88  C   UNL A   1      49.303  25.921  32.501  1.00  0.00     0.059 A 
ATOM     89  F   UNL A   1      47.006  26.044  32.961  1.00  0.00    -0.206 F 
ATOM     90  C   UNL A   1      50.365  26.163  31.630  1.00  0.00     0.060 A 
BRANCH  90  91
ATOM     91  S   UNL A   1      52.042  25.669  32.083  1.00  0.00     0.124 S 
ATOM     92  O   UNL A   1      52.807  26.146  30.936  1.00  0.00    -0.237 OA
ATOM     93  O   UNL A   1      52.257  26.391  33.332  1.00  0.00    -0.237 OA
ATOM     94  O   UNL A   1      51.944  24.218  32.215  1.00  0.00    -0.744 OA
ENDBRANCH  90  91
ENDBRANCH  58  83
ENDBRANCH  32  33
ENDBRANCH  24  27
ENDBRANCH  22  23
ENDBRANCH   1  22
TORSDOF 16
ENDMDL
MODEL 2
REMARK VINA RESULT:     -10.1      0.671      8.469
REMARK SMILES C[C@H]1[C@@H](C(=O)NCCCNC(=O)c2ccc(-c3c4nc(c(-c5c(F)cc(S(=O)(=O)[O-])cc5F)c5ccc([nH]5)c(-c5c(F)cc(S(=O)(=O)[O-])cc5F)c5nc(c(-c6c(F)cc(S(=O)(=O)[O-])cc6F)c6ccc3[nH]6)C=C5)C=C4)cc2)CC[N@@H+]1CC1(O)CCCC1
REMARK SMILES IDX 8 1 7 2 6 3 4 4 5 5 3 7 1 8 2 9 81 10 79 11 80 12 82 14
REMARK SMILES IDX 83 15 85 16 88 17 86 18 87 19 84 20 9 22 10 23 11 24 12 26
REMARK SMILES IDX 13 27 14 28 78 29 15 30 77 31 16 32 17 33 18 34 71 35 19 36
REMARK SMILES IDX 76 37 70 38 72 39 20 40 75 41 69 42 68 43 21 45 55 46 34 47
REMARK SMILES IDX 54 48 35 49 38 50 53 51 73 52 36 53 37 54 52 56 74 57 39 58
REMARK SMILES IDX 22 59 23 60 32 61 24 62 25 63 31 64 33 65 26 66 27 67 28 68
REMARK SMILES IDX 29 69 30 70 56 71 57 72 66 73 58 74 59 75 65 76 67 77 60 78
REMARK SMILES IDX 61 79 62 80 63 81 64 82 40 83 41 84 50 85 42 86 43 87 49 88
REMARK SMILES IDX 51 89 44 90 45 91 46 92 47 93 48 94
REMARK H PARENT 6 6 81 13 84 21 10 25 72 44 38 55
REMARK Flexibility Score: inf
ROOT
ATOM      1  C   UNL A   1      33.484  33.711  28.291  1.00  0.00     0.042 C 
ENDROOT
BRANCH   1   2
ATOM      2  C   UNL A   1      34.008  34.923  29.059  1.00  0.00     0.117 C 
BRANCH   2   3
ATOM      3  N   UNL A   1      33.200  35.142  30.243  1.00  0.00    -0.356 N 
ATOM      4  C   UNL A   1      33.458  34.889  31.555  1.00  0.00     0.229 C 
ATOM      5  O   UNL A   1      32.475  34.844  32.299  1.00  0.00    -0.275 OA
ATOM      6  H   UNL A   1      32.317  35.541  30.069  1.00  0.00     0.163 HD
BRANCH   4   7
ATOM      7  C   UNL A   1      34.891  34.841  32.078  1.00  0.00     0.142 C 
ATOM      8  C   UNL A   1      35.021  32.243  31.610  1.00  0.00     0.076 C 
ATOM      9  C   UNL A   1      35.686  33.518  32.104  1.00  0.00     0.193 C 
ATOM     10  N   UNL A   1      36.047  33.267  33.501  1.00  0.00    -0.330 N 
ATOM     11  C   UNL A   1      34.938  35.332  33.538  1.00  0.00     0.081 C 
ATOM     12  C   UNL A   1      35.199  34.083  34.350  1.00  0.00     0.263 C 
ATOM     13  H   UNL A   1      35.843  32.291  33.713  1.00  0.00     0.348 HD
BRANCH  10  14
ATOM     14  C   UNL A   1      37.475  33.206  33.821  1.00  0.00     0.297 C 
BRANCH  14  15
ATOM     15  C   UNL A   1      38.176  31.853  34.117  1.00  0.00     0.113 C 
ATOM     16  C   UNL A   1      39.703  31.895  34.228  1.00  0.00     0.041 C 
ATOM     17  C   UNL A   1      37.994  30.878  32.946  1.00  0.00     0.041 C 
ATOM     18  C   UNL A   1      40.154  30.453  33.988  1.00  0.00     0.003 C 
ATOM     19  C   UNL A   1      39.026  29.784  33.206  1.00  0.00     0.003 C 
BRANCH  15  20
ATOM     20  O   UNL A   1      37.583  31.239  35.268  1.00  0.00    -0.384 OA
ATOM     21  H   UNL A   1      36.917  31.834  35.646  1.00  0.00     0.211 HD
ENDBRANCH  15  20
ENDBRANCH  14  15
ENDBRANCH  10  14
ENDBRANCH   4   7
ENDBRANCH   2   3
ENDBRANCH   1   2
BRANCH   1  22
ATOM     22  C   UNL A   1      34.483  32.568  28.172  1.00  0.00     0.118 C 
BRANCH  22  23
ATOM     23  N   UNL A   1      33.830  31.285  28.009  1.00  0.00    -0.352 N 
ATOM     24  C   UNL A   1      34.374  30.031  27.876  1.00  0.00     0.251 C 
ATOM     25  H   UNL A   1      32.846  31.317  27.990  1.00  0.00     0.163 HD
ATOM     26  O   UNL A   1      33.646  29.110  27.511  1.00  0.00    -0.269 OA
BRANCH  24  27
ATOM     27  C   UNL A   1      35.814  29.772  28.143  1.00  0.00     0.039 A 
ATOM     28  C   UNL A   1      36.184  29.323  29.414  1.00  0.00     0.014 A 
ATOM     29  C   UNL A   1      36.807  30.027  27.193  1.00  0.00     0.014 A 
ATOM     30  C   UNL A   1      37.533  29.103  29.717  1.00  0.00     0.010 A 
ATOM     31  C   UNL A   1      38.140  29.711  27.462  1.00  0.00     0.010 A 
ATOM     32  C   UNL A   1      38.524  29.276  28.737  1.00  0.00    -0.014 A 
BRANCH  32  33
ATOM     33  C   UNL A   1      39.963  29.061  29.053  1.00  0.00     0.031 A 
ATOM     34  C   UNL A   1      40.628  27.751  28.709  1.00  0.00     0.074 A 
ATOM     35  C   UNL A   1      40.668  30.027  29.676  1.00  0.00     0.049 A 
ATOM     36  N   UNL A   1      41.860  27.366  28.928  1.00  0.00    -0.248 NA
ATOM     37  C   UNL A   1      39.792  26.729  28.059  1.00  0.00     0.031 C 
ATOM     38  C   UNL A   1      40.130  31.315  30.117  1.00  0.00     0.029 A 
ATOM     39  N   UNL A   1      41.988  30.075  30.047  1.00  0.00    -0.354 N 
ATOM     40  C   UNL A   1      41.939  26.058  28.463  1.00  0.00     0.074 A 
ATOM     41  C   UNL A   1      40.618  25.694  28.002  1.00  0.00     0.031 C 
ATOM     42  C   UNL A   1      41.117  32.037  30.675  1.00  0.00     0.029 A 
ATOM     43  C   UNL A   1      42.349  31.254  30.657  1.00  0.00     0.049 A 
ATOM     44  H   UNL A   1      42.618  29.334  29.893  1.00  0.00     0.167 HD
ATOM     45  C   UNL A   1      43.019  25.241  28.394  1.00  0.00     0.037 A 
ATOM     46  C   UNL A   1      43.537  31.661  31.145  1.00  0.00     0.037 A 
ATOM     47  C   UNL A   1      44.342  25.616  28.816  1.00  0.00     0.049 A 
ATOM     48  C   UNL A   1      44.731  30.753  31.022  1.00  0.00     0.074 A 
ATOM     49  C   UNL A   1      45.514  24.882  28.736  1.00  0.00     0.029 A 
ATOM     50  N   UNL A   1      44.672  26.833  29.393  1.00  0.00    -0.354 N 
ATOM     51  N   UNL A   1      44.797  29.541  30.524  1.00  0.00    -0.248 NA
ATOM     52  C   UNL A   1      46.014  31.273  31.515  1.00  0.00     0.031 C 
ATOM     53  C   UNL A   1      46.547  25.645  29.293  1.00  0.00     0.029 A 
ATOM     54  C   UNL A   1      46.027  26.869  29.682  1.00  0.00     0.049 A 
ATOM     55  H   UNL A   1      44.038  27.565  29.571  1.00  0.00     0.167 HD
ATOM     56  C   UNL A   1      46.130  29.160  30.630  1.00  0.00     0.074 A 
ATOM     57  C   UNL A   1      46.838  30.278  31.220  1.00  0.00     0.031 C 
ATOM     58  C   UNL A   1      46.715  27.989  30.273  1.00  0.00     0.037 A 
BRANCH  45  59
ATOM     59  C   UNL A   1      42.810  23.864  27.822  1.00  0.00     0.058 A 
ATOM     60  C   UNL A   1      42.883  23.622  26.440  1.00  0.00     0.135 A 
ATOM     61  C   UNL A   1      42.549  22.769  28.663  1.00  0.00     0.135 A 
ATOM     62  F   UNL A   1      43.114  24.634  25.588  1.00  0.00    -0.206 F 
ATOM     63  C   UNL A   1      42.668  22.354  25.909  1.00  0.00     0.059 A 
ATOM     64  C   UNL A   1      42.358  21.487  28.156  1.00  0.00     0.059 A 
ATOM     65  F   UNL A   1      42.470  22.942  29.992  1.00  0.00    -0.206 F 
ATOM     66  C   UNL A   1      42.402  21.294  26.775  1.00  0.00     0.060 A 
BRANCH  66  67
ATOM     67  S   UNL A   1      42.116  19.655  26.072  1.00  0.00     0.124 S 
ATOM     68  O   UNL A   1      42.997  19.681  24.908  1.00  0.00    -0.237 OA
ATOM     69  O   UNL A   1      42.533  18.771  27.160  1.00  0.00    -0.237 OA
ATOM     70  O   UNL A   1      40.688  19.654  25.781  1.00  0.00    -0.744 OA
ENDBRANCH  66  67
ENDBRANCH  45  59
BRANCH  46  71
ATOM     71  C   UNL A   1      43.659  33.007  31.763  1.00  0.00     0.058 A 
ATOM     72  C   UNL A   1      43.995  34.129  30.991  1.00  0.00     0.135 A 
ATOM     73  C   UNL A   1      43.414  33.203  33.130  1.00  0.00     0.135 A 
ATOM     74  F   UNL A   1      44.244  33.991  29.680  1.00  0.00    -0.206 F 
ATOM     75  C   UNL A   1      44.092  35.398  31.554  1.00  0.00     0.059 A 
ATOM     76  C   UNL A   1      43.484  34.465  33.712  1.00  0.00     0.059 A 
ATOM     77  F   UNL A   1      43.073  32.163  33.908  1.00  0.00    -0.206 F 
ATOM     78  C   UNL A   1      43.831  35.556  32.916  1.00  0.00     0.060 A 
BRANCH  78  79
ATOM     79  S   UNL A   1      43.895  37.216  33.625  1.00  0.00     0.124 S 
ATOM     80  O   UNL A   1      42.610  37.293  34.309  1.00  0.00    -0.237 OA
ATOM     81  O   UNL A   1      45.073  37.139  34.485  1.00  0.00    -0.237 OA
ATOM     82  O   UNL A   1      44.041  38.075  32.454  1.00  0.00    -0.744 OA
ENDBRANCH  78  79
ENDBRANCH  46  71
BRANCH  58  83
ATOM     83  C   UNL A   1      48.196  27.867  30.495  1.00  0.00     0.058 A 
ATOM     84  C   UNL A   1      48.721  27.402  31.710  1.00  0.00     0.135 A 
ATOM     85  C   UNL A   1      49.099  28.187  29.469  1.00  0.00     0.135 A 
ATOM     86  F   UNL A   1      47.899  27.088  32.725  1.00  0.00    -0.206 F 
ATOM     87  C   UNL A   1      50.093  27.288  31.913  1.00  0.00     0.059 A 
ATOM     88  C   UNL A   1      50.474  28.056  29.640  1.00  0.00     0.059 A 
ATOM     89  F   UNL A   1      48.648  28.623  28.282  1.00  0.00    -0.206 F 
ATOM     90  C   UNL A   1      50.961  27.621  30.872  1.00  0.00     0.060 A 
BRANCH  90  91
ATOM     91  S   UNL A   1      52.739  27.456  31.139  1.00  0.00     0.124 S 
ATOM     92  O   UNL A   1      53.225  28.756  30.688  1.00  0.00    -0.237 OA
ATOM     93  O   UNL A   1      52.821  27.214  32.576  1.00  0.00    -0.237 OA
ATOM     94  O   UNL A   1      53.104  26.322  30.297  1.00  0.00    -0.744 OA
ENDBRANCH  90  91
ENDBRANCH  58  83
ENDBRANCH  32  33
ENDBRANCH  24  27
ENDBRANCH  22  23
ENDBRANCH   1  22
TORSDOF 16
ENDMDL
MODEL 3
REMARK VINA RESULT:     -10.1      5.487     12.373
REMARK SMILES C[C@H]1[C@@H](C(=O)NCCCNC(=O)c2ccc(-c3c4nc(c(-c5c(F)cc(S(=O)(=O)[O-])cc5F)c5ccc([nH]5)c(-c5c(F)cc(S(=O)(=O)[O-])cc5F)c5nc(c(-c6c(F)cc(S(=O)(=O)[O-])cc6F)c6ccc3[nH]6)C=C5)C=C4)cc2)CC[N@@H+]1CC1(O)CCCC1
REMARK SMILES IDX 8 1 7 2 6 3 4 4 5 5 3 7 1 8 2 9 81 10 79 11 80 12 82 14
REMARK SMILES IDX 83 15 85 16 88 17 86 18 87 19 84 20 9 22 10 23 11 24 12 26
REMARK SMILES IDX 13 27 14 28 78 29 15 30 77 31 16 32 17 33 18 34 71 35 19 36
REMARK SMILES IDX 76 37 70 38 72 39 20 40 75 41 69 42 68 43 21 45 55 46 34 47
REMARK SMILES IDX 54 48 35 49 38 50 53 51 73 52 36 53 37 54 52 56 74 57 39 58
REMARK SMILES IDX 22 59 23 60 32 61 24 62 25 63 31 64 33 65 26 66 27 67 28 68
REMARK SMILES IDX 29 69 30 70 56 71 57 72 66 73 58 74 59 75 65 76 67 77 60 78
REMARK SMILES IDX 61 79 62 80 63 81 64 82 40 83 41 84 50 85 42 86 43 87 49 88
REMARK SMILES IDX 51 89 44 90 45 91 46 92 47 93 48 94
REMARK H PARENT 6 6 81 13 84 21 10 25 72 44 38 55
REMARK Flexibility Score: inf
ROOT
ATOM      1  C   UNL A   1      39.655  21.921  26.653  1.00  0.00     0.042 C 
ENDROOT
BRANCH   1   2
ATOM      2  C   UNL A   1      38.429  21.901  25.742  1.00  0.00     0.117 C 
BRANCH   2   3
ATOM      3  N   UNL A   1      37.527  22.976  26.107  1.00  0.00    -0.356 N 
ATOM      4  C   UNL A   1      36.171  22.999  26.226  1.00  0.00     0.229 C 
ATOM      5  O   UNL A   1      35.646  24.115  26.204  1.00  0.00    -0.275 OA
ATOM      6  H   UNL A   1      37.969  23.833  26.303  1.00  0.00     0.163 HD
BRANCH   4   7
ATOM      7  C   UNL A   1      35.390  21.726  26.540  1.00  0.00     0.142 C 
ATOM      8  C   UNL A   1      35.122  21.203  23.963  1.00  0.00     0.076 C 
ATOM      9  C   UNL A   1      34.864  20.814  25.411  1.00  0.00     0.193 C 
ATOM     10  N   UNL A   1      33.408  20.754  25.557  1.00  0.00    -0.330 N 
ATOM     11  C   UNL A   1      34.130  22.067  27.360  1.00  0.00     0.081 C 
ATOM     12  C   UNL A   1      32.983  21.859  26.397  1.00  0.00     0.263 C 
ATOM     13  H   UNL A   1      32.988  20.891  24.637  1.00  0.00     0.348 HD
BRANCH  10  14
ATOM     14  C   UNL A   1      32.815  19.439  25.810  1.00  0.00     0.297 C 
BRANCH  14  15
ATOM     15  C   UNL A   1      32.742  18.362  24.695  1.00  0.00     0.113 C 
ATOM     16  C   UNL A   1      34.068  17.695  24.315  1.00  0.00     0.041 C 
ATOM     17  C   UNL A   1      32.338  18.992  23.355  1.00  0.00     0.041 C 
ATOM     18  C   UNL A   1      33.831  17.118  22.918  1.00  0.00     0.003 C 
ATOM     19  C   UNL A   1      32.679  17.923  22.320  1.00  0.00     0.003 C 
BRANCH  15  20
ATOM     20  O   UNL A   1      31.740  17.391  25.020  1.00  0.00    -0.384 OA
ATOM     21  H   UNL A   1      30.867  17.813  25.014  1.00  0.00     0.211 HD
ENDBRANCH  15  20
ENDBRANCH  14  15
ENDBRANCH  10  14
ENDBRANCH   4   7
ENDBRANCH   2   3
ENDBRANCH   1   2
BRANCH   1  22
ATOM     22  C   UNL A   1      40.077  23.313  27.102  1.00  0.00     0.118 C 
BRANCH  22  23
ATOM     23  N   UNL A   1      40.922  23.970  26.126  1.00  0.00    -0.352 N 
ATOM     24  C   UNL A   1      41.368  25.268  26.079  1.00  0.00     0.251 C 
ATOM     25  H   UNL A   1      41.222  23.399  25.381  1.00  0.00     0.163 HD
ATOM     26  O   UNL A   1      41.879  25.678  25.038  1.00  0.00    -0.269 OA
BRANCH  24  27
ATOM     27  C   UNL A   1      41.229  26.183  27.244  1.00  0.00     0.039 A 
ATOM     28  C   UNL A   1      40.166  25.977  28.128  1.00  0.00     0.014 A 
ATOM     29  C   UNL A   1      42.080  27.274  27.443  1.00  0.00     0.014 A 
ATOM     30  C   UNL A   1      39.978  26.837  29.215  1.00  0.00     0.010 A 
ATOM     31  C   UNL A   1      41.954  28.069  28.583  1.00  0.00     0.010 A 
ATOM     32  C   UNL A   1      40.883  27.882  29.466  1.00  0.00    -0.014 A 
BRANCH  32  33
ATOM     33  C   UNL A   1      40.684  28.813  30.610  1.00  0.00     0.031 A 
ATOM     34  C   UNL A   1      41.540  28.690  31.847  1.00  0.00     0.074 A 
ATOM     35  C   UNL A   1      39.716  29.750  30.556  1.00  0.00     0.049 A 
ATOM     36  N   UNL A   1      41.500  29.387  32.954  1.00  0.00    -0.248 NA
ATOM     37  C   UNL A   1      42.557  27.625  31.851  1.00  0.00     0.031 C 
ATOM     38  C   UNL A   1      38.780  29.936  29.446  1.00  0.00     0.029 A 
ATOM     39  N   UNL A   1      39.357  30.721  31.458  1.00  0.00    -0.354 N 
ATOM     40  C   UNL A   1      42.466  28.836  33.788  1.00  0.00     0.074 A 
ATOM     41  C   UNL A   1      43.037  27.710  33.083  1.00  0.00     0.031 C 
ATOM     42  C   UNL A   1      37.973  30.975  29.719  1.00  0.00     0.029 A 
ATOM     43  C   UNL A   1      38.313  31.510  31.034  1.00  0.00     0.049 A 
ATOM     44  H   UNL A   1      39.805  30.841  32.326  1.00  0.00     0.167 HD
ATOM     45  C   UNL A   1      42.868  29.245  35.016  1.00  0.00     0.037 A 
ATOM     46  C   UNL A   1      37.700  32.549  31.635  1.00  0.00     0.037 A 
ATOM     47  C   UNL A   1      42.327  30.390  35.701  1.00  0.00     0.049 A 
ATOM     48  C   UNL A   1      38.187  33.011  32.981  1.00  0.00     0.074 A 
ATOM     49  C   UNL A   1      42.703  30.921  36.923  1.00  0.00     0.029 A 
ATOM     50  N   UNL A   1      41.296  31.184  35.221  1.00  0.00    -0.354 N 
ATOM     51  N   UNL A   1      39.143  32.511  33.727  1.00  0.00    -0.248 NA
ATOM     52  C   UNL A   1      37.522  34.187  33.560  1.00  0.00     0.031 C 
ATOM     53  C   UNL A   1      41.879  32.020  37.195  1.00  0.00     0.029 A 
ATOM     54  C   UNL A   1      41.018  32.196  36.125  1.00  0.00     0.049 A 
ATOM     55  H   UNL A   1      40.831  31.049  34.363  1.00  0.00     0.167 HD
ATOM     56  C   UNL A   1      39.204  33.319  34.857  1.00  0.00     0.074 A 
ATOM     57  C   UNL A   1      38.203  34.353  34.685  1.00  0.00     0.031 C 
ATOM     58  C   UNL A   1      40.015  33.215  35.940  1.00  0.00     0.037 A 
BRANCH  45  59
ATOM     59  C   UNL A   1      43.959  28.456  35.687  1.00  0.00     0.058 A 
ATOM     60  C   UNL A   1      45.317  28.739  35.463  1.00  0.00     0.135 A 
ATOM     61  C   UNL A   1      43.649  27.413  36.576  1.00  0.00     0.135 A 
ATOM     62  F   UNL A   1      45.671  29.715  34.612  1.00  0.00    -0.206 F 
ATOM     63  C   UNL A   1      46.326  27.995  36.066  1.00  0.00     0.059 A 
ATOM     64  C   UNL A   1      44.642  26.673  37.211  1.00  0.00     0.059 A 
ATOM     65  F   UNL A   1      42.368  27.100  36.829  1.00  0.00    -0.206 F 
ATOM     66  C   UNL A   1      45.979  26.961  36.935  1.00  0.00     0.060 A 
BRANCH  66  67
ATOM     67  S   UNL A   1      47.299  25.997  37.703  1.00  0.00     0.124 S 
ATOM     68  O   UNL A   1      47.162  26.386  39.104  1.00  0.00    -0.237 OA
ATOM     69  O   UNL A   1      46.908  24.625  37.388  1.00  0.00    -0.237 OA
ATOM     70  O   UNL A   1      48.502  26.473  37.033  1.00  0.00    -0.744 OA
ENDBRANCH  66  67
ENDBRANCH  45  59
BRANCH  46  71
ATOM     71  C   UNL A   1      36.578  33.241  30.947  1.00  0.00     0.058 A 
ATOM     72  C   UNL A   1      35.257  33.098  31.397  1.00  0.00     0.135 A 
ATOM     73  C   UNL A   1      36.808  34.080  29.847  1.00  0.00     0.135 A 
ATOM     74  F   UNL A   1      34.987  32.302  32.443  1.00  0.00    -0.206 F 
ATOM     75  C   UNL A   1      34.200  33.756  30.775  1.00  0.00     0.059 A 
ATOM     76  C   UNL A   1      35.771  34.766  29.222  1.00  0.00     0.059 A 
ATOM     77  F   UNL A   1      38.056  34.263  29.390  1.00  0.00    -0.206 F 
ATOM     78  C   UNL A   1      34.468  34.591  29.689  1.00  0.00     0.060 A 
BRANCH  78  79
ATOM     79  S   UNL A   1      33.100  35.493  28.930  1.00  0.00     0.124 S 
ATOM     80  O   UNL A   1      32.362  35.949  30.102  1.00  0.00    -0.237 OA
ATOM     81  O   UNL A   1      33.797  36.529  28.172  1.00  0.00    -0.237 OA
ATOM     82  O   UNL A   1      32.437  34.476  28.120  1.00  0.00    -0.744 OA
ENDBRANCH  78  79
ENDBRANCH  46  71
BRANCH  58  83
ATOM     83  C   UNL A   1      39.863  34.255  37.013  1.00  0.00     0.058 A 
ATOM     84  C   UNL A   1      40.429  35.533  36.884  1.00  0.00     0.135 A 
ATOM     85  C   UNL A   1      39.114  33.982  38.169  1.00  0.00     0.135 A 
ATOM     86  F   UNL A   1      41.159  35.842  35.800  1.00  0.00    -0.206 F 
ATOM     87  C   UNL A   1      40.285  36.495  37.879  1.00  0.00     0.059 A 
ATOM     88  C   UNL A   1      38.936  34.937  39.165  1.00  0.00     0.059 A 
ATOM     89  F   UNL A   1      38.541  32.779  38.335  1.00  0.00    -0.206 F 
ATOM     90  C   UNL A   1      39.539  36.185  39.017  1.00  0.00     0.060 A 
BRANCH  90  91
ATOM     91  S   UNL A   1      39.346  37.445  40.296  1.00  0.00     0.124 S 
ATOM     92  O   UNL A   1      38.556  38.453  39.597  1.00  0.00    -0.237 OA
ATOM     93  O   UNL A   1      38.651  36.718  41.353  1.00  0.00    -0.237 OA
ATOM     94  O   UNL A   1      40.720  37.827  40.606  1.00  0.00    -0.744 OA
ENDBRANCH  90  91
ENDBRANCH  58  83
ENDBRANCH  32  33
ENDBRANCH  24  27
ENDBRANCH  22  23
ENDBRANCH   1  22
TORSDOF 16
ENDMDL
