MODEL 1
REMARK VINA RESULT:     -11.9      0.000      0.000
REMARK SMILES O=C(CCCN1C(=O)/C(=C/c2ccccc2Cl)SC1=S)Nc1cccc(C(=O)NCCCNC(=O)c2ccc(-c3c4nc(c(-c5c(F)cc(S(=O)(=O)[O-])cc5F)c5ccc([nH]5)c(-c5c(F)cc(S(=O)(=O)[O-])cc5F)c5nc(c(-c6c(F)cc(S(=O)(=O)[O-])cc6F)c6ccc3[nH]6)C=C5)C=C4)cc2)c1
REMARK SMILES IDX 27 1 28 2 29 3 26 5 22 6 23 7 102 8 24 9 25 10 21 11 1 12
REMARK SMILES IDX 2 13 3 15 4 16 5 17 6 18 7 19 19 20 8 21 9 22 18 23 20 24
REMARK SMILES IDX 10 25 11 26 12 27 16 28 13 29 15 30 17 31 14 32 30 33 31 34
REMARK SMILES IDX 32 35 33 36 34 37 35 39 36 40 37 41 101 42 38 43 100 44
REMARK SMILES IDX 39 45 40 46 41 47 94 48 42 49 99 50 93 51 95 52 43 53 98 54
REMARK SMILES IDX 92 55 91 56 44 58 78 59 57 60 77 61 58 62 61 63 76 64 96 65
REMARK SMILES IDX 59 66 60 67 75 69 97 70 62 71 45 72 46 73 55 74 47 75 48 76
REMARK SMILES IDX 54 77 56 78 49 79 50 80 51 81 52 82 53 83 79 84 80 85 89 86
REMARK SMILES IDX 81 87 82 88 88 89 90 90 83 91 84 92 85 93 86 94 87 95 63 96
REMARK SMILES IDX 64 97 73 98 65 99 66 100 72 101 74 102 67 103 68 104 69 105
REMARK SMILES IDX 70 106 71 107
REMARK H PARENT 29 4 21 14 33 38 95 57 61 68
REMARK Flexibility Score: inf
ROOT
ATOM      1  C   UNL A   1      43.072  22.592  28.305  1.00  0.00     0.251 C 
ATOM      2  O   UNL A   1      42.687  22.978  29.406  1.00  0.00    -0.269 OA
ATOM      3  N   UNL A   1      44.342  22.921  27.880  1.00  0.00    -0.352 N 
ATOM      4  H   UNL A   1      44.864  23.445  28.530  1.00  0.00     0.163 HD
ENDROOT
BRANCH   1   5
ATOM      5  C   UNL A   1      42.131  21.856  27.425  1.00  0.00     0.041 A 
ATOM      6  C   UNL A   1      40.114  21.862  26.113  1.00  0.00     0.041 A 
ATOM      7  C   UNL A   1      40.034  20.470  26.252  1.00  0.00     0.026 A 
ATOM      8  C   UNL A   1      41.234  22.527  26.594  1.00  0.00     0.040 A 
ATOM      9  C   UNL A   1      41.051  19.762  26.897  1.00  0.00     0.003 A 
ATOM     10  C   UNL A   1      42.085  20.460  27.516  1.00  0.00     0.014 A 
BRANCH   6  11
ATOM     11  N   UNL A   1      38.975  22.540  25.633  1.00  0.00    -0.326 N 
ATOM     12  O   UNL A   1      38.671  24.192  27.209  1.00  0.00    -0.275 OA
ATOM     13  C   UNL A   1      38.263  23.543  26.246  1.00  0.00     0.224 C 
ATOM     14  H   UNL A   1      38.649  22.260  24.746  1.00  0.00     0.169 HD
BRANCH  13  15
ATOM     15  C   UNL A   1      36.845  23.814  25.732  1.00  0.00     0.102 C 
BRANCH  15  16
ATOM     16  C   UNL A   1      35.708  22.792  25.765  1.00  0.00     0.032 C 
BRANCH  16  17
ATOM     17  C   UNL A   1      34.487  22.778  24.832  1.00  0.00     0.128 C 
BRANCH  17  18
ATOM     18  N   UNL A   1      33.469  23.834  24.792  1.00  0.00    -0.293 N 
ATOM     19  C   UNL A   1      33.608  24.726  23.721  1.00  0.00     0.266 C 
ATOM     20  C   UNL A   1      32.268  23.948  25.461  1.00  0.00     0.148 C 
ATOM     21  O   UNL A   1      34.413  24.622  22.806  1.00  0.00    -0.268 OA
ATOM     22  C   UNL A   1      32.575  25.782  23.771  1.00  0.00     0.081 C 
ATOM     23  S   UNL A   1      31.478  25.460  25.044  1.00  0.00    -0.054 SA
ATOM     24  S   UNL A   1      31.475  22.883  26.457  1.00  0.00    -0.052 S 
ATOM     25  C   UNL A   1      32.558  26.826  22.931  1.00  0.00     0.031 C 
BRANCH  25  26
ATOM     26  C   UNL A   1      31.605  27.933  23.092  1.00  0.00    -0.006 A 
ATOM     27  C   UNL A   1      30.393  27.892  22.387  1.00  0.00     0.010 A 
ATOM     28  C   UNL A   1      31.826  28.961  24.027  1.00  0.00     0.048 A 
ATOM     29  C   UNL A   1      29.404  28.843  22.644  1.00  0.00     0.001 A 
ATOM     30  C   UNL A   1      30.829  29.898  24.288  1.00  0.00     0.021 A 
ATOM     31  Cl  UNL A   1      33.320  29.089  24.896  1.00  0.00    -0.084 Cl
ATOM     32  C   UNL A   1      29.616  29.833  23.604  1.00  0.00     0.002 A 
ENDBRANCH  25  26
ENDBRANCH  17  18
ENDBRANCH  16  17
ENDBRANCH  15  16
ENDBRANCH  13  15
ENDBRANCH   6  11
ENDBRANCH   1   5
BRANCH   3  33
ATOM     33  C   UNL A   1      45.050  22.628  26.634  1.00  0.00     0.118 C 
BRANCH  33  34
ATOM     34  C   UNL A   1      45.675  23.839  25.964  1.00  0.00     0.042 C 
BRANCH  34  35
ATOM     35  C   UNL A   1      44.943  25.146  26.198  1.00  0.00     0.118 C 
BRANCH  35  36
ATOM     36  N   UNL A   1      43.710  25.259  25.429  1.00  0.00    -0.352 N 
ATOM     37  C   UNL A   1      42.497  25.823  25.749  1.00  0.00     0.251 C 
ATOM     38  H   UNL A   1      43.752  24.864  24.527  1.00  0.00     0.163 HD
ATOM     39  O   UNL A   1      41.538  25.656  24.999  1.00  0.00    -0.269 OA
BRANCH  37  40
ATOM     40  C   UNL A   1      42.327  26.605  26.995  1.00  0.00     0.039 A 
ATOM     41  C   UNL A   1      42.926  27.864  27.094  1.00  0.00     0.014 A 
ATOM     42  C   UNL A   1      41.596  26.102  28.073  1.00  0.00     0.014 A 
ATOM     43  C   UNL A   1      42.722  28.644  28.237  1.00  0.00     0.010 A 
ATOM     44  C   UNL A   1      41.299  26.922  29.157  1.00  0.00     0.010 A 
ATOM     45  C   UNL A   1      41.867  28.200  29.258  1.00  0.00    -0.014 A 
BRANCH  45  46
ATOM     46  C   UNL A   1      41.554  29.047  30.439  1.00  0.00     0.031 A 
ATOM     47  C   UNL A   1      42.356  28.902  31.707  1.00  0.00     0.074 A 
ATOM     48  C   UNL A   1      40.501  29.886  30.397  1.00  0.00     0.049 A 
ATOM     49  N   UNL A   1      42.185  29.489  32.864  1.00  0.00    -0.248 NA
ATOM     50  C   UNL A   1      43.476  27.948  31.682  1.00  0.00     0.031 C 
ATOM     51  C   UNL A   1      39.608  30.069  29.250  1.00  0.00     0.029 A 
ATOM     52  N   UNL A   1      39.990  30.735  31.348  1.00  0.00    -0.354 N 
ATOM     53  C   UNL A   1      43.157  28.960  33.706  1.00  0.00     0.074 A 
ATOM     54  C   UNL A   1      43.876  27.962  32.945  1.00  0.00     0.031 C 
ATOM     55  C   UNL A   1      38.679  30.988  29.554  1.00  0.00     0.029 A 
ATOM     56  C   UNL A   1      38.878  31.429  30.931  1.00  0.00     0.049 A 
ATOM     57  H   UNL A   1      40.384  30.838  32.245  1.00  0.00     0.167 HD
ATOM     58  C   UNL A   1      43.441  29.293  34.987  1.00  0.00     0.037 A 
ATOM     59  C   UNL A   1      38.097  32.311  31.585  1.00  0.00     0.037 A 
ATOM     60  C   UNL A   1      42.738  30.308  35.727  1.00  0.00     0.049 A 
ATOM     61  C   UNL A   1      38.438  32.674  33.005  1.00  0.00     0.074 A 
ATOM     62  C   UNL A   1      42.993  30.773  37.004  1.00  0.00     0.029 A 
ATOM     63  N   UNL A   1      41.636  31.011  35.258  1.00  0.00    -0.354 N 
ATOM     64  N   UNL A   1      39.409  32.219  33.761  1.00  0.00    -0.248 NA
ATOM     65  C   UNL A   1      37.583  33.673  33.660  1.00  0.00     0.031 C 
ATOM     66  C   UNL A   1      42.012  31.715  37.330  1.00  0.00     0.029 A 
ATOM     67  C   UNL A   1      41.183  31.884  36.233  1.00  0.00     0.049 A 
ATOM     68  H   UNL A   1      41.236  30.903  34.365  1.00  0.00     0.167 HD
ATOM     69  C   UNL A   1      39.299  32.896  34.971  1.00  0.00     0.074 A 
ATOM     70  C   UNL A   1      38.174  33.799  34.840  1.00  0.00     0.031 C 
ATOM     71  C   UNL A   1      40.061  32.780  36.087  1.00  0.00     0.037 A 
BRANCH  58  72
ATOM     72  C   UNL A   1      44.559  28.550  35.672  1.00  0.00     0.058 A 
ATOM     73  C   UNL A   1      45.902  28.939  35.534  1.00  0.00     0.135 A 
ATOM     74  C   UNL A   1      44.281  27.451  36.501  1.00  0.00     0.135 A 
ATOM     75  F   UNL A   1      46.230  29.974  34.745  1.00  0.00    -0.206 F 
ATOM     76  C   UNL A   1      46.931  28.243  36.163  1.00  0.00     0.059 A 
ATOM     77  C   UNL A   1      45.292  26.761  37.167  1.00  0.00     0.059 A 
ATOM     78  F   UNL A   1      43.017  27.034  36.671  1.00  0.00    -0.206 F 
ATOM     79  C   UNL A   1      46.615  27.156  36.977  1.00  0.00     0.060 A 
BRANCH  79  80
ATOM     80  S   UNL A   1      47.962  26.266  37.786  1.00  0.00     0.124 S 
ATOM     81  O   UNL A   1      47.814  26.707  39.169  1.00  0.00    -0.237 OA
ATOM     82  O   UNL A   1      47.615  24.873  37.524  1.00  0.00    -0.237 OA
ATOM     83  O   UNL A   1      49.154  26.752  37.096  1.00  0.00    -0.744 OA
ENDBRANCH  79  80
ENDBRANCH  58  72
BRANCH  59  84
ATOM     84  C   UNL A   1      36.929  32.920  30.893  1.00  0.00     0.058 A 
ATOM     85  C   UNL A   1      35.623  32.482  31.153  1.00  0.00     0.135 A 
ATOM     86  C   UNL A   1      37.094  33.974  29.979  1.00  0.00     0.135 A 
ATOM     87  F   UNL A   1      35.411  31.475  32.013  1.00  0.00    -0.206 F 
ATOM     88  C   UNL A   1      34.521  33.056  30.523  1.00  0.00     0.059 A 
ATOM     89  C   UNL A   1      36.007  34.584  29.359  1.00  0.00     0.059 A 
ATOM     90  F   UNL A   1      38.321  34.442  29.706  1.00  0.00    -0.206 F 
ATOM     91  C   UNL A   1      34.725  34.110  29.632  1.00  0.00     0.060 A 
BRANCH  91  92
ATOM     92  S   UNL A   1      33.286  34.878  28.856  1.00  0.00     0.124 S 
ATOM     93  O   UNL A   1      33.888  36.021  28.180  1.00  0.00    -0.237 OA
ATOM     94  O   UNL A   1      32.798  33.808  27.992  1.00  0.00    -0.237 OA
ATOM     95  O   UNL A   1      32.425  35.202  29.990  1.00  0.00    -0.744 OA
ENDBRANCH  91  92
ENDBRANCH  59  84
BRANCH  71  96
ATOM     96  C   UNL A   1      39.729  33.677  37.250  1.00  0.00     0.058 A 
ATOM     97  C   UNL A   1      38.850  33.276  38.269  1.00  0.00     0.135 A 
ATOM     98  C   UNL A   1      40.348  34.932  37.375  1.00  0.00     0.135 A 
ATOM     99  F   UNL A   1      38.228  32.088  38.194  1.00  0.00    -0.206 F 
ATOM    100  C   UNL A   1      38.576  34.097  39.356  1.00  0.00     0.059 A 
ATOM    101  C   UNL A   1      40.113  35.756  38.471  1.00  0.00     0.059 A 
ATOM    102  F   UNL A   1      41.206  35.361  36.436  1.00  0.00    -0.206 F 
ATOM    103  C   UNL A   1      39.216  35.335  39.451  1.00  0.00     0.060 A 
BRANCH 103 104
ATOM    104  S   UNL A   1      38.876  36.376  40.886  1.00  0.00     0.124 S 
ATOM    105  O   UNL A   1      37.792  35.642  41.531  1.00  0.00    -0.237 OA
ATOM    106  O   UNL A   1      40.155  36.365  41.588  1.00  0.00    -0.237 OA
ATOM    107  O   UNL A   1      38.503  37.658  40.296  1.00  0.00    -0.744 OA
ENDBRANCH 103 104
ENDBRANCH  71  96
ENDBRANCH  45  46
ENDBRANCH  37  40
ENDBRANCH  35  36
ENDBRANCH  34  35
ENDBRANCH  33  34
ENDBRANCH   3  33
TORSDOF 19
ENDMDL
MODEL 2
REMARK VINA RESULT:     -11.6      4.922     12.742
REMARK SMILES O=C(CCCN1C(=O)/C(=C/c2ccccc2Cl)SC1=S)Nc1cccc(C(=O)NCCCNC(=O)c2ccc(-c3c4nc(c(-c5c(F)cc(S(=O)(=O)[O-])cc5F)c5ccc([nH]5)c(-c5c(F)cc(S(=O)(=O)[O-])cc5F)c5nc(c(-c6c(F)cc(S(=O)(=O)[O-])cc6F)c6ccc3[nH]6)C=C5)C=C4)cc2)c1
REMARK SMILES IDX 27 1 28 2 29 3 26 5 22 6 23 7 102 8 24 9 25 10 21 11 1 12
REMARK SMILES IDX 2 13 3 15 4 16 5 17 6 18 7 19 19 20 8 21 9 22 18 23 20 24
REMARK SMILES IDX 10 25 11 26 12 27 16 28 13 29 15 30 17 31 14 32 30 33 31 34
REMARK SMILES IDX 32 35 33 36 34 37 35 39 36 40 37 41 101 42 38 43 100 44
REMARK SMILES IDX 39 45 40 46 41 47 94 48 42 49 99 50 93 51 95 52 43 53 98 54
REMARK SMILES IDX 92 55 91 56 44 58 78 59 57 60 77 61 58 62 61 63 76 64 96 65
REMARK SMILES IDX 59 66 60 67 75 69 97 70 62 71 45 72 46 73 55 74 47 75 48 76
REMARK SMILES IDX 54 77 56 78 49 79 50 80 51 81 52 82 53 83 79 84 80 85 89 86
REMARK SMILES IDX 81 87 82 88 88 89 90 90 83 91 84 92 85 93 86 94 87 95 63 96
REMARK SMILES IDX 64 97 73 98 65 99 66 100 72 101 74 102 67 103 68 104 69 105
REMARK SMILES IDX 70 106 71 107
REMARK H PARENT 29 4 21 14 33 38 95 57 61 68
REMARK Flexibility Score: inf
ROOT
ATOM      1  C   UNL A   1      33.671  35.461  31.439  1.00  0.00     0.251 C 
ATOM      2  O   UNL A   1      33.421  36.438  32.141  1.00  0.00    -0.269 OA
ATOM      3  N   UNL A   1      33.245  35.446  30.127  1.00  0.00    -0.352 N 
ATOM      4  H   UNL A   1      32.770  36.261  29.845  1.00  0.00     0.163 HD
ENDROOT
BRANCH   1   5
ATOM      5  C   UNL A   1      34.350  34.288  32.043  1.00  0.00     0.041 A 
ATOM      6  C   UNL A   1      36.067  33.433  33.496  1.00  0.00     0.041 A 
ATOM      7  C   UNL A   1      36.040  32.220  32.792  1.00  0.00     0.026 A 
ATOM      8  C   UNL A   1      35.129  34.411  33.194  1.00  0.00     0.040 A 
ATOM      9  C   UNL A   1      35.105  32.011  31.777  1.00  0.00     0.003 A 
ATOM     10  C   UNL A   1      34.280  33.060  31.377  1.00  0.00     0.014 A 
BRANCH   6  11
ATOM     11  N   UNL A   1      37.150  33.662  34.368  1.00  0.00    -0.326 N 
ATOM     12  O   UNL A   1      38.927  33.874  32.918  1.00  0.00    -0.275 OA
ATOM     13  C   UNL A   1      38.488  33.735  34.060  1.00  0.00     0.224 C 
ATOM     14  H   UNL A   1      36.920  33.784  35.318  1.00  0.00     0.169 HD
BRANCH  13  15
ATOM     15  C   UNL A   1      39.485  33.564  35.210  1.00  0.00     0.102 C 
BRANCH  15  16
ATOM     16  C   UNL A   1      39.789  32.231  35.894  1.00  0.00     0.032 C 
BRANCH  16  17
ATOM     17  C   UNL A   1      41.116  31.460  35.808  1.00  0.00     0.128 C 
BRANCH  17  18
ATOM     18  N   UNL A   1      41.269  30.153  35.158  1.00  0.00    -0.293 N 
ATOM     19  C   UNL A   1      42.074  29.251  35.863  1.00  0.00     0.266 C 
ATOM     20  C   UNL A   1      40.561  29.578  34.124  1.00  0.00     0.148 C 
ATOM     21  O   UNL A   1      42.544  29.434  36.978  1.00  0.00    -0.268 OA
ATOM     22  C   UNL A   1      42.214  27.976  35.128  1.00  0.00     0.081 C 
ATOM     23  S   UNL A   1      41.220  27.998  33.736  1.00  0.00    -0.054 SA
ATOM     24  S   UNL A   1      39.203  30.094  33.319  1.00  0.00    -0.052 S 
ATOM     25  C   UNL A   1      43.029  26.990  35.528  1.00  0.00     0.031 C 
BRANCH  25  26
ATOM     26  C   UNL A   1      43.255  25.793  34.705  1.00  0.00    -0.006 A 
ATOM     27  C   UNL A   1      44.184  25.856  33.657  1.00  0.00     0.010 A 
ATOM     28  C   UNL A   1      42.655  24.560  35.024  1.00  0.00     0.048 A 
ATOM     29  C   UNL A   1      44.537  24.696  32.966  1.00  0.00     0.001 A 
ATOM     30  C   UNL A   1      43.023  23.404  34.339  1.00  0.00     0.021 A 
ATOM     31  Cl  UNL A   1      41.468  24.428  36.280  1.00  0.00    -0.084 Cl
ATOM     32  C   UNL A   1      43.969  23.471  33.318  1.00  0.00     0.002 A 
ENDBRANCH  25  26
ENDBRANCH  17  18
ENDBRANCH  16  17
ENDBRANCH  15  16
ENDBRANCH  13  15
ENDBRANCH   6  11
ENDBRANCH   1   5
BRANCH   3  33
ATOM     33  C   UNL A   1      33.374  34.431  29.082  1.00  0.00     0.118 C 
BRANCH  33  34
ATOM     34  C   UNL A   1      34.637  34.543  28.246  1.00  0.00     0.042 C 
BRANCH  34  35
ATOM     35  C   UNL A   1      35.318  33.224  27.939  1.00  0.00     0.118 C 
BRANCH  35  36
ATOM     36  N   UNL A   1      34.393  32.098  27.886  1.00  0.00    -0.352 N 
ATOM     37  C   UNL A   1      34.620  30.743  27.933  1.00  0.00     0.251 C 
ATOM     38  H   UNL A   1      33.445  32.352  27.801  1.00  0.00     0.163 HD
ATOM     39  O   UNL A   1      33.693  29.969  27.704  1.00  0.00    -0.269 OA
BRANCH  37  40
ATOM     40  C   UNL A   1      35.968  30.207  28.229  1.00  0.00     0.039 A 
ATOM     41  C   UNL A   1      36.927  30.180  27.211  1.00  0.00     0.014 A 
ATOM     42  C   UNL A   1      36.292  29.715  29.494  1.00  0.00     0.014 A 
ATOM     43  C   UNL A   1      38.225  29.740  27.489  1.00  0.00     0.010 A 
ATOM     44  C   UNL A   1      37.609  29.388  29.799  1.00  0.00     0.010 A 
ATOM     45  C   UNL A   1      38.591  29.385  28.798  1.00  0.00    -0.014 A 
BRANCH  45  46
ATOM     46  C   UNL A   1      39.986  29.005  29.143  1.00  0.00     0.031 A 
ATOM     47  C   UNL A   1      40.912  30.015  29.770  1.00  0.00     0.074 A 
ATOM     48  C   UNL A   1      40.443  27.779  28.818  1.00  0.00     0.049 A 
ATOM     49  N   UNL A   1      42.181  29.900  30.067  1.00  0.00    -0.248 NA
ATOM     50  C   UNL A   1      40.346  31.339  30.073  1.00  0.00     0.031 C 
ATOM     51  C   UNL A   1      39.663  26.734  28.150  1.00  0.00     0.029 A 
ATOM     52  N   UNL A   1      41.678  27.206  28.992  1.00  0.00    -0.354 N 
ATOM     53  C   UNL A   1      42.568  31.139  30.567  1.00  0.00     0.074 A 
ATOM     54  C   UNL A   1      41.415  32.007  30.479  1.00  0.00     0.031 C 
ATOM     55  C   UNL A   1      40.428  25.643  27.994  1.00  0.00     0.029 A 
ATOM     56  C   UNL A   1      41.765  25.921  28.509  1.00  0.00     0.049 A 
ATOM     57  H   UNL A   1      42.431  27.670  29.424  1.00  0.00     0.167 HD
ATOM     58  C   UNL A   1      43.766  31.510  31.077  1.00  0.00     0.037 A 
ATOM     59  C   UNL A   1      42.806  25.066  28.470  1.00  0.00     0.037 A 
ATOM     60  C   UNL A   1      44.899  30.629  31.186  1.00  0.00     0.049 A 
ATOM     61  C   UNL A   1      44.125  25.496  29.052  1.00  0.00     0.074 A 
ATOM     62  C   UNL A   1      46.134  30.883  31.754  1.00  0.00     0.029 A 
ATOM     63  N   UNL A   1      44.938  29.324  30.713  1.00  0.00    -0.354 N 
ATOM     64  N   UNL A   1      44.451  26.647  29.592  1.00  0.00    -0.248 NA
ATOM     65  C   UNL A   1      45.216  24.513  29.027  1.00  0.00     0.031 C 
ATOM     66  C   UNL A   1      46.940  29.754  31.573  1.00  0.00     0.029 A 
ATOM     67  C   UNL A   1      46.186  28.772  30.950  1.00  0.00     0.049 A 
ATOM     68  H   UNL A   1      44.188  28.860  30.274  1.00  0.00     0.167 HD
ATOM     69  C   UNL A   1      45.776  26.517  29.995  1.00  0.00     0.074 A 
ATOM     70  C   UNL A   1      46.186  25.172  29.647  1.00  0.00     0.031 C 
ATOM     71  C   UNL A   1      46.579  27.429  30.599  1.00  0.00     0.037 A 
BRANCH  58  72
ATOM     72  C   UNL A   1      43.914  32.932  31.553  1.00  0.00     0.058 A 
ATOM     73  C   UNL A   1      44.283  33.972  30.684  1.00  0.00     0.135 A 
ATOM     74  C   UNL A   1      43.655  33.265  32.893  1.00  0.00     0.135 A 
ATOM     75  F   UNL A   1      44.555  33.712  29.395  1.00  0.00    -0.206 F 
ATOM     76  C   UNL A   1      44.425  35.282  31.132  1.00  0.00     0.059 A 
ATOM     77  C   UNL A   1      43.758  34.574  33.356  1.00  0.00     0.059 A 
ATOM     78  F   UNL A   1      43.298  32.313  33.770  1.00  0.00    -0.206 F 
ATOM     79  C   UNL A   1      44.160  35.572  32.470  1.00  0.00     0.060 A 
BRANCH  79  80
ATOM     80  S   UNL A   1      44.350  37.277  33.035  1.00  0.00     0.124 S 
ATOM     81  O   UNL A   1      44.344  38.005  31.770  1.00  0.00    -0.237 OA
ATOM     82  O   UNL A   1      43.171  37.459  33.876  1.00  0.00    -0.237 OA
ATOM     83  O   UNL A   1      45.626  37.262  33.743  1.00  0.00    -0.744 OA
ENDBRANCH  79  80
ENDBRANCH  58  72
BRANCH  59  84
ATOM     84  C   UNL A   1      42.631  23.714  27.873  1.00  0.00     0.058 A 
ATOM     85  C   UNL A   1      42.669  23.525  26.485  1.00  0.00     0.135 A 
ATOM     86  C   UNL A   1      42.452  22.580  28.682  1.00  0.00     0.135 A 
ATOM     87  F   UNL A   1      42.831  24.576  25.667  1.00  0.00    -0.206 F 
ATOM     88  C   UNL A   1      42.523  22.262  25.916  1.00  0.00     0.059 A 
ATOM     89  C   UNL A   1      42.333  21.304  28.138  1.00  0.00     0.059 A 
ATOM     90  F   UNL A   1      42.424  22.703  30.017  1.00  0.00    -0.206 F 
ATOM     91  C   UNL A   1      42.360  21.157  26.753  1.00  0.00     0.060 A 
BRANCH  91  92
ATOM     92  S   UNL A   1      42.218  19.519  26.006  1.00  0.00     0.124 S 
ATOM     93  O   UNL A   1      40.795  19.458  25.696  1.00  0.00    -0.237 OA
ATOM     94  O   UNL A   1      43.119  19.625  24.863  1.00  0.00    -0.237 OA
ATOM     95  O   UNL A   1      42.667  18.624  27.069  1.00  0.00    -0.744 OA
ENDBRANCH  91  92
ENDBRANCH  59  84
BRANCH  71  96
ATOM     96  C   UNL A   1      47.975  26.995  30.957  1.00  0.00     0.058 A 
ATOM     97  C   UNL A   1      49.032  27.063  30.036  1.00  0.00     0.135 A 
ATOM     98  C   UNL A   1      48.268  26.560  32.261  1.00  0.00     0.135 A 
ATOM     99  F   UNL A   1      48.804  27.465  28.775  1.00  0.00    -0.206 F 
ATOM    100  C   UNL A   1      50.325  26.691  30.387  1.00  0.00     0.059 A 
ATOM    101  C   UNL A   1      49.561  26.215  32.641  1.00  0.00     0.059 A 
ATOM    102  F   UNL A   1      47.298  26.487  33.184  1.00  0.00    -0.206 F 
ATOM    103  C   UNL A   1      50.581  26.272  31.694  1.00  0.00     0.060 A 
BRANCH 103 104
ATOM    104  S   UNL A   1      52.272  25.827  32.143  1.00  0.00     0.124 S 
ATOM    105  O   UNL A   1      52.198  24.369  32.154  1.00  0.00    -0.237 OA
ATOM    106  O   UNL A   1      53.048  26.415  31.057  1.00  0.00    -0.237 OA
ATOM    107  O   UNL A   1      52.454  26.455  33.448  1.00  0.00    -0.744 OA
ENDBRANCH 103 104
ENDBRANCH  71  96
ENDBRANCH  45  46
ENDBRANCH  37  40
ENDBRANCH  35  36
ENDBRANCH  34  35
ENDBRANCH  33  34
ENDBRANCH   3  33
TORSDOF 19
ENDMDL
MODEL 3
REMARK VINA RESULT:     -11.6      0.632      7.815
REMARK SMILES O=C(CCCN1C(=O)/C(=C/c2ccccc2Cl)SC1=S)Nc1cccc(C(=O)NCCCNC(=O)c2ccc(-c3c4nc(c(-c5c(F)cc(S(=O)(=O)[O-])cc5F)c5ccc([nH]5)c(-c5c(F)cc(S(=O)(=O)[O-])cc5F)c5nc(c(-c6c(F)cc(S(=O)(=O)[O-])cc6F)c6ccc3[nH]6)C=C5)C=C4)cc2)c1
REMARK SMILES IDX 27 1 28 2 29 3 26 5 22 6 23 7 102 8 24 9 25 10 21 11 1 12
REMARK SMILES IDX 2 13 3 15 4 16 5 17 6 18 7 19 19 20 8 21 9 22 18 23 20 24
REMARK SMILES IDX 10 25 11 26 12 27 16 28 13 29 15 30 17 31 14 32 30 33 31 34
REMARK SMILES IDX 32 35 33 36 34 37 35 39 36 40 37 41 101 42 38 43 100 44
REMARK SMILES IDX 39 45 40 46 41 47 94 48 42 49 99 50 93 51 95 52 43 53 98 54
REMARK SMILES IDX 92 55 91 56 44 58 78 59 57 60 77 61 58 62 61 63 76 64 96 65
REMARK SMILES IDX 59 66 60 67 75 69 97 70 62 71 45 72 46 73 55 74 47 75 48 76
REMARK SMILES IDX 54 77 56 78 49 79 50 80 51 81 52 82 53 83 79 84 80 85 89 86
REMARK SMILES IDX 81 87 82 88 88 89 90 90 83 91 84 92 85 93 86 94 87 95 63 96
REMARK SMILES IDX 64 97 73 98 65 99 66 100 72 101 74 102 67 103 68 104 69 105
REMARK SMILES IDX 70 106 71 107
REMARK H PARENT 29 4 21 14 33 38 95 57 61 68
REMARK Flexibility Score: inf
ROOT
ATOM      1  C   UNL A   1      43.077  22.607  28.362  1.00  0.00     0.251 C 
ATOM      2  O   UNL A   1      42.688  22.931  29.482  1.00  0.00    -0.269 OA
ATOM      3  N   UNL A   1      44.343  22.972  27.954  1.00  0.00    -0.352 N 
ATOM      4  H   UNL A   1      44.858  23.470  28.629  1.00  0.00     0.163 HD
ENDROOT
BRANCH   1   5
ATOM      5  C   UNL A   1      42.144  21.903  27.446  1.00  0.00     0.041 A 
ATOM      6  C   UNL A   1      40.141  21.959  26.116  1.00  0.00     0.041 A 
ATOM      7  C   UNL A   1      40.060  20.562  26.203  1.00  0.00     0.026 A 
ATOM      8  C   UNL A   1      41.256  22.605  26.632  1.00  0.00     0.040 A 
ATOM      9  C   UNL A   1      41.070  19.831  26.830  1.00  0.00     0.003 A 
ATOM     10  C   UNL A   1      42.098  20.506  27.486  1.00  0.00     0.014 A 
BRANCH   6  11
ATOM     11  N   UNL A   1      39.006  22.655  25.651  1.00  0.00    -0.326 N 
ATOM     12  O   UNL A   1      38.626  24.181  27.333  1.00  0.00    -0.275 OA
ATOM     13  C   UNL A   1      38.259  23.599  26.312  1.00  0.00     0.224 C 
ATOM     14  H   UNL A   1      38.713  22.436  24.736  1.00  0.00     0.169 HD
BRANCH  13  15
ATOM     15  C   UNL A   1      36.853  23.887  25.775  1.00  0.00     0.102 C 
BRANCH  15  16
ATOM     16  C   UNL A   1      35.589  23.162  26.237  1.00  0.00     0.032 C 
BRANCH  16  17
ATOM     17  C   UNL A   1      34.306  22.980  25.412  1.00  0.00     0.128 C 
BRANCH  17  18
ATOM     18  N   UNL A   1      33.280  24.016  25.245  1.00  0.00    -0.293 N 
ATOM     19  C   UNL A   1      33.484  24.854  24.143  1.00  0.00     0.266 C 
ATOM     20  C   UNL A   1      32.033  24.144  25.821  1.00  0.00     0.148 C 
ATOM     21  O   UNL A   1      34.354  24.718  23.294  1.00  0.00    -0.268 OA
ATOM     22  C   UNL A   1      32.436  25.895  24.065  1.00  0.00     0.081 C 
ATOM     23  S   UNL A   1      31.255  25.620  25.271  1.00  0.00    -0.054 SA
ATOM     24  S   UNL A   1      31.184  23.117  26.812  1.00  0.00    -0.052 S 
ATOM     25  C   UNL A   1      32.467  26.895  23.172  1.00  0.00     0.031 C 
BRANCH  25  26
ATOM     26  C   UNL A   1      31.490  27.992  23.208  1.00  0.00    -0.006 A 
ATOM     27  C   UNL A   1      30.320  27.884  22.444  1.00  0.00     0.010 A 
ATOM     28  C   UNL A   1      31.645  29.083  24.084  1.00  0.00     0.048 A 
ATOM     29  C   UNL A   1      29.305  28.831  22.583  1.00  0.00     0.001 A 
ATOM     30  C   UNL A   1      30.622  30.017  24.228  1.00  0.00     0.021 A 
ATOM     31  Cl  UNL A   1      33.087  29.294  25.022  1.00  0.00    -0.084 Cl
ATOM     32  C   UNL A   1      29.450  29.885  23.485  1.00  0.00     0.002 A 
ENDBRANCH  25  26
ENDBRANCH  17  18
ENDBRANCH  16  17
ENDBRANCH  15  16
ENDBRANCH  13  15
ENDBRANCH   6  11
ENDBRANCH   1   5
BRANCH   3  33
ATOM     33  C   UNL A   1      45.053  22.752  26.695  1.00  0.00     0.118 C 
BRANCH  33  34
ATOM     34  C   UNL A   1      46.029  23.853  26.321  1.00  0.00     0.042 C 
BRANCH  34  35
ATOM     35  C   UNL A   1      45.458  25.257  26.373  1.00  0.00     0.118 C 
BRANCH  35  36
ATOM     36  N   UNL A   1      44.276  25.429  25.537  1.00  0.00    -0.352 N 
ATOM     37  C   UNL A   1      43.048  25.979  25.817  1.00  0.00     0.251 C 
ATOM     38  H   UNL A   1      44.375  25.093  24.616  1.00  0.00     0.163 HD
ATOM     39  O   UNL A   1      42.138  25.868  24.998  1.00  0.00    -0.269 OA
BRANCH  37  40
ATOM     40  C   UNL A   1      42.801  26.679  27.099  1.00  0.00     0.039 A 
ATOM     41  C   UNL A   1      43.353  27.948  27.297  1.00  0.00     0.014 A 
ATOM     42  C   UNL A   1      42.046  26.089  28.113  1.00  0.00     0.014 A 
ATOM     43  C   UNL A   1      43.077  28.651  28.474  1.00  0.00     0.010 A 
ATOM     44  C   UNL A   1      41.677  26.833  29.230  1.00  0.00     0.010 A 
ATOM     45  C   UNL A   1      42.197  28.119  29.430  1.00  0.00    -0.014 A 
BRANCH  45  46
ATOM     46  C   UNL A   1      41.809  28.884  30.645  1.00  0.00     0.031 A 
ATOM     47  C   UNL A   1      40.593  29.773  30.622  1.00  0.00     0.074 A 
ATOM     48  C   UNL A   1      42.595  28.840  31.739  1.00  0.00     0.049 A 
ATOM     49  N   UNL A   1      40.140  30.578  31.549  1.00  0.00    -0.248 NA
ATOM     50  C   UNL A   1      39.799  29.785  29.383  1.00  0.00     0.031 C 
ATOM     51  C   UNL A   1      43.833  28.068  31.862  1.00  0.00     0.029 A 
ATOM     52  N   UNL A   1      42.479  29.471  32.953  1.00  0.00    -0.354 N 
ATOM     53  C   UNL A   1      39.028  31.206  30.998  1.00  0.00     0.074 A 
ATOM     54  C   UNL A   1      38.909  30.733  29.637  1.00  0.00     0.031 C 
ATOM     55  C   UNL A   1      44.347  28.248  33.089  1.00  0.00     0.029 A 
ATOM     56  C   UNL A   1      43.503  29.184  33.826  1.00  0.00     0.049 A 
ATOM     57  H   UNL A   1      41.731  30.071  33.179  1.00  0.00     0.167 HD
ATOM     58  C   UNL A   1      38.171  32.077  31.581  1.00  0.00     0.037 A 
ATOM     59  C   UNL A   1      43.746  29.632  35.073  1.00  0.00     0.037 A 
ATOM     60  C   UNL A   1      38.282  32.519  32.946  1.00  0.00     0.049 A 
ATOM     61  C   UNL A   1      42.773  30.591  35.705  1.00  0.00     0.074 A 
ATOM     62  C   UNL A   1      37.426  33.342  33.656  1.00  0.00     0.029 A 
ATOM     63  N   UNL A   1      39.317  32.182  33.807  1.00  0.00    -0.354 N 
ATOM     64  N   UNL A   1      41.683  31.115  35.195  1.00  0.00    -0.248 NA
ATOM     65  C   UNL A   1      43.057  31.016  37.082  1.00  0.00     0.031 C 
ATOM     66  C   UNL A   1      37.971  33.548  34.927  1.00  0.00     0.029 A 
ATOM     67  C   UNL A   1      39.136  32.803  35.032  1.00  0.00     0.049 A 
ATOM     68  H   UNL A   1      40.070  31.588  33.581  1.00  0.00     0.167 HD
ATOM     69  C   UNL A   1      41.138  31.910  36.198  1.00  0.00     0.074 A 
ATOM     70  C   UNL A   1      42.011  31.787  37.346  1.00  0.00     0.031 C 
ATOM     71  C   UNL A   1      40.014  32.670  36.168  1.00  0.00     0.037 A 
BRANCH  58  72
ATOM     72  C   UNL A   1      37.038  32.610  30.743  1.00  0.00     0.058 A 
ATOM     73  C   UNL A   1      37.175  33.767  29.959  1.00  0.00     0.135 A 
ATOM     74  C   UNL A   1      35.805  31.937  30.702  1.00  0.00     0.135 A 
ATOM     75  F   UNL A   1      38.325  34.459  29.968  1.00  0.00    -0.206 F 
ATOM     76  C   UNL A   1      36.121  34.259  29.194  1.00  0.00     0.059 A 
ATOM     77  C   UNL A   1      34.748  32.393  29.917  1.00  0.00     0.059 A 
ATOM     78  F   UNL A   1      35.615  30.826  31.430  1.00  0.00    -0.206 F 
ATOM     79  C   UNL A   1      34.912  33.564  29.180  1.00  0.00     0.060 A 
BRANCH  79  80
ATOM     80  S   UNL A   1      33.556  34.216  28.181  1.00  0.00     0.124 S 
ATOM     81  O   UNL A   1      32.800  34.972  29.174  1.00  0.00    -0.237 OA
ATOM     82  O   UNL A   1      34.261  35.011  27.181  1.00  0.00    -0.237 OA
ATOM     83  O   UNL A   1      32.899  33.015  27.673  1.00  0.00    -0.744 OA
ENDBRANCH  79  80
ENDBRANCH  58  72
BRANCH  59  84
ATOM     84  C   UNL A   1      44.952  29.163  35.806  1.00  0.00     0.058 A 
ATOM     85  C   UNL A   1      46.167  29.858  35.724  1.00  0.00     0.135 A 
ATOM     86  C   UNL A   1      44.905  28.026  36.629  1.00  0.00     0.135 A 
ATOM     87  F   UNL A   1      46.266  30.947  34.947  1.00  0.00    -0.206 F 
ATOM     88  C   UNL A   1      47.298  29.437  36.418  1.00  0.00     0.059 A 
ATOM     89  C   UNL A   1      46.014  27.602  37.356  1.00  0.00     0.059 A 
ATOM     90  F   UNL A   1      43.764  27.333  36.756  1.00  0.00    -0.206 F 
ATOM     91  C   UNL A   1      47.208  28.309  37.237  1.00  0.00     0.060 A 
BRANCH  91  92
ATOM     92  S   UNL A   1      48.668  27.799  38.169  1.00  0.00     0.124 S 
ATOM     93  O   UNL A   1      49.748  28.304  37.329  1.00  0.00    -0.237 OA
ATOM     94  O   UNL A   1      48.473  28.485  39.442  1.00  0.00    -0.237 OA
ATOM     95  O   UNL A   1      48.543  26.345  38.222  1.00  0.00    -0.744 OA
ENDBRANCH  91  92
ENDBRANCH  59  84
BRANCH  71  96
ATOM     96  C   UNL A   1      39.642  33.405  37.428  1.00  0.00     0.058 A 
ATOM     97  C   UNL A   1      38.687  32.902  38.326  1.00  0.00     0.135 A 
ATOM     98  C   UNL A   1      40.296  34.602  37.769  1.00  0.00     0.135 A 
ATOM     99  F   UNL A   1      38.030  31.766  38.045  1.00  0.00    -0.206 F 
ATOM    100  C   UNL A   1      38.375  33.571  39.504  1.00  0.00     0.059 A 
ATOM    101  C   UNL A   1      40.021  35.270  38.957  1.00  0.00     0.059 A 
ATOM    102  F   UNL A   1      41.225  35.121  36.952  1.00  0.00    -0.206 F 
ATOM    103  C   UNL A   1      39.050  34.753  39.814  1.00  0.00     0.060 A 
BRANCH 103 104
ATOM    104  S   UNL A   1      38.659  35.593  41.363  1.00  0.00     0.124 S 
ATOM    105  O   UNL A   1      38.596  36.986  40.934  1.00  0.00    -0.237 OA
ATOM    106  O   UNL A   1      37.385  34.985  41.733  1.00  0.00    -0.237 OA
ATOM    107  O   UNL A   1      39.784  35.252  42.228  1.00  0.00    -0.744 OA
ENDBRANCH 103 104
ENDBRANCH  71  96
ENDBRANCH  45  46
ENDBRANCH  37  40
ENDBRANCH  35  36
ENDBRANCH  34  35
ENDBRANCH  33  34
ENDBRANCH   3  33
TORSDOF 19
ENDMDL
