MODEL 1
REMARK VINA RESULT:     -11.8      0.000      0.000
REMARK SMILES COc1ccc(N2C(=O)/C(=C\c3ccc(-c4ccc(Cl)c(C(=O)NCCCNC(=O)c5ccc(-c6c7nc(c(-c8c(F)cc(S(=O)(=O)[O-])cc8F)c8ccc([nH]8)c(-c8c(F)cc(S(=O)(=O)[O-])cc8F)c8nc(c(-c9c(F)cc(S(=O)(=O)[O-])cc9F)c9ccc6[nH]9)C=C8)C=C7)cc5)c4)o3)SC2=S)cc1
REMARK SMILES IDX 25 1 24 2 22 3 23 4 21 6 16 7 17 8 97 9 18 10 19 11 20 12
REMARK SMILES IDX 15 13 12 14 13 15 98 16 14 17 11 18 7 19 8 20 100 21 9 22
REMARK SMILES IDX 10 23 99 24 101 25 6 26 3 27 4 28 103 29 5 30 102 31 2 32
REMARK SMILES IDX 1 33 26 34 27 35 28 36 29 37 30 39 31 40 32 41 96 42 33 43
REMARK SMILES IDX 95 44 34 45 35 46 36 47 89 48 37 49 94 50 88 51 90 52 38 53
REMARK SMILES IDX 93 54 87 55 86 56 39 58 73 59 52 60 72 61 53 62 56 63 71 64
REMARK SMILES IDX 91 65 54 66 55 67 70 69 92 70 57 71 40 72 41 73 50 74 42 75
REMARK SMILES IDX 43 76 49 77 51 78 44 79 45 80 46 81 47 82 48 83 74 84 75 85
REMARK SMILES IDX 84 86 76 87 77 88 83 89 85 90 78 91 79 92 80 93 81 94 82 95
REMARK SMILES IDX 58 96 59 97 68 98 60 99 61 100 67 101 69 102 62 103 63 104
REMARK SMILES IDX 64 105 65 106 66 107
REMARK H PARENT 24 5 28 38 90 57 56 68
REMARK Flexibility Score: inf
ROOT
ATOM      1  C   UNL A   1      43.194  22.889  25.794  1.00  0.00     0.118 C 
ENDROOT
BRANCH   1   2
ATOM      2  N   UNL A   1      42.583  21.577  26.020  1.00  0.00    -0.352 N 
ATOM      3  C   UNL A   1      41.307  21.139  26.333  1.00  0.00     0.252 C 
ATOM      4  O   UNL A   1      41.130  19.922  26.345  1.00  0.00    -0.269 OA
ATOM      5  H   UNL A   1      43.226  20.838  25.927  1.00  0.00     0.163 HD
BRANCH   3   6
ATOM      6  C   UNL A   1      40.189  22.070  26.670  1.00  0.00     0.059 A 
ATOM      7  C   UNL A   1      38.025  22.935  25.949  1.00  0.00     0.018 A 
ATOM      8  C   UNL A   1      38.167  24.026  26.799  1.00  0.00     0.013 A 
ATOM      9  C   UNL A   1      38.962  21.899  26.036  1.00  0.00     0.027 A 
ATOM     10  C   UNL A   1      39.276  24.096  27.651  1.00  0.00     0.022 A 
ATOM     11  C   UNL A   1      40.313  23.152  27.553  1.00  0.00     0.053 A 
ATOM     12  Cl  UNL A   1      41.694  23.429  28.554  1.00  0.00    -0.083 Cl
BRANCH   7  13
ATOM     13  C   UNL A   1      37.056  22.866  24.863  1.00  0.00     0.134 A 
ATOM     14  C   UNL A   1      34.989  22.870  24.057  1.00  0.00     0.128 A 
ATOM     15  C   UNL A   1      35.853  23.123  23.000  1.00  0.00     0.051 A 
ATOM     16  O   UNL A   1      35.739  22.755  25.207  1.00  0.00    -0.457 OA
ATOM     17  C   UNL A   1      37.166  23.064  23.503  1.00  0.00     0.051 A 
BRANCH  14  18
ATOM     18  C   UNL A   1      33.591  22.632  23.976  1.00  0.00     0.068 C 
ATOM     19  N   UNL A   1      31.988  25.721  25.083  1.00  0.00    -0.261 N 
ATOM     20  C   UNL A   1      33.106  24.994  24.697  1.00  0.00     0.270 C 
ATOM     21  C   UNL A   1      30.785  25.037  25.095  1.00  0.00     0.152 C 
ATOM     22  O   UNL A   1      34.259  25.418  24.692  1.00  0.00    -0.268 OA
ATOM     23  C   UNL A   1      32.734  23.599  24.334  1.00  0.00     0.084 C 
ATOM     24  S   UNL A   1      31.038  23.386  24.506  1.00  0.00    -0.054 SA
ATOM     25  S   UNL A   1      29.248  25.585  25.466  1.00  0.00    -0.051 S 
BRANCH  19  26
ATOM     26  C   UNL A   1      32.186  27.089  25.439  1.00  0.00     0.051 A 
ATOM     27  C   UNL A   1      32.297  29.765  26.287  1.00  0.00     0.119 A 
ATOM     28  C   UNL A   1      32.482  28.742  27.207  1.00  0.00     0.048 A 
ATOM     29  C   UNL A   1      32.101  29.462  24.939  1.00  0.00     0.048 A 
ATOM     30  C   UNL A   1      32.414  27.415  26.788  1.00  0.00     0.030 A 
ATOM     31  C   UNL A   1      32.047  28.127  24.513  1.00  0.00     0.030 A 
BRANCH  27  32
ATOM     32  O   UNL A   1      32.374  31.039  26.777  1.00  0.00    -0.497 OA
ATOM     33  C   UNL A   1      31.252  31.844  26.423  1.00  0.00     0.278 C 
ENDBRANCH  27  32
ENDBRANCH  19  26
ENDBRANCH  14  18
ENDBRANCH   7  13
ENDBRANCH   3   6
ENDBRANCH   1   2
BRANCH   1  34
ATOM     34  C   UNL A   1      43.980  23.444  26.969  1.00  0.00     0.042 C 
BRANCH  34  35
ATOM     35  C   UNL A   1      44.634  24.791  26.722  1.00  0.00     0.118 C 
BRANCH  35  36
ATOM     36  N   UNL A   1      44.101  25.478  25.551  1.00  0.00    -0.352 N 
ATOM     37  C   UNL A   1      43.203  26.512  25.436  1.00  0.00     0.251 C 
ATOM     38  H   UNL A   1      44.445  25.141  24.691  1.00  0.00     0.163 HD
ATOM     39  O   UNL A   1      42.750  26.787  24.328  1.00  0.00    -0.269 OA
BRANCH  37  40
ATOM     40  C   UNL A   1      42.762  27.280  26.625  1.00  0.00     0.039 A 
ATOM     41  C   UNL A   1      41.853  26.696  27.512  1.00  0.00     0.014 A 
ATOM     42  C   UNL A   1      43.208  28.581  26.855  1.00  0.00     0.014 A 
ATOM     43  C   UNL A   1      41.461  27.388  28.663  1.00  0.00     0.010 A 
ATOM     44  C   UNL A   1      42.907  29.222  28.052  1.00  0.00     0.010 A 
ATOM     45  C   UNL A   1      42.021  28.638  28.968  1.00  0.00    -0.014 A 
BRANCH  45  46
ATOM     46  C   UNL A   1      41.685  29.358  30.224  1.00  0.00     0.031 A 
ATOM     47  C   UNL A   1      42.511  29.138  31.466  1.00  0.00     0.074 A 
ATOM     48  C   UNL A   1      40.603  30.164  30.263  1.00  0.00     0.049 A 
ATOM     49  N   UNL A   1      42.325  29.602  32.675  1.00  0.00    -0.248 NA
ATOM     50  C   UNL A   1      43.685  28.257  31.340  1.00  0.00     0.031 C 
ATOM     51  C   UNL A   1      39.692  30.415  29.143  1.00  0.00     0.029 A 
ATOM     52  N   UNL A   1      40.076  30.910  31.287  1.00  0.00    -0.354 N 
ATOM     53  C   UNL A   1      43.353  29.073  33.448  1.00  0.00     0.074 A 
ATOM     54  C   UNL A   1      44.116  28.193  32.592  1.00  0.00     0.031 C 
ATOM     55  C   UNL A   1      38.736  31.273  29.534  1.00  0.00     0.029 A 
ATOM     56  C   UNL A   1      38.935  31.598  30.941  1.00  0.00     0.049 A 
ATOM     57  H   UNL A   1      40.477  30.951  32.185  1.00  0.00     0.167 HD
ATOM     58  C   UNL A   1      43.657  29.326  34.743  1.00  0.00     0.037 A 
ATOM     59  C   UNL A   1      38.133  32.390  31.680  1.00  0.00     0.037 A 
ATOM     60  C   UNL A   1      42.905  30.219  35.586  1.00  0.00     0.049 A 
ATOM     61  C   UNL A   1      38.482  32.636  33.124  1.00  0.00     0.074 A 
ATOM     62  C   UNL A   1      43.145  30.562  36.905  1.00  0.00     0.029 A 
ATOM     63  N   UNL A   1      41.774  30.917  35.189  1.00  0.00    -0.354 N 
ATOM     64  N   UNL A   1      39.489  32.165  33.821  1.00  0.00    -0.248 NA
ATOM     65  C   UNL A   1      37.594  33.529  33.880  1.00  0.00     0.031 C 
ATOM     66  C   UNL A   1      42.136  31.438  37.319  1.00  0.00     0.029 A 
ATOM     67  C   UNL A   1      41.300  31.683  36.242  1.00  0.00     0.049 A 
ATOM     68  H   UNL A   1      41.369  30.875  34.294  1.00  0.00     0.167 HD
ATOM     69  C   UNL A   1      39.372  32.732  35.086  1.00  0.00     0.074 A 
ATOM     70  C   UNL A   1      38.210  33.594  35.052  1.00  0.00     0.031 C 
ATOM     71  C   UNL A   1      40.153  32.552  36.180  1.00  0.00     0.037 A 
BRANCH  58  72
ATOM     72  C   UNL A   1      44.875  28.660  35.322  1.00  0.00     0.058 A 
ATOM     73  C   UNL A   1      46.135  29.280  35.279  1.00  0.00     0.135 A 
ATOM     74  C   UNL A   1      44.777  27.425  35.984  1.00  0.00     0.135 A 
ATOM     75  F   UNL A   1      46.290  30.451  34.641  1.00  0.00    -0.206 F 
ATOM     76  C   UNL A   1      47.255  28.697  35.862  1.00  0.00     0.059 A 
ATOM     77  C   UNL A   1      45.879  26.837  36.601  1.00  0.00     0.059 A 
ATOM     78  F   UNL A   1      43.599  26.786  36.052  1.00  0.00    -0.206 F 
ATOM     79  C   UNL A   1      47.115  27.478  36.529  1.00  0.00     0.060 A 
BRANCH  79  80
ATOM     80  S   UNL A   1      48.572  26.761  37.315  1.00  0.00     0.124 S 
ATOM     81  O   UNL A   1      49.635  27.196  36.413  1.00  0.00    -0.237 OA
ATOM     82  O   UNL A   1      48.558  27.395  38.629  1.00  0.00    -0.237 OA
ATOM     83  O   UNL A   1      48.292  25.328  37.309  1.00  0.00    -0.744 OA
ENDBRANCH  79  80
ENDBRANCH  58  72
BRANCH  59  84
ATOM     84  C   UNL A   1      36.919  33.010  31.077  1.00  0.00     0.058 A 
ATOM     85  C   UNL A   1      37.018  34.108  30.209  1.00  0.00     0.135 A 
ATOM     86  C   UNL A   1      35.632  32.542  31.389  1.00  0.00     0.135 A 
ATOM     87  F   UNL A   1      38.224  34.595  29.879  1.00  0.00    -0.206 F 
ATOM     88  C   UNL A   1      35.889  34.749  29.710  1.00  0.00     0.059 A 
ATOM     89  C   UNL A   1      34.489  33.144  30.875  1.00  0.00     0.059 A 
ATOM     90  F   UNL A   1      35.479  31.479  32.195  1.00  0.00    -0.206 F 
ATOM     91  C   UNL A   1      34.627  34.262  30.054  1.00  0.00     0.060 A 
BRANCH  91  92
ATOM     92  S   UNL A   1      33.166  35.101  29.406  1.00  0.00     0.124 S 
ATOM     93  O   UNL A   1      32.339  35.216  30.601  1.00  0.00    -0.237 OA
ATOM     94  O   UNL A   1      33.728  36.347  28.894  1.00  0.00    -0.237 OA
ATOM     95  O   UNL A   1      32.676  34.178  28.385  1.00  0.00    -0.744 OA
ENDBRANCH  91  92
ENDBRANCH  59  84
BRANCH  71  96
ATOM     96  C   UNL A   1      39.807  33.341  37.414  1.00  0.00     0.058 A 
ATOM     97  C   UNL A   1      40.470  34.533  37.742  1.00  0.00     0.135 A 
ATOM     98  C   UNL A   1      38.765  32.918  38.255  1.00  0.00     0.135 A 
ATOM     99  F   UNL A   1      41.477  34.979  36.973  1.00  0.00    -0.206 F 
ATOM    100  C   UNL A   1      40.135  35.262  38.878  1.00  0.00     0.059 A 
ATOM    101  C   UNL A   1      38.391  33.647  39.379  1.00  0.00     0.059 A 
ATOM    102  F   UNL A   1      38.089  31.790  37.982  1.00  0.00    -0.206 F 
ATOM    103  C   UNL A   1      39.092  34.810  39.690  1.00  0.00     0.060 A 
BRANCH 103 104
ATOM    104  S   UNL A   1      38.652  35.781  41.147  1.00  0.00     0.124 S 
ATOM    105  O   UNL A   1      38.452  37.105  40.569  1.00  0.00    -0.237 OA
ATOM    106  O   UNL A   1      37.448  35.105  41.619  1.00  0.00    -0.237 OA
ATOM    107  O   UNL A   1      39.820  35.644  42.012  1.00  0.00    -0.744 OA
ENDBRANCH 103 104
ENDBRANCH  71  96
ENDBRANCH  45  46
ENDBRANCH  37  40
ENDBRANCH  35  36
ENDBRANCH  34  35
ENDBRANCH   1  34
TORSDOF 17
ENDMDL
MODEL 2
REMARK VINA RESULT:     -11.6      3.846     10.302
REMARK SMILES COc1ccc(N2C(=O)/C(=C\c3ccc(-c4ccc(Cl)c(C(=O)NCCCNC(=O)c5ccc(-c6c7nc(c(-c8c(F)cc(S(=O)(=O)[O-])cc8F)c8ccc([nH]8)c(-c8c(F)cc(S(=O)(=O)[O-])cc8F)c8nc(c(-c9c(F)cc(S(=O)(=O)[O-])cc9F)c9ccc6[nH]9)C=C8)C=C7)cc5)c4)o3)SC2=S)cc1
REMARK SMILES IDX 25 1 24 2 22 3 23 4 21 6 16 7 17 8 97 9 18 10 19 11 20 12
REMARK SMILES IDX 15 13 12 14 13 15 98 16 14 17 11 18 7 19 8 20 100 21 9 22
REMARK SMILES IDX 10 23 99 24 101 25 6 26 3 27 4 28 103 29 5 30 102 31 2 32
REMARK SMILES IDX 1 33 26 34 27 35 28 36 29 37 30 39 31 40 32 41 96 42 33 43
REMARK SMILES IDX 95 44 34 45 35 46 36 47 89 48 37 49 94 50 88 51 90 52 38 53
REMARK SMILES IDX 93 54 87 55 86 56 39 58 73 59 52 60 72 61 53 62 56 63 71 64
REMARK SMILES IDX 91 65 54 66 55 67 70 69 92 70 57 71 40 72 41 73 50 74 42 75
REMARK SMILES IDX 43 76 49 77 51 78 44 79 45 80 46 81 47 82 48 83 74 84 75 85
REMARK SMILES IDX 84 86 76 87 77 88 83 89 85 90 78 91 79 92 80 93 81 94 82 95
REMARK SMILES IDX 58 96 59 97 68 98 60 99 61 100 67 101 69 102 62 103 63 104
REMARK SMILES IDX 64 105 65 106 66 107
REMARK H PARENT 24 5 28 38 90 57 56 68
REMARK Flexibility Score: inf
ROOT
ATOM      1  C   UNL A   1      33.238  28.356  23.166  1.00  0.00     0.118 C 
ENDROOT
BRANCH   1   2
ATOM      2  N   UNL A   1      32.156  29.343  23.142  1.00  0.00    -0.352 N 
ATOM      3  C   UNL A   1      30.833  29.346  23.551  1.00  0.00     0.252 C 
ATOM      4  O   UNL A   1      30.233  30.415  23.468  1.00  0.00    -0.269 OA
ATOM      5  H   UNL A   1      32.432  30.199  22.745  1.00  0.00     0.163 HD
BRANCH   3   6
ATOM      6  C   UNL A   1      30.135  28.122  24.049  1.00  0.00     0.059 A 
ATOM      7  C   UNL A   1      30.425  25.968  25.154  1.00  0.00     0.018 A 
ATOM      8  C   UNL A   1      29.187  25.547  24.680  1.00  0.00     0.013 A 
ATOM      9  C   UNL A   1      30.787  27.307  24.968  1.00  0.00     0.027 A 
ATOM     10  C   UNL A   1      28.382  26.443  23.967  1.00  0.00     0.022 A 
ATOM     11  C   UNL A   1      28.871  27.710  23.604  1.00  0.00     0.053 A 
ATOM     12  Cl  UNL A   1      27.840  28.666  22.599  1.00  0.00    -0.083 Cl
BRANCH   7  13
ATOM     13  C   UNL A   1      31.440  25.072  25.693  1.00  0.00     0.134 A 
ATOM     14  C   UNL A   1      33.540  24.427  26.009  1.00  0.00     0.128 A 
ATOM     15  C   UNL A   1      32.753  23.776  26.950  1.00  0.00     0.051 A 
ATOM     16  O   UNL A   1      32.725  25.255  25.268  1.00  0.00    -0.457 OA
ATOM     17  C   UNL A   1      31.416  24.143  26.711  1.00  0.00     0.051 A 
BRANCH  14  18
ATOM     18  C   UNL A   1      34.916  24.199  25.745  1.00  0.00     0.068 C 
ATOM     19  N   UNL A   1      35.227  20.620  25.091  1.00  0.00    -0.261 N 
ATOM     20  C   UNL A   1      34.468  21.765  25.289  1.00  0.00     0.270 C 
ATOM     21  C   UNL A   1      36.602  20.778  25.138  1.00  0.00     0.152 C 
ATOM     22  O   UNL A   1      33.242  21.800  25.347  1.00  0.00    -0.268 OA
ATOM     23  C   UNL A   1      35.341  22.956  25.477  1.00  0.00     0.084 C 
ATOM     24  S   UNL A   1      36.992  22.491  25.364  1.00  0.00    -0.054 SA
ATOM     25  S   UNL A   1      37.815  19.649  24.915  1.00  0.00    -0.051 S 
BRANCH  19  26
ATOM     26  C   UNL A   1      34.525  19.397  24.872  1.00  0.00     0.051 A 
ATOM     27  C   UNL A   1      33.183  16.932  24.749  1.00  0.00     0.119 A 
ATOM     28  C   UNL A   1      32.575  18.018  25.365  1.00  0.00     0.048 A 
ATOM     29  C   UNL A   1      34.437  17.080  24.155  1.00  0.00     0.048 A 
ATOM     30  C   UNL A   1      33.246  19.236  25.437  1.00  0.00     0.030 A 
ATOM     31  C   UNL A   1      35.108  18.310  24.214  1.00  0.00     0.030 A 
BRANCH  27  32
ATOM     32  O   UNL A   1      32.462  15.770  24.723  1.00  0.00    -0.497 OA
ATOM     33  C   UNL A   1      32.371  15.140  25.997  1.00  0.00     0.278 C 
ENDBRANCH  27  32
ENDBRANCH  19  26
ENDBRANCH  14  18
ENDBRANCH   7  13
ENDBRANCH   3   6
ENDBRANCH   1   2
BRANCH   1  34
ATOM     34  C   UNL A   1      34.357  28.651  24.149  1.00  0.00     0.042 C 
BRANCH  34  35
ATOM     35  C   UNL A   1      33.957  28.587  25.612  1.00  0.00     0.118 C 
BRANCH  35  36
ATOM     36  N   UNL A   1      33.660  29.897  26.180  1.00  0.00    -0.352 N 
ATOM     37  C   UNL A   1      34.238  30.588  27.218  1.00  0.00     0.251 C 
ATOM     38  H   UNL A   1      32.913  30.370  25.743  1.00  0.00     0.163 HD
ATOM     39  O   UNL A   1      33.679  31.594  27.648  1.00  0.00    -0.269 OA
BRANCH  37  40
ATOM     40  C   UNL A   1      35.505  30.127  27.834  1.00  0.00     0.039 A 
ATOM     41  C   UNL A   1      36.697  30.261  27.117  1.00  0.00     0.014 A 
ATOM     42  C   UNL A   1      35.524  29.534  29.097  1.00  0.00     0.014 A 
ATOM     43  C   UNL A   1      37.908  29.874  27.701  1.00  0.00     0.010 A 
ATOM     44  C   UNL A   1      36.736  29.254  29.719  1.00  0.00     0.010 A 
ATOM     45  C   UNL A   1      37.944  29.411  29.026  1.00  0.00    -0.014 A 
BRANCH  45  46
ATOM     46  C   UNL A   1      39.225  29.070  29.699  1.00  0.00     0.031 A 
ATOM     47  C   UNL A   1      39.700  29.884  30.876  1.00  0.00     0.074 A 
ATOM     48  C   UNL A   1      39.988  28.068  29.215  1.00  0.00     0.049 A 
ATOM     49  N   UNL A   1      40.826  29.800  31.537  1.00  0.00    -0.248 NA
ATOM     50  C   UNL A   1      38.806  30.951  31.356  1.00  0.00     0.031 C 
ATOM     51  C   UNL A   1      39.663  27.243  28.048  1.00  0.00     0.029 A 
ATOM     52  N   UNL A   1      41.200  27.579  29.634  1.00  0.00    -0.354 N 
ATOM     53  C   UNL A   1      40.774  30.797  32.505  1.00  0.00     0.074 A 
ATOM     54  C   UNL A   1      39.541  31.522  32.299  1.00  0.00     0.031 C 
ATOM     55  C   UNL A   1      40.637  26.339  27.860  1.00  0.00     0.029 A 
ATOM     56  C   UNL A   1      41.677  26.545  28.861  1.00  0.00     0.049 A 
ATOM     57  H   UNL A   1      41.683  27.934  30.415  1.00  0.00     0.167 HD
ATOM     58  C   UNL A   1      41.654  31.060  33.500  1.00  0.00     0.037 A 
ATOM     59  C   UNL A   1      42.830  25.851  28.942  1.00  0.00     0.037 A 
ATOM     60  C   UNL A   1      42.871  30.322  33.713  1.00  0.00     0.049 A 
ATOM     61  C   UNL A   1      43.802  26.181  30.045  1.00  0.00     0.074 A 
ATOM     62  C   UNL A   1      43.819  30.494  34.707  1.00  0.00     0.029 A 
ATOM     63  N   UNL A   1      43.304  29.264  32.927  1.00  0.00    -0.354 N 
ATOM     64  N   UNL A   1      43.707  27.095  30.981  1.00  0.00    -0.248 NA
ATOM     65  C   UNL A   1      45.031  25.379  30.110  1.00  0.00     0.031 C 
ATOM     66  C   UNL A   1      44.844  29.567  34.499  1.00  0.00     0.029 A 
ATOM     67  C   UNL A   1      44.509  28.781  33.408  1.00  0.00     0.049 A 
ATOM     68  H   UNL A   1      42.825  28.911  32.143  1.00  0.00     0.167 HD
ATOM     69  C   UNL A   1      44.849  26.954  31.765  1.00  0.00     0.074 A 
ATOM     70  C   UNL A   1      45.607  25.856  31.205  1.00  0.00     0.031 C 
ATOM     71  C   UNL A   1      45.238  27.671  32.848  1.00  0.00     0.037 A 
BRANCH  58  72
ATOM     72  C   UNL A   1      41.318  32.170  34.459  1.00  0.00     0.058 A 
ATOM     73  C   UNL A   1      41.698  33.497  34.199  1.00  0.00     0.135 A 
ATOM     74  C   UNL A   1      40.555  31.922  35.612  1.00  0.00     0.135 A 
ATOM     75  F   UNL A   1      42.446  33.787  33.123  1.00  0.00    -0.206 F 
ATOM     76  C   UNL A   1      41.343  34.537  35.051  1.00  0.00     0.059 A 
ATOM     77  C   UNL A   1      40.163  32.952  36.463  1.00  0.00     0.059 A 
ATOM     78  F   UNL A   1      40.168  30.672  35.912  1.00  0.00    -0.206 F 
ATOM     79  C   UNL A   1      40.567  34.256  36.177  1.00  0.00     0.060 A 
BRANCH  79  80
ATOM     80  S   UNL A   1      40.082  35.627  37.246  1.00  0.00     0.124 S 
ATOM     81  O   UNL A   1      41.310  35.858  38.001  1.00  0.00    -0.237 OA
ATOM     82  O   UNL A   1      39.729  36.662  36.280  1.00  0.00    -0.237 OA
ATOM     83  O   UNL A   1      38.967  35.082  38.014  1.00  0.00    -0.744 OA
ENDBRANCH  79  80
ENDBRANCH  58  72
BRANCH  59  84
ATOM     84  C   UNL A   1      43.139  24.778  27.956  1.00  0.00     0.058 A 
ATOM     85  C   UNL A   1      42.788  23.442  28.201  1.00  0.00     0.135 A 
ATOM     86  C   UNL A   1      43.828  25.061  26.765  1.00  0.00     0.135 A 
ATOM     87  F   UNL A   1      42.128  23.118  29.324  1.00  0.00    -0.206 F 
ATOM     88  C   UNL A   1      43.147  22.420  27.328  1.00  0.00     0.059 A 
ATOM     89  C   UNL A   1      44.169  24.062  25.861  1.00  0.00     0.059 A 
ATOM     90  F   UNL A   1      44.168  26.326  26.468  1.00  0.00    -0.206 F 
ATOM     91  C   UNL A   1      43.844  22.741  26.162  1.00  0.00     0.060 A 
BRANCH  91  92
ATOM     92  S   UNL A   1      44.311  21.408  25.036  1.00  0.00     0.124 S 
ATOM     93  O   UNL A   1      44.169  22.058  23.739  1.00  0.00    -0.237 OA
ATOM     94  O   UNL A   1      45.676  21.114  25.458  1.00  0.00    -0.237 OA
ATOM     95  O   UNL A   1      43.333  20.364  25.331  1.00  0.00    -0.744 OA
ENDBRANCH  91  92
ENDBRANCH  59  84
BRANCH  71  96
ATOM     96  C   UNL A   1      46.514  27.258  33.529  1.00  0.00     0.058 A 
ATOM     97  C   UNL A   1      47.750  27.831  33.197  1.00  0.00     0.135 A 
ATOM     98  C   UNL A   1      46.489  26.304  34.561  1.00  0.00     0.135 A 
ATOM     99  F   UNL A   1      47.830  28.744  32.215  1.00  0.00    -0.206 F 
ATOM    100  C   UNL A   1      48.924  27.451  33.840  1.00  0.00     0.059 A 
ATOM    101  C   UNL A   1      47.644  25.932  35.240  1.00  0.00     0.059 A 
ATOM    102  F   UNL A   1      45.330  25.733  34.927  1.00  0.00    -0.206 F 
ATOM    103  C   UNL A   1      48.859  26.502  34.862  1.00  0.00     0.060 A 
BRANCH 103 104
ATOM    104  S   UNL A   1      50.386  26.038  35.706  1.00  0.00     0.124 S 
ATOM    105  O   UNL A   1      51.098  27.310  35.746  1.00  0.00    -0.237 OA
ATOM    106  O   UNL A   1      49.895  25.544  36.989  1.00  0.00    -0.237 OA
ATOM    107  O   UNL A   1      50.964  25.022  34.831  1.00  0.00    -0.744 OA
ENDBRANCH 103 104
ENDBRANCH  71  96
ENDBRANCH  45  46
ENDBRANCH  37  40
ENDBRANCH  35  36
ENDBRANCH  34  35
ENDBRANCH   1  34
TORSDOF 17
ENDMDL
MODEL 3
REMARK VINA RESULT:     -11.4      5.142     12.855
REMARK SMILES COc1ccc(N2C(=O)/C(=C\c3ccc(-c4ccc(Cl)c(C(=O)NCCCNC(=O)c5ccc(-c6c7nc(c(-c8c(F)cc(S(=O)(=O)[O-])cc8F)c8ccc([nH]8)c(-c8c(F)cc(S(=O)(=O)[O-])cc8F)c8nc(c(-c9c(F)cc(S(=O)(=O)[O-])cc9F)c9ccc6[nH]9)C=C8)C=C7)cc5)c4)o3)SC2=S)cc1
REMARK SMILES IDX 25 1 24 2 22 3 23 4 21 6 16 7 17 8 97 9 18 10 19 11 20 12
REMARK SMILES IDX 15 13 12 14 13 15 98 16 14 17 11 18 7 19 8 20 100 21 9 22
REMARK SMILES IDX 10 23 99 24 101 25 6 26 3 27 4 28 103 29 5 30 102 31 2 32
REMARK SMILES IDX 1 33 26 34 27 35 28 36 29 37 30 39 31 40 32 41 96 42 33 43
REMARK SMILES IDX 95 44 34 45 35 46 36 47 89 48 37 49 94 50 88 51 90 52 38 53
REMARK SMILES IDX 93 54 87 55 86 56 39 58 73 59 52 60 72 61 53 62 56 63 71 64
REMARK SMILES IDX 91 65 54 66 55 67 70 69 92 70 57 71 40 72 41 73 50 74 42 75
REMARK SMILES IDX 43 76 49 77 51 78 44 79 45 80 46 81 47 82 48 83 74 84 75 85
REMARK SMILES IDX 84 86 76 87 77 88 83 89 85 90 78 91 79 92 80 93 81 94 82 95
REMARK SMILES IDX 58 96 59 97 68 98 60 99 61 100 67 101 69 102 62 103 63 104
REMARK SMILES IDX 64 105 65 106 66 107
REMARK H PARENT 24 5 28 38 90 57 56 68
REMARK Flexibility Score: inf
ROOT
ATOM      1  C   UNL A   1      35.426  32.778  30.901  1.00  0.00     0.118 C 
ENDROOT
BRANCH   1   2
ATOM      2  N   UNL A   1      36.559  33.706  30.857  1.00  0.00    -0.352 N 
ATOM      3  C   UNL A   1      37.747  33.825  31.559  1.00  0.00     0.252 C 
ATOM      4  O   UNL A   1      38.532  34.688  31.172  1.00  0.00    -0.269 OA
ATOM      5  H   UNL A   1      36.453  34.402  30.170  1.00  0.00     0.163 HD
BRANCH   3   6
ATOM      6  C   UNL A   1      38.075  32.982  32.748  1.00  0.00     0.059 A 
ATOM      7  C   UNL A   1      39.060  30.879  33.493  1.00  0.00     0.018 A 
ATOM      8  C   UNL A   1      38.416  31.001  34.720  1.00  0.00     0.013 A 
ATOM      9  C   UNL A   1      39.008  31.959  32.605  1.00  0.00     0.027 A 
ATOM     10  C   UNL A   1      37.675  32.155  34.996  1.00  0.00     0.022 A 
ATOM     11  C   UNL A   1      37.457  33.121  33.998  1.00  0.00     0.053 A 
ATOM     12  Cl  UNL A   1      36.404  34.426  34.417  1.00  0.00    -0.083 Cl
BRANCH   7  13
ATOM     13  C   UNL A   1      39.654  29.642  33.002  1.00  0.00     0.134 A 
ATOM     14  C   UNL A   1      41.382  28.339  32.511  1.00  0.00     0.128 A 
ATOM     15  C   UNL A   1      40.252  27.534  32.576  1.00  0.00     0.051 A 
ATOM     16  O   UNL A   1      41.008  29.629  32.817  1.00  0.00    -0.457 OA
ATOM     17  C   UNL A   1      39.150  28.370  32.831  1.00  0.00     0.051 A 
BRANCH  14  18
ATOM     18  C   UNL A   1      42.678  27.954  32.079  1.00  0.00     0.068 C 
ATOM     19  N   UNL A   1      44.504  27.025  35.102  1.00  0.00    -0.261 N 
ATOM     20  C   UNL A   1      43.334  27.362  34.436  1.00  0.00     0.270 C 
ATOM     21  C   UNL A   1      45.655  26.976  34.335  1.00  0.00     0.152 C 
ATOM     22  O   UNL A   1      42.237  27.518  34.965  1.00  0.00    -0.268 OA
ATOM     23  C   UNL A   1      43.590  27.566  32.983  1.00  0.00     0.084 C 
ATOM     24  S   UNL A   1      45.251  27.293  32.640  1.00  0.00    -0.054 SA
ATOM     25  S   UNL A   1      47.219  26.580  34.780  1.00  0.00    -0.051 S 
BRANCH  19  26
ATOM     26  C   UNL A   1      44.411  26.776  36.504  1.00  0.00     0.051 A 
ATOM     27  C   UNL A   1      44.544  26.315  39.273  1.00  0.00     0.119 A 
ATOM     28  C   UNL A   1      44.752  27.595  38.776  1.00  0.00     0.048 A 
ATOM     29  C   UNL A   1      44.226  25.273  38.401  1.00  0.00     0.048 A 
ATOM     30  C   UNL A   1      44.699  27.820  37.402  1.00  0.00     0.030 A 
ATOM     31  C   UNL A   1      44.158  25.501  37.018  1.00  0.00     0.030 A 
BRANCH  27  32
ATOM     32  O   UNL A   1      44.617  26.175  40.631  1.00  0.00    -0.497 OA
ATOM     33  C   UNL A   1      45.122  27.335  41.286  1.00  0.00     0.278 C 
ENDBRANCH  27  32
ENDBRANCH  19  26
ENDBRANCH  14  18
ENDBRANCH   7  13
ENDBRANCH   3   6
ENDBRANCH   1   2
BRANCH   1  34
ATOM     34  C   UNL A   1      34.356  33.018  29.850  1.00  0.00     0.042 C 
BRANCH  34  35
ATOM     35  C   UNL A   1      34.654  32.423  28.487  1.00  0.00     0.118 C 
BRANCH  35  36
ATOM     36  N   UNL A   1      34.103  31.083  28.317  1.00  0.00    -0.352 N 
ATOM     37  C   UNL A   1      34.718  29.864  28.148  1.00  0.00     0.251 C 
ATOM     38  H   UNL A   1      33.119  31.044  28.324  1.00  0.00     0.163 HD
ATOM     39  O   UNL A   1      34.038  28.896  27.819  1.00  0.00    -0.269 OA
BRANCH  37  40
ATOM     40  C   UNL A   1      36.180  29.711  28.335  1.00  0.00     0.039 A 
ATOM     41  C   UNL A   1      36.667  29.313  29.584  1.00  0.00     0.014 A 
ATOM     42  C   UNL A   1      37.077  29.987  27.303  1.00  0.00     0.014 A 
ATOM     43  C   UNL A   1      38.040  29.119  29.766  1.00  0.00     0.010 A 
ATOM     44  C   UNL A   1      38.427  29.686  27.451  1.00  0.00     0.010 A 
ATOM     45  C   UNL A   1      38.928  29.257  28.687  1.00  0.00    -0.014 A 
BRANCH  45  46
ATOM     46  C   UNL A   1      40.381  28.977  28.832  1.00  0.00     0.031 A 
ATOM     47  C   UNL A   1      41.322  30.073  29.266  1.00  0.00     0.074 A 
ATOM     48  C   UNL A   1      40.861  27.756  28.517  1.00  0.00     0.049 A 
ATOM     49  N   UNL A   1      42.626  30.050  29.364  1.00  0.00    -0.248 NA
ATOM     50  C   UNL A   1      40.721  31.374  29.607  1.00  0.00     0.031 C 
ATOM     51  C   UNL A   1      40.059  26.629  28.032  1.00  0.00     0.029 A 
ATOM     52  N   UNL A   1      42.140  27.260  28.544  1.00  0.00    -0.354 N 
ATOM     53  C   UNL A   1      42.999  31.325  29.777  1.00  0.00     0.074 A 
ATOM     54  C   UNL A   1      41.792  32.119  29.839  1.00  0.00     0.031 C 
ATOM     55  C   UNL A   1      40.860  25.571  27.831  1.00  0.00     0.029 A 
ATOM     56  C   UNL A   1      42.236  25.952  28.126  1.00  0.00     0.049 A 
ATOM     57  H   UNL A   1      42.917  27.790  28.835  1.00  0.00     0.167 HD
ATOM     58  C   UNL A   1      44.228  31.783  30.113  1.00  0.00     0.037 A 
ATOM     59  C   UNL A   1      43.314  25.155  27.984  1.00  0.00     0.037 A 
ATOM     60  C   UNL A   1      45.424  30.982  30.068  1.00  0.00     0.049 A 
ATOM     61  C   UNL A   1      44.672  25.698  28.342  1.00  0.00     0.074 A 
ATOM     62  C   UNL A   1      46.715  31.345  30.410  1.00  0.00     0.029 A 
ATOM     63  N   UNL A   1      45.473  29.655  29.668  1.00  0.00    -0.354 N 
ATOM     64  N   UNL A   1      44.994  26.892  28.780  1.00  0.00    -0.248 NA
ATOM     65  C   UNL A   1      45.813  24.783  28.198  1.00  0.00     0.031 C 
ATOM     66  C   UNL A   1      47.552  30.249  30.180  1.00  0.00     0.029 A 
ATOM     67  C   UNL A   1      46.775  29.188  29.745  1.00  0.00     0.049 A 
ATOM     68  H   UNL A   1      44.699  29.125  29.372  1.00  0.00     0.167 HD
ATOM     69  C   UNL A   1      46.369  26.859  28.994  1.00  0.00     0.074 A 
ATOM     70  C   UNL A   1      46.812  25.523  28.657  1.00  0.00     0.031 C 
ATOM     71  C   UNL A   1      47.192  27.846  29.426  1.00  0.00     0.037 A 
BRANCH  58  72
ATOM     72  C   UNL A   1      44.342  33.204  30.592  1.00  0.00     0.058 A 
ATOM     73  C   UNL A   1      44.306  33.516  31.961  1.00  0.00     0.135 A 
ATOM     74  C   UNL A   1      44.557  34.257  29.687  1.00  0.00     0.135 A 
ATOM     75  F   UNL A   1      44.083  32.552  32.869  1.00  0.00    -0.206 F 
ATOM     76  C   UNL A   1      44.468  34.820  32.416  1.00  0.00     0.059 A 
ATOM     77  C   UNL A   1      44.751  35.565  30.122  1.00  0.00     0.059 A 
ATOM     78  F   UNL A   1      44.596  34.016  28.367  1.00  0.00    -0.206 F 
ATOM     79  C   UNL A   1      44.698  35.838  31.488  1.00  0.00     0.060 A 
BRANCH  79  80
ATOM     80  S   UNL A   1      44.949  37.516  32.103  1.00  0.00     0.124 S 
ATOM     81  O   UNL A   1      45.125  38.260  30.859  1.00  0.00    -0.237 OA
ATOM     82  O   UNL A   1      43.704  37.771  32.821  1.00  0.00    -0.237 OA
ATOM     83  O   UNL A   1      46.140  37.400  32.938  1.00  0.00    -0.744 OA
ENDBRANCH  79  80
ENDBRANCH  58  72
BRANCH  59  84
ATOM     84  C   UNL A   1      43.163  23.762  27.479  1.00  0.00     0.058 A 
ATOM     85  C   UNL A   1      43.433  23.440  26.140  1.00  0.00     0.135 A 
ATOM     86  C   UNL A   1      42.706  22.730  28.316  1.00  0.00     0.135 A 
ATOM     87  F   UNL A   1      43.872  24.388  25.299  1.00  0.00    -0.206 F 
ATOM     88  C   UNL A   1      43.212  22.162  25.637  1.00  0.00     0.059 A 
ATOM     89  C   UNL A   1      42.510  21.437  27.845  1.00  0.00     0.059 A 
ATOM     90  F   UNL A   1      42.454  22.976  29.612  1.00  0.00    -0.206 F 
ATOM     91  C   UNL A   1      42.744  21.167  26.498  1.00  0.00     0.060 A 
BRANCH  91  92
ATOM     92  S   UNL A   1      42.456  19.512  25.836  1.00  0.00     0.124 S 
ATOM     93  O   UNL A   1      42.802  18.676  26.979  1.00  0.00    -0.237 OA
ATOM     94  O   UNL A   1      41.041  19.563  25.486  1.00  0.00    -0.237 OA
ATOM     95  O   UNL A   1      43.373  19.442  24.702  1.00  0.00    -0.744 OA
ENDBRANCH  91  92
ENDBRANCH  59  84
BRANCH  71  96
ATOM     96  C   UNL A   1      48.646  27.504  29.609  1.00  0.00     0.058 A 
ATOM     97  C   UNL A   1      49.602  27.779  28.621  1.00  0.00     0.135 A 
ATOM     98  C   UNL A   1      49.092  26.932  30.812  1.00  0.00     0.135 A 
ATOM     99  F   UNL A   1      49.227  28.321  27.450  1.00  0.00    -0.206 F 
ATOM    100  C   UNL A   1      50.946  27.469  28.803  1.00  0.00     0.059 A 
ATOM    101  C   UNL A   1      50.435  26.644  31.030  1.00  0.00     0.059 A 
ATOM    102  F   UNL A   1      48.221  26.659  31.797  1.00  0.00    -0.206 F 
ATOM    103  C   UNL A   1      51.352  26.904  30.013  1.00  0.00     0.060 A 
BRANCH 103 104
ATOM    104  S   UNL A   1      53.103  26.532  30.246  1.00  0.00     0.124 S 
ATOM    105  O   UNL A   1      53.051  25.509  31.284  1.00  0.00    -0.237 OA
ATOM    106  O   UNL A   1      53.504  26.073  28.920  1.00  0.00    -0.237 OA
ATOM    107  O   UNL A   1      53.671  27.813  30.656  1.00  0.00    -0.744 OA
ENDBRANCH 103 104
ENDBRANCH  71  96
ENDBRANCH  45  46
ENDBRANCH  37  40
ENDBRANCH  35  36
ENDBRANCH  34  35
ENDBRANCH   1  34
TORSDOF 17
ENDMDL
