MODEL 1
REMARK VINA RESULT:     -12.8      0.000      0.000
REMARK SMILES C/C(=C(/F)C(=O)NCCCNC(=O)c1ccc(-c2c3nc(c(-c4c(F)cc(S(=O)(=O)[O-])cc4F)c4ccc([nH]4)c(-c4c(F)cc(S(=O)(=O)[O-])cc4F)c4nc(c(-c5c(F)cc(S(=O)(=O)[O-])cc5F)c5ccc2[nH]5)C=C4)C=C3)cc1)c1cccc(-n2cnnn2)c1
REMARK SMILES IDX 9 1 8 2 7 3 5 4 6 5 3 7 1 8 2 9 4 10 80 11 81 12 90 13 82 14
REMARK SMILES IDX 84 15 83 16 85 17 86 18 89 19 87 20 88 21 10 22 11 23 12 24
REMARK SMILES IDX 13 26 14 27 15 28 79 29 16 30 78 31 17 32 18 33 19 34 72 35
REMARK SMILES IDX 20 36 77 37 71 38 73 39 21 40 76 41 70 42 69 43 22 45 56 46
REMARK SMILES IDX 35 47 55 48 36 49 39 50 54 51 74 52 37 53 38 54 53 56 75 57
REMARK SMILES IDX 40 58 23 59 24 60 33 61 25 62 26 63 32 64 34 65 27 66 28 67
REMARK SMILES IDX 29 68 30 69 31 70 57 71 58 72 67 73 59 74 60 75 66 76 68 77
REMARK SMILES IDX 61 78 62 79 63 80 64 81 65 82 41 83 42 84 51 85 43 86 44 87
REMARK SMILES IDX 50 88 52 89 45 90 46 91 47 92 48 93 49 94
REMARK H PARENT 7 6 11 25 73 44 39 55
REMARK Flexibility Score: inf
ROOT
ATOM      1  C   UNL A   1      37.443  23.227  25.727  1.00  0.00     0.042 C 
ENDROOT
BRANCH   1   2
ATOM      2  C   UNL A   1      36.012  23.706  25.500  1.00  0.00     0.118 C 
BRANCH   2   3
ATOM      3  N   UNL A   1      35.185  23.495  26.678  1.00  0.00    -0.350 N 
ATOM      4  C   UNL A   1      34.247  22.545  26.957  1.00  0.00     0.280 C 
ATOM      5  O   UNL A   1      33.659  22.626  28.035  1.00  0.00    -0.267 OA
ATOM      6  H   UNL A   1      35.328  24.151  27.397  1.00  0.00     0.163 HD
BRANCH   4   7
ATOM      7  C   UNL A   1      33.986  21.444  25.983  1.00  0.00     0.191 C 
ATOM      8  C   UNL A   1      31.556  22.016  25.441  1.00  0.00     0.048 C 
ATOM      9  C   UNL A   1      32.820  21.204  25.350  1.00  0.00    -0.002 C 
ATOM     10  F   UNL A   1      35.044  20.641  25.726  1.00  0.00    -0.201 F 
BRANCH   9  11
ATOM     11  C   UNL A   1      32.715  19.996  24.499  1.00  0.00    -0.017 A 
ATOM     12  C   UNL A   1      32.335  20.119  23.153  1.00  0.00     0.008 A 
ATOM     13  C   UNL A   1      33.049  18.731  25.002  1.00  0.00     0.037 A 
ATOM     14  C   UNL A   1      32.301  19.002  22.317  1.00  0.00     0.003 A 
ATOM     15  C   UNL A   1      33.024  17.607  24.159  1.00  0.00     0.069 A 
ATOM     16  C   UNL A   1      32.659  17.750  22.812  1.00  0.00     0.028 A 
BRANCH  15  17
ATOM     17  N   UNL A   1      33.380  16.331  24.649  1.00  0.00    -0.201 N 
ATOM     18  C   UNL A   1      32.587  15.350  25.192  1.00  0.00     0.252 A 
ATOM     19  N   UNL A   1      34.658  15.884  24.662  1.00  0.00    -0.040 NA
ATOM     20  N   UNL A   1      33.341  14.346  25.580  1.00  0.00    -0.117 NA
ATOM     21  N   UNL A   1      34.623  14.696  25.249  1.00  0.00    -0.024 NA
ENDBRANCH  15  17
ENDBRANCH   9  11
ENDBRANCH   4   7
ENDBRANCH   2   3
ENDBRANCH   1   2
BRANCH   1  22
ATOM     22  C   UNL A   1      38.334  24.256  26.424  1.00  0.00     0.118 C 
BRANCH  22  23
ATOM     23  N   UNL A   1      39.732  24.136  26.035  1.00  0.00    -0.352 N 
ATOM     24  C   UNL A   1      40.825  24.871  26.411  1.00  0.00     0.251 C 
ATOM     25  H   UNL A   1      39.922  23.409  25.399  1.00  0.00     0.163 HD
ATOM     26  O   UNL A   1      41.884  24.715  25.800  1.00  0.00    -0.269 OA
BRANCH  24  27
ATOM     27  C   UNL A   1      40.753  25.840  27.526  1.00  0.00     0.039 A 
ATOM     28  C   UNL A   1      39.779  25.655  28.513  1.00  0.00     0.014 A 
ATOM     29  C   UNL A   1      41.585  26.962  27.574  1.00  0.00     0.014 A 
ATOM     30  C   UNL A   1      39.659  26.574  29.557  1.00  0.00     0.010 A 
ATOM     31  C   UNL A   1      41.513  27.839  28.656  1.00  0.00     0.010 A 
ATOM     32  C   UNL A   1      40.536  27.667  29.647  1.00  0.00    -0.014 A 
BRANCH  32  33
ATOM     33  C   UNL A   1      40.405  28.665  30.739  1.00  0.00     0.031 A 
ATOM     34  C   UNL A   1      41.276  28.555  31.965  1.00  0.00     0.074 A 
ATOM     35  C   UNL A   1      39.486  29.647  30.648  1.00  0.00     0.049 A 
ATOM     36  N   UNL A   1      41.269  29.283  33.052  1.00  0.00    -0.248 NA
ATOM     37  C   UNL A   1      42.268  27.468  31.980  1.00  0.00     0.031 C 
ATOM     38  C   UNL A   1      38.554  29.834  29.533  1.00  0.00     0.029 A 
ATOM     39  N   UNL A   1      39.180  30.670  31.510  1.00  0.00    -0.354 N 
ATOM     40  C   UNL A   1      42.247  28.741  33.879  1.00  0.00     0.074 A 
ATOM     41  C   UNL A   1      42.784  27.584  33.195  1.00  0.00     0.031 C 
ATOM     42  C   UNL A   1      37.790  30.912  29.774  1.00  0.00     0.029 A 
ATOM     43  C   UNL A   1      38.156  31.477  31.069  1.00  0.00     0.049 A 
ATOM     44  H   UNL A   1      39.648  30.812  32.363  1.00  0.00     0.167 HD
ATOM     45  C   UNL A   1      42.683  29.183  35.083  1.00  0.00     0.037 A 
ATOM     46  C   UNL A   1      37.579  32.547  31.647  1.00  0.00     0.037 A 
ATOM     47  C   UNL A   1      42.167  30.349  35.748  1.00  0.00     0.049 A 
ATOM     48  C   UNL A   1      38.097  33.031  32.976  1.00  0.00     0.074 A 
ATOM     49  C   UNL A   1      42.544  30.885  36.967  1.00  0.00     0.029 A 
ATOM     50  N   UNL A   1      41.172  31.172  35.243  1.00  0.00    -0.354 N 
ATOM     51  N   UNL A   1      39.041  32.518  33.730  1.00  0.00    -0.248 NA
ATOM     52  C   UNL A   1      37.488  34.250  33.523  1.00  0.00     0.031 C 
ATOM     53  C   UNL A   1      41.764  32.023  37.207  1.00  0.00     0.029 A 
ATOM     54  C   UNL A   1      40.931  32.217  36.117  1.00  0.00     0.049 A 
ATOM     55  H   UNL A   1      40.705  31.033  34.387  1.00  0.00     0.167 HD
ATOM     56  C   UNL A   1      39.164  33.374  34.819  1.00  0.00     0.074 A 
ATOM     57  C   UNL A   1      38.206  34.443  34.620  1.00  0.00     0.031 C 
ATOM     58  C   UNL A   1      39.993  33.287  35.888  1.00  0.00     0.037 A 
BRANCH  45  59
ATOM     59  C   UNL A   1      43.798  28.418  35.745  1.00  0.00     0.058 A 
ATOM     60  C   UNL A   1      45.144  28.759  35.530  1.00  0.00     0.135 A 
ATOM     61  C   UNL A   1      43.523  27.368  36.636  1.00  0.00     0.135 A 
ATOM     62  F   UNL A   1      45.464  29.740  34.672  1.00  0.00    -0.206 F 
ATOM     63  C   UNL A   1      46.177  28.074  36.159  1.00  0.00     0.059 A 
ATOM     64  C   UNL A   1      44.541  26.688  37.299  1.00  0.00     0.059 A 
ATOM     65  F   UNL A   1      42.256  26.999  36.876  1.00  0.00    -0.206 F 
ATOM     66  C   UNL A   1      45.867  27.042  37.044  1.00  0.00     0.060 A 
BRANCH  66  67
ATOM     67  S   UNL A   1      47.221  26.181  37.871  1.00  0.00     0.124 S 
ATOM     68  O   UNL A   1      48.385  26.835  37.280  1.00  0.00    -0.237 OA
ATOM     69  O   UNL A   1      46.971  26.484  39.277  1.00  0.00    -0.237 OA
ATOM     70  O   UNL A   1      47.022  24.787  37.489  1.00  0.00    -0.744 OA
ENDBRANCH  66  67
ENDBRANCH  45  59
BRANCH  46  71
ATOM     71  C   UNL A   1      36.458  33.254  30.969  1.00  0.00     0.058 A 
ATOM     72  C   UNL A   1      36.681  34.054  29.839  1.00  0.00     0.135 A 
ATOM     73  C   UNL A   1      35.145  33.167  31.459  1.00  0.00     0.135 A 
ATOM     74  F   UNL A   1      37.919  34.169  29.334  1.00  0.00    -0.206 F 
ATOM     75  C   UNL A   1      35.653  34.777  29.242  1.00  0.00     0.059 A 
ATOM     76  C   UNL A   1      34.095  33.857  30.862  1.00  0.00     0.059 A 
ATOM     77  F   UNL A   1      34.874  32.397  32.524  1.00  0.00    -0.206 F 
ATOM     78  C   UNL A   1      34.364  34.677  29.766  1.00  0.00     0.060 A 
BRANCH  78  79
ATOM     79  S   UNL A   1      33.032  35.614  28.984  1.00  0.00     0.124 S 
ATOM     80  O   UNL A   1      33.777  36.668  28.306  1.00  0.00    -0.237 OA
ATOM     81  O   UNL A   1      32.413  34.611  28.124  1.00  0.00    -0.237 OA
ATOM     82  O   UNL A   1      32.218  36.045  30.117  1.00  0.00    -0.744 OA
ENDBRANCH  78  79
ENDBRANCH  46  71
BRANCH  58  83
ATOM     83  C   UNL A   1      39.951  34.411  36.886  1.00  0.00     0.058 A 
ATOM     84  C   UNL A   1      40.731  35.568  36.735  1.00  0.00     0.135 A 
ATOM     85  C   UNL A   1      39.101  34.332  38.001  1.00  0.00     0.135 A 
ATOM     86  F   UNL A   1      41.561  35.692  35.688  1.00  0.00    -0.206 F 
ATOM     87  C   UNL A   1      40.701  36.589  37.679  1.00  0.00     0.059 A 
ATOM     88  C   UNL A   1      39.034  35.354  38.941  1.00  0.00     0.059 A 
ATOM     89  F   UNL A   1      38.323  33.253  38.183  1.00  0.00    -0.206 F 
ATOM     90  C   UNL A   1      39.853  36.470  38.783  1.00  0.00     0.060 A 
BRANCH  90  91
ATOM     91  S   UNL A   1      39.823  37.801  40.002  1.00  0.00     0.124 S 
ATOM     92  O   UNL A   1      38.651  38.560  39.578  1.00  0.00    -0.237 OA
ATOM     93  O   UNL A   1      39.687  37.073  41.260  1.00  0.00    -0.237 OA
ATOM     94  O   UNL A   1      41.108  38.467  39.807  1.00  0.00    -0.744 OA
ENDBRANCH  90  91
ENDBRANCH  58  83
ENDBRANCH  32  33
ENDBRANCH  24  27
ENDBRANCH  22  23
ENDBRANCH   1  22
TORSDOF 15
ENDMDL
MODEL 2
REMARK VINA RESULT:     -12.7      6.020     11.482
REMARK SMILES C/C(=C(/F)C(=O)NCCCNC(=O)c1ccc(-c2c3nc(c(-c4c(F)cc(S(=O)(=O)[O-])cc4F)c4ccc([nH]4)c(-c4c(F)cc(S(=O)(=O)[O-])cc4F)c4nc(c(-c5c(F)cc(S(=O)(=O)[O-])cc5F)c5ccc2[nH]5)C=C4)C=C3)cc1)c1cccc(-n2cnnn2)c1
REMARK SMILES IDX 9 1 8 2 7 3 5 4 6 5 3 7 1 8 2 9 4 10 80 11 81 12 90 13 82 14
REMARK SMILES IDX 84 15 83 16 85 17 86 18 89 19 87 20 88 21 10 22 11 23 12 24
REMARK SMILES IDX 13 26 14 27 15 28 79 29 16 30 78 31 17 32 18 33 19 34 72 35
REMARK SMILES IDX 20 36 77 37 71 38 73 39 21 40 76 41 70 42 69 43 22 45 56 46
REMARK SMILES IDX 35 47 55 48 36 49 39 50 54 51 74 52 37 53 38 54 53 56 75 57
REMARK SMILES IDX 40 58 23 59 24 60 33 61 25 62 26 63 32 64 34 65 27 66 28 67
REMARK SMILES IDX 29 68 30 69 31 70 57 71 58 72 67 73 59 74 60 75 66 76 68 77
REMARK SMILES IDX 61 78 62 79 63 80 64 81 65 82 41 83 42 84 51 85 43 86 44 87
REMARK SMILES IDX 50 88 52 89 45 90 46 91 47 92 48 93 49 94
REMARK H PARENT 7 6 11 25 73 44 39 55
REMARK Flexibility Score: inf
ROOT
ATOM      1  C   UNL A   1      33.801  27.735  26.023  1.00  0.00     0.042 C 
ENDROOT
BRANCH   1   2
ATOM      2  C   UNL A   1      33.504  26.258  25.774  1.00  0.00     0.118 C 
BRANCH   2   3
ATOM      3  N   UNL A   1      33.974  25.832  24.466  1.00  0.00    -0.350 N 
ATOM      4  C   UNL A   1      33.386  25.894  23.236  1.00  0.00     0.280 C 
ATOM      5  O   UNL A   1      34.003  25.415  22.286  1.00  0.00    -0.267 OA
ATOM      6  H   UNL A   1      34.872  25.429  24.468  1.00  0.00     0.163 HD
BRANCH   4   7
ATOM      7  C   UNL A   1      32.053  26.550  23.078  1.00  0.00     0.191 C 
ATOM      8  C   UNL A   1      32.875  28.940  22.705  1.00  0.00     0.048 C 
ATOM      9  C   UNL A   1      31.836  27.864  22.873  1.00  0.00    -0.002 C 
ATOM     10  F   UNL A   1      30.992  25.714  23.137  1.00  0.00    -0.201 F 
BRANCH   9  11
ATOM     11  C   UNL A   1      30.437  28.351  22.849  1.00  0.00    -0.017 A 
ATOM     12  C   UNL A   1      29.391  27.498  23.234  1.00  0.00     0.008 A 
ATOM     13  C   UNL A   1      30.144  29.678  22.502  1.00  0.00     0.037 A 
ATOM     14  C   UNL A   1      28.076  27.961  23.288  1.00  0.00     0.003 A 
ATOM     15  C   UNL A   1      28.821  30.148  22.565  1.00  0.00     0.069 A 
ATOM     16  C   UNL A   1      27.791  29.287  22.969  1.00  0.00     0.028 A 
BRANCH  15  17
ATOM     17  N   UNL A   1      28.517  31.490  22.241  1.00  0.00    -0.201 N 
ATOM     18  C   UNL A   1      28.740  32.635  22.964  1.00  0.00     0.252 A 
ATOM     19  N   UNL A   1      27.900  31.841  21.089  1.00  0.00    -0.040 NA
ATOM     20  N   UNL A   1      28.237  33.662  22.318  1.00  0.00    -0.117 NA
ATOM     21  N   UNL A   1      27.715  33.151  21.159  1.00  0.00    -0.024 NA
ENDBRANCH  15  17
ENDBRANCH   9  11
ENDBRANCH   4   7
ENDBRANCH   2   3
ENDBRANCH   1   2
BRANCH   1  22
ATOM     22  C   UNL A   1      33.421  28.210  27.425  1.00  0.00     0.118 C 
BRANCH  22  23
ATOM     23  N   UNL A   1      33.383  29.662  27.529  1.00  0.00    -0.352 N 
ATOM     24  C   UNL A   1      34.338  30.548  27.953  1.00  0.00     0.251 C 
ATOM     25  H   UNL A   1      32.534  30.074  27.249  1.00  0.00     0.163 HD
ATOM     26  O   UNL A   1      34.015  31.722  28.144  1.00  0.00    -0.269 OA
BRANCH  24  27
ATOM     27  C   UNL A   1      35.735  30.120  28.184  1.00  0.00     0.039 A 
ATOM     28  C   UNL A   1      36.110  29.728  29.473  1.00  0.00     0.014 A 
ATOM     29  C   UNL A   1      36.691  30.167  27.166  1.00  0.00     0.014 A 
ATOM     30  C   UNL A   1      37.431  29.357  29.733  1.00  0.00     0.010 A 
ATOM     31  C   UNL A   1      37.992  29.726  27.410  1.00  0.00     0.010 A 
ATOM     32  C   UNL A   1      38.381  29.337  28.700  1.00  0.00    -0.014 A 
BRANCH  32  33
ATOM     33  C   UNL A   1      39.795  28.967  28.966  1.00  0.00     0.031 A 
ATOM     34  C   UNL A   1      40.739  29.983  29.556  1.00  0.00     0.074 A 
ATOM     35  C   UNL A   1      40.239  27.734  28.650  1.00  0.00     0.049 A 
ATOM     36  N   UNL A   1      42.020  29.878  29.800  1.00  0.00    -0.248 NA
ATOM     37  C   UNL A   1      40.173  31.300  29.893  1.00  0.00     0.031 C 
ATOM     38  C   UNL A   1      39.434  26.676  28.033  1.00  0.00     0.029 A 
ATOM     39  N   UNL A   1      41.478  27.164  28.797  1.00  0.00    -0.354 N 
ATOM     40  C   UNL A   1      42.412  31.111  30.311  1.00  0.00     0.074 A 
ATOM     41  C   UNL A   1      41.248  31.969  30.283  1.00  0.00     0.031 C 
ATOM     42  C   UNL A   1      40.198  25.583  27.868  1.00  0.00     0.029 A 
ATOM     43  C   UNL A   1      41.549  25.869  28.338  1.00  0.00     0.049 A 
ATOM     44  H   UNL A   1      42.244  27.637  29.193  1.00  0.00     0.167 HD
ATOM     45  C   UNL A   1      43.622  31.486  30.792  1.00  0.00     0.037 A 
ATOM     46  C   UNL A   1      42.588  25.013  28.299  1.00  0.00     0.037 A 
ATOM     47  C   UNL A   1      44.771  30.622  30.844  1.00  0.00     0.049 A 
ATOM     48  C   UNL A   1      43.917  25.448  28.859  1.00  0.00     0.074 A 
ATOM     49  C   UNL A   1      46.041  30.903  31.318  1.00  0.00     0.029 A 
ATOM     50  N   UNL A   1      44.786  29.301  30.423  1.00  0.00    -0.354 N 
ATOM     51  N   UNL A   1      44.261  26.611  29.362  1.00  0.00    -0.248 NA
ATOM     52  C   UNL A   1      44.994  24.449  28.867  1.00  0.00     0.031 C 
ATOM     53  C   UNL A   1      46.830  29.756  31.166  1.00  0.00     0.029 A 
ATOM     54  C   UNL A   1      46.038  28.750  30.637  1.00  0.00     0.049 A 
ATOM     55  H   UNL A   1      44.020  28.824  30.030  1.00  0.00     0.167 HD
ATOM     56  C   UNL A   1      45.578  26.468  29.781  1.00  0.00     0.074 A 
ATOM     57  C   UNL A   1      45.967  25.105  29.483  1.00  0.00     0.031 C 
ATOM     58  C   UNL A   1      46.397  27.382  30.360  1.00  0.00     0.037 A 
BRANCH  45  59
ATOM     59  C   UNL A   1      43.756  32.885  31.330  1.00  0.00     0.058 A 
ATOM     60  C   UNL A   1      44.192  33.942  30.514  1.00  0.00     0.135 A 
ATOM     61  C   UNL A   1      43.405  33.185  32.656  1.00  0.00     0.135 A 
ATOM     62  F   UNL A   1      44.560  33.708  29.245  1.00  0.00    -0.206 F 
ATOM     63  C   UNL A   1      44.292  35.242  30.997  1.00  0.00     0.059 A 
ATOM     64  C   UNL A   1      43.470  34.484  33.153  1.00  0.00     0.059 A 
ATOM     65  F   UNL A   1      42.985  32.213  33.481  1.00  0.00    -0.206 F 
ATOM     66  C   UNL A   1      43.927  35.504  32.317  1.00  0.00     0.060 A 
BRANCH  66  67
ATOM     67  S   UNL A   1      44.039  37.202  32.920  1.00  0.00     0.124 S 
ATOM     68  O   UNL A   1      45.404  37.236  33.436  1.00  0.00    -0.237 OA
ATOM     69  O   UNL A   1      43.801  37.980  31.708  1.00  0.00    -0.237 OA
ATOM     70  O   UNL A   1      42.985  37.276  33.927  1.00  0.00    -0.744 OA
ENDBRANCH  66  67
ENDBRANCH  45  59
BRANCH  46  71
ATOM     71  C   UNL A   1      42.417  23.649  27.728  1.00  0.00     0.058 A 
ATOM     72  C   UNL A   1      42.312  22.523  28.558  1.00  0.00     0.135 A 
ATOM     73  C   UNL A   1      42.387  23.443  26.340  1.00  0.00     0.135 A 
ATOM     74  F   UNL A   1      42.336  22.669  29.892  1.00  0.00    -0.206 F 
ATOM     75  C   UNL A   1      42.226  21.237  28.035  1.00  0.00     0.059 A 
ATOM     76  C   UNL A   1      42.273  22.169  25.793  1.00  0.00     0.059 A 
ATOM     77  F   UNL A   1      42.461  24.489  25.502  1.00  0.00    -0.206 F 
ATOM     78  C   UNL A   1      42.214  21.070  26.650  1.00  0.00     0.060 A 
BRANCH  78  79
ATOM     79  S   UNL A   1      42.098  19.398  25.976  1.00  0.00     0.124 S 
ATOM     80  O   UNL A   1      42.580  18.598  27.095  1.00  0.00    -0.237 OA
ATOM     81  O   UNL A   1      40.674  19.285  25.675  1.00  0.00    -0.237 OA
ATOM     82  O   UNL A   1      42.975  19.447  24.810  1.00  0.00    -0.744 OA
ENDBRANCH  78  79
ENDBRANCH  46  71
BRANCH  58  83
ATOM     83  C   UNL A   1      47.765  26.917  30.773  1.00  0.00     0.058 A 
ATOM     84  C   UNL A   1      48.000  26.312  32.017  1.00  0.00     0.135 A 
ATOM     85  C   UNL A   1      48.854  27.064  29.899  1.00  0.00     0.135 A 
ATOM     86  F   UNL A   1      46.994  26.148  32.891  1.00  0.00    -0.206 F 
ATOM     87  C   UNL A   1      49.276  25.908  32.398  1.00  0.00     0.059 A 
ATOM     88  C   UNL A   1      50.132  26.642  30.246  1.00  0.00     0.059 A 
ATOM     89  F   UNL A   1      48.679  27.623  28.690  1.00  0.00    -0.206 F 
ATOM     90  C   UNL A   1      50.338  26.083  31.507  1.00  0.00     0.060 A 
BRANCH  90  91
ATOM     91  S   UNL A   1      51.989  25.557  32.010  1.00  0.00     0.124 S 
ATOM     92  O   UNL A   1      52.780  25.914  30.837  1.00  0.00    -0.237 OA
ATOM     93  O   UNL A   1      52.226  26.363  33.204  1.00  0.00    -0.237 OA
ATOM     94  O   UNL A   1      51.830  24.126  32.250  1.00  0.00    -0.744 OA
ENDBRANCH  90  91
ENDBRANCH  58  83
ENDBRANCH  32  33
ENDBRANCH  24  27
ENDBRANCH  22  23
ENDBRANCH   1  22
TORSDOF 15
ENDMDL
MODEL 3
REMARK VINA RESULT:     -12.7      4.807     10.192
REMARK SMILES C/C(=C(/F)C(=O)NCCCNC(=O)c1ccc(-c2c3nc(c(-c4c(F)cc(S(=O)(=O)[O-])cc4F)c4ccc([nH]4)c(-c4c(F)cc(S(=O)(=O)[O-])cc4F)c4nc(c(-c5c(F)cc(S(=O)(=O)[O-])cc5F)c5ccc2[nH]5)C=C4)C=C3)cc1)c1cccc(-n2cnnn2)c1
REMARK SMILES IDX 9 1 8 2 7 3 5 4 6 5 3 7 1 8 2 9 4 10 80 11 81 12 90 13 82 14
REMARK SMILES IDX 84 15 83 16 85 17 86 18 89 19 87 20 88 21 10 22 11 23 12 24
REMARK SMILES IDX 13 26 14 27 15 28 79 29 16 30 78 31 17 32 18 33 19 34 72 35
REMARK SMILES IDX 20 36 77 37 71 38 73 39 21 40 76 41 70 42 69 43 22 45 56 46
REMARK SMILES IDX 35 47 55 48 36 49 39 50 54 51 74 52 37 53 38 54 53 56 75 57
REMARK SMILES IDX 40 58 23 59 24 60 33 61 25 62 26 63 32 64 34 65 27 66 28 67
REMARK SMILES IDX 29 68 30 69 31 70 57 71 58 72 67 73 59 74 60 75 66 76 68 77
REMARK SMILES IDX 61 78 62 79 63 80 64 81 65 82 41 83 42 84 51 85 43 86 44 87
REMARK SMILES IDX 50 88 52 89 45 90 46 91 47 92 48 93 49 94
REMARK H PARENT 7 6 11 25 73 44 39 55
REMARK Flexibility Score: inf
ROOT
ATOM      1  C   UNL A   1      32.265  27.690  26.502  1.00  0.00     0.042 C 
ENDROOT
BRANCH   1   2
ATOM      2  C   UNL A   1      32.344  26.215  26.116  1.00  0.00     0.118 C 
BRANCH   2   3
ATOM      3  N   UNL A   1      31.200  25.470  26.616  1.00  0.00    -0.350 N 
ATOM      4  C   UNL A   1      30.979  24.128  26.722  1.00  0.00     0.280 C 
ATOM      5  O   UNL A   1      29.885  23.764  27.152  1.00  0.00    -0.267 OA
ATOM      6  H   UNL A   1      30.456  26.032  26.932  1.00  0.00     0.163 HD
BRANCH   4   7
ATOM      7  C   UNL A   1      32.055  23.162  26.349  1.00  0.00     0.191 C 
ATOM      8  C   UNL A   1      31.580  23.052  23.841  1.00  0.00     0.048 C 
ATOM      9  C   UNL A   1      32.296  22.683  25.112  1.00  0.00    -0.002 C 
ATOM     10  F   UNL A   1      32.849  22.764  27.369  1.00  0.00    -0.201 F 
BRANCH   9  11
ATOM     11  C   UNL A   1      33.340  21.645  24.950  1.00  0.00    -0.017 A 
ATOM     12  C   UNL A   1      34.695  22.011  24.930  1.00  0.00     0.008 A 
ATOM     13  C   UNL A   1      32.999  20.286  24.875  1.00  0.00     0.037 A 
ATOM     14  C   UNL A   1      35.695  21.041  24.851  1.00  0.00     0.003 A 
ATOM     15  C   UNL A   1      34.005  19.308  24.804  1.00  0.00     0.069 A 
ATOM     16  C   UNL A   1      35.354  19.691  24.804  1.00  0.00     0.028 A 
BRANCH  15  17
ATOM     17  N   UNL A   1      33.673  17.936  24.752  1.00  0.00    -0.201 N 
ATOM     18  C   UNL A   1      32.676  17.253  25.404  1.00  0.00     0.252 A 
ATOM     19  N   UNL A   1      34.366  17.044  24.006  1.00  0.00    -0.040 NA
ATOM     20  N   UNL A   1      32.768  15.973  25.120  1.00  0.00    -0.117 NA
ATOM     21  N   UNL A   1      33.826  15.861  24.257  1.00  0.00    -0.024 NA
ENDBRANCH  15  17
ENDBRANCH   9  11
ENDBRANCH   4   7
ENDBRANCH   2   3
ENDBRANCH   1   2
BRANCH   1  22
ATOM     22  C   UNL A   1      33.556  28.235  27.114  1.00  0.00     0.118 C 
BRANCH  22  23
ATOM     23  N   UNL A   1      33.465  29.652  27.433  1.00  0.00    -0.352 N 
ATOM     24  C   UNL A   1      34.376  30.492  28.018  1.00  0.00     0.251 C 
ATOM     25  H   UNL A   1      32.611  30.077  27.187  1.00  0.00     0.163 HD
ATOM     26  O   UNL A   1      34.007  31.614  28.371  1.00  0.00    -0.269 OA
BRANCH  24  27
ATOM     27  C   UNL A   1      35.778  30.075  28.233  1.00  0.00     0.039 A 
ATOM     28  C   UNL A   1      36.161  29.642  29.506  1.00  0.00     0.014 A 
ATOM     29  C   UNL A   1      36.733  30.172  27.216  1.00  0.00     0.014 A 
ATOM     30  C   UNL A   1      37.487  29.279  29.751  1.00  0.00     0.010 A 
ATOM     31  C   UNL A   1      38.039  29.740  27.443  1.00  0.00     0.010 A 
ATOM     32  C   UNL A   1      38.436  29.310  28.717  1.00  0.00    -0.014 A 
BRANCH  32  33
ATOM     33  C   UNL A   1      39.855  28.950  28.969  1.00  0.00     0.031 A 
ATOM     34  C   UNL A   1      40.797  29.971  29.553  1.00  0.00     0.074 A 
ATOM     35  C   UNL A   1      40.305  27.722  28.645  1.00  0.00     0.049 A 
ATOM     36  N   UNL A   1      42.081  29.876  29.785  1.00  0.00    -0.248 NA
ATOM     37  C   UNL A   1      40.224  31.283  29.900  1.00  0.00     0.031 C 
ATOM     38  C   UNL A   1      39.503  26.660  28.032  1.00  0.00     0.029 A 
ATOM     39  N   UNL A   1      41.551  27.161  28.777  1.00  0.00    -0.354 N 
ATOM     40  C   UNL A   1      42.468  31.109  30.297  1.00  0.00     0.074 A 
ATOM     41  C   UNL A   1      41.297  31.959  30.283  1.00  0.00     0.031 C 
ATOM     42  C   UNL A   1      40.273  25.573  27.855  1.00  0.00     0.029 A 
ATOM     43  C   UNL A   1      41.627  25.868  28.313  1.00  0.00     0.049 A 
ATOM     44  H   UNL A   1      42.317  27.638  29.168  1.00  0.00     0.167 HD
ATOM     45  C   UNL A   1      43.680  31.492  30.768  1.00  0.00     0.037 A 
ATOM     46  C   UNL A   1      42.672  25.020  28.261  1.00  0.00     0.037 A 
ATOM     47  C   UNL A   1      44.836  30.637  30.805  1.00  0.00     0.049 A 
ATOM     48  C   UNL A   1      44.003  25.463  28.811  1.00  0.00     0.074 A 
ATOM     49  C   UNL A   1      46.108  30.926  31.268  1.00  0.00     0.029 A 
ATOM     50  N   UNL A   1      44.857  29.317  30.380  1.00  0.00    -0.354 N 
ATOM     51  N   UNL A   1      44.342  26.627  29.314  1.00  0.00    -0.248 NA
ATOM     52  C   UNL A   1      45.087  24.473  28.805  1.00  0.00     0.031 C 
ATOM     53  C   UNL A   1      46.904  29.786  31.105  1.00  0.00     0.029 A 
ATOM     54  C   UNL A   1      46.115  28.775  30.580  1.00  0.00     0.049 A 
ATOM     55  H   UNL A   1      44.091  28.836  29.993  1.00  0.00     0.167 HD
ATOM     56  C   UNL A   1      45.665  26.493  29.720  1.00  0.00     0.074 A 
ATOM     57  C   UNL A   1      46.061  25.134  29.413  1.00  0.00     0.031 C 
ATOM     58  C   UNL A   1      46.482  27.411  30.295  1.00  0.00     0.037 A 
BRANCH  45  59
ATOM     59  C   UNL A   1      43.808  32.890  31.309  1.00  0.00     0.058 A 
ATOM     60  C   UNL A   1      44.247  33.950  30.497  1.00  0.00     0.135 A 
ATOM     61  C   UNL A   1      43.449  33.187  32.634  1.00  0.00     0.135 A 
ATOM     62  F   UNL A   1      44.622  33.719  29.230  1.00  0.00    -0.206 F 
ATOM     63  C   UNL A   1      44.342  35.248  30.984  1.00  0.00     0.059 A 
ATOM     64  C   UNL A   1      43.509  34.485  33.134  1.00  0.00     0.059 A 
ATOM     65  F   UNL A   1      43.026  32.213  33.455  1.00  0.00    -0.206 F 
ATOM     66  C   UNL A   1      43.968  35.507  32.303  1.00  0.00     0.060 A 
BRANCH  66  67
ATOM     67  S   UNL A   1      44.074  37.204  32.910  1.00  0.00     0.124 S 
ATOM     68  O   UNL A   1      42.998  37.228  33.895  1.00  0.00    -0.237 OA
ATOM     69  O   UNL A   1      45.429  37.258  33.451  1.00  0.00    -0.237 OA
ATOM     70  O   UNL A   1      43.848  38.008  31.713  1.00  0.00    -0.744 OA
ENDBRANCH  66  67
ENDBRANCH  45  59
BRANCH  46  71
ATOM     71  C   UNL A   1      42.506  23.657  27.687  1.00  0.00     0.058 A 
ATOM     72  C   UNL A   1      42.278  22.545  28.512  1.00  0.00     0.135 A 
ATOM     73  C   UNL A   1      42.604  23.436  26.305  1.00  0.00     0.135 A 
ATOM     74  F   UNL A   1      42.179  22.705  29.840  1.00  0.00    -0.206 F 
ATOM     75  C   UNL A   1      42.195  21.257  27.993  1.00  0.00     0.059 A 
ATOM     76  C   UNL A   1      42.495  22.161  25.759  1.00  0.00     0.059 A 
ATOM     77  F   UNL A   1      42.798  24.468  25.470  1.00  0.00    -0.206 F 
ATOM     78  C   UNL A   1      42.312  21.074  26.615  1.00  0.00     0.060 A 
BRANCH  78  79
ATOM     79  S   UNL A   1      42.198  19.401  25.946  1.00  0.00     0.124 S 
ATOM     80  O   UNL A   1      42.725  18.609  27.051  1.00  0.00    -0.237 OA
ATOM     81  O   UNL A   1      40.768  19.267  25.687  1.00  0.00    -0.237 OA
ATOM     82  O   UNL A   1      43.040  19.460  24.754  1.00  0.00    -0.744 OA
ENDBRANCH  78  79
ENDBRANCH  46  71
BRANCH  58  83
ATOM     83  C   UNL A   1      47.858  26.955  30.693  1.00  0.00     0.058 A 
ATOM     84  C   UNL A   1      48.975  27.157  29.869  1.00  0.00     0.135 A 
ATOM     85  C   UNL A   1      48.059  26.321  31.930  1.00  0.00     0.135 A 
ATOM     86  F   UNL A   1      48.837  27.756  28.676  1.00  0.00    -0.206 F 
ATOM     87  C   UNL A   1      50.239  26.707  30.239  1.00  0.00     0.059 A 
ATOM     88  C   UNL A   1      49.318  25.889  32.332  1.00  0.00     0.059 A 
ATOM     89  F   UNL A   1      47.025  26.118  32.762  1.00  0.00    -0.206 F 
ATOM     90  C   UNL A   1      50.399  26.068  31.471  1.00  0.00     0.060 A 
BRANCH  90  91
ATOM     91  S   UNL A   1      52.042  25.488  31.940  1.00  0.00     0.124 S 
ATOM     92  O   UNL A   1      52.812  25.780  30.736  1.00  0.00    -0.237 OA
ATOM     93  O   UNL A   1      52.348  26.314  33.104  1.00  0.00    -0.237 OA
ATOM     94  O   UNL A   1      51.832  24.071  32.223  1.00  0.00    -0.744 OA
ENDBRANCH  90  91
ENDBRANCH  58  83
ENDBRANCH  32  33
ENDBRANCH  24  27
ENDBRANCH  22  23
ENDBRANCH   1  22
TORSDOF 15
ENDMDL
