MODEL 1
REMARK VINA RESULT:     -11.5      0.000      0.000
REMARK SMILES COC(=O)c1ccc(C[N@@H+](CC(=O)NCCCNC(=O)c2ccc(-c3c4nc(c(-c5c(F)cc(S(=O)(=O)[O-])cc5F)c5ccc([nH]5)c(-c5c(F)cc(S(=O)(=O)[O-])cc5F)c5nc(c(-c6c(F)cc(S(=O)(=O)[O-])cc6F)c6ccc3[nH]6)C=C5)C=C4)cc2)C(C)(C)C)cc1
REMARK SMILES IDX 15 1 14 2 12 3 13 4 11 6 10 7 9 9 8 10 5 11 6 12 92 13 7 14
REMARK SMILES IDX 91 15 3 16 4 17 2 18 1 19 87 20 88 21 89 22 90 23 16 24
REMARK SMILES IDX 17 25 18 26 19 27 20 29 21 30 22 31 86 32 23 33 85 34 24 35
REMARK SMILES IDX 25 36 26 37 79 38 27 39 84 40 78 41 80 42 28 43 83 44 77 45
REMARK SMILES IDX 76 46 29 48 63 49 42 50 62 51 43 52 46 53 61 54 81 55 44 56
REMARK SMILES IDX 45 57 60 59 82 60 47 61 30 62 31 63 40 64 32 65 33 66 39 67
REMARK SMILES IDX 41 68 34 69 35 70 36 71 37 72 38 73 64 74 65 75 74 76 66 77
REMARK SMILES IDX 67 78 73 79 75 80 68 81 69 82 70 83 71 84 72 85 48 86 49 87
REMARK SMILES IDX 58 88 50 89 51 90 57 91 59 92 52 93 53 94 54 95 55 96 56 97
REMARK H PARENT 14 5 10 8 18 28 80 47 46 58
REMARK Flexibility Score: inf
ROOT
ATOM      1  C   UNL A   1      33.641  29.233  26.681  1.00  0.00     0.118 C 
ENDROOT
BRANCH   1   2
ATOM      2  N   UNL A   1      34.118  29.269  25.306  1.00  0.00    -0.351 N 
ATOM      3  C   UNL A   1      34.096  28.363  24.284  1.00  0.00     0.275 C 
ATOM      4  O   UNL A   1      34.462  28.793  23.182  1.00  0.00    -0.269 OA
ATOM      5  H   UNL A   1      34.545  30.121  25.061  1.00  0.00     0.163 HD
BRANCH   3   6
ATOM      6  C   UNL A   1      33.591  26.911  24.410  1.00  0.00     0.364 C 
BRANCH   6   7
ATOM      7  N   UNL A   1      32.453  26.477  23.533  1.00  0.00    -0.319 N 
ATOM      8  H   UNL A   1      32.397  27.049  22.690  1.00  0.00     0.349 HD
BRANCH   7   9
ATOM      9  C   UNL A   1      31.212  26.729  24.265  1.00  0.00     0.299 C 
BRANCH   9  10
ATOM     10  C   UNL A   1      30.268  27.832  23.896  1.00  0.00     0.006 A 
ATOM     11  C   UNL A   1      28.580  29.934  23.179  1.00  0.00     0.060 A 
ATOM     12  C   UNL A   1      28.175  28.610  22.975  1.00  0.00     0.016 A 
ATOM     13  C   UNL A   1      29.838  30.215  23.719  1.00  0.00     0.016 A 
ATOM     14  C   UNL A   1      29.020  27.560  23.327  1.00  0.00     0.010 A 
ATOM     15  C   UNL A   1      30.678  29.168  24.065  1.00  0.00     0.010 A 
BRANCH  11  16
ATOM     16  C   UNL A   1      27.643  31.022  22.843  1.00  0.00     0.337 C 
ATOM     17  O   UNL A   1      27.014  31.654  23.679  1.00  0.00    -0.246 OA
BRANCH  16  18
ATOM     18  O   UNL A   1      27.603  31.150  21.502  1.00  0.00    -0.465 OA
ATOM     19  C   UNL A   1      28.137  32.368  20.996  1.00  0.00     0.282 C 
ENDBRANCH  16  18
ENDBRANCH  11  16
ENDBRANCH   9  10
ENDBRANCH   7   9
BRANCH   7  20
ATOM     20  C   UNL A   1      32.643  25.216  22.752  1.00  0.00     0.090 C 
ATOM     21  C   UNL A   1      32.640  25.385  21.217  1.00  0.00     0.078 C 
ATOM     22  C   UNL A   1      33.957  24.468  23.102  1.00  0.00     0.078 C 
ATOM     23  C   UNL A   1      31.526  24.211  23.140  1.00  0.00     0.078 C 
ENDBRANCH   7  20
ENDBRANCH   6   7
ENDBRANCH   3   6
ENDBRANCH   1   2
BRANCH   1  24
ATOM     24  C   UNL A   1      34.777  29.373  27.703  1.00  0.00     0.042 C 
BRANCH  24  25
ATOM     25  C   UNL A   1      35.161  30.790  28.092  1.00  0.00     0.118 C 
BRANCH  25  26
ATOM     26  N   UNL A   1      35.251  30.973  29.526  1.00  0.00    -0.352 N 
ATOM     27  C   UNL A   1      36.261  30.683  30.414  1.00  0.00     0.251 C 
ATOM     28  H   UNL A   1      34.451  31.374  29.937  1.00  0.00     0.163 HD
ATOM     29  O   UNL A   1      36.009  30.753  31.616  1.00  0.00    -0.269 OA
BRANCH  27  30
ATOM     30  C   UNL A   1      37.623  30.270  29.975  1.00  0.00     0.039 A 
ATOM     31  C   UNL A   1      38.524  29.826  30.951  1.00  0.00     0.014 A 
ATOM     32  C   UNL A   1      38.063  30.380  28.654  1.00  0.00     0.014 A 
ATOM     33  C   UNL A   1      39.827  29.452  30.598  1.00  0.00     0.010 A 
ATOM     34  C   UNL A   1      39.331  29.919  28.287  1.00  0.00     0.010 A 
ATOM     35  C   UNL A   1      40.237  29.464  29.256  1.00  0.00    -0.014 A 
BRANCH  35  36
ATOM     36  C   UNL A   1      41.611  29.036  28.864  1.00  0.00     0.031 A 
ATOM     37  C   UNL A   1      42.753  30.025  28.869  1.00  0.00     0.074 A 
ATOM     38  C   UNL A   1      41.832  27.763  28.472  1.00  0.00     0.049 A 
ATOM     39  N   UNL A   1      44.000  29.853  28.509  1.00  0.00    -0.248 NA
ATOM     40  C   UNL A   1      42.446  31.395  29.312  1.00  0.00     0.031 C 
ATOM     41  C   UNL A   1      40.817  26.710  28.379  1.00  0.00     0.029 A 
ATOM     42  N   UNL A   1      42.989  27.137  28.073  1.00  0.00    -0.354 N 
ATOM     43  C   UNL A   1      44.620  31.088  28.667  1.00  0.00     0.074 A 
ATOM     44  C   UNL A   1      43.601  32.015  29.108  1.00  0.00     0.031 C 
ATOM     45  C   UNL A   1      41.399  25.567  27.979  1.00  0.00     0.029 A 
ATOM     46  C   UNL A   1      42.820  25.810  27.752  1.00  0.00     0.049 A 
ATOM     47  H   UNL A   1      43.858  27.597  28.020  1.00  0.00     0.167 HD
ATOM     48  C   UNL A   1      45.923  31.419  28.483  1.00  0.00     0.037 A 
ATOM     49  C   UNL A   1      43.706  24.896  27.314  1.00  0.00     0.037 A 
ATOM     50  C   UNL A   1      46.942  30.488  28.066  1.00  0.00     0.049 A 
ATOM     51  C   UNL A   1      45.136  25.294  27.092  1.00  0.00     0.074 A 
ATOM     52  C   UNL A   1      48.300  30.713  27.912  1.00  0.00     0.029 A 
ATOM     53  N   UNL A   1      46.719  29.161  27.734  1.00  0.00    -0.354 N 
ATOM     54  N   UNL A   1      45.707  26.457  27.281  1.00  0.00    -0.248 NA
ATOM     55  C   UNL A   1      46.037  24.249  26.586  1.00  0.00     0.031 C 
ATOM     56  C   UNL A   1      48.888  29.539  27.430  1.00  0.00     0.029 A 
ATOM     57  C   UNL A   1      47.907  28.564  27.343  1.00  0.00     0.049 A 
ATOM     58  H   UNL A   1      45.845  28.709  27.768  1.00  0.00     0.167 HD
ATOM     59  C   UNL A   1      47.039  26.283  26.928  1.00  0.00     0.074 A 
ATOM     60  C   UNL A   1      47.192  24.898  26.531  1.00  0.00     0.031 C 
ATOM     61  C   UNL A   1      48.045  27.190  26.933  1.00  0.00     0.037 A 
BRANCH  48  62
ATOM     62  C   UNL A   1      46.330  32.849  28.726  1.00  0.00     0.058 A 
ATOM     63  C   UNL A   1      46.318  33.807  27.700  1.00  0.00     0.135 A 
ATOM     64  C   UNL A   1      46.680  33.281  30.016  1.00  0.00     0.135 A 
ATOM     65  F   UNL A   1      46.003  33.451  26.445  1.00  0.00    -0.206 F 
ATOM     66  C   UNL A   1      46.668  35.134  27.936  1.00  0.00     0.059 A 
ATOM     67  C   UNL A   1      47.002  34.609  30.283  1.00  0.00     0.059 A 
ATOM     68  F   UNL A   1      46.705  32.411  31.037  1.00  0.00    -0.206 F 
ATOM     69  C   UNL A   1      47.007  35.526  29.233  1.00  0.00     0.060 A 
BRANCH  69  70
ATOM     70  S   UNL A   1      47.447  37.252  29.523  1.00  0.00     0.124 S 
ATOM     71  O   UNL A   1      48.155  37.161  30.797  1.00  0.00    -0.237 OA
ATOM     72  O   UNL A   1      48.274  37.563  28.361  1.00  0.00    -0.237 OA
ATOM     73  O   UNL A   1      46.156  37.930  29.570  1.00  0.00    -0.744 OA
ENDBRANCH  69  70
ENDBRANCH  48  62
BRANCH  49  74
ATOM     74  C   UNL A   1      43.276  23.507  27.022  1.00  0.00     0.058 A 
ATOM     75  C   UNL A   1      42.907  23.114  25.727  1.00  0.00     0.135 A 
ATOM     76  C   UNL A   1      43.192  22.556  28.045  1.00  0.00     0.135 A 
ATOM     77  F   UNL A   1      42.927  24.006  24.726  1.00  0.00    -0.206 F 
ATOM     78  C   UNL A   1      42.498  21.813  25.449  1.00  0.00     0.059 A 
ATOM     79  C   UNL A   1      42.778  21.254  27.793  1.00  0.00     0.059 A 
ATOM     80  F   UNL A   1      43.544  22.883  29.299  1.00  0.00    -0.206 F 
ATOM     81  C   UNL A   1      42.451  20.885  26.490  1.00  0.00     0.060 A 
BRANCH  81  82
ATOM     82  S   UNL A   1      42.074  19.157  26.129  1.00  0.00     0.124 S 
ATOM     83  O   UNL A   1      42.415  18.512  27.390  1.00  0.00    -0.237 OA
ATOM     84  O   UNL A   1      40.652  19.208  25.798  1.00  0.00    -0.237 OA
ATOM     85  O   UNL A   1      42.957  18.865  25.004  1.00  0.00    -0.744 OA
ENDBRANCH  81  82
ENDBRANCH  49  74
BRANCH  61  86
ATOM     86  C   UNL A   1      49.405  26.706  26.515  1.00  0.00     0.058 A 
ATOM     87  C   UNL A   1      50.278  26.083  27.422  1.00  0.00     0.135 A 
ATOM     88  C   UNL A   1      49.828  26.842  25.183  1.00  0.00     0.135 A 
ATOM     89  F   UNL A   1      49.927  25.942  28.709  1.00  0.00    -0.206 F 
ATOM     90  C   UNL A   1      51.534  25.635  27.028  1.00  0.00     0.059 A 
ATOM     91  C   UNL A   1      51.067  26.374  24.761  1.00  0.00     0.059 A 
ATOM     92  F   UNL A   1      49.030  27.426  24.276  1.00  0.00    -0.206 F 
ATOM     93  C   UNL A   1      51.919  25.783  25.693  1.00  0.00     0.060 A 
BRANCH  93  94
ATOM     94  S   UNL A   1      53.540  25.171  25.189  1.00  0.00     0.124 S 
ATOM     95  O   UNL A   1      53.618  25.642  23.810  1.00  0.00    -0.237 OA
ATOM     96  O   UNL A   1      54.430  25.836  26.136  1.00  0.00    -0.237 OA
ATOM     97  O   UNL A   1      53.425  23.725  25.354  1.00  0.00    -0.744 OA
ENDBRANCH  93  94
ENDBRANCH  61  86
ENDBRANCH  35  36
ENDBRANCH  27  30
ENDBRANCH  25  26
ENDBRANCH  24  25
ENDBRANCH   1  24
TORSDOF 19
ENDMDL
MODEL 2
REMARK VINA RESULT:     -11.3      4.763      6.080
REMARK SMILES COC(=O)c1ccc(C[N@@H+](CC(=O)NCCCNC(=O)c2ccc(-c3c4nc(c(-c5c(F)cc(S(=O)(=O)[O-])cc5F)c5ccc([nH]5)c(-c5c(F)cc(S(=O)(=O)[O-])cc5F)c5nc(c(-c6c(F)cc(S(=O)(=O)[O-])cc6F)c6ccc3[nH]6)C=C5)C=C4)cc2)C(C)(C)C)cc1
REMARK SMILES IDX 15 1 14 2 12 3 13 4 11 6 10 7 9 9 8 10 5 11 6 12 92 13 7 14
REMARK SMILES IDX 91 15 3 16 4 17 2 18 1 19 87 20 88 21 89 22 90 23 16 24
REMARK SMILES IDX 17 25 18 26 19 27 20 29 21 30 22 31 86 32 23 33 85 34 24 35
REMARK SMILES IDX 25 36 26 37 79 38 27 39 84 40 78 41 80 42 28 43 83 44 77 45
REMARK SMILES IDX 76 46 29 48 63 49 42 50 62 51 43 52 46 53 61 54 81 55 44 56
REMARK SMILES IDX 45 57 60 59 82 60 47 61 30 62 31 63 40 64 32 65 33 66 39 67
REMARK SMILES IDX 41 68 34 69 35 70 36 71 37 72 38 73 64 74 65 75 74 76 66 77
REMARK SMILES IDX 67 78 73 79 75 80 68 81 69 82 70 83 71 84 72 85 48 86 49 87
REMARK SMILES IDX 58 88 50 89 51 90 57 91 59 92 52 93 53 94 54 95 55 96 56 97
REMARK H PARENT 14 5 10 8 18 28 80 47 46 58
REMARK Flexibility Score: inf
ROOT
ATOM      1  C   UNL A   1      32.772  25.938  26.237  1.00  0.00     0.118 C 
ENDROOT
BRANCH   1   2
ATOM      2  N   UNL A   1      31.580  25.269  26.742  1.00  0.00    -0.351 N 
ATOM      3  C   UNL A   1      31.068  24.015  26.569  1.00  0.00     0.275 C 
ATOM      4  O   UNL A   1      30.097  23.732  27.284  1.00  0.00    -0.269 OA
ATOM      5  H   UNL A   1      31.031  25.837  27.329  1.00  0.00     0.163 HD
BRANCH   3   6
ATOM      6  C   UNL A   1      31.654  22.952  25.619  1.00  0.00     0.364 C 
BRANCH   6   7
ATOM      7  N   UNL A   1      31.970  23.357  24.208  1.00  0.00    -0.319 N 
ATOM      8  H   UNL A   1      32.624  24.139  24.186  1.00  0.00     0.349 HD
BRANCH   7   9
ATOM      9  C   UNL A   1      30.734  23.858  23.607  1.00  0.00     0.299 C 
BRANCH   9  10
ATOM     10  C   UNL A   1      30.484  25.316  23.375  1.00  0.00     0.006 A 
ATOM     11  C   UNL A   1      29.978  28.037  23.024  1.00  0.00     0.060 A 
ATOM     12  C   UNL A   1      31.180  27.484  22.569  1.00  0.00     0.016 A 
ATOM     13  C   UNL A   1      29.034  27.240  23.678  1.00  0.00     0.016 A 
ATOM     14  C   UNL A   1      31.436  26.127  22.749  1.00  0.00     0.010 A 
ATOM     15  C   UNL A   1      29.294  25.891  23.860  1.00  0.00     0.010 A 
BRANCH  11  16
ATOM     16  C   UNL A   1      29.715  29.466  22.774  1.00  0.00     0.337 C 
ATOM     17  O   UNL A   1      29.804  30.330  23.633  1.00  0.00    -0.246 OA
BRANCH  16  18
ATOM     18  O   UNL A   1      29.347  29.611  21.485  1.00  0.00    -0.465 OA
ATOM     19  C   UNL A   1      28.189  30.411  21.275  1.00  0.00     0.282 C 
ENDBRANCH  16  18
ENDBRANCH  11  16
ENDBRANCH   9  10
ENDBRANCH   7   9
BRANCH   7  20
ATOM     20  C   UNL A   1      32.894  22.468  23.439  1.00  0.00     0.090 C 
ATOM     21  C   UNL A   1      32.211  21.539  22.411  1.00  0.00     0.078 C 
ATOM     22  C   UNL A   1      33.988  23.246  22.659  1.00  0.00     0.078 C 
ATOM     23  C   UNL A   1      33.698  21.594  24.437  1.00  0.00     0.078 C 
ENDBRANCH   7  20
ENDBRANCH   6   7
ENDBRANCH   3   6
ENDBRANCH   1   2
BRANCH   1  24
ATOM     24  C   UNL A   1      32.589  27.457  26.121  1.00  0.00     0.042 C 
BRANCH  24  25
ATOM     25  C   UNL A   1      33.860  28.284  26.031  1.00  0.00     0.118 C 
BRANCH  25  26
ATOM     26  N   UNL A   1      33.643  29.682  26.336  1.00  0.00    -0.352 N 
ATOM     27  C   UNL A   1      34.279  30.526  27.217  1.00  0.00     0.251 C 
ATOM     28  H   UNL A   1      32.913  30.103  25.825  1.00  0.00     0.163 HD
ATOM     29  O   UNL A   1      33.770  31.625  27.432  1.00  0.00    -0.269 OA
BRANCH  27  30
ATOM     30  C   UNL A   1      35.533  30.149  27.926  1.00  0.00     0.039 A 
ATOM     31  C   UNL A   1      36.752  30.357  27.269  1.00  0.00     0.014 A 
ATOM     32  C   UNL A   1      35.542  29.528  29.177  1.00  0.00     0.014 A 
ATOM     33  C   UNL A   1      37.960  29.995  27.877  1.00  0.00     0.010 A 
ATOM     34  C   UNL A   1      36.751  29.252  29.825  1.00  0.00     0.010 A 
ATOM     35  C   UNL A   1      37.976  29.467  29.178  1.00  0.00    -0.014 A 
BRANCH  35  36
ATOM     36  C   UNL A   1      39.258  29.108  29.849  1.00  0.00     0.031 A 
ATOM     37  C   UNL A   1      39.711  29.852  31.084  1.00  0.00     0.074 A 
ATOM     38  C   UNL A   1      40.038  28.134  29.334  1.00  0.00     0.049 A 
ATOM     39  N   UNL A   1      40.817  29.721  31.772  1.00  0.00    -0.248 NA
ATOM     40  C   UNL A   1      38.813  30.899  31.599  1.00  0.00     0.031 C 
ATOM     41  C   UNL A   1      39.748  27.360  28.124  1.00  0.00     0.029 A 
ATOM     42  N   UNL A   1      41.243  27.630  29.763  1.00  0.00    -0.354 N 
ATOM     43  C   UNL A   1      40.757  30.672  32.785  1.00  0.00     0.074 A 
ATOM     44  C   UNL A   1      39.526  31.408  32.594  1.00  0.00     0.031 C 
ATOM     45  C   UNL A   1      40.729  26.463  27.926  1.00  0.00     0.029 A 
ATOM     46  C   UNL A   1      41.735  26.619  28.971  1.00  0.00     0.049 A 
ATOM     47  H   UNL A   1      41.709  27.962  30.565  1.00  0.00     0.167 HD
ATOM     48  C   UNL A   1      41.632  30.900  33.796  1.00  0.00     0.037 A 
ATOM     49  C   UNL A   1      42.874  25.908  29.067  1.00  0.00     0.037 A 
ATOM     50  C   UNL A   1      42.846  30.149  33.999  1.00  0.00     0.049 A 
ATOM     51  C   UNL A   1      43.840  26.198  30.178  1.00  0.00     0.074 A 
ATOM     52  C   UNL A   1      43.765  30.263  35.028  1.00  0.00     0.029 A 
ATOM     53  N   UNL A   1      43.312  29.150  33.159  1.00  0.00    -0.354 N 
ATOM     54  N   UNL A   1      43.745  27.077  31.145  1.00  0.00    -0.248 NA
ATOM     55  C   UNL A   1      45.074  25.400  30.202  1.00  0.00     0.031 C 
ATOM     56  C   UNL A   1      44.817  29.375  34.779  1.00  0.00     0.029 A 
ATOM     57  C   UNL A   1      44.523  28.664  33.627  1.00  0.00     0.049 A 
ATOM     58  H   UNL A   1      42.853  28.833  32.347  1.00  0.00     0.167 HD
ATOM     59  C   UNL A   1      44.901  26.931  31.900  1.00  0.00     0.074 A 
ATOM     60  C   UNL A   1      45.672  25.868  31.288  1.00  0.00     0.031 C 
ATOM     61  C   UNL A   1      45.290  27.617  33.002  1.00  0.00     0.037 A 
BRANCH  48  62
ATOM     62  C   UNL A   1      41.318  32.009  34.766  1.00  0.00     0.058 A 
ATOM     63  C   UNL A   1      41.828  33.307  34.598  1.00  0.00     0.135 A 
ATOM     64  C   UNL A   1      40.448  31.787  35.847  1.00  0.00     0.135 A 
ATOM     65  F   UNL A   1      42.673  33.576  33.590  1.00  0.00    -0.206 F 
ATOM     66  C   UNL A   1      41.511  34.335  35.481  1.00  0.00     0.059 A 
ATOM     67  C   UNL A   1      40.092  32.808  36.724  1.00  0.00     0.059 A 
ATOM     68  F   UNL A   1      39.927  30.568  36.055  1.00  0.00    -0.206 F 
ATOM     69  C   UNL A   1      40.641  34.076  36.541  1.00  0.00     0.060 A 
BRANCH  69  70
ATOM     70  S   UNL A   1      40.234  35.424  37.670  1.00  0.00     0.124 S 
ATOM     71  O   UNL A   1      41.485  35.573  38.408  1.00  0.00    -0.237 OA
ATOM     72  O   UNL A   1      39.907  36.511  36.753  1.00  0.00    -0.237 OA
ATOM     73  O   UNL A   1      39.112  34.898  38.440  1.00  0.00    -0.744 OA
ENDBRANCH  69  70
ENDBRANCH  48  62
BRANCH  49  74
ATOM     74  C   UNL A   1      43.197  24.859  28.069  1.00  0.00     0.058 A 
ATOM     75  C   UNL A   1      43.810  25.177  26.848  1.00  0.00     0.135 A 
ATOM     76  C   UNL A   1      42.861  23.521  28.305  1.00  0.00     0.135 A 
ATOM     77  F   UNL A   1      44.105  26.454  26.560  1.00  0.00    -0.206 F 
ATOM     78  C   UNL A   1      44.110  24.197  25.906  1.00  0.00     0.059 A 
ATOM     79  C   UNL A   1      43.143  22.527  27.376  1.00  0.00     0.059 A 
ATOM     80  F   UNL A   1      42.281  23.168  29.463  1.00  0.00    -0.206 F 
ATOM     81  C   UNL A   1      43.784  22.870  26.188  1.00  0.00     0.060 A 
BRANCH  81  82
ATOM     82  S   UNL A   1      44.300  21.565  25.053  1.00  0.00     0.124 S 
ATOM     83  O   UNL A   1      43.301  20.536  25.315  1.00  0.00    -0.237 OA
ATOM     84  O   UNL A   1      44.215  22.226  23.753  1.00  0.00    -0.237 OA
ATOM     85  O   UNL A   1      45.656  21.267  25.504  1.00  0.00    -0.744 OA
ENDBRANCH  81  82
ENDBRANCH  49  74
BRANCH  61  86
ATOM     86  C   UNL A   1      46.598  27.223  33.628  1.00  0.00     0.058 A 
ATOM     87  C   UNL A   1      47.809  27.822  33.247  1.00  0.00     0.135 A 
ATOM     88  C   UNL A   1      46.636  26.252  34.642  1.00  0.00     0.135 A 
ATOM     89  F   UNL A   1      47.829  28.745  32.272  1.00  0.00    -0.206 F 
ATOM     90  C   UNL A   1      49.016  27.455  33.831  1.00  0.00     0.059 A 
ATOM     91  C   UNL A   1      47.827  25.892  35.262  1.00  0.00     0.059 A 
ATOM     92  F   UNL A   1      45.505  25.652  35.046  1.00  0.00    -0.206 F 
ATOM     93  C   UNL A   1      49.014  26.490  34.841  1.00  0.00     0.060 A 
BRANCH  93  94
ATOM     94  S   UNL A   1      50.584  26.042  35.611  1.00  0.00     0.124 S 
ATOM     95  O   UNL A   1      50.353  26.432  36.998  1.00  0.00    -0.237 OA
ATOM     96  O   UNL A   1      50.654  24.606  35.360  1.00  0.00    -0.237 OA
ATOM     97  O   UNL A   1      51.561  26.848  34.885  1.00  0.00    -0.744 OA
ENDBRANCH  93  94
ENDBRANCH  61  86
ENDBRANCH  35  36
ENDBRANCH  27  30
ENDBRANCH  25  26
ENDBRANCH  24  25
ENDBRANCH   1  24
TORSDOF 19
ENDMDL
MODEL 3
REMARK VINA RESULT:     -11.2      2.973      3.753
REMARK SMILES COC(=O)c1ccc(C[N@@H+](CC(=O)NCCCNC(=O)c2ccc(-c3c4nc(c(-c5c(F)cc(S(=O)(=O)[O-])cc5F)c5ccc([nH]5)c(-c5c(F)cc(S(=O)(=O)[O-])cc5F)c5nc(c(-c6c(F)cc(S(=O)(=O)[O-])cc6F)c6ccc3[nH]6)C=C5)C=C4)cc2)C(C)(C)C)cc1
REMARK SMILES IDX 15 1 14 2 12 3 13 4 11 6 10 7 9 9 8 10 5 11 6 12 92 13 7 14
REMARK SMILES IDX 91 15 3 16 4 17 2 18 1 19 87 20 88 21 89 22 90 23 16 24
REMARK SMILES IDX 17 25 18 26 19 27 20 29 21 30 22 31 86 32 23 33 85 34 24 35
REMARK SMILES IDX 25 36 26 37 79 38 27 39 84 40 78 41 80 42 28 43 83 44 77 45
REMARK SMILES IDX 76 46 29 48 63 49 42 50 62 51 43 52 46 53 61 54 81 55 44 56
REMARK SMILES IDX 45 57 60 59 82 60 47 61 30 62 31 63 40 64 32 65 33 66 39 67
REMARK SMILES IDX 41 68 34 69 35 70 36 71 37 72 38 73 64 74 65 75 74 76 66 77
REMARK SMILES IDX 67 78 73 79 75 80 68 81 69 82 70 83 71 84 72 85 48 86 49 87
REMARK SMILES IDX 58 88 50 89 51 90 57 91 59 92 52 93 53 94 54 95 55 96 56 97
REMARK H PARENT 14 5 10 8 18 28 80 47 46 58
REMARK Flexibility Score: inf
ROOT
ATOM      1  C   UNL A   1      33.446  26.150  25.709  1.00  0.00     0.118 C 
ENDROOT
BRANCH   1   2
ATOM      2  N   UNL A   1      32.344  25.549  26.447  1.00  0.00    -0.351 N 
ATOM      3  C   UNL A   1      31.737  24.326  26.393  1.00  0.00     0.275 C 
ATOM      4  O   UNL A   1      30.915  24.098  27.289  1.00  0.00    -0.269 OA
ATOM      5  H   UNL A   1      31.955  26.147  27.126  1.00  0.00     0.163 HD
BRANCH   3   6
ATOM      6  C   UNL A   1      32.063  23.232  25.356  1.00  0.00     0.364 C 
BRANCH   6   7
ATOM      7  N   UNL A   1      32.127  23.623  23.907  1.00  0.00    -0.319 N 
ATOM      8  H   UNL A   1      32.719  24.443  23.772  1.00  0.00     0.349 HD
BRANCH   7   9
ATOM      9  C   UNL A   1      30.783  24.035  23.503  1.00  0.00     0.299 C 
BRANCH   9  10
ATOM     10  C   UNL A   1      30.410  25.469  23.283  1.00  0.00     0.006 A 
ATOM     11  C   UNL A   1      29.680  28.141  22.957  1.00  0.00     0.060 A 
ATOM     12  C   UNL A   1      30.902  27.683  22.453  1.00  0.00     0.016 A 
ATOM     13  C   UNL A   1      28.828  27.274  23.646  1.00  0.00     0.016 A 
ATOM     14  C   UNL A   1      31.270  26.350  22.621  1.00  0.00     0.010 A 
ATOM     15  C   UNL A   1      29.199  25.949  23.816  1.00  0.00     0.010 A 
BRANCH  11  16
ATOM     16  C   UNL A   1      29.296  29.545  22.719  1.00  0.00     0.337 C 
ATOM     17  O   UNL A   1      29.552  30.455  23.493  1.00  0.00    -0.246 OA
BRANCH  16  18
ATOM     18  O   UNL A   1      28.618  29.609  21.556  1.00  0.00    -0.465 OA
ATOM     19  C   UNL A   1      28.204  30.915  21.170  1.00  0.00     0.282 C 
ENDBRANCH  16  18
ENDBRANCH  11  16
ENDBRANCH   9  10
ENDBRANCH   7   9
BRANCH   7  20
ATOM     20  C   UNL A   1      32.973  22.775  23.014  1.00  0.00     0.090 C 
ATOM     21  C   UNL A   1      33.316  23.398  21.644  1.00  0.00     0.078 C 
ATOM     22  C   UNL A   1      34.328  22.367  23.654  1.00  0.00     0.078 C 
ATOM     23  C   UNL A   1      32.252  21.421  22.774  1.00  0.00     0.078 C 
ENDBRANCH   7  20
ENDBRANCH   6   7
ENDBRANCH   3   6
ENDBRANCH   1   2
BRANCH   1  24
ATOM     24  C   UNL A   1      33.523  27.671  25.899  1.00  0.00     0.042 C 
BRANCH  24  25
ATOM     25  C   UNL A   1      33.367  28.180  27.321  1.00  0.00     0.118 C 
BRANCH  25  26
ATOM     26  N   UNL A   1      33.321  29.625  27.397  1.00  0.00    -0.352 N 
ATOM     27  C   UNL A   1      34.239  30.536  27.867  1.00  0.00     0.251 C 
ATOM     28  H   UNL A   1      32.489  30.025  27.054  1.00  0.00     0.163 HD
ATOM     29  O   UNL A   1      33.874  31.703  28.004  1.00  0.00    -0.269 OA
BRANCH  27  30
ATOM     30  C   UNL A   1      35.632  30.158  28.232  1.00  0.00     0.039 A 
ATOM     31  C   UNL A   1      36.623  30.259  27.247  1.00  0.00     0.014 A 
ATOM     32  C   UNL A   1      35.977  29.636  29.480  1.00  0.00     0.014 A 
ATOM     33  C   UNL A   1      37.945  29.890  27.526  1.00  0.00     0.010 A 
ATOM     34  C   UNL A   1      37.312  29.355  29.788  1.00  0.00     0.010 A 
ATOM     35  C   UNL A   1      38.312  29.463  28.812  1.00  0.00    -0.014 A 
BRANCH  35  36
ATOM     36  C   UNL A   1      39.723  29.099  29.130  1.00  0.00     0.031 A 
ATOM     37  C   UNL A   1      40.632  30.088  29.822  1.00  0.00     0.074 A 
ATOM     38  C   UNL A   1      40.203  27.890  28.771  1.00  0.00     0.049 A 
ATOM     39  N   UNL A   1      41.899  29.973  30.130  1.00  0.00    -0.248 NA
ATOM     40  C   UNL A   1      40.046  31.387  30.192  1.00  0.00     0.031 C 
ATOM     41  C   UNL A   1      39.452  26.850  28.061  1.00  0.00     0.029 A 
ATOM     42  N   UNL A   1      41.445  27.330  28.951  1.00  0.00    -0.354 N 
ATOM     43  C   UNL A   1      42.265  31.182  30.714  1.00  0.00     0.074 A 
ATOM     44  C   UNL A   1      41.098  32.036  30.672  1.00  0.00     0.031 C 
ATOM     45  C   UNL A   1      40.237  25.773  27.893  1.00  0.00     0.029 A 
ATOM     46  C   UNL A   1      41.557  26.054  28.448  1.00  0.00     0.049 A 
ATOM     47  H   UNL A   1      42.186  27.799  29.398  1.00  0.00     0.167 HD
ATOM     48  C   UNL A   1      43.455  31.543  31.255  1.00  0.00     0.037 A 
ATOM     49  C   UNL A   1      42.606  25.211  28.426  1.00  0.00     0.037 A 
ATOM     50  C   UNL A   1      44.609  30.682  31.318  1.00  0.00     0.049 A 
ATOM     51  C   UNL A   1      43.920  25.645  29.007  1.00  0.00     0.074 A 
ATOM     52  C   UNL A   1      45.839  30.935  31.901  1.00  0.00     0.029 A 
ATOM     53  N   UNL A   1      44.680  29.408  30.777  1.00  0.00    -0.354 N 
ATOM     54  N   UNL A   1      44.233  26.778  29.584  1.00  0.00    -0.248 NA
ATOM     55  C   UNL A   1      45.027  24.681  28.920  1.00  0.00     0.031 C 
ATOM     56  C   UNL A   1      46.673  29.838  31.662  1.00  0.00     0.029 A 
ATOM     57  C   UNL A   1      45.943  28.876  30.984  1.00  0.00     0.049 A 
ATOM     58  H   UNL A   1      43.943  28.948  30.313  1.00  0.00     0.167 HD
ATOM     59  C   UNL A   1      45.570  26.661  29.942  1.00  0.00     0.074 A 
ATOM     60  C   UNL A   1      46.001  25.340  29.531  1.00  0.00     0.031 C 
ATOM     61  C   UNL A   1      46.368  27.567  30.556  1.00  0.00     0.037 A 
BRANCH  48  62
ATOM     62  C   UNL A   1      43.579  32.933  31.824  1.00  0.00     0.058 A 
ATOM     63  C   UNL A   1      44.025  34.015  31.047  1.00  0.00     0.135 A 
ATOM     64  C   UNL A   1      43.193  33.199  33.149  1.00  0.00     0.135 A 
ATOM     65  F   UNL A   1      44.418  33.820  29.779  1.00  0.00    -0.206 F 
ATOM     66  C   UNL A   1      44.110  35.302  31.570  1.00  0.00     0.059 A 
ATOM     67  C   UNL A   1      43.239  34.484  33.683  1.00  0.00     0.059 A 
ATOM     68  F   UNL A   1      42.755  32.205  33.937  1.00  0.00    -0.206 F 
ATOM     69  C   UNL A   1      43.714  35.527  32.890  1.00  0.00     0.060 A 
BRANCH  69  70
ATOM     70  S   UNL A   1      43.822  37.204  33.547  1.00  0.00     0.124 S 
ATOM     71  O   UNL A   1      42.633  37.263  34.392  1.00  0.00    -0.237 OA
ATOM     72  O   UNL A   1      45.099  37.181  34.253  1.00  0.00    -0.237 OA
ATOM     73  O   UNL A   1      43.784  38.042  32.353  1.00  0.00    -0.744 OA
ENDBRANCH  69  70
ENDBRANCH  48  62
BRANCH  49  74
ATOM     74  C   UNL A   1      42.484  23.868  27.808  1.00  0.00     0.058 A 
ATOM     75  C   UNL A   1      42.503  23.701  26.416  1.00  0.00     0.135 A 
ATOM     76  C   UNL A   1      42.306  22.730  28.603  1.00  0.00     0.135 A 
ATOM     77  F   UNL A   1      42.623  24.770  25.615  1.00  0.00    -0.206 F 
ATOM     78  C   UNL A   1      42.383  22.443  25.831  1.00  0.00     0.059 A 
ATOM     79  C   UNL A   1      42.176  21.466  28.042  1.00  0.00     0.059 A 
ATOM     80  F   UNL A   1      42.291  22.840  29.941  1.00  0.00    -0.206 F 
ATOM     81  C   UNL A   1      42.234  21.328  26.657  1.00  0.00     0.060 A 
BRANCH  81  82
ATOM     82  S   UNL A   1      42.232  19.675  25.932  1.00  0.00     0.124 S 
ATOM     83  O   UNL A   1      43.239  19.812  24.887  1.00  0.00    -0.237 OA
ATOM     84  O   UNL A   1      42.597  18.833  27.068  1.00  0.00    -0.237 OA
ATOM     85  O   UNL A   1      40.854  19.528  25.474  1.00  0.00    -0.744 OA
ENDBRANCH  81  82
ENDBRANCH  49  74
BRANCH  61  86
ATOM     86  C   UNL A   1      47.784  27.151  30.839  1.00  0.00     0.058 A 
ATOM     87  C   UNL A   1      48.149  26.552  32.055  1.00  0.00     0.135 A 
ATOM     88  C   UNL A   1      48.783  27.329  29.868  1.00  0.00     0.135 A 
ATOM     89  F   UNL A   1      47.234  26.373  33.021  1.00  0.00    -0.206 F 
ATOM     90  C   UNL A   1      49.460  26.168  32.309  1.00  0.00     0.059 A 
ATOM     91  C   UNL A   1      50.094  26.924  30.089  1.00  0.00     0.059 A 
ATOM     92  F   UNL A   1      48.486  27.893  28.686  1.00  0.00    -0.206 F 
ATOM     93  C   UNL A   1      50.427  26.355  31.318  1.00  0.00     0.060 A 
BRANCH  93  94
ATOM     94  S   UNL A   1      52.120  25.825  31.650  1.00  0.00     0.124 S 
ATOM     95  O   UNL A   1      52.494  26.708  32.750  1.00  0.00    -0.237 OA
ATOM     96  O   UNL A   1      51.941  24.419  31.999  1.00  0.00    -0.237 OA
ATOM     97  O   UNL A   1      52.807  26.069  30.386  1.00  0.00    -0.744 OA
ENDBRANCH  93  94
ENDBRANCH  61  86
ENDBRANCH  35  36
ENDBRANCH  27  30
ENDBRANCH  25  26
ENDBRANCH  24  25
ENDBRANCH   1  24
TORSDOF 19
ENDMDL
