MODEL 1
REMARK VINA RESULT:     -13.7      0.000      0.000
REMARK SMILES Cc1cc(S(F)(F)(F)(F)F)cc2c1O[C@H](C(F)(F)F)C(C(=O)NCCCNC(=O)c1ccc(-c3c4nc(c(-c5c(F)cc(S(=O)(=O)[O-])cc5F)c5ccc([nH]5)c(-c5c(F)cc(S(=O)(=O)[O-])cc5F)c5nc(c(-c6c(F)cc(S(=O)(=O)[O-])cc6F)c6ccc3[nH]6)C=C5)C=C4)cc1)=C2
REMARK SMILES IDX 26 1 25 2 24 3 23 4 21 5 22 6 20 8 1 9 2 10 3 11 13 12 4 13
REMARK SMILES IDX 12 14 14 15 11 16 96 17 15 18 5 19 6 20 7 21 8 22 9 23 10 24
REMARK SMILES IDX 16 25 17 26 18 27 19 28 27 29 28 30 29 32 30 33 31 34 95 35
REMARK SMILES IDX 32 36 94 37 33 38 34 39 35 40 88 41 36 42 93 43 87 44 89 45
REMARK SMILES IDX 37 46 92 47 86 48 85 49 38 51 72 52 51 53 71 54 52 55 55 56
REMARK SMILES IDX 70 57 90 58 53 59 54 60 69 62 91 63 56 64 39 65 40 66 49 67
REMARK SMILES IDX 41 68 42 69 48 70 50 71 43 72 44 73 45 74 46 75 47 76 73 77
REMARK SMILES IDX 74 78 83 79 75 80 76 81 82 82 84 83 77 84 78 85 79 86 80 87
REMARK SMILES IDX 81 88 57 89 58 90 67 91 59 92 60 93 66 94 68 95 61 96 62 97
REMARK SMILES IDX 63 98 64 99 65 100
REMARK H PARENT 23 7 27 31 89 50 55 61
REMARK Flexibility Score: inf
ROOT
ATOM      1  C   UNL A   1      35.813  31.112  28.121  1.00  0.00     0.118 C 
ENDROOT
BRANCH   1   2
ATOM      2  C   UNL A   1      34.633  30.779  27.223  1.00  0.00     0.042 C 
BRANCH   2   3
ATOM      3  C   UNL A   1      34.305  29.300  27.344  1.00  0.00     0.118 C 
BRANCH   3   4
ATOM      4  N   UNL A   1      32.966  29.141  27.929  1.00  0.00    -0.352 N 
ATOM      5  C   UNL A   1      32.022  28.175  27.351  1.00  0.00     0.251 C 
ATOM      6  O   UNL A   1      30.864  28.037  27.857  1.00  0.00    -0.270 OA
ATOM      7  H   UNL A   1      32.702  29.683  28.707  1.00  0.00     0.163 HD
BRANCH   5   8
ATOM      8  C   UNL A   1      32.430  27.339  26.149  1.00  0.00     0.067 C 
ATOM      9  C   UNL A   1      32.789  25.189  21.488  1.00  0.00     0.048 C 
ATOM     10  C   UNL A   1      33.521  25.057  22.814  1.00  0.00    -0.007 A 
ATOM     11  C   UNL A   1      34.530  24.130  22.952  1.00  0.00     0.031 A 
ATOM     12  C   UNL A   1      33.143  25.827  23.914  1.00  0.00     0.130 A 
ATOM     13  C   UNL A   1      35.168  23.952  24.173  1.00  0.00     0.108 A 
ATOM     14  C   UNL A   1      33.799  25.647  25.153  1.00  0.00     0.019 A 
ATOM     15  O   UNL A   1      32.076  26.831  23.832  1.00  0.00    -0.475 OA
ATOM     16  C   UNL A   1      34.820  24.699  25.262  1.00  0.00     0.036 A 
ATOM     17  C   UNL A   1      33.383  26.468  26.291  1.00  0.00     0.025 C 
ATOM     18  C   UNL A   1      31.765  27.539  24.939  1.00  0.00     0.314 C 
BRANCH  13  19
ATOM     19  S   UNL A   1      36.480  22.714  24.321  1.00  0.00     0.310 S 
ATOM     20  F   UNL A   1      36.700  22.682  22.751  1.00  0.00    -0.094 F 
ATOM     21  F   UNL A   1      35.385  21.599  24.122  1.00  0.00    -0.094 F 
ATOM     22  F   UNL A   1      37.595  21.636  24.438  1.00  0.00    -0.094 F 
ATOM     23  F   UNL A   1      37.580  23.846  24.378  1.00  0.00    -0.094 F 
ATOM     24  F   UNL A   1      35.374  23.820  24.091  1.00  0.00    -0.094 F 
ENDBRANCH  13  19
BRANCH  18  25
ATOM     25  C   UNL A   1      32.202  28.944  24.558  1.00  0.00     0.429 C 
ATOM     26  F   UNL A   1      33.523  29.042  24.666  1.00  0.00    -0.167 F 
ATOM     27  F   UNL A   1      31.839  29.195  23.303  1.00  0.00    -0.167 F 
ATOM     28  F   UNL A   1      31.624  29.824  25.371  1.00  0.00    -0.167 F 
ENDBRANCH  18  25
ENDBRANCH   5   8
ENDBRANCH   3   4
ENDBRANCH   2   3
ENDBRANCH   1   2
BRANCH   1  29
ATOM     29  N   UNL A   1      35.420  30.948  29.527  1.00  0.00    -0.352 N 
ATOM     30  C   UNL A   1      36.369  30.377  30.494  1.00  0.00     0.251 C 
ATOM     31  H   UNL A   1      34.521  31.220  29.822  1.00  0.00     0.163 HD
ATOM     32  O   UNL A   1      36.029  30.235  31.711  1.00  0.00    -0.269 OA
BRANCH  30  33
ATOM     33  C   UNL A   1      37.757  29.957  30.039  1.00  0.00     0.039 A 
ATOM     34  C   UNL A   1      37.960  29.418  28.773  1.00  0.00     0.014 A 
ATOM     35  C   UNL A   1      38.797  30.096  30.834  1.00  0.00     0.014 A 
ATOM     36  C   UNL A   1      39.265  29.527  28.242  1.00  0.00     0.010 A 
ATOM     37  C   UNL A   1      40.073  29.700  30.418  1.00  0.00     0.010 A 
ATOM     38  C   UNL A   1      40.313  29.421  29.154  1.00  0.00    -0.014 A 
BRANCH  38  39
ATOM     39  C   UNL A   1      41.700  28.995  28.700  1.00  0.00     0.031 A 
ATOM     40  C   UNL A   1      41.907  27.652  28.382  1.00  0.00     0.074 A 
ATOM     41  C   UNL A   1      42.682  29.968  28.628  1.00  0.00     0.049 A 
ATOM     42  N   UNL A   1      43.029  27.086  27.934  1.00  0.00    -0.248 NA
ATOM     43  C   UNL A   1      40.874  26.611  28.491  1.00  0.00     0.031 C 
ATOM     44  C   UNL A   1      42.480  31.327  28.939  1.00  0.00     0.029 A 
ATOM     45  N   UNL A   1      43.999  29.813  28.254  1.00  0.00    -0.354 N 
ATOM     46  C   UNL A   1      42.833  25.782  27.723  1.00  0.00     0.074 A 
ATOM     47  C   UNL A   1      41.447  25.457  28.084  1.00  0.00     0.031 C 
ATOM     48  C   UNL A   1      43.660  31.980  28.768  1.00  0.00     0.029 A 
ATOM     49  C   UNL A   1      44.619  31.040  28.344  1.00  0.00     0.049 A 
ATOM     50  H   UNL A   1      44.424  28.971  27.971  1.00  0.00     0.167 HD
ATOM     51  C   UNL A   1      43.757  24.852  27.242  1.00  0.00     0.037 A 
ATOM     52  C   UNL A   1      45.945  31.342  28.079  1.00  0.00     0.037 A 
ATOM     53  C   UNL A   1      45.072  25.164  26.935  1.00  0.00     0.049 A 
ATOM     54  C   UNL A   1      46.885  30.400  27.653  1.00  0.00     0.074 A 
ATOM     55  C   UNL A   1      46.013  24.241  26.443  1.00  0.00     0.029 A 
ATOM     56  N   UNL A   1      45.698  26.386  27.049  1.00  0.00    -0.354 N 
ATOM     57  N   UNL A   1      46.679  29.106  27.405  1.00  0.00    -0.248 NA
ATOM     58  C   UNL A   1      48.300  30.702  27.400  1.00  0.00     0.031 C 
ATOM     59  C   UNL A   1      47.194  24.894  26.269  1.00  0.00     0.029 A 
ATOM     60  C   UNL A   1      47.008  26.236  26.653  1.00  0.00     0.049 A 
ATOM     61  H   UNL A   1      45.281  27.221  27.360  1.00  0.00     0.167 HD
ATOM     62  C   UNL A   1      47.813  28.531  26.997  1.00  0.00     0.074 A 
ATOM     63  C   UNL A   1      48.873  29.548  26.996  1.00  0.00     0.031 C 
ATOM     64  C   UNL A   1      48.004  27.200  26.622  1.00  0.00     0.037 A 
BRANCH  51  65
ATOM     65  C   UNL A   1      43.294  23.418  27.043  1.00  0.00     0.058 A 
ATOM     66  C   UNL A   1      43.086  23.016  25.739  1.00  0.00     0.135 A 
ATOM     67  C   UNL A   1      43.190  22.486  28.065  1.00  0.00     0.135 A 
ATOM     68  F   UNL A   1      43.184  23.903  24.753  1.00  0.00    -0.206 F 
ATOM     69  C   UNL A   1      42.791  21.756  25.459  1.00  0.00     0.059 A 
ATOM     70  C   UNL A   1      42.885  21.173  27.735  1.00  0.00     0.059 A 
ATOM     71  F   UNL A   1      43.379  22.842  29.332  1.00  0.00    -0.206 F 
ATOM     72  C   UNL A   1      42.690  20.841  26.409  1.00  0.00     0.060 A 
BRANCH  72  73
ATOM     73  S   UNL A   1      42.292  19.131  25.965  1.00  0.00     0.124 S 
ATOM     74  O   UNL A   1      40.786  19.006  25.720  1.00  0.00    -0.237 OA
ATOM     75  O   UNL A   1      43.050  18.745  24.692  1.00  0.00    -0.237 OA
ATOM     76  O   UNL A   1      42.750  18.090  27.240  1.00  0.00    -0.744 OA
ENDBRANCH  72  73
ENDBRANCH  51  65
BRANCH  52  77
ATOM     77  C   UNL A   1      46.403  32.780  28.262  1.00  0.00     0.058 A 
ATOM     78  C   UNL A   1      46.353  33.587  27.143  1.00  0.00     0.135 A 
ATOM     79  C   UNL A   1      46.969  33.275  29.428  1.00  0.00     0.135 A 
ATOM     80  F   UNL A   1      45.812  33.121  26.021  1.00  0.00    -0.206 F 
ATOM     81  C   UNL A   1      46.836  34.819  27.174  1.00  0.00     0.059 A 
ATOM     82  C   UNL A   1      47.461  34.572  29.428  1.00  0.00     0.059 A 
ATOM     83  F   UNL A   1      47.039  32.522  30.522  1.00  0.00    -0.206 F 
ATOM     84  C   UNL A   1      47.378  35.322  28.270  1.00  0.00     0.060 A 
BRANCH  84  85
ATOM     85  S   UNL A   1      48.015  37.017  28.256  1.00  0.00     0.124 S 
ATOM     86  O   UNL A   1      47.130  37.886  27.360  1.00  0.00    -0.237 OA
ATOM     87  O   UNL A   1      48.007  37.578  29.679  1.00  0.00    -0.237 OA
ATOM     88  O   UNL A   1      49.615  37.019  27.652  1.00  0.00    -0.744 OA
ENDBRANCH  84  85
ENDBRANCH  52  77
BRANCH  64  89
ATOM     89  C   UNL A   1      49.388  26.783  26.151  1.00  0.00     0.058 A 
ATOM     90  C   UNL A   1      50.304  26.257  27.040  1.00  0.00     0.135 A 
ATOM     91  C   UNL A   1      49.744  26.927  24.818  1.00  0.00     0.135 A 
ATOM     92  F   UNL A   1      49.970  26.116  28.320  1.00  0.00    -0.206 F 
ATOM     93  C   UNL A   1      51.510  25.892  26.633  1.00  0.00     0.059 A 
ATOM     94  C   UNL A   1      51.014  26.529  24.424  1.00  0.00     0.059 A 
ATOM     95  F   UNL A   1      48.888  27.435  23.937  1.00  0.00    -0.206 F 
ATOM     96  C   UNL A   1      51.879  26.011  25.369  1.00  0.00     0.060 A 
BRANCH  96  97
ATOM     97  S   UNL A   1      53.538  25.486  24.870  1.00  0.00     0.124 S 
ATOM     98  O   UNL A   1      53.844  26.027  23.470  1.00  0.00    -0.237 OA
ATOM     99  O   UNL A   1      54.566  26.032  25.864  1.00  0.00    -0.237 OA
ATOM    100  O   UNL A   1      53.615  23.778  24.851  1.00  0.00    -0.744 OA
ENDBRANCH  96  97
ENDBRANCH  64  89
ENDBRANCH  38  39
ENDBRANCH  30  33
ENDBRANCH   1  29
TORSDOF 15
ENDMDL
MODEL 2
REMARK VINA RESULT:     -13.6      2.710      8.661
REMARK SMILES Cc1cc(S(F)(F)(F)(F)F)cc2c1O[C@H](C(F)(F)F)C(C(=O)NCCCNC(=O)c1ccc(-c3c4nc(c(-c5c(F)cc(S(=O)(=O)[O-])cc5F)c5ccc([nH]5)c(-c5c(F)cc(S(=O)(=O)[O-])cc5F)c5nc(c(-c6c(F)cc(S(=O)(=O)[O-])cc6F)c6ccc3[nH]6)C=C5)C=C4)cc1)=C2
REMARK SMILES IDX 26 1 25 2 24 3 23 4 21 5 22 6 20 8 1 9 2 10 3 11 13 12 4 13
REMARK SMILES IDX 12 14 14 15 11 16 96 17 15 18 5 19 6 20 7 21 8 22 9 23 10 24
REMARK SMILES IDX 16 25 17 26 18 27 19 28 27 29 28 30 29 32 30 33 31 34 95 35
REMARK SMILES IDX 32 36 94 37 33 38 34 39 35 40 88 41 36 42 93 43 87 44 89 45
REMARK SMILES IDX 37 46 92 47 86 48 85 49 38 51 72 52 51 53 71 54 52 55 55 56
REMARK SMILES IDX 70 57 90 58 53 59 54 60 69 62 91 63 56 64 39 65 40 66 49 67
REMARK SMILES IDX 41 68 42 69 48 70 50 71 43 72 44 73 45 74 46 75 47 76 73 77
REMARK SMILES IDX 74 78 83 79 75 80 76 81 82 82 84 83 77 84 78 85 79 86 80 87
REMARK SMILES IDX 81 88 57 89 58 90 67 91 59 92 60 93 66 94 68 95 61 96 62 97
REMARK SMILES IDX 63 98 64 99 65 100
REMARK H PARENT 23 7 27 31 89 50 55 61
REMARK Flexibility Score: inf
ROOT
ATOM      1  C   UNL A   1      38.837  20.444  25.748  1.00  0.00     0.118 C 
ENDROOT
BRANCH   1   2
ATOM      2  C   UNL A   1      37.824  20.235  24.634  1.00  0.00     0.042 C 
BRANCH   2   3
ATOM      3  C   UNL A   1      36.682  21.226  24.795  1.00  0.00     0.118 C 
BRANCH   3   4
ATOM      4  N   UNL A   1      35.713  20.702  25.768  1.00  0.00    -0.352 N 
ATOM      5  C   UNL A   1      34.465  21.433  26.028  1.00  0.00     0.251 C 
ATOM      6  O   UNL A   1      33.627  20.981  26.870  1.00  0.00    -0.270 OA
ATOM      7  H   UNL A   1      35.900  19.862  26.246  1.00  0.00     0.163 HD
BRANCH   5   8
ATOM      8  C   UNL A   1      34.176  22.731  25.291  1.00  0.00     0.067 C 
ATOM      9  C   UNL A   1      33.290  26.313  21.705  1.00  0.00     0.048 C 
ATOM     10  C   UNL A   1      33.382  26.281  23.222  1.00  0.00    -0.007 A 
ATOM     11  C   UNL A   1      33.259  27.449  23.942  1.00  0.00     0.031 A 
ATOM     12  C   UNL A   1      33.646  25.088  23.894  1.00  0.00     0.130 A 
ATOM     13  C   UNL A   1      33.400  27.450  25.323  1.00  0.00     0.108 A 
ATOM     14  C   UNL A   1      33.784  25.092  25.301  1.00  0.00     0.019 A 
ATOM     15  O   UNL A   1      33.789  23.811  23.185  1.00  0.00    -0.475 OA
ATOM     16  C   UNL A   1      33.653  26.293  26.003  1.00  0.00     0.036 A 
ATOM     17  C   UNL A   1      34.061  23.826  25.980  1.00  0.00     0.025 C 
ATOM     18  C   UNL A   1      34.045  22.696  23.903  1.00  0.00     0.314 C 
BRANCH  13  19
ATOM     19  S   UNL A   1      33.247  29.007  26.235  1.00  0.00     0.310 S 
ATOM     20  F   UNL A   1      33.134  28.244  27.621  1.00  0.00    -0.094 F 
ATOM     21  F   UNL A   1      31.682  28.870  26.111  1.00  0.00    -0.094 F 
ATOM     22  F   UNL A   1      33.096  30.337  27.024  1.00  0.00    -0.094 F 
ATOM     23  F   UNL A   1      34.808  29.053  26.471  1.00  0.00    -0.094 F 
ATOM     24  F   UNL A   1      33.409  27.599  25.534  1.00  0.00    -0.094 F 
ENDBRANCH  13  19
BRANCH  18  25
ATOM     25  C   UNL A   1      32.768  21.892  23.718  1.00  0.00     0.429 C 
ATOM     26  F   UNL A   1      33.037  20.596  23.840  1.00  0.00    -0.167 F 
ATOM     27  F   UNL A   1      31.882  22.250  24.644  1.00  0.00    -0.167 F 
ATOM     28  F   UNL A   1      32.266  22.130  22.509  1.00  0.00    -0.167 F 
ENDBRANCH  18  25
ENDBRANCH   5   8
ENDBRANCH   3   4
ENDBRANCH   2   3
ENDBRANCH   1   2
BRANCH   1  29
ATOM     29  N   UNL A   1      39.734  19.282  25.818  1.00  0.00    -0.352 N 
ATOM     30  C   UNL A   1      41.159  19.472  26.124  1.00  0.00     0.251 C 
ATOM     31  H   UNL A   1      39.381  18.377  25.659  1.00  0.00     0.163 HD
ATOM     32  O   UNL A   1      41.936  18.467  26.185  1.00  0.00    -0.269 OA
BRANCH  30  33
ATOM     33  C   UNL A   1      41.705  20.869  26.369  1.00  0.00     0.039 A 
ATOM     34  C   UNL A   1      41.713  21.418  27.647  1.00  0.00     0.014 A 
ATOM     35  C   UNL A   1      42.183  21.590  25.376  1.00  0.00     0.014 A 
ATOM     36  C   UNL A   1      42.654  22.444  27.888  1.00  0.00     0.010 A 
ATOM     37  C   UNL A   1      42.677  22.880  25.601  1.00  0.00     0.010 A 
ATOM     38  C   UNL A   1      42.911  23.307  26.823  1.00  0.00    -0.014 A 
BRANCH  38  39
ATOM     39  C   UNL A   1      43.452  24.707  27.069  1.00  0.00     0.031 A 
ATOM     40  C   UNL A   1      42.565  25.689  27.511  1.00  0.00     0.074 A 
ATOM     41  C   UNL A   1      44.799  24.927  26.839  1.00  0.00     0.049 A 
ATOM     42  N   UNL A   1      42.841  26.957  27.816  1.00  0.00    -0.248 NA
ATOM     43  C   UNL A   1      41.127  25.465  27.723  1.00  0.00     0.031 C 
ATOM     44  C   UNL A   1      45.703  23.940  26.401  1.00  0.00     0.029 A 
ATOM     45  N   UNL A   1      45.500  26.104  26.985  1.00  0.00    -0.354 N 
ATOM     46  C   UNL A   1      41.735  27.585  28.223  1.00  0.00     0.074 A 
ATOM     47  C   UNL A   1      40.616  26.636  28.162  1.00  0.00     0.031 C 
ATOM     48  C   UNL A   1      46.928  24.515  26.273  1.00  0.00     0.029 A 
ATOM     49  C   UNL A   1      46.810  25.872  26.630  1.00  0.00     0.049 A 
ATOM     50  H   UNL A   1      45.128  26.964  27.291  1.00  0.00     0.167 HD
ATOM     51  C   UNL A   1      41.618  28.912  28.641  1.00  0.00     0.037 A 
ATOM     52  C   UNL A   1      47.857  26.779  26.611  1.00  0.00     0.037 A 
ATOM     53  C   UNL A   1      42.675  29.808  28.664  1.00  0.00     0.049 A 
ATOM     54  C   UNL A   1      47.728  28.122  26.975  1.00  0.00     0.074 A 
ATOM     55  C   UNL A   1      42.574  31.145  29.090  1.00  0.00     0.029 A 
ATOM     56  N   UNL A   1      43.980  29.581  28.285  1.00  0.00    -0.354 N 
ATOM     57  N   UNL A   1      46.631  28.738  27.418  1.00  0.00    -0.248 NA
ATOM     58  C   UNL A   1      48.823  29.099  26.928  1.00  0.00     0.031 C 
ATOM     59  C   UNL A   1      43.800  31.721  28.963  1.00  0.00     0.029 A 
ATOM     60  C   UNL A   1      44.685  30.752  28.453  1.00  0.00     0.049 A 
ATOM     61  H   UNL A   1      44.345  28.730  27.951  1.00  0.00     0.167 HD
ATOM     62  C   UNL A   1      46.899  30.019  27.683  1.00  0.00     0.074 A 
ATOM     63  C   UNL A   1      48.311  30.271  27.364  1.00  0.00     0.031 C 
ATOM     64  C   UNL A   1      46.024  30.985  28.182  1.00  0.00     0.037 A 
BRANCH  51  65
ATOM     65  C   UNL A   1      40.253  29.400  29.100  1.00  0.00     0.058 A 
ATOM     66  C   UNL A   1      40.089  29.576  30.460  1.00  0.00     0.135 A 
ATOM     67  C   UNL A   1      39.235  29.784  28.240  1.00  0.00     0.135 A 
ATOM     68  F   UNL A   1      41.060  29.211  31.292  1.00  0.00    -0.206 F 
ATOM     69  C   UNL A   1      38.976  30.103  30.944  1.00  0.00     0.059 A 
ATOM     70  C   UNL A   1      38.084  30.339  28.780  1.00  0.00     0.059 A 
ATOM     71  F   UNL A   1      39.359  29.623  26.925  1.00  0.00    -0.206 F 
ATOM     72  C   UNL A   1      37.988  30.484  30.151  1.00  0.00     0.060 A 
BRANCH  72  73
ATOM     73  S   UNL A   1      36.492  31.207  30.870  1.00  0.00     0.124 S 
ATOM     74  O   UNL A   1      35.903  30.240  31.899  1.00  0.00    -0.237 OA
ATOM     75  O   UNL A   1      36.843  32.531  31.555  1.00  0.00    -0.237 OA
ATOM     76  O   UNL A   1      35.345  31.492  29.635  1.00  0.00    -0.744 OA
ENDBRANCH  72  73
ENDBRANCH  51  65
BRANCH  52  77
ATOM     77  C   UNL A   1      49.225  26.285  26.168  1.00  0.00     0.058 A 
ATOM     78  C   UNL A   1      50.006  25.691  27.139  1.00  0.00     0.135 A 
ATOM     79  C   UNL A   1      49.763  26.507  24.909  1.00  0.00     0.135 A 
ATOM     80  F   UNL A   1      49.499  25.474  28.349  1.00  0.00    -0.206 F 
ATOM     81  C   UNL A   1      51.254  25.332  26.879  1.00  0.00     0.059 A 
ATOM     82  C   UNL A   1      51.072  26.114  24.668  1.00  0.00     0.059 A 
ATOM     83  F   UNL A   1      49.041  27.084  23.953  1.00  0.00    -0.206 F 
ATOM     84  C   UNL A   1      51.795  25.525  25.688  1.00  0.00     0.060 A 
BRANCH  84  85
ATOM     85  S   UNL A   1      53.503  25.006  25.388  1.00  0.00     0.124 S 
ATOM     86  O   UNL A   1      54.075  25.794  24.207  1.00  0.00    -0.237 OA
ATOM     87  O   UNL A   1      54.346  25.277  26.636  1.00  0.00    -0.237 OA
ATOM     88  O   UNL A   1      53.537  23.335  25.028  1.00  0.00    -0.744 OA
ENDBRANCH  84  85
ENDBRANCH  52  77
BRANCH  64  89
ATOM     89  C   UNL A   1      46.574  32.378  28.443  1.00  0.00     0.058 A 
ATOM     90  C   UNL A   1      47.122  32.698  29.669  1.00  0.00     0.135 A 
ATOM     91  C   UNL A   1      46.533  33.344  27.448  1.00  0.00     0.135 A 
ATOM     92  F   UNL A   1      47.166  31.779  30.629  1.00  0.00    -0.206 F 
ATOM     93  C   UNL A   1      47.603  33.910  29.900  1.00  0.00     0.059 A 
ATOM     94  C   UNL A   1      47.051  34.601  27.722  1.00  0.00     0.059 A 
ATOM     95  F   UNL A   1      46.007  33.070  26.258  1.00  0.00    -0.206 F 
ATOM     96  C   UNL A   1      47.584  34.851  28.972  1.00  0.00     0.060 A 
BRANCH  96  97
ATOM     97  S   UNL A   1      48.264  36.487  29.344  1.00  0.00     0.124 S 
ATOM     98  O   UNL A   1      47.119  37.464  29.625  1.00  0.00    -0.237 OA
ATOM     99  O   UNL A   1      49.171  36.395  30.573  1.00  0.00    -0.237 OA
ATOM    100  O   UNL A   1      49.172  37.044  28.005  1.00  0.00    -0.744 OA
ENDBRANCH  96  97
ENDBRANCH  64  89
ENDBRANCH  38  39
ENDBRANCH  30  33
ENDBRANCH   1  29
TORSDOF 15
ENDMDL
MODEL 3
REMARK VINA RESULT:     -13.5      6.500     11.901
REMARK SMILES Cc1cc(S(F)(F)(F)(F)F)cc2c1O[C@H](C(F)(F)F)C(C(=O)NCCCNC(=O)c1ccc(-c3c4nc(c(-c5c(F)cc(S(=O)(=O)[O-])cc5F)c5ccc([nH]5)c(-c5c(F)cc(S(=O)(=O)[O-])cc5F)c5nc(c(-c6c(F)cc(S(=O)(=O)[O-])cc6F)c6ccc3[nH]6)C=C5)C=C4)cc1)=C2
REMARK SMILES IDX 26 1 25 2 24 3 23 4 21 5 22 6 20 8 1 9 2 10 3 11 13 12 4 13
REMARK SMILES IDX 12 14 14 15 11 16 96 17 15 18 5 19 6 20 7 21 8 22 9 23 10 24
REMARK SMILES IDX 16 25 17 26 18 27 19 28 27 29 28 30 29 32 30 33 31 34 95 35
REMARK SMILES IDX 32 36 94 37 33 38 34 39 35 40 88 41 36 42 93 43 87 44 89 45
REMARK SMILES IDX 37 46 92 47 86 48 85 49 38 51 72 52 51 53 71 54 52 55 55 56
REMARK SMILES IDX 70 57 90 58 53 59 54 60 69 62 91 63 56 64 39 65 40 66 49 67
REMARK SMILES IDX 41 68 42 69 48 70 50 71 43 72 44 73 45 74 46 75 47 76 73 77
REMARK SMILES IDX 74 78 83 79 75 80 76 81 82 82 84 83 77 84 78 85 79 86 80 87
REMARK SMILES IDX 81 88 57 89 58 90 67 91 59 92 60 93 66 94 68 95 61 96 62 97
REMARK SMILES IDX 63 98 64 99 65 100
REMARK H PARENT 23 7 27 31 89 50 55 61
REMARK Flexibility Score: inf
ROOT
ATOM      1  C   UNL A   1      38.952  23.740  26.829  1.00  0.00     0.118 C 
ENDROOT
BRANCH   1   2
ATOM      2  C   UNL A   1      37.869  23.905  25.776  1.00  0.00     0.042 C 
BRANCH   2   3
ATOM      3  C   UNL A   1      37.464  22.538  25.246  1.00  0.00     0.118 C 
BRANCH   3   4
ATOM      4  N   UNL A   1      36.618  21.859  26.236  1.00  0.00    -0.352 N 
ATOM      5  C   UNL A   1      35.176  22.139  26.287  1.00  0.00     0.251 C 
ATOM      6  O   UNL A   1      34.444  21.551  27.144  1.00  0.00    -0.270 OA
ATOM      7  H   UNL A   1      37.017  21.217  26.867  1.00  0.00     0.163 HD
BRANCH   5   8
ATOM      8  C   UNL A   1      34.560  23.131  25.314  1.00  0.00     0.067 C 
ATOM      9  C   UNL A   1      32.734  25.496  21.125  1.00  0.00     0.048 C 
ATOM     10  C   UNL A   1      32.868  25.832  22.601  1.00  0.00    -0.007 A 
ATOM     11  C   UNL A   1      32.481  27.071  23.061  1.00  0.00     0.031 A 
ATOM     12  C   UNL A   1      33.433  24.918  23.490  1.00  0.00     0.130 A 
ATOM     13  C   UNL A   1      32.652  27.419  24.395  1.00  0.00     0.108 A 
ATOM     14  C   UNL A   1      33.601  25.274  24.848  1.00  0.00     0.019 A 
ATOM     15  O   UNL A   1      33.867  23.583  23.062  1.00  0.00    -0.475 OA
ATOM     16  C   UNL A   1      33.197  26.538  25.284  1.00  0.00     0.036 A 
ATOM     17  C   UNL A   1      34.197  24.296  25.759  1.00  0.00     0.025 C 
ATOM     18  C   UNL A   1      34.407  22.752  23.980  1.00  0.00     0.314 C 
BRANCH  13  19
ATOM     19  S   UNL A   1      32.144  29.062  24.961  1.00  0.00     0.310 S 
ATOM     20  F   UNL A   1      31.365  29.345  23.608  1.00  0.00    -0.094 F 
ATOM     21  F   UNL A   1      33.429  29.648  24.262  1.00  0.00    -0.094 F 
ATOM     22  F   UNL A   1      31.719  30.482  25.431  1.00  0.00    -0.094 F 
ATOM     23  F   UNL A   1      30.792  28.478  25.531  1.00  0.00    -0.094 F 
ATOM     24  F   UNL A   1      32.506  27.632  24.392  1.00  0.00    -0.094 F 
ENDBRANCH  13  19
BRANCH  18  25
ATOM     25  C   UNL A   1      33.361  21.652  24.074  1.00  0.00     0.429 C 
ATOM     26  F   UNL A   1      32.747  21.523  22.903  1.00  0.00    -0.167 F 
ATOM     27  F   UNL A   1      33.953  20.504  24.394  1.00  0.00    -0.167 F 
ATOM     28  F   UNL A   1      32.470  21.967  25.010  1.00  0.00    -0.167 F 
ENDBRANCH  18  25
ENDBRANCH   5   8
ENDBRANCH   3   4
ENDBRANCH   2   3
ENDBRANCH   1   2
BRANCH   1  29
ATOM     29  N   UNL A   1      40.254  23.567  26.170  1.00  0.00    -0.352 N 
ATOM     30  C   UNL A   1      41.399  24.392  26.579  1.00  0.00     0.251 C 
ATOM     31  H   UNL A   1      40.359  22.899  25.455  1.00  0.00     0.163 HD
ATOM     32  O   UNL A   1      42.526  24.243  26.009  1.00  0.00    -0.269 OA
BRANCH  30  33
ATOM     33  C   UNL A   1      41.238  25.424  27.683  1.00  0.00     0.039 A 
ATOM     34  C   UNL A   1      42.287  26.269  28.029  1.00  0.00     0.014 A 
ATOM     35  C   UNL A   1      40.100  25.542  28.334  1.00  0.00     0.014 A 
ATOM     36  C   UNL A   1      41.939  27.484  28.659  1.00  0.00     0.010 A 
ATOM     37  C   UNL A   1      39.955  26.487  29.356  1.00  0.00     0.010 A 
ATOM     38  C   UNL A   1      40.846  27.440  29.523  1.00  0.00    -0.014 A 
BRANCH  38  39
ATOM     39  C   UNL A   1      40.688  28.470  30.631  1.00  0.00     0.031 A 
ATOM     40  C   UNL A   1      39.736  29.476  30.465  1.00  0.00     0.074 A 
ATOM     41  C   UNL A   1      41.500  28.349  31.745  1.00  0.00     0.049 A 
ATOM     42  N   UNL A   1      39.418  30.446  31.324  1.00  0.00    -0.248 NA
ATOM     43  C   UNL A   1      38.896  29.626  29.267  1.00  0.00     0.031 C 
ATOM     44  C   UNL A   1      42.458  27.332  31.925  1.00  0.00     0.029 A 
ATOM     45  N   UNL A   1      41.537  29.162  32.856  1.00  0.00    -0.354 N 
ATOM     46  C   UNL A   1      38.445  31.208  30.820  1.00  0.00     0.074 A 
ATOM     47  C   UNL A   1      38.100  30.695  29.487  1.00  0.00     0.031 C 
ATOM     48  C   UNL A   1      43.071  27.535  33.120  1.00  0.00     0.029 A 
ATOM     49  C   UNL A   1      42.506  28.682  33.709  1.00  0.00     0.049 A 
ATOM     50  H   UNL A   1      40.968  29.951  33.014  1.00  0.00     0.167 HD
ATOM     51  C   UNL A   1      37.831  32.309  31.420  1.00  0.00     0.037 A 
ATOM     52  C   UNL A   1      42.892  29.202  34.934  1.00  0.00     0.037 A 
ATOM     53  C   UNL A   1      38.187  32.803  32.665  1.00  0.00     0.049 A 
ATOM     54  C   UNL A   1      42.318  30.339  35.509  1.00  0.00     0.074 A 
ATOM     55  C   UNL A   1      37.574  33.906  33.287  1.00  0.00     0.029 A 
ATOM     56  N   UNL A   1      39.174  32.338  33.506  1.00  0.00    -0.354 N 
ATOM     57  N   UNL A   1      41.318  31.076  35.022  1.00  0.00    -0.248 NA
ATOM     58  C   UNL A   1      42.740  30.918  36.791  1.00  0.00     0.031 C 
ATOM     59  C   UNL A   1      38.187  34.110  34.484  1.00  0.00     0.029 A 
ATOM     60  C   UNL A   1      39.195  33.137  34.627  1.00  0.00     0.049 A 
ATOM     61  H   UNL A   1      39.762  31.567  33.336  1.00  0.00     0.167 HD
ATOM     62  C   UNL A   1      41.030  32.072  35.865  1.00  0.00     0.074 A 
ATOM     63  C   UNL A   1      41.946  31.988  37.010  1.00  0.00     0.031 C 
ATOM     64  C   UNL A   1      40.037  33.043  35.724  1.00  0.00     0.037 A 
BRANCH  51  65
ATOM     65  C   UNL A   1      36.709  33.003  30.666  1.00  0.00     0.058 A 
ATOM     66  C   UNL A   1      35.426  32.766  31.119  1.00  0.00     0.135 A 
ATOM     67  C   UNL A   1      36.909  33.931  29.654  1.00  0.00     0.135 A 
ATOM     68  F   UNL A   1      35.225  31.879  32.089  1.00  0.00    -0.206 F 
ATOM     69  C   UNL A   1      34.395  33.413  30.599  1.00  0.00     0.059 A 
ATOM     70  C   UNL A   1      35.807  34.595  29.136  1.00  0.00     0.059 A 
ATOM     71  F   UNL A   1      38.131  34.179  29.192  1.00  0.00    -0.206 F 
ATOM     72  C   UNL A   1      34.552  34.307  29.637  1.00  0.00     0.060 A 
BRANCH  72  73
ATOM     73  S   UNL A   1      33.104  35.166  28.970  1.00  0.00     0.124 S 
ATOM     74  O   UNL A   1      32.122  35.466  30.105  1.00  0.00    -0.237 OA
ATOM     75  O   UNL A   1      33.546  36.478  28.317  1.00  0.00    -0.237 OA
ATOM     76  O   UNL A   1      32.342  34.176  27.803  1.00  0.00    -0.744 OA
ENDBRANCH  72  73
ENDBRANCH  51  65
BRANCH  52  77
ATOM     77  C   UNL A   1      44.003  28.497  35.695  1.00  0.00     0.058 A 
ATOM     78  C   UNL A   1      43.608  27.556  36.625  1.00  0.00     0.135 A 
ATOM     79  C   UNL A   1      45.346  28.829  35.596  1.00  0.00     0.135 A 
ATOM     80  F   UNL A   1      42.322  27.232  36.726  1.00  0.00    -0.206 F 
ATOM     81  C   UNL A   1      44.494  26.972  37.416  1.00  0.00     0.059 A 
ATOM     82  C   UNL A   1      46.249  28.194  36.436  1.00  0.00     0.059 A 
ATOM     83  F   UNL A   1      45.760  29.736  34.716  1.00  0.00    -0.206 F 
ATOM     84  C   UNL A   1      45.783  27.262  37.344  1.00  0.00     0.060 A 
BRANCH  84  85
ATOM     85  S   UNL A   1      46.950  26.425  38.446  1.00  0.00     0.124 S 
ATOM     86  O   UNL A   1      47.736  25.377  37.654  1.00  0.00    -0.237 OA
ATOM     87  O   UNL A   1      47.920  27.450  39.036  1.00  0.00    -0.237 OA
ATOM     88  O   UNL A   1      46.091  25.659  39.710  1.00  0.00    -0.744 OA
ENDBRANCH  84  85
ENDBRANCH  52  77
BRANCH  64  89
ATOM     89  C   UNL A   1      39.870  34.058  36.842  1.00  0.00     0.058 A 
ATOM     90  C   UNL A   1      40.473  35.298  36.762  1.00  0.00     0.135 A 
ATOM     91  C   UNL A   1      39.106  33.749  37.958  1.00  0.00     0.135 A 
ATOM     92  F   UNL A   1      41.207  35.603  35.696  1.00  0.00    -0.206 F 
ATOM     93  C   UNL A   1      40.329  36.185  37.734  1.00  0.00     0.059 A 
ATOM     94  C   UNL A   1      38.971  34.705  38.955  1.00  0.00     0.059 A 
ATOM     95  F   UNL A   1      38.516  32.563  38.070  1.00  0.00    -0.206 F 
ATOM     96  C   UNL A   1      39.603  35.925  38.807  1.00  0.00     0.060 A 
BRANCH  96  97
ATOM     97  S   UNL A   1      39.435  37.181  40.100  1.00  0.00     0.124 S 
ATOM     98  O   UNL A   1      40.822  37.689  40.501  1.00  0.00    -0.237 OA
ATOM     99  O   UNL A   1      38.598  38.348  39.570  1.00  0.00    -0.237 OA
ATOM    100  O   UNL A   1      38.662  36.497  41.463  1.00  0.00    -0.744 OA
ENDBRANCH  96  97
ENDBRANCH  64  89
ENDBRANCH  38  39
ENDBRANCH  30  33
ENDBRANCH   1  29
TORSDOF 15
ENDMDL
