MODEL 1
REMARK VINA RESULT:     -10.5      0.000      0.000
REMARK SMILES Cc1ncnc(OCCC(=O)NCCCNC(=O)c2ccc(-c3c4nc(c(-c5c(F)cc(S(=O)(=O)[O-])cc5F)c5ccc([nH]5)c(-c5c(F)cc(S(=O)(=O)[O-])cc5F)c5nc(c(-c6c(F)cc(S(=O)(=O)[O-])cc6F)c6ccc3[nH]6)C=C5)C=C4)cc2)c1C
REMARK SMILES IDX 14 1 13 2 12 3 10 4 11 5 9 7 8 8 7 9 6 10 1 11 2 12 3 13
REMARK SMILES IDX 85 14 4 15 86 16 5 17 15 18 16 19 17 20 18 22 19 23 20 24
REMARK SMILES IDX 84 25 21 26 83 27 22 28 23 29 24 30 77 31 25 32 82 33 76 34
REMARK SMILES IDX 78 35 26 36 81 37 75 38 74 39 27 41 61 42 40 43 60 44 41 45
REMARK SMILES IDX 44 46 59 47 79 48 42 49 43 50 58 52 80 53 45 54 28 55 29 56
REMARK SMILES IDX 38 57 30 58 31 59 37 60 39 61 32 62 33 63 34 64 35 65 36 66
REMARK SMILES IDX 62 67 63 68 72 69 64 70 65 71 71 72 73 73 66 74 67 75 68 76
REMARK SMILES IDX 69 77 70 78 46 79 47 80 56 81 48 82 49 83 55 84 57 85 50 86
REMARK SMILES IDX 51 87 52 88 53 89 54 90
REMARK H PARENT 12 6 16 21 78 40 44 51
REMARK Flexibility Score: inf
ROOT
ATOM      1  C   UNL A   1      42.226  21.319  27.404  1.00  0.00     0.042 C 
ENDROOT
BRANCH   1   2
ATOM      2  C   UNL A   1      42.425  20.740  26.005  1.00  0.00     0.117 C 
BRANCH   2   3
ATOM      3  N   UNL A   1      43.178  19.495  25.978  1.00  0.00    -0.356 N 
ATOM      4  C   UNL A   1      44.339  19.169  25.350  1.00  0.00     0.223 C 
ATOM      5  O   UNL A   1      44.863  18.093  25.647  1.00  0.00    -0.275 OA
ATOM      6  H   UNL A   1      42.778  18.765  26.503  1.00  0.00     0.163 HD
BRANCH   4   7
ATOM      7  C   UNL A   1      44.993  20.112  24.361  1.00  0.00     0.141 C 
BRANCH   7   8
ATOM      8  C   UNL A   1      46.018  21.093  24.935  1.00  0.00     0.241 C 
BRANCH   8   9
ATOM      9  O   UNL A   1      45.674  21.741  26.148  1.00  0.00    -0.477 OA
BRANCH   9  10
ATOM     10  C   UNL A   1      45.508  23.081  26.280  1.00  0.00     0.219 A 
ATOM     11  C   UNL A   1      45.981  26.100  28.412  1.00  0.00     0.067 C 
ATOM     12  C   UNL A   1      45.625  25.203  27.260  1.00  0.00     0.047 A 
ATOM     13  N   UNL A   1      45.624  25.793  26.049  1.00  0.00    -0.241 NA
ATOM     14  C   UNL A   1      45.405  23.836  27.437  1.00  0.00     0.032 A 
ATOM     15  C   UNL A   1      45.472  24.982  25.001  1.00  0.00     0.226 A 
ATOM     16  C   UNL A   1      44.903  23.327  28.752  1.00  0.00     0.052 C 
ATOM     17  N   UNL A   1      45.502  23.652  25.059  1.00  0.00    -0.202 NA
ENDBRANCH   9  10
ENDBRANCH   8   9
ENDBRANCH   7   8
ENDBRANCH   4   7
ENDBRANCH   2   3
ENDBRANCH   1   2
BRANCH   1  18
ATOM     18  C   UNL A   1      41.590  22.712  27.445  1.00  0.00     0.118 C 
BRANCH  18  19
ATOM     19  N   UNL A   1      41.970  23.550  26.325  1.00  0.00    -0.352 N 
ATOM     20  C   UNL A   1      41.881  24.914  26.167  1.00  0.00     0.251 C 
ATOM     21  H   UNL A   1      42.351  23.067  25.556  1.00  0.00     0.163 HD
ATOM     22  O   UNL A   1      42.138  25.383  25.057  1.00  0.00    -0.269 OA
BRANCH  20  23
ATOM     23  C   UNL A   1      41.467  25.841  27.259  1.00  0.00     0.039 A 
ATOM     24  C   UNL A   1      42.330  26.899  27.567  1.00  0.00     0.014 A 
ATOM     25  C   UNL A   1      40.348  25.632  28.073  1.00  0.00     0.014 A 
ATOM     26  C   UNL A   1      42.075  27.740  28.660  1.00  0.00     0.010 A 
ATOM     27  C   UNL A   1      40.069  26.505  29.145  1.00  0.00     0.010 A 
ATOM     28  C   UNL A   1      40.937  27.564  29.465  1.00  0.00    -0.014 A 
BRANCH  28  29
ATOM     29  C   UNL A   1      40.698  28.476  30.633  1.00  0.00     0.031 A 
ATOM     30  C   UNL A   1      41.552  28.400  31.879  1.00  0.00     0.074 A 
ATOM     31  C   UNL A   1      39.738  29.425  30.571  1.00  0.00     0.049 A 
ATOM     32  N   UNL A   1      41.518  29.152  32.954  1.00  0.00    -0.248 NA
ATOM     33  C   UNL A   1      42.574  27.345  31.924  1.00  0.00     0.031 C 
ATOM     34  C   UNL A   1      38.832  29.634  29.442  1.00  0.00     0.029 A 
ATOM     35  N   UNL A   1      39.375  30.404  31.470  1.00  0.00    -0.354 N 
ATOM     36  C   UNL A   1      42.515  28.670  33.796  1.00  0.00     0.074 A 
ATOM     37  C   UNL A   1      43.100  27.526  33.128  1.00  0.00     0.031 C 
ATOM     38  C   UNL A   1      38.048  30.694  29.696  1.00  0.00     0.029 A 
ATOM     39  C   UNL A   1      38.361  31.221  31.024  1.00  0.00     0.049 A 
ATOM     40  H   UNL A   1      39.803  30.510  32.350  1.00  0.00     0.167 HD
ATOM     41  C   UNL A   1      42.927  29.145  34.999  1.00  0.00     0.037 A 
ATOM     42  C   UNL A   1      37.745  32.273  31.605  1.00  0.00     0.037 A 
ATOM     43  C   UNL A   1      42.358  30.286  35.676  1.00  0.00     0.049 A 
ATOM     44  C   UNL A   1      38.171  32.739  32.973  1.00  0.00     0.074 A 
ATOM     45  C   UNL A   1      42.739  30.841  36.888  1.00  0.00     0.029 A 
ATOM     46  N   UNL A   1      41.293  31.042  35.213  1.00  0.00    -0.354 N 
ATOM     47  N   UNL A   1      39.139  32.289  33.733  1.00  0.00    -0.248 NA
ATOM     48  C   UNL A   1      37.418  33.858  33.563  1.00  0.00     0.031 C 
ATOM     49  C   UNL A   1      41.870  31.897  37.183  1.00  0.00     0.029 A 
ATOM     50  C   UNL A   1      40.985  32.040  36.129  1.00  0.00     0.049 A 
ATOM     51  H   UNL A   1      40.824  30.895  34.361  1.00  0.00     0.167 HD
ATOM     52  C   UNL A   1      39.128  33.083  34.877  1.00  0.00     0.074 A 
ATOM     53  C   UNL A   1      38.066  34.051  34.705  1.00  0.00     0.031 C 
ATOM     54  C   UNL A   1      39.929  33.010  35.968  1.00  0.00     0.037 A 
BRANCH  41  55
ATOM     55  C   UNL A   1      44.068  28.432  35.680  1.00  0.00     0.058 A 
ATOM     56  C   UNL A   1      45.404  28.797  35.450  1.00  0.00     0.135 A 
ATOM     57  C   UNL A   1      43.823  27.419  36.624  1.00  0.00     0.135 A 
ATOM     58  F   UNL A   1      45.698  29.755  34.556  1.00  0.00    -0.206 F 
ATOM     59  C   UNL A   1      46.456  28.164  36.106  1.00  0.00     0.059 A 
ATOM     60  C   UNL A   1      44.858  26.794  37.314  1.00  0.00     0.059 A 
ATOM     61  F   UNL A   1      42.564  27.037  36.893  1.00  0.00    -0.206 F 
ATOM     62  C   UNL A   1      46.172  27.163  37.037  1.00  0.00     0.060 A 
BRANCH  62  63
ATOM     63  S   UNL A   1      47.553  26.355  37.874  1.00  0.00     0.124 S 
ATOM     64  O   UNL A   1      48.661  26.669  36.978  1.00  0.00    -0.237 OA
ATOM     65  O   UNL A   1      47.572  27.030  39.167  1.00  0.00    -0.237 OA
ATOM     66  O   UNL A   1      47.156  24.950  37.908  1.00  0.00    -0.744 OA
ENDBRANCH  62  63
ENDBRANCH  41  55
BRANCH  42  67
ATOM     67  C   UNL A   1      36.654  32.981  30.878  1.00  0.00     0.058 A 
ATOM     68  C   UNL A   1      35.309  32.801  31.237  1.00  0.00     0.135 A 
ATOM     69  C   UNL A   1      36.934  33.860  29.819  1.00  0.00     0.135 A 
ATOM     70  F   UNL A   1      34.988  31.956  32.228  1.00  0.00    -0.206 F 
ATOM     71  C   UNL A   1      34.282  33.468  30.577  1.00  0.00     0.059 A 
ATOM     72  C   UNL A   1      35.926  34.559  29.161  1.00  0.00     0.059 A 
ATOM     73  F   UNL A   1      38.203  34.069  29.437  1.00  0.00    -0.206 F 
ATOM     74  C   UNL A   1      34.602  34.354  29.546  1.00  0.00     0.060 A 
BRANCH  74  75
ATOM     75  S   UNL A   1      33.265  35.267  28.746  1.00  0.00     0.124 S 
ATOM     76  O   UNL A   1      32.530  35.785  29.896  1.00  0.00    -0.237 OA
ATOM     77  O   UNL A   1      34.001  36.255  27.962  1.00  0.00    -0.237 OA
ATOM     78  O   UNL A   1      32.576  34.245  27.966  1.00  0.00    -0.744 OA
ENDBRANCH  74  75
ENDBRANCH  42  67
BRANCH  54  79
ATOM     79  C   UNL A   1      39.715  34.010  37.076  1.00  0.00     0.058 A 
ATOM     80  C   UNL A   1      39.035  33.671  38.257  1.00  0.00     0.135 A 
ATOM     81  C   UNL A   1      40.262  35.302  36.991  1.00  0.00     0.135 A 
ATOM     82  F   UNL A   1      38.485  32.453  38.393  1.00  0.00    -0.206 F 
ATOM     83  C   UNL A   1      38.894  34.576  39.305  1.00  0.00     0.059 A 
ATOM     84  C   UNL A   1      40.157  36.215  38.038  1.00  0.00     0.059 A 
ATOM     85  F   UNL A   1      40.931  35.681  35.890  1.00  0.00    -0.206 F 
ATOM     86  C   UNL A   1      39.465  35.845  39.190  1.00  0.00     0.060 A 
BRANCH  86  87
ATOM     87  S   UNL A   1      39.314  36.990  40.579  1.00  0.00     0.124 S 
ATOM     88  O   UNL A   1      38.719  38.157  39.937  1.00  0.00    -0.237 OA
ATOM     89  O   UNL A   1      38.443  36.255  41.492  1.00  0.00    -0.237 OA
ATOM     90  O   UNL A   1      40.690  37.160  41.035  1.00  0.00    -0.744 OA
ENDBRANCH  86  87
ENDBRANCH  54  79
ENDBRANCH  28  29
ENDBRANCH  20  23
ENDBRANCH  18  19
ENDBRANCH   1  18
TORSDOF 16
ENDMDL
MODEL 2
REMARK VINA RESULT:     -10.2      4.867     12.308
REMARK SMILES Cc1ncnc(OCCC(=O)NCCCNC(=O)c2ccc(-c3c4nc(c(-c5c(F)cc(S(=O)(=O)[O-])cc5F)c5ccc([nH]5)c(-c5c(F)cc(S(=O)(=O)[O-])cc5F)c5nc(c(-c6c(F)cc(S(=O)(=O)[O-])cc6F)c6ccc3[nH]6)C=C5)C=C4)cc2)c1C
REMARK SMILES IDX 14 1 13 2 12 3 10 4 11 5 9 7 8 8 7 9 6 10 1 11 2 12 3 13
REMARK SMILES IDX 85 14 4 15 86 16 5 17 15 18 16 19 17 20 18 22 19 23 20 24
REMARK SMILES IDX 84 25 21 26 83 27 22 28 23 29 24 30 77 31 25 32 82 33 76 34
REMARK SMILES IDX 78 35 26 36 81 37 75 38 74 39 27 41 61 42 40 43 60 44 41 45
REMARK SMILES IDX 44 46 59 47 79 48 42 49 43 50 58 52 80 53 45 54 28 55 29 56
REMARK SMILES IDX 38 57 30 58 31 59 37 60 39 61 32 62 33 63 34 64 35 65 36 66
REMARK SMILES IDX 62 67 63 68 72 69 64 70 65 71 71 72 73 73 66 74 67 75 68 76
REMARK SMILES IDX 69 77 70 78 46 79 47 80 56 81 48 82 49 83 55 84 57 85 50 86
REMARK SMILES IDX 51 87 52 88 53 89 54 90
REMARK H PARENT 12 6 16 21 78 40 44 51
REMARK Flexibility Score: inf
ROOT
ATOM      1  C   UNL A   1      33.406  33.763  28.031  1.00  0.00     0.042 C 
ENDROOT
BRANCH   1   2
ATOM      2  C   UNL A   1      33.881  35.158  28.431  1.00  0.00     0.117 C 
BRANCH   2   3
ATOM      3  N   UNL A   1      32.987  35.852  29.345  1.00  0.00    -0.356 N 
ATOM      4  C   UNL A   1      32.963  35.899  30.705  1.00  0.00     0.223 C 
ATOM      5  O   UNL A   1      32.208  36.719  31.231  1.00  0.00    -0.275 OA
ATOM      6  H   UNL A   1      32.278  36.375  28.906  1.00  0.00     0.163 HD
BRANCH   4   7
ATOM      7  C   UNL A   1      33.864  35.015  31.541  1.00  0.00     0.141 C 
BRANCH   7   8
ATOM      8  C   UNL A   1      34.740  35.726  32.577  1.00  0.00     0.241 C 
BRANCH   8   9
ATOM      9  O   UNL A   1      36.112  35.369  32.607  1.00  0.00    -0.477 OA
BRANCH   9  10
ATOM     10  C   UNL A   1      36.604  34.276  33.242  1.00  0.00     0.219 A 
ATOM     11  C   UNL A   1      39.010  31.432  33.170  1.00  0.00     0.067 C 
ATOM     12  C   UNL A   1      37.948  32.397  33.616  1.00  0.00     0.047 A 
ATOM     13  N   UNL A   1      37.820  32.536  34.951  1.00  0.00    -0.241 NA
ATOM     14  C   UNL A   1      37.219  33.159  32.702  1.00  0.00     0.032 A 
ATOM     15  C   UNL A   1      37.000  33.504  35.364  1.00  0.00     0.226 A 
ATOM     16  C   UNL A   1      36.994  32.642  31.315  1.00  0.00     0.052 C 
ATOM     17  N   UNL A   1      36.459  34.430  34.574  1.00  0.00    -0.202 NA
ENDBRANCH   9  10
ENDBRANCH   8   9
ENDBRANCH   7   8
ENDBRANCH   4   7
ENDBRANCH   2   3
ENDBRANCH   1   2
BRANCH   1  18
ATOM     18  C   UNL A   1      34.290  32.613  28.521  1.00  0.00     0.118 C 
BRANCH  18  19
ATOM     19  N   UNL A   1      33.798  31.305  28.135  1.00  0.00    -0.352 N 
ATOM     20  C   UNL A   1      34.465  30.108  28.005  1.00  0.00     0.251 C 
ATOM     21  H   UNL A   1      32.835  31.267  27.935  1.00  0.00     0.163 HD
ATOM     22  O   UNL A   1      33.851  29.157  27.520  1.00  0.00    -0.269 OA
BRANCH  20  23
ATOM     23  C   UNL A   1      35.891  29.917  28.396  1.00  0.00     0.039 A 
ATOM     24  C   UNL A   1      36.863  30.139  27.414  1.00  0.00     0.014 A 
ATOM     25  C   UNL A   1      36.295  29.401  29.633  1.00  0.00     0.014 A 
ATOM     26  C   UNL A   1      38.215  29.863  27.664  1.00  0.00     0.010 A 
ATOM     27  C   UNL A   1      37.661  29.164  29.897  1.00  0.00     0.010 A 
ATOM     28  C   UNL A   1      38.640  29.377  28.912  1.00  0.00    -0.014 A 
BRANCH  28  29
ATOM     29  C   UNL A   1      40.094  29.082  29.144  1.00  0.00     0.031 A 
ATOM     30  C   UNL A   1      40.689  27.735  28.799  1.00  0.00     0.074 A 
ATOM     31  C   UNL A   1      40.915  30.041  29.624  1.00  0.00     0.049 A 
ATOM     32  N   UNL A   1      41.936  27.335  28.881  1.00  0.00    -0.248 NA
ATOM     33  C   UNL A   1      39.766  26.706  28.298  1.00  0.00     0.031 C 
ATOM     34  C   UNL A   1      40.502  31.392  30.001  1.00  0.00     0.029 A 
ATOM     35  N   UNL A   1      42.272  30.035  29.859  1.00  0.00    -0.354 N 
ATOM     36  C   UNL A   1      41.950  26.016  28.435  1.00  0.00     0.074 A 
ATOM     37  C   UNL A   1      40.577  25.669  28.135  1.00  0.00     0.031 C 
ATOM     38  C   UNL A   1      41.582  32.094  30.381  1.00  0.00     0.029 A 
ATOM     39  C   UNL A   1      42.765  31.236  30.318  1.00  0.00     0.049 A 
ATOM     40  H   UNL A   1      42.839  29.243  29.711  1.00  0.00     0.167 HD
ATOM     41  C   UNL A   1      43.004  25.178  28.265  1.00  0.00     0.037 A 
ATOM     42  C   UNL A   1      44.016  31.616  30.652  1.00  0.00     0.037 A 
ATOM     43  C   UNL A   1      44.379  25.510  28.556  1.00  0.00     0.049 A 
ATOM     44  C   UNL A   1      45.162  30.646  30.523  1.00  0.00     0.074 A 
ATOM     45  C   UNL A   1      45.506  24.720  28.386  1.00  0.00     0.029 A 
ATOM     46  N   UNL A   1      44.818  26.717  29.076  1.00  0.00    -0.354 N 
ATOM     47  N   UNL A   1      45.155  29.418  30.066  1.00  0.00    -0.248 NA
ATOM     48  C   UNL A   1      46.488  31.115  30.956  1.00  0.00     0.031 C 
ATOM     49  C   UNL A   1      46.617  25.428  28.855  1.00  0.00     0.029 A 
ATOM     50  C   UNL A   1      46.194  26.682  29.261  1.00  0.00     0.049 A 
ATOM     51  H   UNL A   1      44.241  27.486  29.283  1.00  0.00     0.167 HD
ATOM     52  C   UNL A   1      46.474  28.976  30.134  1.00  0.00     0.074 A 
ATOM     53  C   UNL A   1      47.256  30.073  30.663  1.00  0.00     0.031 C 
ATOM     54  C   UNL A   1      46.984  27.769  29.788  1.00  0.00     0.037 A 
BRANCH  41  55
ATOM     55  C   UNL A   1      42.722  23.797  27.729  1.00  0.00     0.058 A 
ATOM     56  C   UNL A   1      42.673  23.542  26.349  1.00  0.00     0.135 A 
ATOM     57  C   UNL A   1      42.567  22.705  28.600  1.00  0.00     0.135 A 
ATOM     58  F   UNL A   1      42.811  24.547  25.470  1.00  0.00    -0.206 F 
ATOM     59  C   UNL A   1      42.449  22.261  25.853  1.00  0.00     0.059 A 
ATOM     60  C   UNL A   1      42.372  21.410  28.125  1.00  0.00     0.059 A 
ATOM     61  F   UNL A   1      42.615  22.888  29.929  1.00  0.00    -0.206 F 
ATOM     62  C   UNL A   1      42.300  21.201  26.749  1.00  0.00     0.060 A 
BRANCH  62  63
ATOM     63  S   UNL A   1      42.009  19.549  26.082  1.00  0.00     0.124 S 
ATOM     64  O   UNL A   1      42.343  18.709  27.229  1.00  0.00    -0.237 OA
ATOM     65  O   UNL A   1      40.596  19.601  25.725  1.00  0.00    -0.237 OA
ATOM     66  O   UNL A   1      42.937  19.467  24.957  1.00  0.00    -0.744 OA
ENDBRANCH  62  63
ENDBRANCH  41  55
BRANCH  42  67
ATOM     67  C   UNL A   1      44.261  33.005  31.133  1.00  0.00     0.058 A 
ATOM     68  C   UNL A   1      44.457  34.060  30.229  1.00  0.00     0.135 A 
ATOM     69  C   UNL A   1      44.290  33.308  32.504  1.00  0.00     0.135 A 
ATOM     70  F   UNL A   1      44.459  33.819  28.909  1.00  0.00    -0.206 F 
ATOM     71  C   UNL A   1      44.670  35.364  30.664  1.00  0.00     0.059 A 
ATOM     72  C   UNL A   1      44.474  34.609  32.963  1.00  0.00     0.059 A 
ATOM     73  F   UNL A   1      44.106  32.336  33.411  1.00  0.00    -0.206 F 
ATOM     74  C   UNL A   1      44.667  35.630  32.034  1.00  0.00     0.060 A 
BRANCH  74  75
ATOM     75  S   UNL A   1      44.873  37.338  32.583  1.00  0.00     0.124 S 
ATOM     76  O   UNL A   1      45.636  37.162  33.816  1.00  0.00    -0.237 OA
ATOM     77  O   UNL A   1      45.600  37.930  31.464  1.00  0.00    -0.237 OA
ATOM     78  O   UNL A   1      43.504  37.808  32.751  1.00  0.00    -0.744 OA
ENDBRANCH  74  75
ENDBRANCH  42  67
BRANCH  54  79
ATOM     79  C   UNL A   1      48.467  27.551  29.948  1.00  0.00     0.058 A 
ATOM     80  C   UNL A   1      49.383  27.950  28.961  1.00  0.00     0.135 A 
ATOM     81  C   UNL A   1      48.988  27.005  31.134  1.00  0.00     0.135 A 
ATOM     82  F   UNL A   1      48.945  28.472  27.805  1.00  0.00    -0.206 F 
ATOM     83  C   UNL A   1      50.757  27.806  29.138  1.00  0.00     0.059 A 
ATOM     84  C   UNL A   1      50.359  26.877  31.343  1.00  0.00     0.059 A 
ATOM     85  F   UNL A   1      48.161  26.613  32.116  1.00  0.00    -0.206 F 
ATOM     86  C   UNL A   1      51.237  27.275  30.336  1.00  0.00     0.060 A 
BRANCH  86  87
ATOM     87  S   UNL A   1      53.023  27.139  30.568  1.00  0.00     0.124 S 
ATOM     88  O   UNL A   1      53.441  28.534  30.473  1.00  0.00    -0.237 OA
ATOM     89  O   UNL A   1      53.118  26.538  31.896  1.00  0.00    -0.237 OA
ATOM     90  O   UNL A   1      53.448  26.282  29.466  1.00  0.00    -0.744 OA
ENDBRANCH  86  87
ENDBRANCH  54  79
ENDBRANCH  28  29
ENDBRANCH  20  23
ENDBRANCH  18  19
ENDBRANCH   1  18
TORSDOF 16
ENDMDL
MODEL 3
REMARK VINA RESULT:     -10.2      3.570      5.134
REMARK SMILES Cc1ncnc(OCCC(=O)NCCCNC(=O)c2ccc(-c3c4nc(c(-c5c(F)cc(S(=O)(=O)[O-])cc5F)c5ccc([nH]5)c(-c5c(F)cc(S(=O)(=O)[O-])cc5F)c5nc(c(-c6c(F)cc(S(=O)(=O)[O-])cc6F)c6ccc3[nH]6)C=C5)C=C4)cc2)c1C
REMARK SMILES IDX 14 1 13 2 12 3 10 4 11 5 9 7 8 8 7 9 6 10 1 11 2 12 3 13
REMARK SMILES IDX 85 14 4 15 86 16 5 17 15 18 16 19 17 20 18 22 19 23 20 24
REMARK SMILES IDX 84 25 21 26 83 27 22 28 23 29 24 30 77 31 25 32 82 33 76 34
REMARK SMILES IDX 78 35 26 36 81 37 75 38 74 39 27 41 61 42 40 43 60 44 41 45
REMARK SMILES IDX 44 46 59 47 79 48 42 49 43 50 58 52 80 53 45 54 28 55 29 56
REMARK SMILES IDX 38 57 30 58 31 59 37 60 39 61 32 62 33 63 34 64 35 65 36 66
REMARK SMILES IDX 62 67 63 68 72 69 64 70 65 71 71 72 73 73 66 74 67 75 68 76
REMARK SMILES IDX 69 77 70 78 46 79 47 80 56 81 48 82 49 83 55 84 57 85 50 86
REMARK SMILES IDX 51 87 52 88 53 89 54 90
REMARK H PARENT 12 6 16 21 78 40 44 51
REMARK Flexibility Score: inf
ROOT
ATOM      1  C   UNL A   1      40.399  22.002  27.394  1.00  0.00     0.042 C 
ENDROOT
BRANCH   1   2
ATOM      2  C   UNL A   1      39.338  22.411  26.374  1.00  0.00     0.117 C 
BRANCH   2   3
ATOM      3  N   UNL A   1      38.733  21.294  25.665  1.00  0.00    -0.356 N 
ATOM      4  C   UNL A   1      37.446  21.069  25.289  1.00  0.00     0.223 C 
ATOM      5  O   UNL A   1      37.233  20.122  24.528  1.00  0.00    -0.275 OA
ATOM      6  H   UNL A   1      39.362  20.579  25.415  1.00  0.00     0.163 HD
BRANCH   4   7
ATOM      7  C   UNL A   1      36.321  21.974  25.745  1.00  0.00     0.141 C 
BRANCH   7   8
ATOM      8  C   UNL A   1      35.231  22.276  24.713  1.00  0.00     0.241 C 
BRANCH   8   9
ATOM      9  O   UNL A   1      33.896  21.978  25.086  1.00  0.00    -0.477 OA
BRANCH   9  10
ATOM     10  C   UNL A   1      33.263  20.814  24.798  1.00  0.00     0.219 A 
ATOM     11  C   UNL A   1      32.272  18.352  22.182  1.00  0.00     0.067 C 
ATOM     12  C   UNL A   1      32.464  19.031  23.510  1.00  0.00     0.047 A 
ATOM     13  N   UNL A   1      32.489  18.210  24.578  1.00  0.00    -0.241 NA
ATOM     14  C   UNL A   1      32.694  20.404  23.603  1.00  0.00     0.032 A 
ATOM     15  C   UNL A   1      32.821  18.772  25.741  1.00  0.00     0.226 A 
ATOM     16  C   UNL A   1      32.158  21.322  22.548  1.00  0.00     0.052 C 
ATOM     17  N   UNL A   1      33.291  20.011  25.881  1.00  0.00    -0.202 NA
ENDBRANCH   9  10
ENDBRANCH   8   9
ENDBRANCH   7   8
ENDBRANCH   4   7
ENDBRANCH   2   3
ENDBRANCH   1   2
BRANCH   1  18
ATOM     18  C   UNL A   1      41.617  22.927  27.469  1.00  0.00     0.118 C 
BRANCH  18  19
ATOM     19  N   UNL A   1      41.784  23.754  26.290  1.00  0.00    -0.352 N 
ATOM     20  C   UNL A   1      41.550  25.098  26.108  1.00  0.00     0.251 C 
ATOM     21  H   UNL A   1      42.117  23.279  25.494  1.00  0.00     0.163 HD
ATOM     22  O   UNL A   1      41.632  25.546  24.963  1.00  0.00    -0.269 OA
BRANCH  20  23
ATOM     23  C   UNL A   1      41.180  26.024  27.217  1.00  0.00     0.039 A 
ATOM     24  C   UNL A   1      42.018  27.122  27.444  1.00  0.00     0.014 A 
ATOM     25  C   UNL A   1      40.137  25.781  28.116  1.00  0.00     0.014 A 
ATOM     26  C   UNL A   1      41.811  27.969  28.543  1.00  0.00     0.010 A 
ATOM     27  C   UNL A   1      39.903  26.659  29.196  1.00  0.00     0.010 A 
ATOM     28  C   UNL A   1      40.746  27.758  29.435  1.00  0.00    -0.014 A 
BRANCH  28  29
ATOM     29  C   UNL A   1      40.557  28.678  30.606  1.00  0.00     0.031 A 
ATOM     30  C   UNL A   1      41.450  28.595  31.823  1.00  0.00     0.074 A 
ATOM     31  C   UNL A   1      39.609  29.639  30.571  1.00  0.00     0.049 A 
ATOM     32  N   UNL A   1      41.461  29.352  32.896  1.00  0.00    -0.248 NA
ATOM     33  C   UNL A   1      42.459  27.526  31.840  1.00  0.00     0.031 C 
ATOM     34  C   UNL A   1      38.670  29.857  29.471  1.00  0.00     0.029 A 
ATOM     35  N   UNL A   1      39.289  30.627  31.476  1.00  0.00    -0.354 N 
ATOM     36  C   UNL A   1      42.479  28.860  33.708  1.00  0.00     0.074 A 
ATOM     37  C   UNL A   1      43.026  27.705  33.026  1.00  0.00     0.031 C 
ATOM     38  C   UNL A   1      37.909  30.928  29.745  1.00  0.00     0.029 A 
ATOM     39  C   UNL A   1      38.271  31.456  31.060  1.00  0.00     0.049 A 
ATOM     40  H   UNL A   1      39.746  30.731  32.342  1.00  0.00     0.167 HD
ATOM     41  C   UNL A   1      42.936  29.333  34.894  1.00  0.00     0.037 A 
ATOM     42  C   UNL A   1      37.689  32.519  31.656  1.00  0.00     0.037 A 
ATOM     43  C   UNL A   1      42.404  30.484  35.585  1.00  0.00     0.049 A 
ATOM     44  C   UNL A   1      38.166  32.984  33.007  1.00  0.00     0.074 A 
ATOM     45  C   UNL A   1      42.831  31.040  36.781  1.00  0.00     0.029 A 
ATOM     46  N   UNL A   1      41.335  31.254  35.153  1.00  0.00    -0.354 N 
ATOM     47  N   UNL A   1      39.152  32.524  33.738  1.00  0.00    -0.248 NA
ATOM     48  C   UNL A   1      37.448  34.115  33.617  1.00  0.00     0.031 C 
ATOM     49  C   UNL A   1      41.987  32.108  37.100  1.00  0.00     0.029 A 
ATOM     50  C   UNL A   1      41.071  32.259  36.074  1.00  0.00     0.049 A 
ATOM     51  H   UNL A   1      40.837  31.110  34.317  1.00  0.00     0.167 HD
ATOM     52  C   UNL A   1      39.188  33.322  34.878  1.00  0.00     0.074 A 
ATOM     53  C   UNL A   1      38.134  34.304  34.737  1.00  0.00     0.031 C 
ATOM     54  C   UNL A   1      40.023  33.243  35.943  1.00  0.00     0.037 A 
BRANCH  41  55
ATOM     55  C   UNL A   1      44.088  28.607  35.541  1.00  0.00     0.058 A 
ATOM     56  C   UNL A   1      45.421  28.962  35.276  1.00  0.00     0.135 A 
ATOM     57  C   UNL A   1      43.860  27.592  36.488  1.00  0.00     0.135 A 
ATOM     58  F   UNL A   1      45.699  29.921  34.380  1.00  0.00    -0.206 F 
ATOM     59  C   UNL A   1      46.484  28.317  35.901  1.00  0.00     0.059 A 
ATOM     60  C   UNL A   1      44.907  26.955  37.147  1.00  0.00     0.059 A 
ATOM     61  F   UNL A   1      42.606  27.220  36.789  1.00  0.00    -0.206 F 
ATOM     62  C   UNL A   1      46.217  27.314  36.835  1.00  0.00     0.060 A 
BRANCH  62  63
ATOM     63  S   UNL A   1      47.613  26.491  37.632  1.00  0.00     0.124 S 
ATOM     64  O   UNL A   1      46.943  25.409  38.348  1.00  0.00    -0.237 OA
ATOM     65  O   UNL A   1      48.428  26.087  36.493  1.00  0.00    -0.237 OA
ATOM     66  O   UNL A   1      48.190  27.535  38.475  1.00  0.00    -0.744 OA
ENDBRANCH  62  63
ENDBRANCH  41  55
BRANCH  42  67
ATOM     67  C   UNL A   1      36.584  33.238  30.961  1.00  0.00     0.058 A 
ATOM     68  C   UNL A   1      35.256  33.124  31.401  1.00  0.00     0.135 A 
ATOM     69  C   UNL A   1      36.836  34.065  29.854  1.00  0.00     0.135 A 
ATOM     70  F   UNL A   1      34.961  32.330  32.441  1.00  0.00    -0.206 F 
ATOM     71  C   UNL A   1      34.218  33.802  30.771  1.00  0.00     0.059 A 
ATOM     72  C   UNL A   1      35.818  34.776  29.225  1.00  0.00     0.059 A 
ATOM     73  F   UNL A   1      38.088  34.211  29.395  1.00  0.00    -0.206 F 
ATOM     74  C   UNL A   1      34.511  34.635  29.690  1.00  0.00     0.060 A 
BRANCH  74  75
ATOM     75  S   UNL A   1      33.165  35.566  28.927  1.00  0.00     0.124 S 
ATOM     76  O   UNL A   1      32.535  34.546  28.093  1.00  0.00    -0.237 OA
ATOM     77  O   UNL A   1      32.397  35.999  30.092  1.00  0.00    -0.237 OA
ATOM     78  O   UNL A   1      33.854  36.631  28.208  1.00  0.00    -0.744 OA
ENDBRANCH  74  75
ENDBRANCH  42  67
BRANCH  54  79
ATOM     79  C   UNL A   1      39.858  34.250  37.053  1.00  0.00     0.058 A 
ATOM     80  C   UNL A   1      40.450  35.522  36.990  1.00  0.00     0.135 A 
ATOM     81  C   UNL A   1      39.037  33.971  38.159  1.00  0.00     0.135 A 
ATOM     82  F   UNL A   1      41.250  35.844  35.961  1.00  0.00    -0.206 F 
ATOM     83  C   UNL A   1      40.245  36.474  37.986  1.00  0.00     0.059 A 
ATOM     84  C   UNL A   1      38.796  34.917  39.152  1.00  0.00     0.059 A 
ATOM     85  F   UNL A   1      38.437  32.775  38.270  1.00  0.00    -0.206 F 
ATOM     86  C   UNL A   1      39.410  36.165  39.060  1.00  0.00     0.060 A 
BRANCH  86  87
ATOM     87  S   UNL A   1      39.117  37.428  40.318  1.00  0.00     0.124 S 
ATOM     88  O   UNL A   1      38.206  38.332  39.624  1.00  0.00    -0.237 OA
ATOM     89  O   UNL A   1      38.530  36.651  41.406  1.00  0.00    -0.237 OA
ATOM     90  O   UNL A   1      40.448  37.964  40.584  1.00  0.00    -0.744 OA
ENDBRANCH  86  87
ENDBRANCH  54  79
ENDBRANCH  28  29
ENDBRANCH  20  23
ENDBRANCH  18  19
ENDBRANCH   1  18
TORSDOF 16
ENDMDL
