MODEL 1
REMARK VINA RESULT:     -11.8      0.000      0.000
REMARK SMILES CCC(CC)(NC(=O)c1ccc(NC(C)=O)cc1)C(=O)NCCCNC(=O)c1ccc(-c2c3nc(c(-c4c(F)cc(S(=O)(=O)[O-])cc4F)c4ccc([nH]4)c(-c4c(F)cc(S(=O)(=O)[O-])cc4F)c4nc(c(-c5c(F)cc(S(=O)(=O)[O-])cc5F)c5ccc2[nH]5)C=C4)C=C3)cc1
REMARK SMILES IDX 23 1 22 2 21 3 19 4 20 5 3 7 2 8 1 9 4 10 5 11 6 12 7 13
REMARK SMILES IDX 8 15 9 16 10 17 18 18 11 19 17 20 12 21 13 22 14 23 15 25
REMARK SMILES IDX 16 26 24 27 25 28 26 29 27 31 28 32 29 33 93 34 30 35 92 36
REMARK SMILES IDX 31 37 32 38 33 39 86 40 34 41 91 42 85 43 87 44 35 45 90 46
REMARK SMILES IDX 84 47 83 48 36 50 70 51 49 52 69 53 50 54 53 55 68 56 88 57
REMARK SMILES IDX 51 58 52 59 67 61 89 62 54 63 37 64 38 65 47 66 39 67 40 68
REMARK SMILES IDX 46 69 48 70 41 71 42 72 43 73 44 74 45 75 71 76 72 77 81 78
REMARK SMILES IDX 73 79 74 80 80 81 82 82 75 83 76 84 77 85 78 86 79 87 55 88
REMARK SMILES IDX 56 89 65 90 57 91 58 92 64 93 66 94 59 95 60 96 61 97 62 98
REMARK SMILES IDX 63 99
REMARK H PARENT 21 6 6 14 13 24 25 30 87 49 53 60
REMARK Flexibility Score: inf
ROOT
ATOM      1  C   UNL A   1      36.962  23.581  25.750  1.00  0.00     0.042 C 
ENDROOT
BRANCH   1   2
ATOM      2  C   UNL A   1      35.790  24.468  25.316  1.00  0.00     0.117 C 
BRANCH   2   3
ATOM      3  N   UNL A   1      35.062  24.160  24.084  1.00  0.00    -0.354 N 
ATOM      4  C   UNL A   1      33.868  24.568  23.529  1.00  0.00     0.245 C 
ATOM      5  O   UNL A   1      33.655  24.148  22.385  1.00  0.00    -0.272 OA
ATOM      6  H   UNL A   1      35.538  23.508  23.519  1.00  0.00     0.163 HD
BRANCH   4   7
ATOM      7  C   UNL A   1      32.870  25.550  24.247  1.00  0.00     0.118 C 
BRANCH   7   8
ATOM      8  C   UNL A   1      31.494  25.701  23.522  1.00  0.00     0.035 C 
ATOM      9  C   UNL A   1      30.327  26.324  24.281  1.00  0.00     0.007 C 
ENDBRANCH   7   8
BRANCH   7  10
ATOM     10  C   UNL A   1      33.677  26.894  24.147  1.00  0.00     0.035 C 
ATOM     11  C   UNL A   1      33.590  27.716  22.876  1.00  0.00     0.007 C 
ENDBRANCH   7  10
BRANCH   7  12
ATOM     12  N   UNL A   1      32.536  25.204  25.686  1.00  0.00    -0.338 N 
ATOM     13  C   UNL A   1      32.037  24.041  26.302  1.00  0.00     0.252 C 
ATOM     14  H   UNL A   1      32.700  25.942  26.317  1.00  0.00     0.164 HD
ATOM     15  O   UNL A   1      31.249  24.200  27.235  1.00  0.00    -0.269 OA
BRANCH  13  16
ATOM     16  C   UNL A   1      32.472  22.635  25.982  1.00  0.00     0.039 A 
ATOM     17  C   UNL A   1      33.553  21.968  26.577  1.00  0.00     0.016 A 
ATOM     18  C   UNL A   1      31.921  21.993  24.902  1.00  0.00     0.016 A 
ATOM     19  C   UNL A   1      34.003  20.703  26.079  1.00  0.00     0.027 A 
ATOM     20  C   UNL A   1      32.286  20.746  24.435  1.00  0.00     0.027 A 
ATOM     21  C   UNL A   1      33.357  20.093  25.000  1.00  0.00     0.041 A 
BRANCH  21  22
ATOM     22  N   UNL A   1      33.676  18.903  24.338  1.00  0.00    -0.326 N 
ATOM     23  C   UNL A   1      33.387  17.604  24.662  1.00  0.00     0.221 C 
ATOM     24  H   UNL A   1      34.191  19.016  23.505  1.00  0.00     0.169 HD
ATOM     25  C   UNL A   1      33.951  16.640  23.637  1.00  0.00     0.114 C 
ATOM     26  O   UNL A   1      32.742  17.225  25.635  1.00  0.00    -0.275 OA
ENDBRANCH  21  22
ENDBRANCH  13  16
ENDBRANCH   7  12
ENDBRANCH   4   7
ENDBRANCH   2   3
ENDBRANCH   1   2
BRANCH   1  27
ATOM     27  C   UNL A   1      38.086  24.171  26.600  1.00  0.00     0.118 C 
BRANCH  27  28
ATOM     28  N   UNL A   1      39.373  24.255  25.945  1.00  0.00    -0.352 N 
ATOM     29  C   UNL A   1      40.486  24.977  26.302  1.00  0.00     0.251 C 
ATOM     30  H   UNL A   1      39.465  23.717  25.125  1.00  0.00     0.163 HD
ATOM     31  O   UNL A   1      41.491  24.918  25.598  1.00  0.00    -0.269 OA
BRANCH  29  32
ATOM     32  C   UNL A   1      40.471  25.858  27.493  1.00  0.00     0.039 A 
ATOM     33  C   UNL A   1      41.411  26.889  27.557  1.00  0.00     0.014 A 
ATOM     34  C   UNL A   1      39.566  25.671  28.543  1.00  0.00     0.014 A 
ATOM     35  C   UNL A   1      41.409  27.770  28.643  1.00  0.00     0.010 A 
ATOM     36  C   UNL A   1      39.538  26.579  29.608  1.00  0.00     0.010 A 
ATOM     37  C   UNL A   1      40.451  27.644  29.664  1.00  0.00    -0.014 A 
BRANCH  37  38
ATOM     38  C   UNL A   1      40.384  28.648  30.763  1.00  0.00     0.031 A 
ATOM     39  C   UNL A   1      41.273  28.532  31.972  1.00  0.00     0.074 A 
ATOM     40  C   UNL A   1      39.491  29.656  30.684  1.00  0.00     0.049 A 
ATOM     41  N   UNL A   1      41.333  29.301  33.030  1.00  0.00    -0.248 NA
ATOM     42  C   UNL A   1      42.209  27.398  32.001  1.00  0.00     0.031 C 
ATOM     43  C   UNL A   1      38.554  29.867  29.579  1.00  0.00     0.029 A 
ATOM     44  N   UNL A   1      39.220  30.689  31.548  1.00  0.00    -0.354 N 
ATOM     45  C   UNL A   1      42.306  28.746  33.852  1.00  0.00     0.074 A 
ATOM     46  C   UNL A   1      42.780  27.549  33.189  1.00  0.00     0.031 C 
ATOM     47  C   UNL A   1      37.823  30.966  29.825  1.00  0.00     0.029 A 
ATOM     48  C   UNL A   1      38.206  31.516  31.121  1.00  0.00     0.049 A 
ATOM     49  H   UNL A   1      39.705  30.825  32.394  1.00  0.00     0.167 HD
ATOM     50  C   UNL A   1      42.772  29.199  35.042  1.00  0.00     0.037 A 
ATOM     51  C   UNL A   1      37.638  32.587  31.711  1.00  0.00     0.037 A 
ATOM     52  C   UNL A   1      42.297  30.391  35.699  1.00  0.00     0.049 A 
ATOM     53  C   UNL A   1      38.144  33.046  33.052  1.00  0.00     0.074 A 
ATOM     54  C   UNL A   1      42.742  30.957  36.881  1.00  0.00     0.029 A 
ATOM     55  N   UNL A   1      41.261  31.194  35.242  1.00  0.00    -0.354 N 
ATOM     56  N   UNL A   1      39.115  32.550  33.781  1.00  0.00    -0.248 NA
ATOM     57  C   UNL A   1      37.481  34.213  33.651  1.00  0.00     0.031 C 
ATOM     58  C   UNL A   1      41.938  32.065  37.170  1.00  0.00     0.029 A 
ATOM     59  C   UNL A   1      41.031  32.228  36.135  1.00  0.00     0.049 A 
ATOM     60  H   UNL A   1      40.762  31.048  34.406  1.00  0.00     0.167 HD
ATOM     61  C   UNL A   1      39.193  33.356  34.912  1.00  0.00     0.074 A 
ATOM     62  C   UNL A   1      38.185  34.384  34.761  1.00  0.00     0.031 C 
ATOM     63  C   UNL A   1      40.023  33.250  35.979  1.00  0.00     0.037 A 
BRANCH  50  64
ATOM     64  C   UNL A   1      43.852  28.399  35.723  1.00  0.00     0.058 A 
ATOM     65  C   UNL A   1      43.550  27.380  36.641  1.00  0.00     0.135 A 
ATOM     66  C   UNL A   1      45.205  28.620  35.418  1.00  0.00     0.135 A 
ATOM     67  F   UNL A   1      42.274  27.131  36.979  1.00  0.00    -0.206 F 
ATOM     68  C   UNL A   1      44.549  26.631  37.254  1.00  0.00     0.059 A 
ATOM     69  C   UNL A   1      46.221  27.862  35.997  1.00  0.00     0.059 A 
ATOM     70  F   UNL A   1      45.554  29.576  34.545  1.00  0.00    -0.206 F 
ATOM     71  C   UNL A   1      45.882  26.879  36.925  1.00  0.00     0.060 A 
BRANCH  71  72
ATOM     72  S   UNL A   1      47.164  25.893  37.728  1.00  0.00     0.124 S 
ATOM     73  O   UNL A   1      48.305  26.803  37.679  1.00  0.00    -0.237 OA
ATOM     74  O   UNL A   1      46.596  25.662  39.052  1.00  0.00    -0.237 OA
ATOM     75  O   UNL A   1      47.270  24.711  36.878  1.00  0.00    -0.744 OA
ENDBRANCH  71  72
ENDBRANCH  50  64
BRANCH  51  76
ATOM     76  C   UNL A   1      36.519  33.302  31.034  1.00  0.00     0.058 A 
ATOM     77  C   UNL A   1      36.746  34.091  29.897  1.00  0.00     0.135 A 
ATOM     78  C   UNL A   1      35.202  33.206  31.508  1.00  0.00     0.135 A 
ATOM     79  F   UNL A   1      37.990  34.224  29.410  1.00  0.00    -0.206 F 
ATOM     80  C   UNL A   1      35.711  34.771  29.262  1.00  0.00     0.059 A 
ATOM     81  C   UNL A   1      34.145  33.853  30.874  1.00  0.00     0.059 A 
ATOM     82  F   UNL A   1      34.927  32.454  32.586  1.00  0.00    -0.206 F 
ATOM     83  C   UNL A   1      34.413  34.641  29.756  1.00  0.00     0.060 A 
BRANCH  83  84
ATOM     84  S   UNL A   1      33.070  35.487  28.893  1.00  0.00     0.124 S 
ATOM     85  O   UNL A   1      32.503  34.405  28.097  1.00  0.00    -0.237 OA
ATOM     86  O   UNL A   1      32.248  35.963  30.001  1.00  0.00    -0.237 OA
ATOM     87  O   UNL A   1      33.758  36.532  28.142  1.00  0.00    -0.744 OA
ENDBRANCH  83  84
ENDBRANCH  51  76
BRANCH  63  88
ATOM     88  C   UNL A   1      39.899  34.288  37.063  1.00  0.00     0.058 A 
ATOM     89  C   UNL A   1      40.445  35.575  36.922  1.00  0.00     0.135 A 
ATOM     90  C   UNL A   1      39.181  34.009  38.238  1.00  0.00     0.135 A 
ATOM     91  F   UNL A   1      41.148  35.894  35.824  1.00  0.00    -0.206 F 
ATOM     92  C   UNL A   1      40.302  36.539  37.916  1.00  0.00     0.059 A 
ATOM     93  C   UNL A   1      39.000  34.967  39.231  1.00  0.00     0.059 A 
ATOM     94  F   UNL A   1      38.631  32.799  38.424  1.00  0.00    -0.206 F 
ATOM     95  C   UNL A   1      39.574  36.227  39.065  1.00  0.00     0.060 A 
BRANCH  95  96
ATOM     96  S   UNL A   1      39.365  37.500  40.328  1.00  0.00     0.124 S 
ATOM     97  O   UNL A   1      40.749  37.874  40.602  1.00  0.00    -0.237 OA
ATOM     98  O   UNL A   1      38.564  38.502  39.632  1.00  0.00    -0.237 OA
ATOM     99  O   UNL A   1      38.679  36.800  41.409  1.00  0.00    -0.744 OA
ENDBRANCH  95  96
ENDBRANCH  63  88
ENDBRANCH  37  38
ENDBRANCH  29  32
ENDBRANCH  27  28
ENDBRANCH   1  27
TORSDOF 18
ENDMDL
MODEL 2
REMARK VINA RESULT:     -11.7      6.804     11.898
REMARK SMILES CCC(CC)(NC(=O)c1ccc(NC(C)=O)cc1)C(=O)NCCCNC(=O)c1ccc(-c2c3nc(c(-c4c(F)cc(S(=O)(=O)[O-])cc4F)c4ccc([nH]4)c(-c4c(F)cc(S(=O)(=O)[O-])cc4F)c4nc(c(-c5c(F)cc(S(=O)(=O)[O-])cc5F)c5ccc2[nH]5)C=C4)C=C3)cc1
REMARK SMILES IDX 23 1 22 2 21 3 19 4 20 5 3 7 2 8 1 9 4 10 5 11 6 12 7 13
REMARK SMILES IDX 8 15 9 16 10 17 18 18 11 19 17 20 12 21 13 22 14 23 15 25
REMARK SMILES IDX 16 26 24 27 25 28 26 29 27 31 28 32 29 33 93 34 30 35 92 36
REMARK SMILES IDX 31 37 32 38 33 39 86 40 34 41 91 42 85 43 87 44 35 45 90 46
REMARK SMILES IDX 84 47 83 48 36 50 70 51 49 52 69 53 50 54 53 55 68 56 88 57
REMARK SMILES IDX 51 58 52 59 67 61 89 62 54 63 37 64 38 65 47 66 39 67 40 68
REMARK SMILES IDX 46 69 48 70 41 71 42 72 43 73 44 74 45 75 71 76 72 77 81 78
REMARK SMILES IDX 73 79 74 80 80 81 82 82 75 83 76 84 77 85 78 86 79 87 55 88
REMARK SMILES IDX 56 89 65 90 57 91 58 92 64 93 66 94 59 95 60 96 61 97 62 98
REMARK SMILES IDX 63 99
REMARK H PARENT 21 6 6 14 13 24 25 30 87 49 53 60
REMARK Flexibility Score: inf
ROOT
ATOM      1  C   UNL A   1      34.123  28.901  27.221  1.00  0.00     0.042 C 
ENDROOT
BRANCH   1   2
ATOM      2  C   UNL A   1      33.340  29.494  26.044  1.00  0.00     0.117 C 
BRANCH   2   3
ATOM      3  N   UNL A   1      33.862  29.360  24.683  1.00  0.00    -0.354 N 
ATOM      4  C   UNL A   1      33.689  28.456  23.657  1.00  0.00     0.245 C 
ATOM      5  O   UNL A   1      34.236  28.765  22.592  1.00  0.00    -0.272 OA
ATOM      6  H   UNL A   1      34.482  30.087  24.445  1.00  0.00     0.163 HD
BRANCH   4   7
ATOM      7  C   UNL A   1      32.808  27.158  23.786  1.00  0.00     0.118 C 
BRANCH   7   8
ATOM      8  C   UNL A   1      31.389  27.409  24.391  1.00  0.00     0.035 C 
ATOM      9  C   UNL A   1      30.170  26.845  23.668  1.00  0.00     0.007 C 
ENDBRANCH   7   8
BRANCH   7  10
ATOM     10  C   UNL A   1      33.679  26.326  24.795  1.00  0.00     0.035 C 
ATOM     11  C   UNL A   1      33.000  25.624  25.955  1.00  0.00     0.007 C 
ENDBRANCH   7  10
BRANCH   7  12
ATOM     12  N   UNL A   1      32.570  26.398  22.495  1.00  0.00    -0.338 N 
ATOM     13  C   UNL A   1      33.033  25.160  22.011  1.00  0.00     0.252 C 
ATOM     14  H   UNL A   1      31.972  26.865  21.867  1.00  0.00     0.164 HD
ATOM     15  O   UNL A   1      33.279  25.090  20.806  1.00  0.00    -0.269 OA
BRANCH  13  16
ATOM     16  C   UNL A   1      33.147  23.898  22.826  1.00  0.00     0.039 A 
ATOM     17  C   UNL A   1      34.341  23.210  23.087  1.00  0.00     0.016 A 
ATOM     18  C   UNL A   1      32.005  23.232  23.193  1.00  0.00     0.016 A 
ATOM     19  C   UNL A   1      34.328  21.923  23.714  1.00  0.00     0.027 A 
ATOM     20  C   UNL A   1      31.957  22.023  23.856  1.00  0.00     0.027 A 
ATOM     21  C   UNL A   1      33.121  21.332  24.100  1.00  0.00     0.041 A 
BRANCH  21  22
ATOM     22  N   UNL A   1      32.896  20.072  24.665  1.00  0.00    -0.326 N 
ATOM     23  C   UNL A   1      32.568  18.882  24.072  1.00  0.00     0.221 C 
ATOM     24  H   UNL A   1      32.987  20.034  25.645  1.00  0.00     0.169 HD
ATOM     25  C   UNL A   1      32.417  17.777  25.098  1.00  0.00     0.114 C 
ATOM     26  O   UNL A   1      32.424  18.686  22.869  1.00  0.00    -0.275 OA
ENDBRANCH  21  22
ENDBRANCH  13  16
ENDBRANCH   7  12
ENDBRANCH   4   7
ENDBRANCH   2   3
ENDBRANCH   1   2
BRANCH   1  27
ATOM     27  C   UNL A   1      35.381  29.606  27.727  1.00  0.00     0.118 C 
BRANCH  27  28
ATOM     28  N   UNL A   1      35.354  29.979  29.125  1.00  0.00    -0.352 N 
ATOM     29  C   UNL A   1      36.400  30.138  30.003  1.00  0.00     0.251 C 
ATOM     30  H   UNL A   1      34.459  30.143  29.501  1.00  0.00     0.163 HD
ATOM     31  O   UNL A   1      36.164  30.456  31.165  1.00  0.00    -0.269 OA
BRANCH  29  32
ATOM     32  C   UNL A   1      37.796  29.887  29.576  1.00  0.00     0.039 A 
ATOM     33  C   UNL A   1      38.751  29.646  30.567  1.00  0.00     0.014 A 
ATOM     34  C   UNL A   1      38.175  29.904  28.229  1.00  0.00     0.014 A 
ATOM     35  C   UNL A   1      40.072  29.364  30.210  1.00  0.00     0.010 A 
ATOM     36  C   UNL A   1      39.489  29.579  27.873  1.00  0.00     0.010 A 
ATOM     37  C   UNL A   1      40.449  29.295  28.858  1.00  0.00    -0.014 A 
BRANCH  37  38
ATOM     38  C   UNL A   1      41.831  28.888  28.479  1.00  0.00     0.031 A 
ATOM     39  C   UNL A   1      42.942  29.901  28.405  1.00  0.00     0.074 A 
ATOM     40  C   UNL A   1      42.080  27.599  28.169  1.00  0.00     0.049 A 
ATOM     41  N   UNL A   1      44.196  29.728  28.073  1.00  0.00    -0.248 NA
ATOM     42  C   UNL A   1      42.596  31.292  28.737  1.00  0.00     0.031 C 
ATOM     43  C   UNL A   1      41.086  26.524  28.175  1.00  0.00     0.029 A 
ATOM     44  N   UNL A   1      43.241  26.973  27.784  1.00  0.00    -0.354 N 
ATOM     45  C   UNL A   1      44.790  30.982  28.151  1.00  0.00     0.074 A 
ATOM     46  C   UNL A   1      43.746  31.916  28.521  1.00  0.00     0.031 C 
ATOM     47  C   UNL A   1      41.681  25.372  27.826  1.00  0.00     0.029 A 
ATOM     48  C   UNL A   1      43.087  25.629  27.530  1.00  0.00     0.049 A 
ATOM     49  H   UNL A   1      44.103  27.442  27.697  1.00  0.00     0.167 HD
ATOM     50  C   UNL A   1      46.087  31.323  27.948  1.00  0.00     0.037 A 
ATOM     51  C   UNL A   1      43.970  24.710  27.093  1.00  0.00     0.037 A 
ATOM     52  C   UNL A   1      47.123  30.390  27.580  1.00  0.00     0.049 A 
ATOM     53  C   UNL A   1      45.395  25.121  26.834  1.00  0.00     0.074 A 
ATOM     54  C   UNL A   1      48.474  30.632  27.401  1.00  0.00     0.029 A 
ATOM     55  N   UNL A   1      46.924  29.041  27.319  1.00  0.00    -0.354 N 
ATOM     56  N   UNL A   1      45.954  26.299  26.983  1.00  0.00    -0.248 NA
ATOM     57  C   UNL A   1      46.312  24.079  26.351  1.00  0.00     0.031 C 
ATOM     58  C   UNL A   1      49.081  29.446  26.974  1.00  0.00     0.029 A 
ATOM     59  C   UNL A   1      48.121  28.448  26.948  1.00  0.00     0.049 A 
ATOM     60  H   UNL A   1      46.060  28.575  27.386  1.00  0.00     0.167 HD
ATOM     61  C   UNL A   1      47.290  26.133  26.633  1.00  0.00     0.074 A 
ATOM     62  C   UNL A   1      47.460  24.739  26.285  1.00  0.00     0.031 C 
ATOM     63  C   UNL A   1      48.284  27.056  26.601  1.00  0.00     0.037 A 
BRANCH  50  64
ATOM     64  C   UNL A   1      46.466  32.772  28.112  1.00  0.00     0.058 A 
ATOM     65  C   UNL A   1      47.005  33.263  29.312  1.00  0.00     0.135 A 
ATOM     66  C   UNL A   1      46.335  33.671  27.041  1.00  0.00     0.135 A 
ATOM     67  F   UNL A   1      47.144  32.452  30.374  1.00  0.00    -0.206 F 
ATOM     68  C   UNL A   1      47.371  34.598  29.454  1.00  0.00     0.059 A 
ATOM     69  C   UNL A   1      46.723  35.004  27.151  1.00  0.00     0.059 A 
ATOM     70  F   UNL A   1      45.831  33.257  25.869  1.00  0.00    -0.206 F 
ATOM     71  C   UNL A   1      47.227  35.461  28.367  1.00  0.00     0.060 A 
BRANCH  71  72
ATOM     72  S   UNL A   1      47.712  37.189  28.570  1.00  0.00     0.124 S 
ATOM     73  O   UNL A   1      46.626  37.879  27.881  1.00  0.00    -0.237 OA
ATOM     74  O   UNL A   1      47.735  37.337  30.022  1.00  0.00    -0.237 OA
ATOM     75  O   UNL A   1      49.014  37.258  27.914  1.00  0.00    -0.744 OA
ENDBRANCH  71  72
ENDBRANCH  50  64
BRANCH  51  76
ATOM     76  C   UNL A   1      43.532  23.304  26.870  1.00  0.00     0.058 A 
ATOM     77  C   UNL A   1      43.330  22.429  27.949  1.00  0.00     0.135 A 
ATOM     78  C   UNL A   1      43.302  22.808  25.578  1.00  0.00     0.135 A 
ATOM     79  F   UNL A   1      43.546  22.850  29.204  1.00  0.00    -0.206 F 
ATOM     80  C   UNL A   1      42.930  21.110  27.753  1.00  0.00     0.059 A 
ATOM     81  C   UNL A   1      42.873  21.503  25.358  1.00  0.00     0.059 A 
ATOM     82  F   UNL A   1      43.468  23.607  24.511  1.00  0.00    -0.206 F 
ATOM     83  C   UNL A   1      42.699  20.658  26.453  1.00  0.00     0.060 A 
BRANCH  83  84
ATOM     84  S   UNL A   1      42.130  18.961  26.215  1.00  0.00     0.124 S 
ATOM     85  O   UNL A   1      43.094  18.460  25.242  1.00  0.00    -0.237 OA
ATOM     86  O   UNL A   1      42.239  18.411  27.563  1.00  0.00    -0.237 OA
ATOM     87  O   UNL A   1      40.766  19.128  25.725  1.00  0.00    -0.744 OA
ENDBRANCH  83  84
ENDBRANCH  51  76
BRANCH  63  88
ATOM     88  C   UNL A   1      49.657  26.587  26.199  1.00  0.00     0.058 A 
ATOM     89  C   UNL A   1      50.141  26.749  24.890  1.00  0.00     0.135 A 
ATOM     90  C   UNL A   1      50.520  26.012  27.147  1.00  0.00     0.135 A 
ATOM     91  F   UNL A   1      49.356  27.284  23.942  1.00  0.00    -0.206 F 
ATOM     92  C   UNL A   1      51.422  26.340  24.532  1.00  0.00     0.059 A 
ATOM     93  C   UNL A   1      51.815  25.623  26.818  1.00  0.00     0.059 A 
ATOM     94  F   UNL A   1      50.114  25.839  28.415  1.00  0.00    -0.206 F 
ATOM     95  C   UNL A   1      52.253  25.781  25.504  1.00  0.00     0.060 A 
BRANCH  95  96
ATOM     96  S   UNL A   1      53.925  25.289  25.032  1.00  0.00     0.124 S 
ATOM     97  O   UNL A   1      53.800  23.837  24.970  1.00  0.00    -0.237 OA
ATOM     98  O   UNL A   1      54.099  25.965  23.750  1.00  0.00    -0.237 OA
ATOM     99  O   UNL A   1      54.752  25.802  26.120  1.00  0.00    -0.744 OA
ENDBRANCH  95  96
ENDBRANCH  63  88
ENDBRANCH  37  38
ENDBRANCH  29  32
ENDBRANCH  27  28
ENDBRANCH   1  27
TORSDOF 18
ENDMDL
MODEL 3
REMARK VINA RESULT:     -11.7      6.972     12.444
REMARK SMILES CCC(CC)(NC(=O)c1ccc(NC(C)=O)cc1)C(=O)NCCCNC(=O)c1ccc(-c2c3nc(c(-c4c(F)cc(S(=O)(=O)[O-])cc4F)c4ccc([nH]4)c(-c4c(F)cc(S(=O)(=O)[O-])cc4F)c4nc(c(-c5c(F)cc(S(=O)(=O)[O-])cc5F)c5ccc2[nH]5)C=C4)C=C3)cc1
REMARK SMILES IDX 23 1 22 2 21 3 19 4 20 5 3 7 2 8 1 9 4 10 5 11 6 12 7 13
REMARK SMILES IDX 8 15 9 16 10 17 18 18 11 19 17 20 12 21 13 22 14 23 15 25
REMARK SMILES IDX 16 26 24 27 25 28 26 29 27 31 28 32 29 33 93 34 30 35 92 36
REMARK SMILES IDX 31 37 32 38 33 39 86 40 34 41 91 42 85 43 87 44 35 45 90 46
REMARK SMILES IDX 84 47 83 48 36 50 70 51 49 52 69 53 50 54 53 55 68 56 88 57
REMARK SMILES IDX 51 58 52 59 67 61 89 62 54 63 37 64 38 65 47 66 39 67 40 68
REMARK SMILES IDX 46 69 48 70 41 71 42 72 43 73 44 74 45 75 71 76 72 77 81 78
REMARK SMILES IDX 73 79 74 80 80 81 82 82 75 83 76 84 77 85 78 86 79 87 55 88
REMARK SMILES IDX 56 89 65 90 57 91 58 92 64 93 66 94 59 95 60 96 61 97 62 98
REMARK SMILES IDX 63 99
REMARK H PARENT 21 6 6 14 13 24 25 30 87 49 53 60
REMARK Flexibility Score: inf
ROOT
ATOM      1  C   UNL A   1      35.026  29.671  27.674  1.00  0.00     0.042 C 
ENDROOT
BRANCH   1   2
ATOM      2  C   UNL A   1      33.916  29.933  26.651  1.00  0.00     0.117 C 
BRANCH   2   3
ATOM      3  N   UNL A   1      34.040  29.402  25.292  1.00  0.00    -0.354 N 
ATOM      4  C   UNL A   1      33.476  28.350  24.601  1.00  0.00     0.245 C 
ATOM      5  O   UNL A   1      33.766  28.302  23.400  1.00  0.00    -0.272 OA
ATOM      6  H   UNL A   1      34.675  29.917  24.744  1.00  0.00     0.163 HD
BRANCH   4   7
ATOM      7  C   UNL A   1      32.482  27.319  25.254  1.00  0.00     0.118 C 
BRANCH   7   8
ATOM      8  C   UNL A   1      31.375  27.975  26.140  1.00  0.00     0.035 C 
ATOM      9  C   UNL A   1      31.503  27.893  27.657  1.00  0.00     0.007 C 
ENDBRANCH   7   8
BRANCH   7  10
ATOM     10  C   UNL A   1      33.477  26.504  26.157  1.00  0.00     0.035 C 
ATOM     11  C   UNL A   1      33.475  24.990  26.079  1.00  0.00     0.007 C 
ENDBRANCH   7  10
BRANCH   7  12
ATOM     12  N   UNL A   1      31.744  26.419  24.282  1.00  0.00    -0.338 N 
ATOM     13  C   UNL A   1      30.449  26.458  23.733  1.00  0.00     0.252 C 
ATOM     14  H   UNL A   1      32.278  25.651  23.972  1.00  0.00     0.164 HD
ATOM     15  O   UNL A   1      29.881  25.377  23.570  1.00  0.00    -0.269 OA
BRANCH  13  16
ATOM     16  C   UNL A   1      29.754  27.699  23.234  1.00  0.00     0.039 A 
ATOM     17  C   UNL A   1      28.378  27.951  23.337  1.00  0.00     0.016 A 
ATOM     18  C   UNL A   1      30.446  28.583  22.446  1.00  0.00     0.016 A 
ATOM     19  C   UNL A   1      27.783  29.071  22.673  1.00  0.00     0.027 A 
ATOM     20  C   UNL A   1      29.918  29.707  21.844  1.00  0.00     0.027 A 
ATOM     21  C   UNL A   1      28.567  29.952  21.924  1.00  0.00     0.041 A 
BRANCH  21  22
ATOM     22  N   UNL A   1      28.171  31.057  21.161  1.00  0.00    -0.326 N 
ATOM     23  C   UNL A   1      28.002  32.367  21.523  1.00  0.00     0.221 C 
ATOM     24  H   UNL A   1      27.984  30.862  20.213  1.00  0.00     0.169 HD
ATOM     25  C   UNL A   1      27.552  33.210  20.346  1.00  0.00     0.114 C 
ATOM     26  O   UNL A   1      28.197  32.844  22.636  1.00  0.00    -0.275 OA
ENDBRANCH  21  22
ENDBRANCH  13  16
ENDBRANCH   7  12
ENDBRANCH   4   7
ENDBRANCH   2   3
ENDBRANCH   1   2
BRANCH   1  27
ATOM     27  C   UNL A   1      35.561  30.823  28.524  1.00  0.00     0.118 C 
BRANCH  27  28
ATOM     28  N   UNL A   1      35.519  30.602  29.953  1.00  0.00    -0.352 N 
ATOM     29  C   UNL A   1      36.537  30.263  30.812  1.00  0.00     0.251 C 
ATOM     30  H   UNL A   1      34.634  30.709  30.371  1.00  0.00     0.163 HD
ATOM     31  O   UNL A   1      36.291  30.112  32.006  1.00  0.00    -0.269 OA
BRANCH  29  32
ATOM     32  C   UNL A   1      37.912  30.035  30.308  1.00  0.00     0.039 A 
ATOM     33  C   UNL A   1      38.890  29.644  31.227  1.00  0.00     0.014 A 
ATOM     34  C   UNL A   1      38.250  30.218  28.964  1.00  0.00     0.014 A 
ATOM     35  C   UNL A   1      40.191  29.379  30.792  1.00  0.00     0.010 A 
ATOM     36  C   UNL A   1      39.542  29.910  28.523  1.00  0.00     0.010 A 
ATOM     37  C   UNL A   1      40.524  29.477  29.429  1.00  0.00    -0.014 A 
BRANCH  37  38
ATOM     38  C   UNL A   1      41.881  29.090  28.954  1.00  0.00     0.031 A 
ATOM     39  C   UNL A   1      42.991  30.104  28.873  1.00  0.00     0.074 A 
ATOM     40  C   UNL A   1      42.108  27.819  28.563  1.00  0.00     0.049 A 
ATOM     41  N   UNL A   1      44.224  29.947  28.464  1.00  0.00    -0.248 NA
ATOM     42  C   UNL A   1      42.670  31.475  29.298  1.00  0.00     0.031 C 
ATOM     43  C   UNL A   1      41.111  26.746  28.566  1.00  0.00     0.029 A 
ATOM     44  N   UNL A   1      43.242  27.212  28.081  1.00  0.00    -0.354 N 
ATOM     45  C   UNL A   1      44.827  31.194  28.576  1.00  0.00     0.074 A 
ATOM     46  C   UNL A   1      43.809  32.108  29.052  1.00  0.00     0.031 C 
ATOM     47  C   UNL A   1      41.681  25.614  28.124  1.00  0.00     0.029 A 
ATOM     48  C   UNL A   1      43.069  25.885  27.765  1.00  0.00     0.049 A 
ATOM     49  H   UNL A   1      44.100  27.684  27.972  1.00  0.00     0.167 HD
ATOM     50  C   UNL A   1      46.112  31.543  28.321  1.00  0.00     0.037 A 
ATOM     51  C   UNL A   1      43.923  24.988  27.232  1.00  0.00     0.037 A 
ATOM     52  C   UNL A   1      47.122  30.630  27.847  1.00  0.00     0.049 A 
ATOM     53  C   UNL A   1      45.333  25.411  26.917  1.00  0.00     0.074 A 
ATOM     54  C   UNL A   1      48.462  30.880  27.607  1.00  0.00     0.029 A 
ATOM     55  N   UNL A   1      46.904  29.298  27.526  1.00  0.00    -0.354 N 
ATOM     56  N   UNL A   1      45.904  26.578  27.098  1.00  0.00    -0.248 NA
ATOM     57  C   UNL A   1      46.218  24.395  26.329  1.00  0.00     0.031 C 
ATOM     58  C   UNL A   1      49.040  29.717  27.085  1.00  0.00     0.029 A 
ATOM     59  C   UNL A   1      48.075  28.723  27.058  1.00  0.00     0.049 A 
ATOM     60  H   UNL A   1      46.042  28.830  27.616  1.00  0.00     0.167 HD
ATOM     61  C   UNL A   1      47.218  26.430  26.666  1.00  0.00     0.074 A 
ATOM     62  C   UNL A   1      47.364  25.056  26.236  1.00  0.00     0.031 C 
ATOM     63  C   UNL A   1      48.213  27.352  26.630  1.00  0.00     0.037 A 
BRANCH  50  64
ATOM     64  C   UNL A   1      46.505  32.981  28.541  1.00  0.00     0.058 A 
ATOM     65  C   UNL A   1      46.413  33.938  27.517  1.00  0.00     0.135 A 
ATOM     66  C   UNL A   1      46.933  33.420  29.805  1.00  0.00     0.135 A 
ATOM     67  F   UNL A   1      46.020  33.574  26.285  1.00  0.00    -0.206 F 
ATOM     68  C   UNL A   1      46.760  35.268  27.729  1.00  0.00     0.059 A 
ATOM     69  C   UNL A   1      47.258  34.752  30.048  1.00  0.00     0.059 A 
ATOM     70  F   UNL A   1      47.036  32.551  30.822  1.00  0.00    -0.206 F 
ATOM     71  C   UNL A   1      47.180  35.667  28.998  1.00  0.00     0.060 A 
BRANCH  71  72
ATOM     72  S   UNL A   1      47.622  37.399  29.255  1.00  0.00     0.124 S 
ATOM     73  O   UNL A   1      48.902  37.479  28.558  1.00  0.00    -0.237 OA
ATOM     74  O   UNL A   1      46.511  38.100  28.619  1.00  0.00    -0.237 OA
ATOM     75  O   UNL A   1      47.690  37.523  30.708  1.00  0.00    -0.744 OA
ENDBRANCH  71  72
ENDBRANCH  50  64
BRANCH  51  76
ATOM     76  C   UNL A   1      43.467  23.597  26.959  1.00  0.00     0.058 A 
ATOM     77  C   UNL A   1      43.314  22.668  27.999  1.00  0.00     0.135 A 
ATOM     78  C   UNL A   1      43.171  23.170  25.655  1.00  0.00     0.135 A 
ATOM     79  F   UNL A   1      43.594  23.023  29.263  1.00  0.00    -0.206 F 
ATOM     80  C   UNL A   1      42.898  21.362  27.756  1.00  0.00     0.059 A 
ATOM     81  C   UNL A   1      42.725  21.878  25.390  1.00  0.00     0.059 A 
ATOM     82  F   UNL A   1      43.289  24.022  24.625  1.00  0.00    -0.206 F 
ATOM     83  C   UNL A   1      42.601  20.979  26.448  1.00  0.00     0.060 A 
BRANCH  83  84
ATOM     84  S   UNL A   1      42.013  19.297  26.151  1.00  0.00     0.124 S 
ATOM     85  O   UNL A   1      42.789  18.916  24.977  1.00  0.00    -0.237 OA
ATOM     86  O   UNL A   1      42.368  18.625  27.397  1.00  0.00    -0.237 OA
ATOM     87  O   UNL A   1      40.581  19.475  25.932  1.00  0.00    -0.744 OA
ENDBRANCH  83  84
ENDBRANCH  51  76
BRANCH  63  88
ATOM     88  C   UNL A   1      49.560  26.903  26.128  1.00  0.00     0.058 A 
ATOM     89  C   UNL A   1      49.966  27.122  24.801  1.00  0.00     0.135 A 
ATOM     90  C   UNL A   1      50.478  26.290  26.999  1.00  0.00     0.135 A 
ATOM     91  F   UNL A   1      49.128  27.694  23.924  1.00  0.00    -0.206 F 
ATOM     92  C   UNL A   1      51.224  26.730  24.351  1.00  0.00     0.059 A 
ATOM     93  C   UNL A   1      51.751  25.919  26.578  1.00  0.00     0.059 A 
ATOM     94  F   UNL A   1      50.147  26.063  28.280  1.00  0.00    -0.206 F 
ATOM     95  C   UNL A   1      52.111  26.133  25.249  1.00  0.00     0.060 A 
BRANCH  95  96
ATOM     96  S   UNL A   1      53.752  25.665  24.659  1.00  0.00     0.124 S 
ATOM     97  O   UNL A   1      54.616  26.455  25.530  1.00  0.00    -0.237 OA
ATOM     98  O   UNL A   1      53.768  24.223  24.889  1.00  0.00    -0.237 OA
ATOM     99  O   UNL A   1      53.738  26.068  23.255  1.00  0.00    -0.744 OA
ENDBRANCH  95  96
ENDBRANCH  63  88
ENDBRANCH  37  38
ENDBRANCH  29  32
ENDBRANCH  27  28
ENDBRANCH   1  27
TORSDOF 18
ENDMDL
