MODEL 1
REMARK VINA RESULT:     -12.1      0.000      0.000
REMARK SMILES O=C(NCCCNC(=O)c1ccc(C[N@H+]2CC[N@H+]3CCCC[C@@H]3C2)c(F)c1)c1ccc(-c2c3nc(c(-c4c(F)cc(S(=O)(=O)[O-])cc4F)c4ccc([nH]4)c(-c4c(F)cc(S(=O)(=O)[O-])cc4F)c4nc(c(-c5c(F)cc(S(=O)(=O)[O-])cc5F)c5ccc2[nH]5)C=C4)C=C3)cc1
REMARK SMILES IDX 4 1 3 2 1 3 2 4 28 6 29 7 93 8 30 9 92 10 31 11 32 12 33 13
REMARK SMILES IDX 86 14 34 15 91 16 85 17 87 18 35 19 90 20 84 21 83 22 36 24
REMARK SMILES IDX 70 25 49 26 69 27 50 28 53 29 68 30 88 31 51 32 52 33 67 35
REMARK SMILES IDX 89 36 54 37 37 38 38 39 47 40 39 41 40 42 46 43 48 44 41 45
REMARK SMILES IDX 42 46 43 47 44 48 45 49 71 50 72 51 81 52 73 53 74 54 80 55
REMARK SMILES IDX 82 56 75 57 76 58 77 59 78 60 79 61 55 62 56 63 65 64 57 65
REMARK SMILES IDX 58 66 64 67 66 68 59 69 60 70 61 71 62 72 63 73 5 74 6 75
REMARK SMILES IDX 7 76 8 77 9 79 10 80 11 81 27 82 12 83 25 84 13 85 26 86
REMARK SMILES IDX 14 87 15 88 16 89 24 90 17 92 23 93 18 94 22 95 19 96 21 98
REMARK SMILES IDX 20 99
REMARK H PARENT 3 5 87 23 53 34 7 78 15 91 18 97
REMARK Flexibility Score: inf
ROOT
ATOM      1  C   UNL A   1      33.667  28.127  26.874  1.00  0.00     0.118 C 
ENDROOT
BRANCH   1   2
ATOM      2  N   UNL A   1      33.516  29.520  27.280  1.00  0.00    -0.352 N 
ATOM      3  O   UNL A   1      33.911  31.459  28.331  1.00  0.00    -0.269 OA
ATOM      4  C   UNL A   1      34.359  30.379  27.948  1.00  0.00     0.251 C 
ATOM      5  H   UNL A   1      32.651  29.920  27.031  1.00  0.00     0.163 HD
BRANCH   4   6
ATOM      6  C   UNL A   1      35.773  30.029  28.226  1.00  0.00     0.039 A 
ATOM      7  C   UNL A   1      36.765  30.181  27.261  1.00  0.00     0.014 A 
ATOM      8  C   UNL A   1      36.131  29.595  29.510  1.00  0.00     0.014 A 
ATOM      9  C   UNL A   1      38.060  29.738  27.510  1.00  0.00     0.010 A 
ATOM     10  C   UNL A   1      37.462  29.262  29.799  1.00  0.00     0.010 A 
ATOM     11  C   UNL A   1      38.435  29.301  28.791  1.00  0.00    -0.014 A 
BRANCH  11  12
ATOM     12  C   UNL A   1      39.863  28.972  29.050  1.00  0.00     0.031 A 
ATOM     13  C   UNL A   1      40.436  27.628  28.689  1.00  0.00     0.074 A 
ATOM     14  C   UNL A   1      40.662  29.933  29.563  1.00  0.00     0.049 A 
ATOM     15  N   UNL A   1      41.669  27.203  28.811  1.00  0.00    -0.248 NA
ATOM     16  C   UNL A   1      39.516  26.631  28.120  1.00  0.00     0.031 C 
ATOM     17  C   UNL A   1      40.218  31.277  29.949  1.00  0.00     0.029 A 
ATOM     18  N   UNL A   1      42.011  29.950  29.814  1.00  0.00    -0.354 N 
ATOM     19  C   UNL A   1      41.674  25.896  28.337  1.00  0.00     0.074 A 
ATOM     20  C   UNL A   1      40.312  25.581  27.961  1.00  0.00     0.031 C 
ATOM     21  C   UNL A   1      41.281  32.006  30.316  1.00  0.00     0.029 A 
ATOM     22  C   UNL A   1      42.470  31.165  30.270  1.00  0.00     0.049 A 
ATOM     23  H   UNL A   1      42.594  29.169  29.681  1.00  0.00     0.167 HD
ATOM     24  C   UNL A   1      42.722  25.045  28.215  1.00  0.00     0.037 A 
ATOM     25  C   UNL A   1      43.707  31.559  30.628  1.00  0.00     0.037 A 
ATOM     26  C   UNL A   1      44.077  25.374  28.585  1.00  0.00     0.049 A 
ATOM     27  C   UNL A   1      44.836  30.573  30.540  1.00  0.00     0.074 A 
ATOM     28  C   UNL A   1      45.207  24.577  28.496  1.00  0.00     0.029 A 
ATOM     29  N   UNL A   1      44.488  26.590  29.108  1.00  0.00    -0.354 N 
ATOM     30  N   UNL A   1      44.818  29.341  30.089  1.00  0.00    -0.248 NA
ATOM     31  C   UNL A   1      46.149  31.022  31.019  1.00  0.00     0.031 C 
ATOM     32  C   UNL A   1      46.291  25.296  29.007  1.00  0.00     0.029 A 
ATOM     33  C   UNL A   1      45.851  26.560  29.363  1.00  0.00     0.049 A 
ATOM     34  H   UNL A   1      43.900  27.362  29.272  1.00  0.00     0.167 HD
ATOM     35  C   UNL A   1      46.121  28.875  30.212  1.00  0.00     0.074 A 
ATOM     36  C   UNL A   1      46.905  29.963  30.760  1.00  0.00     0.031 C 
ATOM     37  C   UNL A   1      46.621  27.654  29.902  1.00  0.00     0.037 A 
BRANCH  24  38
ATOM     38  C   UNL A   1      42.467  23.674  27.650  1.00  0.00     0.058 A 
ATOM     39  C   UNL A   1      42.340  22.562  28.500  1.00  0.00     0.135 A 
ATOM     40  C   UNL A   1      42.455  23.442  26.265  1.00  0.00     0.135 A 
ATOM     41  F   UNL A   1      42.340  22.725  29.831  1.00  0.00    -0.206 F 
ATOM     42  C   UNL A   1      42.241  21.268  27.997  1.00  0.00     0.059 A 
ATOM     43  C   UNL A   1      42.331  22.158  25.740  1.00  0.00     0.059 A 
ATOM     44  F   UNL A   1      42.552  24.470  25.408  1.00  0.00    -0.206 F 
ATOM     45  C   UNL A   1      42.243  21.076  26.614  1.00  0.00     0.060 A 
BRANCH  45  46
ATOM     46  S   UNL A   1      42.118  19.389  25.979  1.00  0.00     0.124 S 
ATOM     47  O   UNL A   1      42.959  19.453  24.789  1.00  0.00    -0.237 OA
ATOM     48  O   UNL A   1      42.646  18.606  27.091  1.00  0.00    -0.237 OA
ATOM     49  O   UNL A   1      40.688  19.227  25.731  1.00  0.00    -0.744 OA
ENDBRANCH  45  46
ENDBRANCH  24  38
BRANCH  25  50
ATOM     50  C   UNL A   1      43.937  32.952  31.101  1.00  0.00     0.058 A 
ATOM     51  C   UNL A   1      43.824  33.289  32.459  1.00  0.00     0.135 A 
ATOM     52  C   UNL A   1      44.260  33.977  30.199  1.00  0.00     0.135 A 
ATOM     53  F   UNL A   1      43.505  32.349  33.363  1.00  0.00    -0.206 F 
ATOM     54  C   UNL A   1      43.998  34.594  32.903  1.00  0.00     0.059 A 
ATOM     55  C   UNL A   1      44.473  35.285  30.625  1.00  0.00     0.059 A 
ATOM     56  F   UNL A   1      44.390  33.703  28.892  1.00  0.00    -0.206 F 
ATOM     57  C   UNL A   1      44.325  35.585  31.978  1.00  0.00     0.060 A 
BRANCH  57  58
ATOM     58  S   UNL A   1      44.567  37.269  32.581  1.00  0.00     0.124 S 
ATOM     59  O   UNL A   1      43.775  37.257  33.807  1.00  0.00    -0.237 OA
ATOM     60  O   UNL A   1      46.014  37.324  32.759  1.00  0.00    -0.237 OA
ATOM     61  O   UNL A   1      44.038  38.095  31.500  1.00  0.00    -0.744 OA
ENDBRANCH  57  58
ENDBRANCH  25  50
BRANCH  37  62
ATOM     62  C   UNL A   1      48.091  27.429  30.121  1.00  0.00     0.058 A 
ATOM     63  C   UNL A   1      49.006  27.645  29.079  1.00  0.00     0.135 A 
ATOM     64  C   UNL A   1      48.587  26.936  31.338  1.00  0.00     0.135 A 
ATOM     65  F   UNL A   1      48.585  28.113  27.893  1.00  0.00    -0.206 F 
ATOM     66  C   UNL A   1      50.359  27.363  29.229  1.00  0.00     0.059 A 
ATOM     67  C   UNL A   1      49.942  26.675  31.521  1.00  0.00     0.059 A 
ATOM     68  F   UNL A   1      47.755  26.725  32.371  1.00  0.00    -0.206 F 
ATOM     69  C   UNL A   1      50.817  26.875  30.453  1.00  0.00     0.060 A 
BRANCH  69  70
ATOM     70  S   UNL A   1      52.578  26.525  30.634  1.00  0.00     0.124 S 
ATOM     71  O   UNL A   1      52.563  25.352  31.501  1.00  0.00    -0.237 OA
ATOM     72  O   UNL A   1      52.988  26.289  29.253  1.00  0.00    -0.237 OA
ATOM     73  O   UNL A   1      53.107  27.744  31.237  1.00  0.00    -0.744 OA
ENDBRANCH  69  70
ENDBRANCH  37  62
ENDBRANCH  11  12
ENDBRANCH   4   6
ENDBRANCH   1   2
BRANCH   1  74
ATOM     74  C   UNL A   1      33.076  27.851  25.498  1.00  0.00     0.042 C 
BRANCH  74  75
ATOM     75  C   UNL A   1      31.566  27.634  25.490  1.00  0.00     0.118 C 
BRANCH  75  76
ATOM     76  N   UNL A   1      30.972  27.970  24.204  1.00  0.00    -0.352 N 
ATOM     77  C   UNL A   1      30.916  27.224  23.051  1.00  0.00     0.251 C 
ATOM     78  H   UNL A   1      30.552  28.858  24.152  1.00  0.00     0.163 HD
ATOM     79  O   UNL A   1      30.516  27.716  22.004  1.00  0.00    -0.269 OA
BRANCH  77  80
ATOM     80  C   UNL A   1      31.348  25.813  23.070  1.00  0.00     0.042 A 
ATOM     81  C   UNL A   1      30.467  24.808  23.477  1.00  0.00     0.014 A 
ATOM     82  C   UNL A   1      32.636  25.495  22.644  1.00  0.00     0.053 A 
ATOM     83  C   UNL A   1      30.911  23.484  23.543  1.00  0.00     0.013 A 
ATOM     84  C   UNL A   1      33.073  24.178  22.744  1.00  0.00     0.132 A 
ATOM     85  C   UNL A   1      32.248  23.166  23.249  1.00  0.00     0.042 A 
ATOM     86  F   UNL A   1      34.331  23.893  22.382  1.00  0.00    -0.206 F 
BRANCH  85  87
ATOM     87  C   UNL A   1      32.796  21.780  23.503  1.00  0.00     0.302 C 
BRANCH  87  88
ATOM     88  N   UNL A   1      33.229  21.434  24.865  1.00  0.00    -0.322 N 
ATOM     89  C   UNL A   1      33.887  20.128  25.028  1.00  0.00     0.324 C 
ATOM     90  C   UNL A   1      33.956  22.471  25.609  1.00  0.00     0.328 C 
ATOM     91  H   UNL A   1      32.311  21.358  25.303  1.00  0.00     0.348 HD
ATOM     92  C   UNL A   1      35.433  20.112  24.907  1.00  0.00     0.324 C 
ATOM     93  C   UNL A   1      35.480  22.495  25.346  1.00  0.00     0.239 C 
ATOM     94  N   UNL A   1      36.128  21.202  25.634  1.00  0.00    -0.323 N 
ATOM     95  C   UNL A   1      36.160  23.629  26.120  1.00  0.00     0.071 C 
ATOM     96  C   UNL A   1      37.543  21.235  25.234  1.00  0.00     0.262 C 
ATOM     97  H   UNL A   1      36.072  21.029  26.638  1.00  0.00     0.348 HD
ATOM     98  C   UNL A   1      37.614  23.740  25.675  1.00  0.00     0.012 C 
ATOM     99  C   UNL A   1      38.322  22.401  25.855  1.00  0.00     0.062 C 
ENDBRANCH  87  88
ENDBRANCH  85  87
ENDBRANCH  77  80
ENDBRANCH  75  76
ENDBRANCH  74  75
ENDBRANCH   1  74
TORSDOF 15
ENDMDL
MODEL 2
REMARK VINA RESULT:     -11.8      0.582      8.179
REMARK SMILES O=C(NCCCNC(=O)c1ccc(C[N@H+]2CC[N@H+]3CCCC[C@@H]3C2)c(F)c1)c1ccc(-c2c3nc(c(-c4c(F)cc(S(=O)(=O)[O-])cc4F)c4ccc([nH]4)c(-c4c(F)cc(S(=O)(=O)[O-])cc4F)c4nc(c(-c5c(F)cc(S(=O)(=O)[O-])cc5F)c5ccc2[nH]5)C=C4)C=C3)cc1
REMARK SMILES IDX 4 1 3 2 1 3 2 4 28 6 29 7 93 8 30 9 92 10 31 11 32 12 33 13
REMARK SMILES IDX 86 14 34 15 91 16 85 17 87 18 35 19 90 20 84 21 83 22 36 24
REMARK SMILES IDX 70 25 49 26 69 27 50 28 53 29 68 30 88 31 51 32 52 33 67 35
REMARK SMILES IDX 89 36 54 37 37 38 38 39 47 40 39 41 40 42 46 43 48 44 41 45
REMARK SMILES IDX 42 46 43 47 44 48 45 49 71 50 72 51 81 52 73 53 74 54 80 55
REMARK SMILES IDX 82 56 75 57 76 58 77 59 78 60 79 61 55 62 56 63 65 64 57 65
REMARK SMILES IDX 58 66 64 67 66 68 59 69 60 70 61 71 62 72 63 73 5 74 6 75
REMARK SMILES IDX 7 76 8 77 9 79 10 80 11 81 27 82 12 83 25 84 13 85 26 86
REMARK SMILES IDX 14 87 15 88 16 89 24 90 17 92 23 93 18 94 22 95 19 96 21 98
REMARK SMILES IDX 20 99
REMARK H PARENT 3 5 87 23 53 34 7 78 15 91 18 97
REMARK Flexibility Score: inf
ROOT
ATOM      1  C   UNL A   1      33.895  28.039  26.583  1.00  0.00     0.118 C 
ENDROOT
BRANCH   1   2
ATOM      2  N   UNL A   1      33.685  29.390  27.094  1.00  0.00    -0.352 N 
ATOM      3  O   UNL A   1      33.996  31.255  28.295  1.00  0.00    -0.269 OA
ATOM      4  C   UNL A   1      34.489  30.227  27.834  1.00  0.00     0.251 C 
ATOM      5  H   UNL A   1      32.807  29.773  26.869  1.00  0.00     0.163 HD
BRANCH   4   6
ATOM      6  C   UNL A   1      35.914  29.914  28.097  1.00  0.00     0.039 A 
ATOM      7  C   UNL A   1      36.901  30.146  27.141  1.00  0.00     0.014 A 
ATOM      8  C   UNL A   1      36.288  29.431  29.359  1.00  0.00     0.014 A 
ATOM      9  C   UNL A   1      38.210  29.737  27.371  1.00  0.00     0.010 A 
ATOM     10  C   UNL A   1      37.630  29.131  29.633  1.00  0.00     0.010 A 
ATOM     11  C   UNL A   1      38.601  29.252  28.629  1.00  0.00    -0.014 A 
BRANCH  11  12
ATOM     12  C   UNL A   1      40.040  28.961  28.874  1.00  0.00     0.031 A 
ATOM     13  C   UNL A   1      40.931  29.953  29.572  1.00  0.00     0.074 A 
ATOM     14  C   UNL A   1      40.524  27.754  28.511  1.00  0.00     0.049 A 
ATOM     15  N   UNL A   1      42.193  29.832  29.898  1.00  0.00    -0.248 NA
ATOM     16  C   UNL A   1      40.338  31.244  29.955  1.00  0.00     0.031 C 
ATOM     17  C   UNL A   1      39.751  26.710  27.829  1.00  0.00     0.029 A 
ATOM     18  N   UNL A   1      41.757  27.181  28.692  1.00  0.00    -0.354 N 
ATOM     19  C   UNL A   1      42.547  31.024  30.521  1.00  0.00     0.074 A 
ATOM     20  C   UNL A   1      41.375  31.874  30.493  1.00  0.00     0.031 C 
ATOM     21  C   UNL A   1      40.502  25.606  27.716  1.00  0.00     0.029 A 
ATOM     22  C   UNL A   1      41.832  25.882  28.243  1.00  0.00     0.049 A 
ATOM     23  H   UNL A   1      42.515  27.654  29.104  1.00  0.00     0.167 HD
ATOM     24  C   UNL A   1      43.733  31.368  31.076  1.00  0.00     0.037 A 
ATOM     25  C   UNL A   1      42.860  25.011  28.239  1.00  0.00     0.037 A 
ATOM     26  C   UNL A   1      44.892  30.509  31.106  1.00  0.00     0.049 A 
ATOM     27  C   UNL A   1      44.180  25.446  28.805  1.00  0.00     0.074 A 
ATOM     28  C   UNL A   1      46.139  30.770  31.648  1.00  0.00     0.029 A 
ATOM     29  N   UNL A   1      44.948  29.227  30.579  1.00  0.00    -0.354 N 
ATOM     30  N   UNL A   1      44.492  26.579  29.389  1.00  0.00    -0.248 NA
ATOM     31  C   UNL A   1      45.293  24.493  28.704  1.00  0.00     0.031 C 
ATOM     32  C   UNL A   1      46.961  29.665  31.409  1.00  0.00     0.029 A 
ATOM     33  C   UNL A   1      46.213  28.692  30.767  1.00  0.00     0.049 A 
ATOM     34  H   UNL A   1      44.199  28.765  30.137  1.00  0.00     0.167 HD
ATOM     35  C   UNL A   1      45.831  26.466  29.742  1.00  0.00     0.074 A 
ATOM     36  C   UNL A   1      46.264  25.148  29.324  1.00  0.00     0.031 C 
ATOM     37  C   UNL A   1      46.629  27.375  30.353  1.00  0.00     0.037 A 
BRANCH  24  38
ATOM     38  C   UNL A   1      43.857  32.727  31.713  1.00  0.00     0.058 A 
ATOM     39  C   UNL A   1      43.472  32.929  33.048  1.00  0.00     0.135 A 
ATOM     40  C   UNL A   1      44.255  33.850  30.970  1.00  0.00     0.135 A 
ATOM     41  F   UNL A   1      43.087  31.891  33.806  1.00  0.00    -0.206 F 
ATOM     42  C   UNL A   1      43.449  34.200  33.615  1.00  0.00     0.059 A 
ATOM     43  C   UNL A   1      44.263  35.128  31.525  1.00  0.00     0.059 A 
ATOM     44  F   UNL A   1      44.652  33.711  29.695  1.00  0.00    -0.206 F 
ATOM     45  C   UNL A   1      43.841  35.295  32.843  1.00  0.00     0.060 A 
BRANCH  45  46
ATOM     46  S   UNL A   1      43.801  36.937  33.594  1.00  0.00     0.124 S 
ATOM     47  O   UNL A   1      45.030  36.939  34.378  1.00  0.00    -0.237 OA
ATOM     48  O   UNL A   1      43.791  37.806  32.422  1.00  0.00    -0.237 OA
ATOM     49  O   UNL A   1      42.561  36.926  34.366  1.00  0.00    -0.744 OA
ENDBRANCH  45  46
ENDBRANCH  24  38
BRANCH  25  50
ATOM     50  C   UNL A   1      42.675  23.645  27.678  1.00  0.00     0.058 A 
ATOM     51  C   UNL A   1      42.392  22.549  28.509  1.00  0.00     0.135 A 
ATOM     52  C   UNL A   1      42.792  23.407  26.301  1.00  0.00     0.135 A 
ATOM     53  F   UNL A   1      42.281  22.718  29.835  1.00  0.00    -0.206 F 
ATOM     54  C   UNL A   1      42.258  21.263  27.998  1.00  0.00     0.059 A 
ATOM     55  C   UNL A   1      42.628  22.134  25.762  1.00  0.00     0.059 A 
ATOM     56  F   UNL A   1      43.051  24.424  25.465  1.00  0.00    -0.206 F 
ATOM     57  C   UNL A   1      42.374  21.066  26.622  1.00  0.00     0.060 A 
BRANCH  57  58
ATOM     58  S   UNL A   1      42.174  19.392  25.979  1.00  0.00     0.124 S 
ATOM     59  O   UNL A   1      40.734  19.335  25.753  1.00  0.00    -0.237 OA
ATOM     60  O   UNL A   1      43.006  19.424  24.781  1.00  0.00    -0.237 OA
ATOM     61  O   UNL A   1      42.673  18.552  27.064  1.00  0.00    -0.744 OA
ENDBRANCH  57  58
ENDBRANCH  25  50
BRANCH  37  62
ATOM     62  C   UNL A   1      48.050  26.973  30.635  1.00  0.00     0.058 A 
ATOM     63  C   UNL A   1      48.359  26.200  31.765  1.00  0.00     0.135 A 
ATOM     64  C   UNL A   1      49.112  27.409  29.827  1.00  0.00     0.135 A 
ATOM     65  F   UNL A   1      47.381  25.760  32.573  1.00  0.00    -0.206 F 
ATOM     66  C   UNL A   1      49.673  25.888  32.095  1.00  0.00     0.059 A 
ATOM     67  C   UNL A   1      50.433  27.083  30.122  1.00  0.00     0.059 A 
ATOM     68  F   UNL A   1      48.869  28.140  28.728  1.00  0.00    -0.206 F 
ATOM     69  C   UNL A   1      50.704  26.336  31.269  1.00  0.00     0.060 A 
BRANCH  69  70
ATOM     70  S   UNL A   1      52.402  25.912  31.706  1.00  0.00     0.124 S 
ATOM     71  O   UNL A   1      52.234  24.599  32.320  1.00  0.00    -0.237 OA
ATOM     72  O   UNL A   1      53.068  25.926  30.408  1.00  0.00    -0.237 OA
ATOM     73  O   UNL A   1      52.797  26.984  32.615  1.00  0.00    -0.744 OA
ENDBRANCH  69  70
ENDBRANCH  37  62
ENDBRANCH  11  12
ENDBRANCH   4   6
ENDBRANCH   1   2
BRANCH   1  74
ATOM     74  C   UNL A   1      33.227  27.814  25.234  1.00  0.00     0.042 C 
BRANCH  74  75
ATOM     75  C   UNL A   1      31.707  27.702  25.291  1.00  0.00     0.118 C 
BRANCH  75  76
ATOM     76  N   UNL A   1      31.087  28.002  24.009  1.00  0.00    -0.352 N 
ATOM     77  C   UNL A   1      30.956  27.203  22.899  1.00  0.00     0.251 C 
ATOM     78  H   UNL A   1      30.710  28.907  23.924  1.00  0.00     0.163 HD
ATOM     79  O   UNL A   1      30.546  27.661  21.840  1.00  0.00    -0.269 OA
BRANCH  77  80
ATOM     80  C   UNL A   1      31.318  25.775  22.977  1.00  0.00     0.042 A 
ATOM     81  C   UNL A   1      30.421  24.844  23.507  1.00  0.00     0.014 A 
ATOM     82  C   UNL A   1      32.556  25.364  22.485  1.00  0.00     0.053 A 
ATOM     83  C   UNL A   1      30.803  23.505  23.626  1.00  0.00     0.013 A 
ATOM     84  C   UNL A   1      32.934  24.033  22.638  1.00  0.00     0.132 A 
ATOM     85  C   UNL A   1      32.099  23.098  23.261  1.00  0.00     0.042 A 
ATOM     86  F   UNL A   1      34.148  23.660  22.209  1.00  0.00    -0.206 F 
BRANCH  85  87
ATOM     87  C   UNL A   1      32.595  21.704  23.564  1.00  0.00     0.302 C 
BRANCH  87  88
ATOM     88  N   UNL A   1      33.067  21.405  24.924  1.00  0.00    -0.322 N 
ATOM     89  C   UNL A   1      33.741  20.111  25.112  1.00  0.00     0.324 C 
ATOM     90  C   UNL A   1      33.803  22.471  25.616  1.00  0.00     0.328 C 
ATOM     91  H   UNL A   1      32.162  21.336  25.389  1.00  0.00     0.348 HD
ATOM     92  C   UNL A   1      35.284  20.103  24.950  1.00  0.00     0.324 C 
ATOM     93  C   UNL A   1      35.319  22.500  25.311  1.00  0.00     0.239 C 
ATOM     94  N   UNL A   1      35.988  21.222  25.623  1.00  0.00    -0.323 N 
ATOM     95  C   UNL A   1      36.009  23.664  26.031  1.00  0.00     0.071 C 
ATOM     96  C   UNL A   1      37.391  21.254  25.185  1.00  0.00     0.262 C 
ATOM     97  H   UNL A   1      35.959  21.081  26.633  1.00  0.00     0.348 HD
ATOM     98  C   UNL A   1      37.450  23.772  25.544  1.00  0.00     0.012 C 
ATOM     99  C   UNL A   1      38.175  22.447  25.748  1.00  0.00     0.062 C 
ENDBRANCH  87  88
ENDBRANCH  85  87
ENDBRANCH  77  80
ENDBRANCH  75  76
ENDBRANCH  74  75
ENDBRANCH   1  74
TORSDOF 15
ENDMDL
MODEL 3
REMARK VINA RESULT:     -11.7      3.198      9.470
REMARK SMILES O=C(NCCCNC(=O)c1ccc(C[N@H+]2CC[N@H+]3CCCC[C@@H]3C2)c(F)c1)c1ccc(-c2c3nc(c(-c4c(F)cc(S(=O)(=O)[O-])cc4F)c4ccc([nH]4)c(-c4c(F)cc(S(=O)(=O)[O-])cc4F)c4nc(c(-c5c(F)cc(S(=O)(=O)[O-])cc5F)c5ccc2[nH]5)C=C4)C=C3)cc1
REMARK SMILES IDX 4 1 3 2 1 3 2 4 28 6 29 7 93 8 30 9 92 10 31 11 32 12 33 13
REMARK SMILES IDX 86 14 34 15 91 16 85 17 87 18 35 19 90 20 84 21 83 22 36 24
REMARK SMILES IDX 70 25 49 26 69 27 50 28 53 29 68 30 88 31 51 32 52 33 67 35
REMARK SMILES IDX 89 36 54 37 37 38 38 39 47 40 39 41 40 42 46 43 48 44 41 45
REMARK SMILES IDX 42 46 43 47 44 48 45 49 71 50 72 51 81 52 73 53 74 54 80 55
REMARK SMILES IDX 82 56 75 57 76 58 77 59 78 60 79 61 55 62 56 63 65 64 57 65
REMARK SMILES IDX 58 66 64 67 66 68 59 69 60 70 61 71 62 72 63 73 5 74 6 75
REMARK SMILES IDX 7 76 8 77 9 79 10 80 11 81 27 82 12 83 25 84 13 85 26 86
REMARK SMILES IDX 14 87 15 88 16 89 24 90 17 92 23 93 18 94 22 95 19 96 21 98
REMARK SMILES IDX 20 99
REMARK H PARENT 3 5 87 23 53 34 7 78 15 91 18 97
REMARK Flexibility Score: inf
ROOT
ATOM      1  C   UNL A   1      36.659  23.937  25.179  1.00  0.00     0.118 C 
ENDROOT
BRANCH   1   2
ATOM      2  N   UNL A   1      37.735  22.963  25.332  1.00  0.00    -0.352 N 
ATOM      3  O   UNL A   1      39.770  22.127  25.751  1.00  0.00    -0.269 OA
ATOM      4  C   UNL A   1      38.974  23.049  25.924  1.00  0.00     0.251 C 
ATOM      5  H   UNL A   1      37.538  22.082  24.938  1.00  0.00     0.163 HD
BRANCH   4   6
ATOM      6  C   UNL A   1      39.372  24.219  26.742  1.00  0.00     0.039 A 
ATOM      7  C   UNL A   1      38.974  24.350  28.070  1.00  0.00     0.014 A 
ATOM      8  C   UNL A   1      40.220  25.187  26.186  1.00  0.00     0.014 A 
ATOM      9  C   UNL A   1      39.264  25.511  28.778  1.00  0.00     0.010 A 
ATOM     10  C   UNL A   1      40.613  26.302  26.941  1.00  0.00     0.010 A 
ATOM     11  C   UNL A   1      40.112  26.490  28.236  1.00  0.00    -0.014 A 
BRANCH  11  12
ATOM     12  C   UNL A   1      40.511  27.647  29.083  1.00  0.00     0.031 A 
ATOM     13  C   UNL A   1      39.610  28.840  29.255  1.00  0.00     0.074 A 
ATOM     14  C   UNL A   1      41.681  27.581  29.754  1.00  0.00     0.049 A 
ATOM     15  N   UNL A   1      39.793  29.906  29.992  1.00  0.00    -0.248 NA
ATOM     16  C   UNL A   1      38.341  28.843  28.509  1.00  0.00     0.031 C 
ATOM     17  C   UNL A   1      42.637  26.471  29.668  1.00  0.00     0.029 A 
ATOM     18  N   UNL A   1      42.253  28.434  30.663  1.00  0.00    -0.354 N 
ATOM     19  C   UNL A   1      38.672  30.705  29.800  1.00  0.00     0.074 A 
ATOM     20  C   UNL A   1      37.827  30.019  28.845  1.00  0.00     0.031 C 
ATOM     21  C   UNL A   1      43.634  26.676  30.540  1.00  0.00     0.029 A 
ATOM     22  C   UNL A   1      43.435  27.965  31.191  1.00  0.00     0.049 A 
ATOM     23  H   UNL A   1      41.857  29.299  30.915  1.00  0.00     0.167 HD
ATOM     24  C   UNL A   1      38.370  31.893  30.379  1.00  0.00     0.037 A 
ATOM     25  C   UNL A   1      44.277  28.514  32.087  1.00  0.00     0.037 A 
ATOM     26  C   UNL A   1      39.216  32.563  31.337  1.00  0.00     0.049 A 
ATOM     27  C   UNL A   1      43.945  29.861  32.663  1.00  0.00     0.074 A 
ATOM     28  C   UNL A   1      38.994  33.769  31.980  1.00  0.00     0.029 A 
ATOM     29  N   UNL A   1      40.437  32.088  31.792  1.00  0.00    -0.354 N 
ATOM     30  N   UNL A   1      42.878  30.598  32.467  1.00  0.00    -0.248 NA
ATOM     31  C   UNL A   1      44.933  30.456  33.572  1.00  0.00     0.031 C 
ATOM     32  C   UNL A   1      40.100  34.045  32.787  1.00  0.00     0.029 A 
ATOM     33  C   UNL A   1      40.988  32.986  32.693  1.00  0.00     0.049 A 
ATOM     34  H   UNL A   1      40.851  31.239  31.517  1.00  0.00     0.167 HD
ATOM     35  C   UNL A   1      43.059  31.736  33.244  1.00  0.00     0.074 A 
ATOM     36  C   UNL A   1      44.326  31.580  33.928  1.00  0.00     0.031 C 
ATOM     37  C   UNL A   1      42.248  32.815  33.374  1.00  0.00     0.037 A 
BRANCH  24  38
ATOM     38  C   UNL A   1      37.070  32.556  30.013  1.00  0.00     0.058 A 
ATOM     39  C   UNL A   1      37.025  33.540  29.012  1.00  0.00     0.135 A 
ATOM     40  C   UNL A   1      35.888  32.297  30.727  1.00  0.00     0.135 A 
ATOM     41  F   UNL A   1      38.123  33.826  28.295  1.00  0.00    -0.206 F 
ATOM     42  C   UNL A   1      35.865  34.263  28.751  1.00  0.00     0.059 A 
ATOM     43  C   UNL A   1      34.709  32.991  30.466  1.00  0.00     0.059 A 
ATOM     44  F   UNL A   1      35.870  31.353  31.681  1.00  0.00    -0.206 F 
ATOM     45  C   UNL A   1      34.713  33.985  29.488  1.00  0.00     0.060 A 
BRANCH  45  46
ATOM     46  S   UNL A   1      33.216  34.936  29.140  1.00  0.00     0.124 S 
ATOM     47  O   UNL A   1      32.576  34.122  28.112  1.00  0.00    -0.237 OA
ATOM     48  O   UNL A   1      32.558  34.953  30.441  1.00  0.00    -0.237 OA
ATOM     49  O   UNL A   1      33.733  36.225  28.689  1.00  0.00    -0.744 OA
ENDBRANCH  45  46
ENDBRANCH  24  38
BRANCH  25  50
ATOM     50  C   UNL A   1      45.512  27.788  32.490  1.00  0.00     0.058 A 
ATOM     51  C   UNL A   1      46.695  27.889  31.739  1.00  0.00     0.135 A 
ATOM     52  C   UNL A   1      45.529  26.966  33.626  1.00  0.00     0.135 A 
ATOM     53  F   UNL A   1      46.731  28.652  30.636  1.00  0.00    -0.206 F 
ATOM     54  C   UNL A   1      47.840  27.182  32.087  1.00  0.00     0.059 A 
ATOM     55  C   UNL A   1      46.674  26.276  34.014  1.00  0.00     0.059 A 
ATOM     56  F   UNL A   1      44.427  26.846  34.382  1.00  0.00    -0.206 F 
ATOM     57  C   UNL A   1      47.821  26.380  33.228  1.00  0.00     0.060 A 
BRANCH  57  58
ATOM     58  S   UNL A   1      49.327  25.490  33.671  1.00  0.00     0.124 S 
ATOM     59  O   UNL A   1      50.238  25.911  32.612  1.00  0.00    -0.237 OA
ATOM     60  O   UNL A   1      49.611  26.015  35.002  1.00  0.00    -0.237 OA
ATOM     61  O   UNL A   1      48.917  24.089  33.626  1.00  0.00    -0.744 OA
ENDBRANCH  57  58
ENDBRANCH  25  50
BRANCH  37  62
ATOM     62  C   UNL A   1      42.688  33.905  34.311  1.00  0.00     0.058 A 
ATOM     63  C   UNL A   1      42.355  33.848  35.673  1.00  0.00     0.135 A 
ATOM     64  C   UNL A   1      43.377  35.037  33.850  1.00  0.00     0.135 A 
ATOM     65  F   UNL A   1      41.693  32.789  36.166  1.00  0.00    -0.206 F 
ATOM     66  C   UNL A   1      42.675  34.885  36.543  1.00  0.00     0.059 A 
ATOM     67  C   UNL A   1      43.734  36.073  34.708  1.00  0.00     0.059 A 
ATOM     68  F   UNL A   1      43.730  35.134  32.558  1.00  0.00    -0.206 F 
ATOM     69  C   UNL A   1      43.362  35.995  36.051  1.00  0.00     0.060 A 
BRANCH  69  70
ATOM     70  S   UNL A   1      43.779  37.325  37.197  1.00  0.00     0.124 S 
ATOM     71  O   UNL A   1      44.011  38.441  36.287  1.00  0.00    -0.237 OA
ATOM     72  O   UNL A   1      42.575  37.413  38.017  1.00  0.00    -0.237 OA
ATOM     73  O   UNL A   1      44.962  36.821  37.886  1.00  0.00    -0.744 OA
ENDBRANCH  69  70
ENDBRANCH  37  62
ENDBRANCH  11  12
ENDBRANCH   4   6
ENDBRANCH   1   2
BRANCH   1  74
ATOM     74  C   UNL A   1      35.281  23.324  25.386  1.00  0.00     0.042 C 
BRANCH  74  75
ATOM     75  C   UNL A   1      34.731  22.578  24.175  1.00  0.00     0.118 C 
BRANCH  75  76
ATOM     76  N   UNL A   1      33.783  21.541  24.555  1.00  0.00    -0.352 N 
ATOM     77  C   UNL A   1      32.466  21.663  24.931  1.00  0.00     0.251 C 
ATOM     78  H   UNL A   1      34.134  20.622  24.543  1.00  0.00     0.163 HD
ATOM     79  O   UNL A   1      31.849  20.703  25.373  1.00  0.00    -0.269 OA
BRANCH  77  80
ATOM     80  C   UNL A   1      31.787  22.966  24.807  1.00  0.00     0.042 A 
ATOM     81  C   UNL A   1      31.203  23.349  23.597  1.00  0.00     0.014 A 
ATOM     82  C   UNL A   1      31.708  23.795  25.925  1.00  0.00     0.053 A 
ATOM     83  C   UNL A   1      30.614  24.612  23.482  1.00  0.00     0.013 A 
ATOM     84  C   UNL A   1      31.145  25.061  25.787  1.00  0.00     0.132 A 
ATOM     85  C   UNL A   1      30.647  25.515  24.560  1.00  0.00     0.042 A 
ATOM     86  F   UNL A   1      31.123  25.870  26.855  1.00  0.00    -0.206 F 
BRANCH  85  87
ATOM     87  C   UNL A   1      30.194  26.947  24.394  1.00  0.00     0.302 C 
BRANCH  87  88
ATOM     88  N   UNL A   1      31.139  27.923  23.832  1.00  0.00    -0.322 N 
ATOM     89  C   UNL A   1      30.680  29.320  23.779  1.00  0.00     0.324 C 
ATOM     90  C   UNL A   1      32.523  27.856  24.318  1.00  0.00     0.328 C 
ATOM     91  H   UNL A   1      31.158  27.582  22.870  1.00  0.00     0.348 HD
ATOM     92  C   UNL A   1      31.028  30.209  25.001  1.00  0.00     0.324 C 
ATOM     93  C   UNL A   1      32.782  28.654  25.618  1.00  0.00     0.239 C 
ATOM     94  N   UNL A   1      32.421  30.079  25.492  1.00  0.00    -0.323 N 
ATOM     95  C   UNL A   1      34.233  28.499  26.086  1.00  0.00     0.071 C 
ATOM     96  C   UNL A   1      32.551  30.759  26.790  1.00  0.00     0.262 C 
ATOM     97  H   UNL A   1      33.058  30.516  24.825  1.00  0.00     0.348 HD
ATOM     98  C   UNL A   1      34.385  29.130  27.466  1.00  0.00     0.012 C 
ATOM     99  C   UNL A   1      33.934  30.586  27.430  1.00  0.00     0.062 C 
ENDBRANCH  87  88
ENDBRANCH  85  87
ENDBRANCH  77  80
ENDBRANCH  75  76
ENDBRANCH  74  75
ENDBRANCH   1  74
TORSDOF 15
ENDMDL
