MODEL 1
REMARK VINA RESULT:     -11.4      0.000      0.000
REMARK SMILES COc1cccc(O[C@@H](C)c2nnc(SCC(=O)NCCCNC(=O)c3ccc(-c4c5nc(c(-c6c(F)cc(S(=O)(=O)[O-])cc6F)c6ccc([nH]6)c(-c6c(F)cc(S(=O)(=O)[O-])cc6F)c6nc(c(-c7c(F)cc(S(=O)(=O)[O-])cc7F)c7ccc4[nH]7)C=C6)C=C5)cc3)n2C)c1
REMARK SMILES IDX 17 1 18 2 19 3 16 5 15 6 14 7 11 8 12 9 92 10 13 11 93 12
REMARK SMILES IDX 9 13 10 14 8 15 7 16 3 17 4 18 94 19 5 20 6 21 2 22 1 23
REMARK SMILES IDX 20 24 21 25 22 26 23 27 24 28 25 30 26 31 27 32 91 33 28 34
REMARK SMILES IDX 90 35 29 36 30 37 31 38 84 39 32 40 89 41 83 42 85 43 33 44
REMARK SMILES IDX 88 45 82 46 81 47 34 49 68 50 47 51 67 52 48 53 51 54 66 55
REMARK SMILES IDX 86 56 49 57 50 58 65 60 87 61 52 62 35 63 36 64 45 65 37 66
REMARK SMILES IDX 38 67 44 68 46 69 39 70 40 71 41 72 42 73 43 74 69 75 70 76
REMARK SMILES IDX 79 77 71 78 72 79 78 80 80 81 73 82 74 83 75 84 76 85 77 86
REMARK SMILES IDX 53 87 54 88 63 89 55 90 56 91 62 92 64 93 57 94 58 95 59 96
REMARK SMILES IDX 60 97 61 98
REMARK H PARENT 19 4 23 29 85 48 51 59
REMARK Flexibility Score: inf
ROOT
ATOM      1  C   UNL A   1      31.309  29.641  24.734  1.00  0.00     0.230 C 
ATOM      2  O   UNL A   1      30.296  30.266  24.396  1.00  0.00    -0.274 OA
ATOM      3  N   UNL A   1      32.182  30.285  25.555  1.00  0.00    -0.355 N 
ATOM      4  H   UNL A   1      32.012  31.248  25.669  1.00  0.00     0.163 HD
ENDROOT
BRANCH   1   5
ATOM      5  C   UNL A   1      31.522  28.209  24.258  1.00  0.00     0.178 C 
BRANCH   5   6
ATOM      6  S   UNL A   1      32.481  28.060  22.744  1.00  0.00    -0.076 SA
BRANCH   6   7
ATOM      7  C   UNL A   1      33.260  26.520  22.680  1.00  0.00     0.191 A 
ATOM      8  C   UNL A   1      34.283  24.620  23.131  1.00  0.00     0.174 A 
ATOM      9  N   UNL A   1      33.764  24.555  21.917  1.00  0.00    -0.130 NA
ATOM     10  N   UNL A   1      33.923  25.840  23.676  1.00  0.00    -0.306 N 
ATOM     11  N   UNL A   1      33.128  25.732  21.642  1.00  0.00    -0.123 NA
ATOM     12  C   UNL A   1      34.174  26.330  24.996  1.00  0.00     0.154 C 
BRANCH   8  13
ATOM     13  C   UNL A   1      35.080  23.486  23.722  1.00  0.00     0.238 C 
ATOM     14  C   UNL A   1      36.317  22.957  23.020  1.00  0.00     0.062 C 
BRANCH  13  15
ATOM     15  O   UNL A   1      34.252  22.405  24.201  1.00  0.00    -0.483 OA
BRANCH  15  16
ATOM     16  C   UNL A   1      33.665  22.410  25.433  1.00  0.00     0.124 A 
ATOM     17  C   UNL A   1      31.917  22.859  27.053  1.00  0.00     0.122 A 
ATOM     18  C   UNL A   1      32.741  22.352  28.062  1.00  0.00     0.046 A 
ATOM     19  C   UNL A   1      32.375  22.851  25.733  1.00  0.00     0.092 A 
ATOM     20  C   UNL A   1      34.000  21.838  27.760  1.00  0.00     0.008 A 
ATOM     21  C   UNL A   1      34.460  21.873  26.447  1.00  0.00     0.047 A 
BRANCH  17  22
ATOM     22  O   UNL A   1      30.735  23.362  27.512  1.00  0.00    -0.497 OA
ATOM     23  C   UNL A   1      29.500  22.759  27.157  1.00  0.00     0.278 C 
ENDBRANCH  17  22
ENDBRANCH  15  16
ENDBRANCH  13  15
ENDBRANCH   8  13
ENDBRANCH   6   7
ENDBRANCH   5   6
ENDBRANCH   1   5
BRANCH   3  24
ATOM     24  C   UNL A   1      33.327  29.773  26.290  1.00  0.00     0.117 C 
BRANCH  24  25
ATOM     25  C   UNL A   1      33.935  30.776  27.268  1.00  0.00     0.042 C 
BRANCH  25  26
ATOM     26  C   UNL A   1      35.173  30.291  28.012  1.00  0.00     0.118 C 
BRANCH  26  27
ATOM     27  N   UNL A   1      35.273  30.836  29.356  1.00  0.00    -0.352 N 
ATOM     28  C   UNL A   1      36.290  30.763  30.277  1.00  0.00     0.251 C 
ATOM     29  H   UNL A   1      34.483  31.340  29.655  1.00  0.00     0.163 HD
ATOM     30  O   UNL A   1      36.067  31.111  31.433  1.00  0.00    -0.269 OA
BRANCH  28  31
ATOM     31  C   UNL A   1      37.631  30.259  29.901  1.00  0.00     0.039 A 
ATOM     32  C   UNL A   1      37.990  30.252  28.549  1.00  0.00     0.014 A 
ATOM     33  C   UNL A   1      38.515  29.749  30.853  1.00  0.00     0.014 A 
ATOM     34  C   UNL A   1      39.257  29.799  28.165  1.00  0.00     0.010 A 
ATOM     35  C   UNL A   1      39.806  29.376  30.481  1.00  0.00     0.010 A 
ATOM     36  C   UNL A   1      40.191  29.393  29.132  1.00  0.00    -0.014 A 
BRANCH  36  37
ATOM     37  C   UNL A   1      41.572  28.995  28.749  1.00  0.00     0.031 A 
ATOM     38  C   UNL A   1      42.677  30.017  28.700  1.00  0.00     0.074 A 
ATOM     39  C   UNL A   1      41.818  27.719  28.386  1.00  0.00     0.049 A 
ATOM     40  N   UNL A   1      43.923  29.869  28.330  1.00  0.00    -0.248 NA
ATOM     41  C   UNL A   1      42.331  31.392  29.095  1.00  0.00     0.031 C 
ATOM     42  C   UNL A   1      40.822  26.646  28.344  1.00  0.00     0.029 A 
ATOM     43  N   UNL A   1      42.976  27.109  27.973  1.00  0.00    -0.354 N 
ATOM     44  C   UNL A   1      44.505  31.128  28.436  1.00  0.00     0.074 A 
ATOM     45  C   UNL A   1      43.461  32.039  28.853  1.00  0.00     0.031 C 
ATOM     46  C   UNL A   1      41.416  25.508  27.951  1.00  0.00     0.029 A 
ATOM     47  C   UNL A   1      42.822  25.776  27.672  1.00  0.00     0.049 A 
ATOM     48  H   UNL A   1      43.837  27.582  27.899  1.00  0.00     0.167 HD
ATOM     49  C   UNL A   1      45.795  31.487  28.227  1.00  0.00     0.037 A 
ATOM     50  C   UNL A   1      43.711  24.872  27.213  1.00  0.00     0.037 A 
ATOM     51  C   UNL A   1      46.833  30.570  27.832  1.00  0.00     0.049 A 
ATOM     52  C   UNL A   1      45.135  25.298  26.980  1.00  0.00     0.074 A 
ATOM     53  C   UNL A   1      48.182  30.824  27.650  1.00  0.00     0.029 A 
ATOM     54  N   UNL A   1      46.641  29.224  27.553  1.00  0.00    -0.354 N 
ATOM     55  N   UNL A   1      45.682  26.479  27.150  1.00  0.00    -0.248 NA
ATOM     56  C   UNL A   1      46.066  24.268  26.499  1.00  0.00     0.031 C 
ATOM     57  C   UNL A   1      48.795  29.647  27.213  1.00  0.00     0.029 A 
ATOM     58  C   UNL A   1      47.841  28.642  27.178  1.00  0.00     0.049 A 
ATOM     59  H   UNL A   1      45.779  28.753  27.613  1.00  0.00     0.167 HD
ATOM     60  C   UNL A   1      47.025  26.326  26.826  1.00  0.00     0.074 A 
ATOM     61  C   UNL A   1      47.211  24.937  26.463  1.00  0.00     0.031 C 
ATOM     62  C   UNL A   1      48.015  27.254  26.827  1.00  0.00     0.037 A 
BRANCH  49  63
ATOM     63  C   UNL A   1      46.161  32.934  28.425  1.00  0.00     0.058 A 
ATOM     64  C   UNL A   1      46.092  33.863  27.373  1.00  0.00     0.135 A 
ATOM     65  C   UNL A   1      46.540  33.410  29.691  1.00  0.00     0.135 A 
ATOM     66  F   UNL A   1      45.750  33.462  26.138  1.00  0.00    -0.206 F 
ATOM     67  C   UNL A   1      46.413  35.204  27.563  1.00  0.00     0.059 A 
ATOM     68  C   UNL A   1      46.835  34.753  29.910  1.00  0.00     0.059 A 
ATOM     69  F   UNL A   1      46.622  32.568  30.733  1.00  0.00    -0.206 F 
ATOM     70  C   UNL A   1      46.782  35.640  28.836  1.00  0.00     0.060 A 
BRANCH  70  71
ATOM     71  S   UNL A   1      47.186  37.384  29.064  1.00  0.00     0.124 S 
ATOM     72  O   UNL A   1      46.201  38.026  28.200  1.00  0.00    -0.237 OA
ATOM     73  O   UNL A   1      46.984  37.566  30.498  1.00  0.00    -0.237 OA
ATOM     74  O   UNL A   1      48.571  37.476  28.612  1.00  0.00    -0.744 OA
ENDBRANCH  70  71
ENDBRANCH  49  63
BRANCH  50  75
ATOM     75  C   UNL A   1      43.283  23.469  26.958  1.00  0.00     0.058 A 
ATOM     76  C   UNL A   1      43.051  23.010  25.653  1.00  0.00     0.135 A 
ATOM     77  C   UNL A   1      43.104  22.559  28.011  1.00  0.00     0.135 A 
ATOM     78  F   UNL A   1      43.203  23.843  24.613  1.00  0.00    -0.206 F 
ATOM     79  C   UNL A   1      42.634  21.707  25.401  1.00  0.00     0.059 A 
ATOM     80  C   UNL A   1      42.716  21.242  27.783  1.00  0.00     0.059 A 
ATOM     81  F   UNL A   1      43.330  22.942  29.277  1.00  0.00    -0.206 F 
ATOM     82  C   UNL A   1      42.470  20.829  26.474  1.00  0.00     0.060 A 
BRANCH  82  83
ATOM     83  S   UNL A   1      41.967  19.130  26.130  1.00  0.00     0.124 S 
ATOM     84  O   UNL A   1      42.341  18.456  27.368  1.00  0.00    -0.237 OA
ATOM     85  O   UNL A   1      40.535  19.277  25.891  1.00  0.00    -0.237 OA
ATOM     86  O   UNL A   1      42.757  18.776  24.954  1.00  0.00    -0.744 OA
ENDBRANCH  82  83
ENDBRANCH  50  75
BRANCH  62  87
ATOM     87  C   UNL A   1      49.399  26.791  26.463  1.00  0.00     0.058 A 
ATOM     88  C   UNL A   1      50.247  26.179  27.401  1.00  0.00     0.135 A 
ATOM     89  C   UNL A   1      49.866  26.917  25.145  1.00  0.00     0.135 A 
ATOM     90  F   UNL A   1      49.852  26.038  28.677  1.00  0.00    -0.206 F 
ATOM     91  C   UNL A   1      51.517  25.734  27.051  1.00  0.00     0.059 A 
ATOM     92  C   UNL A   1      51.121  26.452  24.764  1.00  0.00     0.059 A 
ATOM     93  F   UNL A   1      49.092  27.485  24.205  1.00  0.00    -0.206 F 
ATOM     94  C   UNL A   1      51.944  25.872  25.728  1.00  0.00     0.060 A 
BRANCH  94  95
ATOM     95  S   UNL A   1      53.582  25.261  25.280  1.00  0.00     0.124 S 
ATOM     96  O   UNL A   1      54.421  25.893  26.295  1.00  0.00    -0.237 OA
ATOM     97  O   UNL A   1      53.421  23.816  25.401  1.00  0.00    -0.237 OA
ATOM     98  O   UNL A   1      53.769  25.753  23.918  1.00  0.00    -0.744 OA
ENDBRANCH  94  95
ENDBRANCH  62  87
ENDBRANCH  36  37
ENDBRANCH  28  31
ENDBRANCH  26  27
ENDBRANCH  25  26
ENDBRANCH  24  25
ENDBRANCH   3  24
TORSDOF 19
ENDMDL
MODEL 2
REMARK VINA RESULT:     -11.3      6.408     11.933
REMARK SMILES COc1cccc(O[C@@H](C)c2nnc(SCC(=O)NCCCNC(=O)c3ccc(-c4c5nc(c(-c6c(F)cc(S(=O)(=O)[O-])cc6F)c6ccc([nH]6)c(-c6c(F)cc(S(=O)(=O)[O-])cc6F)c6nc(c(-c7c(F)cc(S(=O)(=O)[O-])cc7F)c7ccc4[nH]7)C=C6)C=C5)cc3)n2C)c1
REMARK SMILES IDX 17 1 18 2 19 3 16 5 15 6 14 7 11 8 12 9 92 10 13 11 93 12
REMARK SMILES IDX 9 13 10 14 8 15 7 16 3 17 4 18 94 19 5 20 6 21 2 22 1 23
REMARK SMILES IDX 20 24 21 25 22 26 23 27 24 28 25 30 26 31 27 32 91 33 28 34
REMARK SMILES IDX 90 35 29 36 30 37 31 38 84 39 32 40 89 41 83 42 85 43 33 44
REMARK SMILES IDX 88 45 82 46 81 47 34 49 68 50 47 51 67 52 48 53 51 54 66 55
REMARK SMILES IDX 86 56 49 57 50 58 65 60 87 61 52 62 35 63 36 64 45 65 37 66
REMARK SMILES IDX 38 67 44 68 46 69 39 70 40 71 41 72 42 73 43 74 69 75 70 76
REMARK SMILES IDX 79 77 71 78 72 79 78 80 80 81 73 82 74 83 75 84 76 85 77 86
REMARK SMILES IDX 53 87 54 88 63 89 55 90 56 91 62 92 64 93 57 94 58 95 59 96
REMARK SMILES IDX 60 97 61 98
REMARK H PARENT 19 4 23 29 85 48 51 59
REMARK Flexibility Score: inf
ROOT
ATOM      1  C   UNL A   1      37.012  22.989  25.607  1.00  0.00     0.230 C 
ATOM      2  O   UNL A   1      36.676  24.168  25.440  1.00  0.00    -0.274 OA
ATOM      3  N   UNL A   1      38.341  22.711  25.508  1.00  0.00    -0.355 N 
ATOM      4  H   UNL A   1      38.893  23.442  25.148  1.00  0.00     0.163 HD
ENDROOT
BRANCH   1   5
ATOM      5  C   UNL A   1      35.967  21.931  25.932  1.00  0.00     0.178 C 
BRANCH   5   6
ATOM      6  S   UNL A   1      34.924  21.458  24.546  1.00  0.00    -0.076 SA
BRANCH   6   7
ATOM      7  C   UNL A   1      34.232  22.861  23.814  1.00  0.00     0.191 A 
ATOM      8  C   UNL A   1      33.111  24.705  23.360  1.00  0.00     0.174 A 
ATOM      9  N   UNL A   1      34.069  24.548  22.462  1.00  0.00    -0.130 NA
ATOM     10  N   UNL A   1      33.227  23.678  24.281  1.00  0.00    -0.306 N 
ATOM     11  N   UNL A   1      34.763  23.407  22.748  1.00  0.00    -0.123 NA
ATOM     12  C   UNL A   1      32.474  23.473  25.480  1.00  0.00     0.154 C 
BRANCH   8  13
ATOM     13  C   UNL A   1      32.143  25.859  23.304  1.00  0.00     0.238 C 
ATOM     14  C   UNL A   1      31.118  25.959  22.189  1.00  0.00     0.062 C 
BRANCH  13  15
ATOM     15  O   UNL A   1      32.773  27.134  23.549  1.00  0.00    -0.483 OA
BRANCH  15  16
ATOM     16  C   UNL A   1      32.751  27.752  24.764  1.00  0.00     0.124 A 
ATOM     17  C   UNL A   1      33.563  29.212  26.522  1.00  0.00     0.122 A 
ATOM     18  C   UNL A   1      32.492  28.814  27.328  1.00  0.00     0.046 A 
ATOM     19  C   UNL A   1      33.665  28.701  25.226  1.00  0.00     0.092 A 
ATOM     20  C   UNL A   1      31.533  27.926  26.848  1.00  0.00     0.008 A 
ATOM     21  C   UNL A   1      31.669  27.394  25.569  1.00  0.00     0.047 A 
BRANCH  17  22
ATOM     22  O   UNL A   1      34.437  30.052  27.149  1.00  0.00    -0.497 OA
ATOM     23  C   UNL A   1      35.591  29.546  27.803  1.00  0.00     0.278 C 
ENDBRANCH  17  22
ENDBRANCH  15  16
ENDBRANCH  13  15
ENDBRANCH   8  13
ENDBRANCH   6   7
ENDBRANCH   5   6
ENDBRANCH   1   5
BRANCH   3  24
ATOM     24  C   UNL A   1      39.071  21.503  25.852  1.00  0.00     0.117 C 
BRANCH  24  25
ATOM     25  C   UNL A   1      40.303  21.749  26.721  1.00  0.00     0.042 C 
BRANCH  25  26
ATOM     26  C   UNL A   1      40.535  23.200  27.126  1.00  0.00     0.118 C 
BRANCH  26  27
ATOM     27  N   UNL A   1      41.294  23.947  26.137  1.00  0.00    -0.352 N 
ATOM     28  C   UNL A   1      41.674  25.267  26.112  1.00  0.00     0.251 C 
ATOM     29  H   UNL A   1      41.584  23.421  25.357  1.00  0.00     0.163 HD
ATOM     30  O   UNL A   1      42.123  25.734  25.069  1.00  0.00    -0.269 OA
BRANCH  28  31
ATOM     31  C   UNL A   1      41.535  26.127  27.309  1.00  0.00     0.039 A 
ATOM     32  C   UNL A   1      42.450  27.168  27.498  1.00  0.00     0.014 A 
ATOM     33  C   UNL A   1      40.549  25.892  28.270  1.00  0.00     0.014 A 
ATOM     34  C   UNL A   1      42.332  28.009  28.609  1.00  0.00     0.010 A 
ATOM     35  C   UNL A   1      40.382  26.779  29.333  1.00  0.00     0.010 A 
ATOM     36  C   UNL A   1      41.273  27.846  29.517  1.00  0.00    -0.014 A 
BRANCH  36  37
ATOM     37  C   UNL A   1      41.080  28.786  30.654  1.00  0.00     0.031 A 
ATOM     38  C   UNL A   1      41.933  28.675  31.890  1.00  0.00     0.074 A 
ATOM     39  C   UNL A   1      40.092  29.702  30.597  1.00  0.00     0.049 A 
ATOM     40  N   UNL A   1      41.869  29.361  33.002  1.00  0.00    -0.248 NA
ATOM     41  C   UNL A   1      42.981  27.642  31.886  1.00  0.00     0.031 C 
ATOM     42  C   UNL A   1      39.165  29.877  29.476  1.00  0.00     0.029 A 
ATOM     43  N   UNL A   1      39.694  30.652  31.504  1.00  0.00    -0.354 N 
ATOM     44  C   UNL A   1      42.855  28.837  33.832  1.00  0.00     0.074 A 
ATOM     45  C   UNL A   1      43.466  27.740  33.115  1.00  0.00     0.031 C 
ATOM     46  C   UNL A   1      38.324  30.886  29.753  1.00  0.00     0.029 A 
ATOM     47  C   UNL A   1      38.620  31.402  31.084  1.00  0.00     0.049 A 
ATOM     48  H   UNL A   1      40.135  30.784  32.375  1.00  0.00     0.167 HD
ATOM     49  C   UNL A   1      43.230  29.248  35.067  1.00  0.00     0.037 A 
ATOM     50  C   UNL A   1      37.942  32.388  31.705  1.00  0.00     0.037 A 
ATOM     51  C   UNL A   1      42.630  30.355  35.767  1.00  0.00     0.049 A 
ATOM     52  C   UNL A   1      38.373  32.820  33.080  1.00  0.00     0.074 A 
ATOM     53  C   UNL A   1      42.976  30.885  36.997  1.00  0.00     0.029 A 
ATOM     54  N   UNL A   1      41.556  31.101  35.300  1.00  0.00    -0.354 N 
ATOM     55  N   UNL A   1      39.351  32.356  33.822  1.00  0.00    -0.248 NA
ATOM     56  C   UNL A   1      37.613  33.912  33.703  1.00  0.00     0.031 C 
ATOM     57  C   UNL A   1      42.082  31.916  37.298  1.00  0.00     0.029 A 
ATOM     58  C   UNL A   1      41.213  32.070  36.230  1.00  0.00     0.049 A 
ATOM     59  H   UNL A   1      41.104  30.962  34.437  1.00  0.00     0.167 HD
ATOM     60  C   UNL A   1      39.342  33.120  34.984  1.00  0.00     0.074 A 
ATOM     61  C   UNL A   1      38.271  34.083  34.841  1.00  0.00     0.031 C 
ATOM     62  C   UNL A   1      40.148  33.030  36.072  1.00  0.00     0.037 A 
BRANCH  49  63
ATOM     63  C   UNL A   1      44.347  28.500  35.746  1.00  0.00     0.058 A 
ATOM     64  C   UNL A   1      45.694  28.852  35.553  1.00  0.00     0.135 A 
ATOM     65  C   UNL A   1      44.069  27.451  36.637  1.00  0.00     0.135 A 
ATOM     66  F   UNL A   1      46.020  29.838  34.702  1.00  0.00    -0.206 F 
ATOM     67  C   UNL A   1      46.724  28.172  36.196  1.00  0.00     0.059 A 
ATOM     68  C   UNL A   1      45.082  26.777  37.314  1.00  0.00     0.059 A 
ATOM     69  F   UNL A   1      42.800  27.072  36.859  1.00  0.00    -0.206 F 
ATOM     70  C   UNL A   1      46.407  27.136  37.076  1.00  0.00     0.060 A 
BRANCH  70  71
ATOM     71  S   UNL A   1      47.757  26.271  37.907  1.00  0.00     0.124 S 
ATOM     72  O   UNL A   1      47.384  26.430  39.309  1.00  0.00    -0.237 OA
ATOM     73  O   UNL A   1      47.638  24.920  37.369  1.00  0.00    -0.237 OA
ATOM     74  O   UNL A   1      48.944  27.009  37.487  1.00  0.00    -0.744 OA
ENDBRANCH  70  71
ENDBRANCH  49  63
BRANCH  50  75
ATOM     75  C   UNL A   1      36.794  33.048  31.024  1.00  0.00     0.058 A 
ATOM     76  C   UNL A   1      35.473  32.780  31.412  1.00  0.00     0.135 A 
ATOM     77  C   UNL A   1      36.994  33.960  29.977  1.00  0.00     0.135 A 
ATOM     78  F   UNL A   1      35.229  31.910  32.404  1.00  0.00    -0.206 F 
ATOM     79  C   UNL A   1      34.389  33.375  30.773  1.00  0.00     0.059 A 
ATOM     80  C   UNL A   1      35.928  34.591  29.342  1.00  0.00     0.059 A 
ATOM     81  F   UNL A   1      38.238  34.266  29.579  1.00  0.00    -0.206 F 
ATOM     82  C   UNL A   1      34.628  34.281  29.739  1.00  0.00     0.060 A 
BRANCH  82  83
ATOM     83  S   UNL A   1      33.215  35.075  28.945  1.00  0.00     0.124 S 
ATOM     84  O   UNL A   1      32.793  34.048  28.000  1.00  0.00    -0.237 OA
ATOM     85  O   UNL A   1      32.321  35.310  30.073  1.00  0.00    -0.237 OA
ATOM     86  O   UNL A   1      33.794  36.278  28.353  1.00  0.00    -0.744 OA
ENDBRANCH  82  83
ENDBRANCH  50  75
BRANCH  62  87
ATOM     87  C   UNL A   1      39.931  34.024  37.179  1.00  0.00     0.058 A 
ATOM     88  C   UNL A   1      40.462  35.323  37.124  1.00  0.00     0.135 A 
ATOM     89  C   UNL A   1      39.139  33.689  38.289  1.00  0.00     0.135 A 
ATOM     90  F   UNL A   1      41.232  35.695  36.088  1.00  0.00    -0.206 F 
ATOM     91  C   UNL A   1      40.239  36.244  38.142  1.00  0.00     0.059 A 
ATOM     92  C   UNL A   1      38.877  34.603  39.305  1.00  0.00     0.059 A 
ATOM     93  F   UNL A   1      38.597  32.464  38.388  1.00  0.00    -0.206 F 
ATOM     94  C   UNL A   1      39.441  35.875  39.228  1.00  0.00     0.060 A 
BRANCH  94  95
ATOM     95  S   UNL A   1      39.133  37.090  40.527  1.00  0.00     0.124 S 
ATOM     96  O   UNL A   1      38.424  36.287  41.519  1.00  0.00    -0.237 OA
ATOM     97  O   UNL A   1      40.483  37.504  40.894  1.00  0.00    -0.237 OA
ATOM     98  O   UNL A   1      38.332  38.110  39.856  1.00  0.00    -0.744 OA
ENDBRANCH  94  95
ENDBRANCH  62  87
ENDBRANCH  36  37
ENDBRANCH  28  31
ENDBRANCH  26  27
ENDBRANCH  25  26
ENDBRANCH  24  25
ENDBRANCH   3  24
TORSDOF 19
ENDMDL
MODEL 3
REMARK VINA RESULT:     -11.3      6.209      8.323
REMARK SMILES COc1cccc(O[C@@H](C)c2nnc(SCC(=O)NCCCNC(=O)c3ccc(-c4c5nc(c(-c6c(F)cc(S(=O)(=O)[O-])cc6F)c6ccc([nH]6)c(-c6c(F)cc(S(=O)(=O)[O-])cc6F)c6nc(c(-c7c(F)cc(S(=O)(=O)[O-])cc7F)c7ccc4[nH]7)C=C6)C=C5)cc3)n2C)c1
REMARK SMILES IDX 17 1 18 2 19 3 16 5 15 6 14 7 11 8 12 9 92 10 13 11 93 12
REMARK SMILES IDX 9 13 10 14 8 15 7 16 3 17 4 18 94 19 5 20 6 21 2 22 1 23
REMARK SMILES IDX 20 24 21 25 22 26 23 27 24 28 25 30 26 31 27 32 91 33 28 34
REMARK SMILES IDX 90 35 29 36 30 37 31 38 84 39 32 40 89 41 83 42 85 43 33 44
REMARK SMILES IDX 88 45 82 46 81 47 34 49 68 50 47 51 67 52 48 53 51 54 66 55
REMARK SMILES IDX 86 56 49 57 50 58 65 60 87 61 52 62 35 63 36 64 45 65 37 66
REMARK SMILES IDX 38 67 44 68 46 69 39 70 40 71 41 72 42 73 43 74 69 75 70 76
REMARK SMILES IDX 79 77 71 78 72 79 78 80 80 81 73 82 74 83 75 84 76 85 77 86
REMARK SMILES IDX 53 87 54 88 63 89 55 90 56 91 62 92 64 93 57 94 58 95 59 96
REMARK SMILES IDX 60 97 61 98
REMARK H PARENT 19 4 23 29 85 48 51 59
REMARK Flexibility Score: inf
ROOT
ATOM      1  C   UNL A   1      30.761  29.332  23.995  1.00  0.00     0.230 C 
ATOM      2  O   UNL A   1      29.946  29.473  23.075  1.00  0.00    -0.274 OA
ATOM      3  N   UNL A   1      31.018  30.427  24.760  1.00  0.00    -0.355 N 
ATOM      4  H   UNL A   1      30.659  31.273  24.409  1.00  0.00     0.163 HD
ENDROOT
BRANCH   1   5
ATOM      5  C   UNL A   1      31.407  27.975  24.247  1.00  0.00     0.178 C 
BRANCH   5   6
ATOM      6  S   UNL A   1      30.793  26.649  23.200  1.00  0.00    -0.076 SA
BRANCH   6   7
ATOM      7  C   UNL A   1      31.753  25.228  23.411  1.00  0.00     0.191 A 
ATOM      8  C   UNL A   1      32.683  23.361  24.126  1.00  0.00     0.174 A 
ATOM      9  N   UNL A   1      32.979  23.531  22.848  1.00  0.00    -0.130 NA
ATOM     10  N   UNL A   1      31.844  24.396  24.503  1.00  0.00    -0.306 N 
ATOM     11  N   UNL A   1      32.398  24.686  22.408  1.00  0.00    -0.123 NA
ATOM     12  C   UNL A   1      31.191  24.594  25.760  1.00  0.00     0.154 C 
BRANCH   8  13
ATOM     13  C   UNL A   1      33.202  22.189  24.918  1.00  0.00     0.238 C 
ATOM     14  C   UNL A   1      34.594  21.639  24.670  1.00  0.00     0.062 C 
BRANCH  13  15
ATOM     15  O   UNL A   1      32.236  21.124  25.046  1.00  0.00    -0.483 OA
BRANCH  15  16
ATOM     16  C   UNL A   1      32.495  19.839  24.670  1.00  0.00     0.124 A 
ATOM     17  C   UNL A   1      33.185  17.535  24.984  1.00  0.00     0.122 A 
ATOM     18  C   UNL A   1      33.009  17.311  23.615  1.00  0.00     0.046 A 
ATOM     19  C   UNL A   1      32.891  18.795  25.509  1.00  0.00     0.092 A 
ATOM     20  C   UNL A   1      32.541  18.325  22.783  1.00  0.00     0.008 A 
ATOM     21  C   UNL A   1      32.290  19.587  23.313  1.00  0.00     0.047 A 
BRANCH  17  22
ATOM     22  O   UNL A   1      33.687  16.459  25.655  1.00  0.00    -0.497 OA
ATOM     23  C   UNL A   1      34.890  15.834  25.233  1.00  0.00     0.278 C 
ENDBRANCH  17  22
ENDBRANCH  15  16
ENDBRANCH  13  15
ENDBRANCH   8  13
ENDBRANCH   6   7
ENDBRANCH   5   6
ENDBRANCH   1   5
BRANCH   3  24
ATOM     24  C   UNL A   1      31.739  30.541  26.017  1.00  0.00     0.117 C 
BRANCH  24  25
ATOM     25  C   UNL A   1      31.566  31.892  26.710  1.00  0.00     0.042 C 
BRANCH  25  26
ATOM     26  C   UNL A   1      32.850  32.522  27.237  1.00  0.00     0.118 C 
BRANCH  26  27
ATOM     27  N   UNL A   1      32.679  33.913  27.621  1.00  0.00    -0.352 N 
ATOM     28  C   UNL A   1      33.249  34.636  28.641  1.00  0.00     0.251 C 
ATOM     29  H   UNL A   1      32.050  34.421  27.060  1.00  0.00     0.163 HD
ATOM     30  O   UNL A   1      32.788  35.740  28.913  1.00  0.00    -0.269 OA
BRANCH  28  31
ATOM     31  C   UNL A   1      34.389  34.096  29.418  1.00  0.00     0.039 A 
ATOM     32  C   UNL A   1      34.123  33.324  30.553  1.00  0.00     0.014 A 
ATOM     33  C   UNL A   1      35.712  34.383  29.072  1.00  0.00     0.014 A 
ATOM     34  C   UNL A   1      35.179  32.785  31.295  1.00  0.00     0.010 A 
ATOM     35  C   UNL A   1      36.762  33.779  29.763  1.00  0.00     0.010 A 
ATOM     36  C   UNL A   1      36.508  32.975  30.884  1.00  0.00    -0.014 A 
BRANCH  36  37
ATOM     37  C   UNL A   1      37.638  32.336  31.609  1.00  0.00     0.031 A 
ATOM     38  C   UNL A   1      38.096  32.874  32.939  1.00  0.00     0.074 A 
ATOM     39  C   UNL A   1      38.294  31.305  31.039  1.00  0.00     0.049 A 
ATOM     40  N   UNL A   1      39.099  32.490  33.686  1.00  0.00    -0.248 NA
ATOM     41  C   UNL A   1      37.342  34.011  33.493  1.00  0.00     0.031 C 
ATOM     42  C   UNL A   1      37.980  30.724  29.731  1.00  0.00     0.029 A 
ATOM     43  N   UNL A   1      39.366  30.569  31.477  1.00  0.00    -0.354 N 
ATOM     44  C   UNL A   1      39.105  33.340  34.786  1.00  0.00     0.074 A 
ATOM     45  C   UNL A   1      38.038  34.295  34.583  1.00  0.00     0.031 C 
ATOM     46  C   UNL A   1      38.824  29.708  29.485  1.00  0.00     0.029 A 
ATOM     47  C   UNL A   1      39.766  29.592  30.593  1.00  0.00     0.049 A 
ATOM     48  H   UNL A   1      39.809  30.724  32.343  1.00  0.00     0.167 HD
ATOM     49  C   UNL A   1      39.910  33.312  35.876  1.00  0.00     0.037 A 
ATOM     50  C   UNL A   1      40.782  28.710  30.661  1.00  0.00     0.037 A 
ATOM     51  C   UNL A   1      40.957  32.344  36.080  1.00  0.00     0.049 A 
ATOM     52  C   UNL A   1      41.667  28.705  31.878  1.00  0.00     0.074 A 
ATOM     53  C   UNL A   1      41.790  32.196  37.176  1.00  0.00     0.029 A 
ATOM     54  N   UNL A   1      41.319  31.361  35.170  1.00  0.00    -0.354 N 
ATOM     55  N   UNL A   1      41.615  29.474  32.940  1.00  0.00    -0.248 NA
ATOM     56  C   UNL A   1      42.747  27.709  31.910  1.00  0.00     0.031 C 
ATOM     57  C   UNL A   1      42.688  31.159  36.908  1.00  0.00     0.029 A 
ATOM     58  C   UNL A   1      42.378  30.620  35.669  1.00  0.00     0.049 A 
ATOM     59  H   UNL A   1      40.887  31.212  34.298  1.00  0.00     0.167 HD
ATOM     60  C   UNL A   1      42.634  29.036  33.778  1.00  0.00     0.074 A 
ATOM     61  C   UNL A   1      43.277  27.926  33.106  1.00  0.00     0.031 C 
ATOM     62  C   UNL A   1      43.005  29.510  34.993  1.00  0.00     0.037 A 
BRANCH  49  63
ATOM     63  C   UNL A   1      39.690  34.357  36.938  1.00  0.00     0.058 A 
ATOM     64  C   UNL A   1      38.997  34.067  38.125  1.00  0.00     0.135 A 
ATOM     65  C   UNL A   1      40.219  35.649  36.791  1.00  0.00     0.135 A 
ATOM     66  F   UNL A   1      38.457  32.853  38.314  1.00  0.00    -0.206 F 
ATOM     67  C   UNL A   1      38.812  35.029  39.114  1.00  0.00     0.059 A 
ATOM     68  C   UNL A   1      40.072  36.618  37.780  1.00  0.00     0.059 A 
ATOM     69  F   UNL A   1      40.891  35.982  35.677  1.00  0.00    -0.206 F 
ATOM     70  C   UNL A   1      39.355  36.302  38.932  1.00  0.00     0.060 A 
BRANCH  70  71
ATOM     71  S   UNL A   1      39.111  37.534  40.229  1.00  0.00     0.124 S 
ATOM     72  O   UNL A   1      38.186  38.458  39.583  1.00  0.00    -0.237 OA
ATOM     73  O   UNL A   1      38.553  36.735  41.316  1.00  0.00    -0.237 OA
ATOM     74  O   UNL A   1      40.455  38.053  40.463  1.00  0.00    -0.744 OA
ENDBRANCH  70  71
ENDBRANCH  49  63
BRANCH  50  75
ATOM     75  C   UNL A   1      41.008  27.745  29.550  1.00  0.00     0.058 A 
ATOM     76  C   UNL A   1      40.157  26.645  29.366  1.00  0.00     0.135 A 
ATOM     77  C   UNL A   1      42.073  27.904  28.650  1.00  0.00     0.135 A 
ATOM     78  F   UNL A   1      39.128  26.445  30.203  1.00  0.00    -0.206 F 
ATOM     79  C   UNL A   1      40.366  25.724  28.344  1.00  0.00     0.059 A 
ATOM     80  C   UNL A   1      42.285  27.013  27.602  1.00  0.00     0.059 A 
ATOM     81  F   UNL A   1      42.905  28.949  28.771  1.00  0.00    -0.206 F 
ATOM     82  C   UNL A   1      41.433  25.918  27.465  1.00  0.00     0.060 A 
BRANCH  82  83
ATOM     83  S   UNL A   1      41.669  24.738  26.120  1.00  0.00     0.124 S 
ATOM     84  O   UNL A   1      42.818  23.977  26.595  1.00  0.00    -0.237 OA
ATOM     85  O   UNL A   1      40.394  24.028  26.107  1.00  0.00    -0.237 OA
ATOM     86  O   UNL A   1      41.912  25.593  24.961  1.00  0.00    -0.744 OA
ENDBRANCH  82  83
ENDBRANCH  50  75
BRANCH  62  87
ATOM     87  C   UNL A   1      44.133  28.807  35.697  1.00  0.00     0.058 A 
ATOM     88  C   UNL A   1      45.469  29.210  35.542  1.00  0.00     0.135 A 
ATOM     89  C   UNL A   1      43.868  27.747  36.579  1.00  0.00     0.135 A 
ATOM     90  F   UNL A   1      45.779  30.215  34.706  1.00  0.00    -0.206 F 
ATOM     91  C   UNL A   1      46.505  28.569  36.213  1.00  0.00     0.059 A 
ATOM     92  C   UNL A   1      44.885  27.110  37.285  1.00  0.00     0.059 A 
ATOM     93  F   UNL A   1      42.607  27.327  36.774  1.00  0.00    -0.206 F 
ATOM     94  C   UNL A   1      46.202  27.521  37.085  1.00  0.00     0.060 A 
BRANCH  94  95
ATOM     95  S   UNL A   1      47.552  26.719  37.975  1.00  0.00     0.124 S 
ATOM     96  O   UNL A   1      48.521  26.500  36.906  1.00  0.00    -0.237 OA
ATOM     97  O   UNL A   1      47.917  27.727  38.965  1.00  0.00    -0.237 OA
ATOM     98  O   UNL A   1      46.933  25.512  38.518  1.00  0.00    -0.744 OA
ENDBRANCH  94  95
ENDBRANCH  62  87
ENDBRANCH  36  37
ENDBRANCH  28  31
ENDBRANCH  26  27
ENDBRANCH  25  26
ENDBRANCH  24  25
ENDBRANCH   3  24
TORSDOF 19
ENDMDL
