MODEL 1
REMARK VINA RESULT:     -12.5      0.000      0.000
REMARK SMILES C[C@@H]1C[C@@H](C)CN(C(=O)CCn2ccc(C(=O)NCCCNC(=O)c3ccc(-c4c5nc(c(-c6c(F)cc(S(=O)(=O)[O-])cc6F)c6ccc([nH]6)c(-c6c(F)cc(S(=O)(=O)[O-])cc6F)c6nc(c(-c7c(F)cc(S(=O)(=O)[O-])cc7F)c7ccc4[nH]7)C=C6)C=C5)cc3)n2)C1
REMARK SMILES IDX 20 1 19 2 18 3 16 4 17 5 15 7 12 8 13 9 91 10 14 11 11 12
REMARK SMILES IDX 10 13 8 14 1 15 2 16 3 17 92 18 4 19 7 20 6 21 5 22 9 23
REMARK SMILES IDX 21 24 22 25 23 26 24 28 25 29 26 30 90 31 27 32 89 33 28 34
REMARK SMILES IDX 29 35 30 36 83 37 31 38 88 39 82 40 84 41 32 42 87 43 81 44
REMARK SMILES IDX 80 45 33 47 67 48 46 49 66 50 47 51 50 52 65 53 85 54 48 55
REMARK SMILES IDX 49 56 64 58 86 59 51 60 34 61 35 62 44 63 36 64 37 65 43 66
REMARK SMILES IDX 45 67 38 68 39 69 40 70 41 71 42 72 68 73 69 74 78 75 70 76
REMARK SMILES IDX 71 77 77 78 79 79 72 80 73 81 74 82 75 83 76 84 52 85 53 86
REMARK SMILES IDX 62 87 54 88 55 89 61 90 63 91 56 92 57 93 58 94 59 95 60 96
REMARK H PARENT 18 6 22 27 84 46 50 57
REMARK Flexibility Score: inf
ROOT
ATOM      1  C   UNL A   1      40.700  21.228  27.626  1.00  0.00     0.042 C 
ENDROOT
BRANCH   1   2
ATOM      2  C   UNL A   1      41.966  20.385  27.748  1.00  0.00     0.118 C 
BRANCH   2   3
ATOM      3  N   UNL A   1      41.882  19.125  27.019  1.00  0.00    -0.351 N 
ATOM      4  C   UNL A   1      42.728  18.576  26.081  1.00  0.00     0.271 C 
ATOM      5  O   UNL A   1      42.531  17.405  25.751  1.00  0.00    -0.267 OA
ATOM      6  H   UNL A   1      41.092  18.578  27.233  1.00  0.00     0.163 HD
BRANCH   4   7
ATOM      7  C   UNL A   1      43.806  19.367  25.457  1.00  0.00     0.150 A 
ATOM      8  N   UNL A   1      44.792  20.932  24.404  1.00  0.00    -0.271 N 
ATOM      9  C   UNL A   1      45.686  19.904  24.377  1.00  0.00     0.109 A 
ATOM     10  N   UNL A   1      43.688  20.658  25.104  1.00  0.00    -0.168 NA
ATOM     11  C   UNL A   1      45.068  18.862  25.026  1.00  0.00     0.056 A 
BRANCH   8  12
ATOM     12  C   UNL A   1      44.904  22.219  23.745  1.00  0.00     0.154 C 
BRANCH  12  13
ATOM     13  C   UNL A   1      44.053  23.302  24.391  1.00  0.00     0.124 C 
BRANCH  13  14
ATOM     14  C   UNL A   1      44.887  24.341  25.113  1.00  0.00     0.224 C 
ATOM     15  C   UNL A   1      47.168  24.663  27.665  1.00  0.00     0.009 C 
ATOM     16  C   UNL A   1      45.984  25.516  28.121  1.00  0.00     0.006 C 
ATOM     17  C   UNL A   1      45.064  24.799  29.130  1.00  0.00     0.010 C 
ATOM     18  C   UNL A   1      45.176  25.986  26.909  1.00  0.00     0.122 C 
ATOM     19  C   UNL A   1      44.106  23.775  28.493  1.00  0.00     0.006 C 
ATOM     20  N   UNL A   1      44.447  24.870  26.313  1.00  0.00    -0.342 N 
ATOM     21  C   UNL A   1      43.444  24.297  27.206  1.00  0.00     0.122 C 
ATOM     22  C   UNL A   1      43.038  23.334  29.497  1.00  0.00     0.009 C 
ATOM     23  O   UNL A   1      45.928  24.726  24.568  1.00  0.00    -0.275 OA
ENDBRANCH  13  14
ENDBRANCH  12  13
ENDBRANCH   8  12
ENDBRANCH   4   7
ENDBRANCH   2   3
ENDBRANCH   1   2
BRANCH   1  24
ATOM     24  C   UNL A   1      40.531  21.830  26.246  1.00  0.00     0.118 C 
BRANCH  24  25
ATOM     25  N   UNL A   1      39.165  22.256  25.926  1.00  0.00    -0.352 N 
ATOM     26  C   UNL A   1      38.526  23.436  26.270  1.00  0.00     0.251 C 
ATOM     27  H   UNL A   1      38.633  21.620  25.396  1.00  0.00     0.163 HD
ATOM     28  O   UNL A   1      37.314  23.560  26.103  1.00  0.00    -0.269 OA
BRANCH  26  29
ATOM     29  C   UNL A   1      39.318  24.530  26.867  1.00  0.00     0.039 A 
ATOM     30  C   UNL A   1      40.111  25.388  26.101  1.00  0.00     0.014 A 
ATOM     31  C   UNL A   1      39.190  24.736  28.232  1.00  0.00     0.014 A 
ATOM     32  C   UNL A   1      40.687  26.498  26.720  1.00  0.00     0.010 A 
ATOM     33  C   UNL A   1      39.518  25.947  28.765  1.00  0.00     0.010 A 
ATOM     34  C   UNL A   1      40.363  26.783  28.057  1.00  0.00    -0.014 A 
BRANCH  34  35
ATOM     35  C   UNL A   1      40.842  27.973  28.747  1.00  0.00     0.031 A 
ATOM     36  C   UNL A   1      42.030  28.618  28.134  1.00  0.00     0.074 A 
ATOM     37  C   UNL A   1      40.128  28.586  29.719  1.00  0.00     0.049 A 
ATOM     38  N   UNL A   1      43.232  28.662  28.604  1.00  0.00    -0.248 NA
ATOM     39  C   UNL A   1      41.907  29.158  26.770  1.00  0.00     0.031 C 
ATOM     40  C   UNL A   1      38.783  28.268  30.222  1.00  0.00     0.029 A 
ATOM     41  N   UNL A   1      40.425  29.725  30.396  1.00  0.00    -0.354 N 
ATOM     42  C   UNL A   1      43.963  29.443  27.716  1.00  0.00     0.074 A 
ATOM     43  C   UNL A   1      43.162  29.540  26.522  1.00  0.00     0.031 C 
ATOM     44  C   UNL A   1      38.294  29.319  30.917  1.00  0.00     0.029 A 
ATOM     45  C   UNL A   1      39.355  30.293  31.078  1.00  0.00     0.049 A 
ATOM     46  H   UNL A   1      41.327  30.118  30.403  1.00  0.00     0.167 HD
ATOM     47  C   UNL A   1      45.053  30.149  28.128  1.00  0.00     0.037 A 
ATOM     48  C   UNL A   1      39.344  31.490  31.716  1.00  0.00     0.037 A 
ATOM     49  C   UNL A   1      45.497  29.705  29.429  1.00  0.00     0.049 A 
ATOM     50  C   UNL A   1      40.765  31.831  31.994  1.00  0.00     0.074 A 
ATOM     51  C   UNL A   1      45.893  28.487  29.952  1.00  0.00     0.029 A 
ATOM     52  N   UNL A   1      45.188  30.489  30.517  1.00  0.00    -0.354 N 
ATOM     53  N   UNL A   1      41.524  31.154  32.813  1.00  0.00    -0.248 NA
ATOM     54  C   UNL A   1      41.475  32.625  31.002  1.00  0.00     0.031 C 
ATOM     55  C   UNL A   1      45.308  28.441  31.253  1.00  0.00     0.029 A 
ATOM     56  C   UNL A   1      44.664  29.658  31.476  1.00  0.00     0.049 A 
ATOM     57  H   UNL A   1      45.318  31.461  30.593  1.00  0.00     0.167 HD
ATOM     58  C   UNL A   1      42.760  31.090  32.184  1.00  0.00     0.074 A 
ATOM     59  C   UNL A   1      42.692  32.086  31.116  1.00  0.00     0.031 C 
ATOM     60  C   UNL A   1      43.617  30.046  32.397  1.00  0.00     0.037 A 
BRANCH  47  61
ATOM     61  C   UNL A   1      45.495  31.469  27.539  1.00  0.00     0.058 A 
ATOM     62  C   UNL A   1      46.832  31.619  27.114  1.00  0.00     0.135 A 
ATOM     63  C   UNL A   1      44.751  32.665  27.631  1.00  0.00     0.135 A 
ATOM     64  F   UNL A   1      47.636  30.550  26.994  1.00  0.00    -0.206 F 
ATOM     65  C   UNL A   1      47.407  32.868  26.879  1.00  0.00     0.059 A 
ATOM     66  C   UNL A   1      45.287  33.915  27.345  1.00  0.00     0.059 A 
ATOM     67  F   UNL A   1      43.497  32.697  28.100  1.00  0.00    -0.206 F 
ATOM     68  C   UNL A   1      46.628  34.013  27.015  1.00  0.00     0.060 A 
BRANCH  68  69
ATOM     69  S   UNL A   1      47.393  35.632  26.829  1.00  0.00     0.124 S 
ATOM     70  O   UNL A   1      48.141  35.457  25.590  1.00  0.00    -0.237 OA
ATOM     71  O   UNL A   1      46.229  36.509  26.757  1.00  0.00    -0.237 OA
ATOM     72  O   UNL A   1      48.196  35.765  28.041  1.00  0.00    -0.744 OA
ENDBRANCH  68  69
ENDBRANCH  47  61
BRANCH  48  73
ATOM     73  C   UNL A   1      38.240  32.484  31.800  1.00  0.00     0.058 A 
ATOM     74  C   UNL A   1      37.578  32.926  30.640  1.00  0.00     0.135 A 
ATOM     75  C   UNL A   1      37.617  32.796  33.026  1.00  0.00     0.135 A 
ATOM     76  F   UNL A   1      38.094  32.667  29.430  1.00  0.00    -0.206 F 
ATOM     77  C   UNL A   1      36.338  33.573  30.689  1.00  0.00     0.059 A 
ATOM     78  C   UNL A   1      36.387  33.449  33.099  1.00  0.00     0.059 A 
ATOM     79  F   UNL A   1      38.139  32.388  34.193  1.00  0.00    -0.206 F 
ATOM     80  C   UNL A   1      35.736  33.806  31.924  1.00  0.00     0.060 A 
BRANCH  80  81
ATOM     81  S   UNL A   1      34.046  34.448  31.983  1.00  0.00     0.124 S 
ATOM     82  O   UNL A   1      34.250  35.789  32.520  1.00  0.00    -0.237 OA
ATOM     83  O   UNL A   1      33.639  34.376  30.584  1.00  0.00    -0.237 OA
ATOM     84  O   UNL A   1      33.361  33.516  32.875  1.00  0.00    -0.744 OA
ENDBRANCH  80  81
ENDBRANCH  48  73
BRANCH  60  85
ATOM     85  C   UNL A   1      43.328  29.094  33.532  1.00  0.00     0.058 A 
ATOM     86  C   UNL A   1      43.715  29.301  34.870  1.00  0.00     0.135 A 
ATOM     87  C   UNL A   1      42.483  28.002  33.280  1.00  0.00     0.135 A 
ATOM     88  F   UNL A   1      44.433  30.375  35.223  1.00  0.00    -0.206 F 
ATOM     89  C   UNL A   1      43.314  28.443  35.897  1.00  0.00     0.059 A 
ATOM     90  C   UNL A   1      42.047  27.151  34.292  1.00  0.00     0.059 A 
ATOM     91  F   UNL A   1      42.025  27.781  32.036  1.00  0.00    -0.206 F 
ATOM     92  C   UNL A   1      42.477  27.369  35.598  1.00  0.00     0.060 A 
BRANCH  92  93
ATOM     93  S   UNL A   1      41.903  26.300  36.936  1.00  0.00     0.124 S 
ATOM     94  O   UNL A   1      40.691  26.984  37.375  1.00  0.00    -0.237 OA
ATOM     95  O   UNL A   1      41.701  25.023  36.258  1.00  0.00    -0.237 OA
ATOM     96  O   UNL A   1      43.011  26.320  37.888  1.00  0.00    -0.744 OA
ENDBRANCH  92  93
ENDBRANCH  60  85
ENDBRANCH  34  35
ENDBRANCH  26  29
ENDBRANCH  24  25
ENDBRANCH   1  24
TORSDOF 16
ENDMDL
MODEL 2
REMARK VINA RESULT:     -11.8      4.556     11.141
REMARK SMILES C[C@@H]1C[C@@H](C)CN(C(=O)CCn2ccc(C(=O)NCCCNC(=O)c3ccc(-c4c5nc(c(-c6c(F)cc(S(=O)(=O)[O-])cc6F)c6ccc([nH]6)c(-c6c(F)cc(S(=O)(=O)[O-])cc6F)c6nc(c(-c7c(F)cc(S(=O)(=O)[O-])cc7F)c7ccc4[nH]7)C=C6)C=C5)cc3)n2)C1
REMARK SMILES IDX 20 1 19 2 18 3 16 4 17 5 15 7 12 8 13 9 91 10 14 11 11 12
REMARK SMILES IDX 10 13 8 14 1 15 2 16 3 17 92 18 4 19 7 20 6 21 5 22 9 23
REMARK SMILES IDX 21 24 22 25 23 26 24 28 25 29 26 30 90 31 27 32 89 33 28 34
REMARK SMILES IDX 29 35 30 36 83 37 31 38 88 39 82 40 84 41 32 42 87 43 81 44
REMARK SMILES IDX 80 45 33 47 67 48 46 49 66 50 47 51 50 52 65 53 85 54 48 55
REMARK SMILES IDX 49 56 64 58 86 59 51 60 34 61 35 62 44 63 36 64 37 65 43 66
REMARK SMILES IDX 45 67 38 68 39 69 40 70 41 71 42 72 68 73 69 74 78 75 70 76
REMARK SMILES IDX 71 77 77 78 79 79 72 80 73 81 74 82 75 83 76 84 52 85 53 86
REMARK SMILES IDX 62 87 54 88 55 89 61 90 63 91 56 92 57 93 58 94 59 95 60 96
REMARK H PARENT 18 6 22 27 84 46 50 57
REMARK Flexibility Score: inf
ROOT
ATOM      1  C   UNL A   1      32.263  29.526  26.893  1.00  0.00     0.042 C 
ENDROOT
BRANCH   1   2
ATOM      2  C   UNL A   1      32.494  29.666  25.391  1.00  0.00     0.118 C 
BRANCH   2   3
ATOM      3  N   UNL A   1      31.332  30.188  24.683  1.00  0.00    -0.351 N 
ATOM      4  C   UNL A   1      30.394  29.544  23.905  1.00  0.00     0.271 C 
ATOM      5  O   UNL A   1      29.395  30.185  23.570  1.00  0.00    -0.267 OA
ATOM      6  H   UNL A   1      31.196  31.159  24.776  1.00  0.00     0.163 HD
BRANCH   4   7
ATOM      7  C   UNL A   1      30.592  28.155  23.450  1.00  0.00     0.150 A 
ATOM      8  N   UNL A   1      30.697  26.029  23.486  1.00  0.00    -0.271 N 
ATOM      9  C   UNL A   1      31.401  26.374  22.371  1.00  0.00     0.109 A 
ATOM     10  N   UNL A   1      30.144  27.073  24.109  1.00  0.00    -0.168 NA
ATOM     11  C   UNL A   1      31.379  27.748  22.333  1.00  0.00     0.056 A 
BRANCH   8  12
ATOM     12  C   UNL A   1      30.529  24.705  24.051  1.00  0.00     0.154 C 
BRANCH  12  13
ATOM     13  C   UNL A   1      31.478  23.673  23.460  1.00  0.00     0.124 C 
BRANCH  13  14
ATOM     14  C   UNL A   1      32.696  23.440  24.331  1.00  0.00     0.224 C 
ATOM     15  C   UNL A   1      35.794  21.952  24.284  1.00  0.00     0.009 C 
ATOM     16  C   UNL A   1      35.046  21.206  25.390  1.00  0.00     0.006 C 
ATOM     17  C   UNL A   1      34.469  19.851  24.933  1.00  0.00     0.010 C 
ATOM     18  C   UNL A   1      33.936  22.090  25.962  1.00  0.00     0.122 C 
ATOM     19  C   UNL A   1      33.174  19.965  24.106  1.00  0.00     0.006 C 
ATOM     20  N   UNL A   1      32.847  22.237  24.998  1.00  0.00    -0.342 N 
ATOM     21  C   UNL A   1      32.176  20.977  24.694  1.00  0.00     0.122 C 
ATOM     22  C   UNL A   1      32.509  18.595  23.951  1.00  0.00     0.009 C 
ATOM     23  O   UNL A   1      33.500  24.369  24.460  1.00  0.00    -0.275 OA
ENDBRANCH  13  14
ENDBRANCH  12  13
ENDBRANCH   8  12
ENDBRANCH   4   7
ENDBRANCH   2   3
ENDBRANCH   1   2
BRANCH   1  24
ATOM     24  C   UNL A   1      33.450  29.990  27.710  1.00  0.00     0.118 C 
BRANCH  24  25
ATOM     25  N   UNL A   1      33.837  31.388  27.491  1.00  0.00    -0.352 N 
ATOM     26  C   UNL A   1      35.043  32.005  27.782  1.00  0.00     0.251 C 
ATOM     27  H   UNL A   1      33.150  31.962  27.083  1.00  0.00     0.163 HD
ATOM     28  O   UNL A   1      35.145  33.229  27.728  1.00  0.00    -0.269 OA
BRANCH  26  29
ATOM     29  C   UNL A   1      36.194  31.172  28.185  1.00  0.00     0.039 A 
ATOM     30  C   UNL A   1      36.414  29.894  27.667  1.00  0.00     0.014 A 
ATOM     31  C   UNL A   1      37.114  31.737  29.054  1.00  0.00     0.014 A 
ATOM     32  C   UNL A   1      37.614  29.247  27.968  1.00  0.00     0.010 A 
ATOM     33  C   UNL A   1      38.378  31.231  29.121  1.00  0.00     0.010 A 
ATOM     34  C   UNL A   1      38.605  29.939  28.682  1.00  0.00    -0.014 A 
BRANCH  34  35
ATOM     35  C   UNL A   1      39.920  29.373  28.954  1.00  0.00     0.031 A 
ATOM     36  C   UNL A   1      40.233  29.174  30.391  1.00  0.00     0.074 A 
ATOM     37  C   UNL A   1      40.697  28.842  27.982  1.00  0.00     0.049 A 
ATOM     38  N   UNL A   1      41.090  29.825  31.106  1.00  0.00    -0.248 NA
ATOM     39  C   UNL A   1      39.400  28.241  31.166  1.00  0.00     0.031 C 
ATOM     40  C   UNL A   1      40.401  28.662  26.552  1.00  0.00     0.029 A 
ATOM     41  N   UNL A   1      41.905  28.234  28.102  1.00  0.00    -0.354 N 
ATOM     42  C   UNL A   1      41.078  29.221  32.359  1.00  0.00     0.074 A 
ATOM     43  C   UNL A   1      39.890  28.408  32.396  1.00  0.00     0.031 C 
ATOM     44  C   UNL A   1      41.270  27.779  26.012  1.00  0.00     0.029 A 
ATOM     45  C   UNL A   1      42.296  27.490  26.994  1.00  0.00     0.049 A 
ATOM     46  H   UNL A   1      42.460  28.312  28.911  1.00  0.00     0.167 HD
ATOM     47  C   UNL A   1      42.177  29.248  33.166  1.00  0.00     0.037 A 
ATOM     48  C   UNL A   1      43.381  26.682  26.902  1.00  0.00     0.037 A 
ATOM     49  C   UNL A   1      43.136  30.225  32.704  1.00  0.00     0.049 A 
ATOM     50  C   UNL A   1      44.323  27.121  27.967  1.00  0.00     0.074 A 
ATOM     51  C   UNL A   1      43.088  31.585  32.460  1.00  0.00     0.029 A 
ATOM     52  N   UNL A   1      44.246  29.770  32.032  1.00  0.00    -0.354 N 
ATOM     53  N   UNL A   1      44.917  28.285  27.972  1.00  0.00    -0.248 NA
ATOM     54  C   UNL A   1      44.230  26.466  29.263  1.00  0.00     0.031 C 
ATOM     55  C   UNL A   1      43.841  31.768  31.262  1.00  0.00     0.029 A 
ATOM     56  C   UNL A   1      44.368  30.529  30.895  1.00  0.00     0.049 A 
ATOM     57  H   UNL A   1      44.841  29.038  32.313  1.00  0.00     0.167 HD
ATOM     58  C   UNL A   1      44.883  28.697  29.297  1.00  0.00     0.074 A 
ATOM     59  C   UNL A   1      44.527  27.499  30.055  1.00  0.00     0.031 C 
ATOM     60  C   UNL A   1      44.863  30.022  29.633  1.00  0.00     0.037 A 
BRANCH  47  61
ATOM     61  C   UNL A   1      42.553  28.157  34.143  1.00  0.00     0.058 A 
ATOM     62  C   UNL A   1      42.600  28.455  35.521  1.00  0.00     0.135 A 
ATOM     63  C   UNL A   1      43.133  26.925  33.768  1.00  0.00     0.135 A 
ATOM     64  F   UNL A   1      42.083  29.602  35.991  1.00  0.00    -0.206 F 
ATOM     65  C   UNL A   1      43.247  27.632  36.442  1.00  0.00     0.059 A 
ATOM     66  C   UNL A   1      43.731  26.062  34.678  1.00  0.00     0.059 A 
ATOM     67  F   UNL A   1      43.240  26.542  32.490  1.00  0.00    -0.206 F 
ATOM     68  C   UNL A   1      43.825  26.444  36.006  1.00  0.00     0.060 A 
BRANCH  68  69
ATOM     69  S   UNL A   1      44.763  25.436  37.166  1.00  0.00     0.124 S 
ATOM     70  O   UNL A   1      46.104  25.985  37.006  1.00  0.00    -0.237 OA
ATOM     71  O   UNL A   1      44.096  25.731  38.431  1.00  0.00    -0.237 OA
ATOM     72  O   UNL A   1      44.569  24.079  36.664  1.00  0.00    -0.744 OA
ENDBRANCH  68  69
ENDBRANCH  47  61
BRANCH  48  73
ATOM     73  C   UNL A   1      43.509  25.381  26.193  1.00  0.00     0.058 A 
ATOM     74  C   UNL A   1      44.544  25.164  25.267  1.00  0.00     0.135 A 
ATOM     75  C   UNL A   1      42.807  24.234  26.618  1.00  0.00     0.135 A 
ATOM     76  F   UNL A   1      45.271  26.196  24.813  1.00  0.00    -0.206 F 
ATOM     77  C   UNL A   1      44.911  23.881  24.843  1.00  0.00     0.059 A 
ATOM     78  C   UNL A   1      43.148  22.947  26.201  1.00  0.00     0.059 A 
ATOM     79  F   UNL A   1      41.827  24.319  27.530  1.00  0.00    -0.206 F 
ATOM     80  C   UNL A   1      44.224  22.775  25.339  1.00  0.00     0.060 A 
BRANCH  80  81
ATOM     81  S   UNL A   1      44.826  21.111  24.962  1.00  0.00     0.124 S 
ATOM     82  O   UNL A   1      46.190  21.159  25.478  1.00  0.00    -0.237 OA
ATOM     83  O   UNL A   1      43.893  20.270  25.703  1.00  0.00    -0.237 OA
ATOM     84  O   UNL A   1      44.712  21.030  23.508  1.00  0.00    -0.744 OA
ENDBRANCH  80  81
ENDBRANCH  48  73
BRANCH  60  85
ATOM     85  C   UNL A   1      45.154  31.044  28.561  1.00  0.00     0.058 A 
ATOM     86  C   UNL A   1      44.210  31.523  27.633  1.00  0.00     0.135 A 
ATOM     87  C   UNL A   1      46.403  31.683  28.579  1.00  0.00     0.135 A 
ATOM     88  F   UNL A   1      42.958  31.046  27.612  1.00  0.00    -0.206 F 
ATOM     89  C   UNL A   1      44.507  32.556  26.742  1.00  0.00     0.059 A 
ATOM     90  C   UNL A   1      46.712  32.735  27.722  1.00  0.00     0.059 A 
ATOM     91  F   UNL A   1      47.330  31.318  29.481  1.00  0.00    -0.206 F 
ATOM     92  C   UNL A   1      45.763  33.160  26.794  1.00  0.00     0.060 A 
BRANCH  92  93
ATOM     93  S   UNL A   1      46.124  34.543  25.690  1.00  0.00     0.124 S 
ATOM     94  O   UNL A   1      47.544  34.355  25.418  1.00  0.00    -0.237 OA
ATOM     95  O   UNL A   1      45.224  34.297  24.566  1.00  0.00    -0.237 OA
ATOM     96  O   UNL A   1      45.792  35.717  26.495  1.00  0.00    -0.744 OA
ENDBRANCH  92  93
ENDBRANCH  60  85
ENDBRANCH  34  35
ENDBRANCH  26  29
ENDBRANCH  24  25
ENDBRANCH   1  24
TORSDOF 16
ENDMDL
MODEL 3
REMARK VINA RESULT:     -11.8      3.130      5.960
REMARK SMILES C[C@@H]1C[C@@H](C)CN(C(=O)CCn2ccc(C(=O)NCCCNC(=O)c3ccc(-c4c5nc(c(-c6c(F)cc(S(=O)(=O)[O-])cc6F)c6ccc([nH]6)c(-c6c(F)cc(S(=O)(=O)[O-])cc6F)c6nc(c(-c7c(F)cc(S(=O)(=O)[O-])cc7F)c7ccc4[nH]7)C=C6)C=C5)cc3)n2)C1
REMARK SMILES IDX 20 1 19 2 18 3 16 4 17 5 15 7 12 8 13 9 91 10 14 11 11 12
REMARK SMILES IDX 10 13 8 14 1 15 2 16 3 17 92 18 4 19 7 20 6 21 5 22 9 23
REMARK SMILES IDX 21 24 22 25 23 26 24 28 25 29 26 30 90 31 27 32 89 33 28 34
REMARK SMILES IDX 29 35 30 36 83 37 31 38 88 39 82 40 84 41 32 42 87 43 81 44
REMARK SMILES IDX 80 45 33 47 67 48 46 49 66 50 47 51 50 52 65 53 85 54 48 55
REMARK SMILES IDX 49 56 64 58 86 59 51 60 34 61 35 62 44 63 36 64 37 65 43 66
REMARK SMILES IDX 45 67 38 68 39 69 40 70 41 71 42 72 68 73 69 74 78 75 70 76
REMARK SMILES IDX 71 77 77 78 79 79 72 80 73 81 74 82 75 83 76 84 52 85 53 86
REMARK SMILES IDX 62 87 54 88 55 89 61 90 63 91 56 92 57 93 58 94 59 95 60 96
REMARK H PARENT 18 6 22 27 84 46 50 57
REMARK Flexibility Score: inf
ROOT
ATOM      1  C   UNL A   1      37.029  22.648  25.153  1.00  0.00     0.042 C 
ENDROOT
BRANCH   1   2
ATOM      2  C   UNL A   1      36.171  21.513  25.705  1.00  0.00     0.118 C 
BRANCH   2   3
ATOM      3  N   UNL A   1      35.356  21.918  26.843  1.00  0.00    -0.351 N 
ATOM      4  C   UNL A   1      34.080  22.436  26.890  1.00  0.00     0.271 C 
ATOM      5  O   UNL A   1      33.539  22.521  27.995  1.00  0.00    -0.267 OA
ATOM      6  H   UNL A   1      35.787  21.804  27.721  1.00  0.00     0.163 HD
BRANCH   4   7
ATOM      7  C   UNL A   1      33.396  22.914  25.673  1.00  0.00     0.150 A 
ATOM      8  N   UNL A   1      32.799  24.193  24.080  1.00  0.00    -0.271 N 
ATOM      9  C   UNL A   1      31.835  23.229  24.106  1.00  0.00     0.109 A 
ATOM     10  N   UNL A   1      33.779  23.988  24.963  1.00  0.00    -0.168 NA
ATOM     11  C   UNL A   1      32.175  22.398  25.147  1.00  0.00     0.056 A 
BRANCH   8  12
ATOM     12  C   UNL A   1      32.838  25.382  23.251  1.00  0.00     0.154 C 
BRANCH  12  13
ATOM     13  C   UNL A   1      33.444  26.587  23.956  1.00  0.00     0.124 C 
BRANCH  13  14
ATOM     14  C   UNL A   1      32.425  27.349  24.779  1.00  0.00     0.224 C 
ATOM     15  C   UNL A   1      31.545  30.546  25.686  1.00  0.00     0.009 C 
ATOM     16  C   UNL A   1      31.889  29.870  27.013  1.00  0.00     0.006 C 
ATOM     17  C   UNL A   1      33.309  30.195  27.517  1.00  0.00     0.010 C 
ATOM     18  C   UNL A   1      31.702  28.355  26.896  1.00  0.00     0.122 C 
ATOM     19  C   UNL A   1      34.426  29.409  26.805  1.00  0.00     0.006 C 
ATOM     20  N   UNL A   1      32.745  27.772  26.057  1.00  0.00    -0.342 N 
ATOM     21  C   UNL A   1      34.084  27.921  26.619  1.00  0.00     0.122 C 
ATOM     22  C   UNL A   1      35.754  29.558  27.552  1.00  0.00     0.009 C 
ATOM     23  O   UNL A   1      31.303  27.525  24.291  1.00  0.00    -0.275 OA
ENDBRANCH  13  14
ENDBRANCH  12  13
ENDBRANCH   8  12
ENDBRANCH   4   7
ENDBRANCH   2   3
ENDBRANCH   1   2
BRANCH   1  24
ATOM     24  C   UNL A   1      38.079  23.117  26.138  1.00  0.00     0.118 C 
BRANCH  24  25
ATOM     25  N   UNL A   1      39.299  22.303  26.168  1.00  0.00    -0.352 N 
ATOM     26  C   UNL A   1      40.604  22.711  26.393  1.00  0.00     0.251 C 
ATOM     27  H   UNL A   1      39.173  21.340  26.008  1.00  0.00     0.163 HD
ATOM     28  O   UNL A   1      41.541  21.944  26.185  1.00  0.00    -0.269 OA
BRANCH  26  29
ATOM     29  C   UNL A   1      40.851  24.090  26.860  1.00  0.00     0.039 A 
ATOM     30  C   UNL A   1      40.196  25.197  26.314  1.00  0.00     0.014 A 
ATOM     31  C   UNL A   1      41.713  24.253  27.933  1.00  0.00     0.014 A 
ATOM     32  C   UNL A   1      40.357  26.440  26.928  1.00  0.00     0.010 A 
ATOM     33  C   UNL A   1      41.652  25.391  28.681  1.00  0.00     0.010 A 
ATOM     34  C   UNL A   1      41.074  26.522  28.133  1.00  0.00    -0.014 A 
BRANCH  34  35
ATOM     35  C   UNL A   1      41.206  27.761  28.887  1.00  0.00     0.031 A 
ATOM     36  C   UNL A   1      42.264  28.682  28.402  1.00  0.00     0.074 A 
ATOM     37  C   UNL A   1      40.288  28.158  29.798  1.00  0.00     0.049 A 
ATOM     38  N   UNL A   1      43.378  28.976  28.985  1.00  0.00    -0.248 NA
ATOM     39  C   UNL A   1      42.142  29.234  27.043  1.00  0.00     0.031 C 
ATOM     40  C   UNL A   1      39.011  27.525  30.166  1.00  0.00     0.029 A 
ATOM     41  N   UNL A   1      40.256  29.306  30.522  1.00  0.00    -0.354 N 
ATOM     42  C   UNL A   1      43.987  29.937  28.184  1.00  0.00     0.074 A 
ATOM     43  C   UNL A   1      43.293  29.898  26.923  1.00  0.00     0.031 C 
ATOM     44  C   UNL A   1      38.237  28.410  30.831  1.00  0.00     0.029 A 
ATOM     45  C   UNL A   1      39.029  29.592  31.110  1.00  0.00     0.049 A 
ATOM     46  H   UNL A   1      41.040  29.892  30.622  1.00  0.00     0.167 HD
ATOM     47  C   UNL A   1      44.847  30.854  28.712  1.00  0.00     0.037 A 
ATOM     48  C   UNL A   1      38.689  30.729  31.766  1.00  0.00     0.037 A 
ATOM     49  C   UNL A   1      45.264  30.470  30.040  1.00  0.00     0.049 A 
ATOM     50  C   UNL A   1      39.964  31.370  32.184  1.00  0.00     0.074 A 
ATOM     51  C   UNL A   1      45.879  29.353  30.575  1.00  0.00     0.029 A 
ATOM     52  N   UNL A   1      44.689  31.120  31.108  1.00  0.00    -0.354 N 
ATOM     53  N   UNL A   1      40.783  30.850  33.059  1.00  0.00    -0.248 NA
ATOM     54  C   UNL A   1      40.559  32.342  31.279  1.00  0.00     0.031 C 
ATOM     55  C   UNL A   1      45.208  29.124  31.814  1.00  0.00     0.029 A 
ATOM     56  C   UNL A   1      44.286  30.154  31.997  1.00  0.00     0.049 A 
ATOM     57  H   UNL A   1      44.587  32.093  31.214  1.00  0.00     0.167 HD
ATOM     58  C   UNL A   1      42.051  31.091  32.549  1.00  0.00     0.074 A 
ATOM     59  C   UNL A   1      41.852  32.087  31.498  1.00  0.00     0.031 C 
ATOM     60  C   UNL A   1      43.101  30.259  32.822  1.00  0.00     0.037 A 
BRANCH  47  61
ATOM     61  C   UNL A   1      45.026  32.262  28.192  1.00  0.00     0.058 A 
ATOM     62  C   UNL A   1      46.310  32.689  27.793  1.00  0.00     0.135 A 
ATOM     63  C   UNL A   1      44.062  33.285  28.330  1.00  0.00     0.135 A 
ATOM     64  F   UNL A   1      47.307  31.804  27.634  1.00  0.00    -0.206 F 
ATOM     65  C   UNL A   1      46.631  34.036  27.626  1.00  0.00     0.059 A 
ATOM     66  C   UNL A   1      44.346  34.627  28.111  1.00  0.00     0.059 A 
ATOM     67  F   UNL A   1      42.825  33.048  28.782  1.00  0.00    -0.206 F 
ATOM     68  C   UNL A   1      45.644  35.000  27.805  1.00  0.00     0.060 A 
BRANCH  68  69
ATOM     69  S   UNL A   1      46.079  36.744  27.707  1.00  0.00     0.124 S 
ATOM     70  O   UNL A   1      46.327  36.899  26.278  1.00  0.00    -0.237 OA
ATOM     71  O   UNL A   1      44.874  37.386  28.221  1.00  0.00    -0.237 OA
ATOM     72  O   UNL A   1      47.253  36.846  28.569  1.00  0.00    -0.744 OA
ENDBRANCH  68  69
ENDBRANCH  47  61
BRANCH  48  73
ATOM     73  C   UNL A   1      37.384  31.443  31.764  1.00  0.00     0.058 A 
ATOM     74  C   UNL A   1      36.746  31.782  32.970  1.00  0.00     0.135 A 
ATOM     75  C   UNL A   1      36.883  32.066  30.602  1.00  0.00     0.135 A 
ATOM     76  F   UNL A   1      37.161  31.244  34.127  1.00  0.00    -0.206 F 
ATOM     77  C   UNL A   1      35.722  32.734  33.033  1.00  0.00     0.059 A 
ATOM     78  C   UNL A   1      35.857  33.010  30.638  1.00  0.00     0.059 A 
ATOM     79  F   UNL A   1      37.443  31.848  29.402  1.00  0.00    -0.206 F 
ATOM     80  C   UNL A   1      35.303  33.365  31.862  1.00  0.00     0.060 A 
BRANCH  80  81
ATOM     81  S   UNL A   1      34.135  34.742  31.963  1.00  0.00     0.124 S 
ATOM     82  O   UNL A   1      33.854  35.005  30.556  1.00  0.00    -0.237 OA
ATOM     83  O   UNL A   1      33.041  34.163  32.735  1.00  0.00    -0.237 OA
ATOM     84  O   UNL A   1      34.896  35.782  32.652  1.00  0.00    -0.744 OA
ENDBRANCH  80  81
ENDBRANCH  48  73
BRANCH  60  85
ATOM     85  C   UNL A   1      42.939  29.222  33.907  1.00  0.00     0.058 A 
ATOM     86  C   UNL A   1      43.095  29.471  35.284  1.00  0.00     0.135 A 
ATOM     87  C   UNL A   1      42.446  27.959  33.545  1.00  0.00     0.135 A 
ATOM     88  F   UNL A   1      43.459  30.680  35.730  1.00  0.00    -0.206 F 
ATOM     89  C   UNL A   1      42.814  28.500  36.247  1.00  0.00     0.059 A 
ATOM     90  C   UNL A   1      42.130  26.986  34.489  1.00  0.00     0.059 A 
ATOM     91  F   UNL A   1      42.215  27.675  32.252  1.00  0.00    -0.206 F 
ATOM     92  C   UNL A   1      42.330  27.258  35.840  1.00  0.00     0.060 A 
BRANCH  92  93
ATOM     93  S   UNL A   1      41.899  26.026  37.089  1.00  0.00     0.124 S 
ATOM     94  O   UNL A   1      40.532  26.402  37.432  1.00  0.00    -0.237 OA
ATOM     95  O   UNL A   1      42.049  24.769  36.362  1.00  0.00    -0.237 OA
ATOM     96  O   UNL A   1      42.889  26.247  38.141  1.00  0.00    -0.744 OA
ENDBRANCH  92  93
ENDBRANCH  60  85
ENDBRANCH  34  35
ENDBRANCH  26  29
ENDBRANCH  24  25
ENDBRANCH   1  24
TORSDOF 16
ENDMDL
