MODEL 1
REMARK VINA RESULT:     -11.2      0.000      0.000
REMARK SMILES C[C@H]1CCCN1c1cccc(OCC(=O)NCCCNC(=O)c2ccc(-c3c4nc(c(-c5c(F)cc(S(=O)(=O)[O-])cc5F)c5ccc([nH]5)c(-c5c(F)cc(S(=O)(=O)[O-])cc5F)c5nc(c(-c6c(F)cc(S(=O)(=O)[O-])cc6F)c6ccc3[nH]6)C=C5)C=C4)cc2)c1
REMARK SMILES IDX 18 1 17 2 16 3 14 4 15 5 13 7 12 8 11 9 7 10 8 11 89 12 9 13
REMARK SMILES IDX 10 14 6 15 1 16 2 17 3 18 4 19 5 20 19 21 20 22 21 23 22 25
REMARK SMILES IDX 23 26 24 27 88 28 25 29 87 30 26 31 27 32 28 33 81 34 29 35
REMARK SMILES IDX 86 36 80 37 82 38 30 39 85 40 79 41 78 42 31 44 65 45 44 46
REMARK SMILES IDX 64 47 45 48 48 49 63 50 83 51 46 52 47 53 62 55 84 56 49 57
REMARK SMILES IDX 32 58 33 59 42 60 34 61 35 62 41 63 43 64 36 65 37 66 38 67
REMARK SMILES IDX 39 68 40 69 66 70 67 71 76 72 68 73 69 74 75 75 77 76 70 77
REMARK SMILES IDX 71 78 72 79 73 80 74 81 50 82 51 83 60 84 52 85 53 86 59 87
REMARK SMILES IDX 61 88 54 89 55 90 56 91 57 92 58 93
REMARK H PARENT 16 6 20 24 82 43 48 54
REMARK Flexibility Score: inf
ROOT
ATOM      1  C   UNL A   1      33.026  28.442  25.816  1.00  0.00     0.042 C 
ENDROOT
BRANCH   1   2
ATOM      2  C   UNL A   1      31.522  28.257  25.649  1.00  0.00     0.117 C 
BRANCH   2   3
ATOM      3  N   UNL A   1      31.179  27.360  24.559  1.00  0.00    -0.353 N 
ATOM      4  C   UNL A   1      30.696  26.085  24.631  1.00  0.00     0.257 C 
ATOM      5  O   UNL A   1      30.407  25.500  23.585  1.00  0.00    -0.271 OA
ATOM      6  H   UNL A   1      31.311  27.718  23.651  1.00  0.00     0.163 HD
BRANCH   4   7
ATOM      7  C   UNL A   1      30.472  25.437  26.001  1.00  0.00     0.329 C 
BRANCH   7   8
ATOM      8  O   UNL A   1      31.644  25.090  26.718  1.00  0.00    -0.484 OA
BRANCH   8   9
ATOM      9  C   UNL A   1      32.621  24.398  26.056  1.00  0.00     0.122 A 
ATOM     10  C   UNL A   1      33.583  22.486  24.873  1.00  0.00     0.041 A 
ATOM     11  C   UNL A   1      34.789  23.190  24.780  1.00  0.00     0.026 A 
ATOM     12  C   UNL A   1      32.507  23.112  25.521  1.00  0.00     0.072 A 
ATOM     13  C   UNL A   1      34.912  24.484  25.289  1.00  0.00     0.006 A 
ATOM     14  C   UNL A   1      33.830  25.083  25.928  1.00  0.00     0.046 A 
BRANCH  10  15
ATOM     15  N   UNL A   1      33.481  21.214  24.357  1.00  0.00    -0.369 N 
ATOM     16  C   UNL A   1      32.096  21.191  22.331  1.00  0.00     0.031 C 
ATOM     17  C   UNL A   1      32.270  20.661  23.749  1.00  0.00     0.079 C 
ATOM     18  C   UNL A   1      32.521  19.144  23.750  1.00  0.00     0.026 C 
ATOM     19  C   UNL A   1      33.518  18.941  24.881  1.00  0.00     0.023 C 
ATOM     20  C   UNL A   1      34.409  20.177  24.787  1.00  0.00     0.117 C 
ENDBRANCH  10  15
ENDBRANCH   8   9
ENDBRANCH   7   8
ENDBRANCH   4   7
ENDBRANCH   2   3
ENDBRANCH   1   2
BRANCH   1  21
ATOM     21  C   UNL A   1      33.491  28.596  27.262  1.00  0.00     0.118 C 
BRANCH  21  22
ATOM     22  N   UNL A   1      33.507  29.983  27.714  1.00  0.00    -0.352 N 
ATOM     23  C   UNL A   1      34.493  30.708  28.340  1.00  0.00     0.251 C 
ATOM     24  H   UNL A   1      32.677  30.483  27.541  1.00  0.00     0.163 HD
ATOM     25  O   UNL A   1      34.233  31.827  28.776  1.00  0.00    -0.269 OA
BRANCH  23  26
ATOM     26  C   UNL A   1      35.847  30.143  28.520  1.00  0.00     0.039 A 
ATOM     27  C   UNL A   1      36.724  30.134  27.430  1.00  0.00     0.014 A 
ATOM     28  C   UNL A   1      36.255  29.617  29.748  1.00  0.00     0.014 A 
ATOM     29  C   UNL A   1      38.039  29.688  27.598  1.00  0.00     0.010 A 
ATOM     30  C   UNL A   1      37.584  29.235  29.931  1.00  0.00     0.010 A 
ATOM     31  C   UNL A   1      38.494  29.285  28.863  1.00  0.00    -0.014 A 
BRANCH  31  32
ATOM     32  C   UNL A   1      39.924  28.967  29.111  1.00  0.00     0.031 A 
ATOM     33  C   UNL A   1      40.874  30.034  29.581  1.00  0.00     0.074 A 
ATOM     34  C   UNL A   1      40.388  27.735  28.814  1.00  0.00     0.049 A 
ATOM     35  N   UNL A   1      42.172  29.978  29.723  1.00  0.00    -0.248 NA
ATOM     36  C   UNL A   1      40.288  31.342  29.912  1.00  0.00     0.031 C 
ATOM     37  C   UNL A   1      39.574  26.626  28.311  1.00  0.00     0.029 A 
ATOM     38  N   UNL A   1      41.657  27.216  28.864  1.00  0.00    -0.354 N 
ATOM     39  C   UNL A   1      42.565  31.244  30.143  1.00  0.00     0.074 A 
ATOM     40  C   UNL A   1      41.368  32.058  30.196  1.00  0.00     0.031 C 
ATOM     41  C   UNL A   1      40.361  25.558  28.106  1.00  0.00     0.029 A 
ATOM     42  C   UNL A   1      41.741  25.919  28.413  1.00  0.00     0.049 A 
ATOM     43  H   UNL A   1      42.434  27.723  29.194  1.00  0.00     0.167 HD
ATOM     44  C   UNL A   1      43.805  31.681  30.467  1.00  0.00     0.037 A 
ATOM     45  C   UNL A   1      42.810  25.116  28.237  1.00  0.00     0.037 A 
ATOM     46  C   UNL A   1      44.987  30.859  30.428  1.00  0.00     0.049 A 
ATOM     47  C   UNL A   1      44.180  25.634  28.581  1.00  0.00     0.074 A 
ATOM     48  C   UNL A   1      46.278  31.192  30.804  1.00  0.00     0.029 A 
ATOM     49  N   UNL A   1      45.029  29.547  29.980  1.00  0.00    -0.354 N 
ATOM     50  N   UNL A   1      44.523  26.813  29.043  1.00  0.00    -0.248 NA
ATOM     51  C   UNL A   1      45.309  24.715  28.380  1.00  0.00     0.031 C 
ATOM     52  C   UNL A   1      47.108  30.099  30.534  1.00  0.00     0.029 A 
ATOM     53  C   UNL A   1      46.328  29.067  30.039  1.00  0.00     0.049 A 
ATOM     54  H   UNL A   1      44.251  29.033  29.667  1.00  0.00     0.167 HD
ATOM     55  C   UNL A   1      45.904  26.771  29.205  1.00  0.00     0.074 A 
ATOM     56  C   UNL A   1      46.330  25.445  28.807  1.00  0.00     0.031 C 
ATOM     57  C   UNL A   1      46.741  27.743  29.642  1.00  0.00     0.037 A 
BRANCH  44  58
ATOM     58  C   UNL A   1      43.954  33.118  30.889  1.00  0.00     0.058 A 
ATOM     59  C   UNL A   1      44.186  34.140  29.955  1.00  0.00     0.135 A 
ATOM     60  C   UNL A   1      43.811  33.484  32.237  1.00  0.00     0.135 A 
ATOM     61  F   UNL A   1      44.343  33.846  28.654  1.00  0.00    -0.206 F 
ATOM     62  C   UNL A   1      44.298  35.471  30.346  1.00  0.00     0.059 A 
ATOM     63  C   UNL A   1      43.891  34.812  32.647  1.00  0.00     0.059 A 
ATOM     64  F   UNL A   1      43.586  32.547  33.172  1.00  0.00    -0.206 F 
ATOM     65  C   UNL A   1      44.147  35.797  31.695  1.00  0.00     0.060 A 
BRANCH  65  66
ATOM     66  S   UNL A   1      44.285  37.530  32.183  1.00  0.00     0.124 S 
ATOM     67  O   UNL A   1      43.876  38.211  30.960  1.00  0.00    -0.237 OA
ATOM     68  O   UNL A   1      43.348  37.615  33.299  1.00  0.00    -0.237 OA
ATOM     69  O   UNL A   1      45.694  37.673  32.540  1.00  0.00    -0.744 OA
ENDBRANCH  65  66
ENDBRANCH  44  58
BRANCH  45  70
ATOM     70  C   UNL A   1      42.626  23.741  27.703  1.00  0.00     0.058 A 
ATOM     71  C   UNL A   1      42.621  23.497  26.322  1.00  0.00     0.135 A 
ATOM     72  C   UNL A   1      42.467  22.641  28.561  1.00  0.00     0.135 A 
ATOM     73  F   UNL A   1      42.760  24.517  25.461  1.00  0.00    -0.206 F 
ATOM     74  C   UNL A   1      42.449  22.216  25.809  1.00  0.00     0.059 A 
ATOM     75  C   UNL A   1      42.321  21.347  28.072  1.00  0.00     0.059 A 
ATOM     76  F   UNL A   1      42.481  22.817  29.891  1.00  0.00    -0.206 F 
ATOM     77  C   UNL A   1      42.303  21.146  26.692  1.00  0.00     0.060 A 
BRANCH  77  78
ATOM     78  S   UNL A   1      42.132  19.480  26.016  1.00  0.00     0.124 S 
ATOM     79  O   UNL A   1      42.628  18.664  27.118  1.00  0.00    -0.237 OA
ATOM     80  O   UNL A   1      40.698  19.400  25.757  1.00  0.00    -0.237 OA
ATOM     81  O   UNL A   1      42.975  19.513  24.825  1.00  0.00    -0.744 OA
ENDBRANCH  77  78
ENDBRANCH  45  70
BRANCH  57  82
ATOM     82  C   UNL A   1      48.204  27.410  29.735  1.00  0.00     0.058 A 
ATOM     83  C   UNL A   1      49.105  27.754  28.715  1.00  0.00     0.135 A 
ATOM     84  C   UNL A   1      48.723  26.800  30.889  1.00  0.00     0.135 A 
ATOM     85  F   UNL A   1      48.659  28.331  27.588  1.00  0.00    -0.206 F 
ATOM     86  C   UNL A   1      50.466  27.493  28.829  1.00  0.00     0.059 A 
ATOM     87  C   UNL A   1      50.086  26.554  31.036  1.00  0.00     0.059 A 
ATOM     88  F   UNL A   1      47.908  26.456  31.899  1.00  0.00    -0.206 F 
ATOM     89  C   UNL A   1      50.948  26.898  29.996  1.00  0.00     0.060 A 
BRANCH  89  90
ATOM     90  S   UNL A   1      52.724  26.612  30.151  1.00  0.00     0.124 S 
ATOM     91  O   UNL A   1      52.771  25.616  31.216  1.00  0.00    -0.237 OA
ATOM     92  O   UNL A   1      53.080  26.133  28.819  1.00  0.00    -0.237 OA
ATOM     93  O   UNL A   1      53.251  27.928  30.499  1.00  0.00    -0.744 OA
ENDBRANCH  89  90
ENDBRANCH  57  82
ENDBRANCH  31  32
ENDBRANCH  23  26
ENDBRANCH  21  22
ENDBRANCH   1  21
TORSDOF 16
ENDMDL
MODEL 2
REMARK VINA RESULT:     -11.1      3.697      6.477
REMARK SMILES C[C@H]1CCCN1c1cccc(OCC(=O)NCCCNC(=O)c2ccc(-c3c4nc(c(-c5c(F)cc(S(=O)(=O)[O-])cc5F)c5ccc([nH]5)c(-c5c(F)cc(S(=O)(=O)[O-])cc5F)c5nc(c(-c6c(F)cc(S(=O)(=O)[O-])cc6F)c6ccc3[nH]6)C=C5)C=C4)cc2)c1
REMARK SMILES IDX 18 1 17 2 16 3 14 4 15 5 13 7 12 8 11 9 7 10 8 11 89 12 9 13
REMARK SMILES IDX 10 14 6 15 1 16 2 17 3 18 4 19 5 20 19 21 20 22 21 23 22 25
REMARK SMILES IDX 23 26 24 27 88 28 25 29 87 30 26 31 27 32 28 33 81 34 29 35
REMARK SMILES IDX 86 36 80 37 82 38 30 39 85 40 79 41 78 42 31 44 65 45 44 46
REMARK SMILES IDX 64 47 45 48 48 49 63 50 83 51 46 52 47 53 62 55 84 56 49 57
REMARK SMILES IDX 32 58 33 59 42 60 34 61 35 62 41 63 43 64 36 65 37 66 38 67
REMARK SMILES IDX 39 68 40 69 66 70 67 71 76 72 68 73 69 74 75 75 77 76 70 77
REMARK SMILES IDX 71 78 72 79 73 80 74 81 50 82 51 83 60 84 52 85 53 86 59 87
REMARK SMILES IDX 61 88 54 89 55 90 56 91 57 92 58 93
REMARK H PARENT 16 6 20 24 82 43 48 54
REMARK Flexibility Score: inf
ROOT
ATOM      1  C   UNL A   1      34.429  34.545  28.330  1.00  0.00     0.042 C 
ENDROOT
BRANCH   1   2
ATOM      2  C   UNL A   1      33.038  34.753  28.919  1.00  0.00     0.117 C 
BRANCH   2   3
ATOM      3  N   UNL A   1      32.852  36.082  29.477  1.00  0.00    -0.353 N 
ATOM      4  C   UNL A   1      33.076  36.502  30.757  1.00  0.00     0.257 C 
ATOM      5  O   UNL A   1      32.914  37.694  31.026  1.00  0.00    -0.271 OA
ATOM      6  H   UNL A   1      32.523  36.767  28.852  1.00  0.00     0.163 HD
BRANCH   4   7
ATOM      7  C   UNL A   1      33.576  35.503  31.805  1.00  0.00     0.329 C 
BRANCH   7   8
ATOM      8  O   UNL A   1      34.980  35.459  31.994  1.00  0.00    -0.484 OA
BRANCH   8   9
ATOM      9  C   UNL A   1      35.552  34.249  32.280  1.00  0.00     0.122 A 
ATOM     10  C   UNL A   1      37.316  32.753  33.073  1.00  0.00     0.041 A 
ATOM     11  C   UNL A   1      36.505  31.665  32.729  1.00  0.00     0.026 A 
ATOM     12  C   UNL A   1      36.818  34.043  32.835  1.00  0.00     0.072 A 
ATOM     13  C   UNL A   1      35.230  31.855  32.194  1.00  0.00     0.006 A 
ATOM     14  C   UNL A   1      34.759  33.145  31.968  1.00  0.00     0.046 A 
BRANCH  10  15
ATOM     15  N   UNL A   1      38.567  32.543  33.607  1.00  0.00    -0.369 N 
ATOM     16  C   UNL A   1      39.166  30.163  33.545  1.00  0.00     0.031 C 
ATOM     17  C   UNL A   1      38.935  31.386  34.424  1.00  0.00     0.079 C 
ATOM     18  C   UNL A   1      40.236  31.827  35.117  1.00  0.00     0.026 C 
ATOM     19  C   UNL A   1      40.146  33.346  35.126  1.00  0.00     0.023 C 
ATOM     20  C   UNL A   1      39.479  33.664  33.790  1.00  0.00     0.117 C 
ENDBRANCH  10  15
ENDBRANCH   8   9
ENDBRANCH   7   8
ENDBRANCH   4   7
ENDBRANCH   2   3
ENDBRANCH   1   2
BRANCH   1  21
ATOM     21  C   UNL A   1      35.020  33.158  28.571  1.00  0.00     0.118 C 
BRANCH  21  22
ATOM     22  N   UNL A   1      34.150  32.078  28.119  1.00  0.00    -0.352 N 
ATOM     23  C   UNL A   1      34.425  30.754  27.870  1.00  0.00     0.251 C 
ATOM     24  H   UNL A   1      33.213  32.339  27.968  1.00  0.00     0.163 HD
ATOM     25  O   UNL A   1      33.567  30.051  27.341  1.00  0.00    -0.269 OA
BRANCH  23  26
ATOM     26  C   UNL A   1      35.745  30.181  28.205  1.00  0.00     0.039 A 
ATOM     27  C   UNL A   1      36.722  30.110  27.207  1.00  0.00     0.014 A 
ATOM     28  C   UNL A   1      36.024  29.707  29.489  1.00  0.00     0.014 A 
ATOM     29  C   UNL A   1      38.006  29.654  27.522  1.00  0.00     0.010 A 
ATOM     30  C   UNL A   1      37.322  29.316  29.817  1.00  0.00     0.010 A 
ATOM     31  C   UNL A   1      38.331  29.304  28.841  1.00  0.00    -0.014 A 
BRANCH  31  32
ATOM     32  C   UNL A   1      39.725  28.980  29.240  1.00  0.00     0.031 A 
ATOM     33  C   UNL A   1      40.600  30.023  29.878  1.00  0.00     0.074 A 
ATOM     34  C   UNL A   1      40.234  27.768  28.934  1.00  0.00     0.049 A 
ATOM     35  N   UNL A   1      41.873  29.965  30.171  1.00  0.00    -0.248 NA
ATOM     36  C   UNL A   1      39.965  31.308  30.208  1.00  0.00     0.031 C 
ATOM     37  C   UNL A   1      39.497  26.684  28.278  1.00  0.00     0.029 A 
ATOM     38  N   UNL A   1      41.494  27.252  29.107  1.00  0.00    -0.354 N 
ATOM     39  C   UNL A   1      42.199  31.206  30.703  1.00  0.00     0.074 A 
ATOM     40  C   UNL A   1      40.996  32.011  30.658  1.00  0.00     0.031 C 
ATOM     41  C   UNL A   1      40.315  25.633  28.110  1.00  0.00     0.029 A 
ATOM     42  C   UNL A   1      41.645  25.982  28.599  1.00  0.00     0.049 A 
ATOM     43  H   UNL A   1      42.220  27.744  29.554  1.00  0.00     0.167 HD
ATOM     44  C   UNL A   1      43.387  31.630  31.197  1.00  0.00     0.037 A 
ATOM     45  C   UNL A   1      42.736  25.195  28.508  1.00  0.00     0.037 A 
ATOM     46  C   UNL A   1      44.574  30.816  31.254  1.00  0.00     0.049 A 
ATOM     47  C   UNL A   1      44.050  25.699  29.041  1.00  0.00     0.074 A 
ATOM     48  C   UNL A   1      45.808  31.133  31.799  1.00  0.00     0.029 A 
ATOM     49  N   UNL A   1      44.684  29.531  30.743  1.00  0.00    -0.354 N 
ATOM     50  N   UNL A   1      44.322  26.852  29.604  1.00  0.00    -0.248 NA
ATOM     51  C   UNL A   1      45.204  24.797  28.926  1.00  0.00     0.031 C 
ATOM     52  C   UNL A   1      46.676  30.061  31.571  1.00  0.00     0.029 A 
ATOM     53  C   UNL A   1      45.971  29.054  30.931  1.00  0.00     0.049 A 
ATOM     54  H   UNL A   1      43.953  29.032  30.311  1.00  0.00     0.167 HD
ATOM     55  C   UNL A   1      45.675  26.806  29.927  1.00  0.00     0.074 A 
ATOM     56  C   UNL A   1      46.160  25.507  29.511  1.00  0.00     0.031 C 
ATOM     57  C   UNL A   1      46.443  27.757  30.514  1.00  0.00     0.037 A 
BRANCH  44  58
ATOM     58  C   UNL A   1      43.470  33.042  31.711  1.00  0.00     0.058 A 
ATOM     59  C   UNL A   1      43.355  33.337  33.078  1.00  0.00     0.135 A 
ATOM     60  C   UNL A   1      43.720  34.108  30.831  1.00  0.00     0.135 A 
ATOM     61  F   UNL A   1      43.104  32.358  33.963  1.00  0.00    -0.206 F 
ATOM     62  C   UNL A   1      43.458  34.641  33.553  1.00  0.00     0.059 A 
ATOM     63  C   UNL A   1      43.854  35.417  31.286  1.00  0.00     0.059 A 
ATOM     64  F   UNL A   1      43.840  33.883  29.513  1.00  0.00    -0.206 F 
ATOM     65  C   UNL A   1      43.708  35.674  32.648  1.00  0.00     0.060 A 
BRANCH  65  66
ATOM     66  S   UNL A   1      43.848  37.359  33.282  1.00  0.00     0.124 S 
ATOM     67  O   UNL A   1      43.792  38.140  32.051  1.00  0.00    -0.237 OA
ATOM     68  O   UNL A   1      42.679  37.462  34.152  1.00  0.00    -0.237 OA
ATOM     69  O   UNL A   1      45.137  37.360  33.968  1.00  0.00    -0.744 OA
ENDBRANCH  65  66
ENDBRANCH  44  58
BRANCH  45  70
ATOM     70  C   UNL A   1      42.632  23.851  27.881  1.00  0.00     0.058 A 
ATOM     71  C   UNL A   1      42.657  23.700  26.487  1.00  0.00     0.135 A 
ATOM     72  C   UNL A   1      42.519  22.690  28.662  1.00  0.00     0.135 A 
ATOM     73  F   UNL A   1      42.754  24.781  25.698  1.00  0.00    -0.206 F 
ATOM     74  C   UNL A   1      42.560  22.449  25.888  1.00  0.00     0.059 A 
ATOM     75  C   UNL A   1      42.449  21.425  28.087  1.00  0.00     0.059 A 
ATOM     76  F   UNL A   1      42.507  22.777  30.001  1.00  0.00    -0.206 F 
ATOM     77  C   UNL A   1      42.459  21.316  26.696  1.00  0.00     0.060 A 
BRANCH  77  78
ATOM     78  S   UNL A   1      42.385  19.693  25.909  1.00  0.00     0.124 S 
ATOM     79  O   UNL A   1      41.000  19.649  25.457  1.00  0.00    -0.237 OA
ATOM     80  O   UNL A   1      43.395  19.813  24.863  1.00  0.00    -0.237 OA
ATOM     81  O   UNL A   1      42.724  18.777  26.994  1.00  0.00    -0.744 OA
ENDBRANCH  77  78
ENDBRANCH  45  70
BRANCH  57  82
ATOM     82  C   UNL A   1      47.888  27.425  30.763  1.00  0.00     0.058 A 
ATOM     83  C   UNL A   1      48.323  26.898  31.989  1.00  0.00     0.135 A 
ATOM     84  C   UNL A   1      48.839  27.574  29.740  1.00  0.00     0.135 A 
ATOM     85  F   UNL A   1      47.456  26.745  33.003  1.00  0.00    -0.206 F 
ATOM     86  C   UNL A   1      49.650  26.542  32.197  1.00  0.00     0.059 A 
ATOM     87  C   UNL A   1      50.168  27.199  29.917  1.00  0.00     0.059 A 
ATOM     88  F   UNL A   1      48.477  28.067  28.545  1.00  0.00    -0.206 F 
ATOM     89  C   UNL A   1      50.566  26.690  31.152  1.00  0.00     0.060 A 
BRANCH  89  90
ATOM     90  S   UNL A   1      52.275  26.175  31.421  1.00  0.00     0.124 S 
ATOM     91  O   UNL A   1      52.685  27.065  32.501  1.00  0.00    -0.237 OA
ATOM     92  O   UNL A   1      52.125  24.769  31.780  1.00  0.00    -0.237 OA
ATOM     93  O   UNL A   1      52.911  26.421  30.130  1.00  0.00    -0.744 OA
ENDBRANCH  89  90
ENDBRANCH  57  82
ENDBRANCH  31  32
ENDBRANCH  23  26
ENDBRANCH  21  22
ENDBRANCH   1  21
TORSDOF 16
ENDMDL
MODEL 3
REMARK VINA RESULT:     -11.0      2.250      4.135
REMARK SMILES C[C@H]1CCCN1c1cccc(OCC(=O)NCCCNC(=O)c2ccc(-c3c4nc(c(-c5c(F)cc(S(=O)(=O)[O-])cc5F)c5ccc([nH]5)c(-c5c(F)cc(S(=O)(=O)[O-])cc5F)c5nc(c(-c6c(F)cc(S(=O)(=O)[O-])cc6F)c6ccc3[nH]6)C=C5)C=C4)cc2)c1
REMARK SMILES IDX 18 1 17 2 16 3 14 4 15 5 13 7 12 8 11 9 7 10 8 11 89 12 9 13
REMARK SMILES IDX 10 14 6 15 1 16 2 17 3 18 4 19 5 20 19 21 20 22 21 23 22 25
REMARK SMILES IDX 23 26 24 27 88 28 25 29 87 30 26 31 27 32 28 33 81 34 29 35
REMARK SMILES IDX 86 36 80 37 82 38 30 39 85 40 79 41 78 42 31 44 65 45 44 46
REMARK SMILES IDX 64 47 45 48 48 49 63 50 83 51 46 52 47 53 62 55 84 56 49 57
REMARK SMILES IDX 32 58 33 59 42 60 34 61 35 62 41 63 43 64 36 65 37 66 38 67
REMARK SMILES IDX 39 68 40 69 66 70 67 71 76 72 68 73 69 74 75 75 77 76 70 77
REMARK SMILES IDX 71 78 72 79 73 80 74 81 50 82 51 83 60 84 52 85 53 86 59 87
REMARK SMILES IDX 61 88 54 89 55 90 56 91 57 92 58 93
REMARK H PARENT 16 6 20 24 82 43 48 54
REMARK Flexibility Score: inf
ROOT
ATOM      1  C   UNL A   1      33.908  28.301  25.931  1.00  0.00     0.042 C 
ENDROOT
BRANCH   1   2
ATOM      2  C   UNL A   1      33.137  29.045  24.846  1.00  0.00     0.117 C 
BRANCH   2   3
ATOM      3  N   UNL A   1      33.803  29.015  23.556  1.00  0.00    -0.353 N 
ATOM      4  C   UNL A   1      33.871  27.985  22.661  1.00  0.00     0.257 C 
ATOM      5  O   UNL A   1      34.438  28.173  21.583  1.00  0.00    -0.271 OA
ATOM      6  H   UNL A   1      34.264  29.844  23.291  1.00  0.00     0.163 HD
BRANCH   4   7
ATOM      7  C   UNL A   1      33.196  26.651  22.991  1.00  0.00     0.329 C 
BRANCH   7   8
ATOM      8  O   UNL A   1      32.015  26.360  22.262  1.00  0.00    -0.484 OA
BRANCH   8   9
ATOM      9  C   UNL A   1      30.869  27.024  22.604  1.00  0.00     0.122 A 
ATOM     10  C   UNL A   1      29.375  28.954  22.755  1.00  0.00     0.041 A 
ATOM     11  C   UNL A   1      28.459  28.151  23.447  1.00  0.00     0.026 A 
ATOM     12  C   UNL A   1      30.581  28.366  22.344  1.00  0.00     0.072 A 
ATOM     13  C   UNL A   1      28.723  26.803  23.695  1.00  0.00     0.006 A 
ATOM     14  C   UNL A   1      29.927  26.244  23.275  1.00  0.00     0.046 A 
BRANCH  10  15
ATOM     15  N   UNL A   1      29.091  30.279  22.515  1.00  0.00    -0.369 N 
ATOM     16  C   UNL A   1      29.612  31.663  24.475  1.00  0.00     0.031 C 
ATOM     17  C   UNL A   1      28.531  31.199  23.506  1.00  0.00     0.079 C 
ATOM     18  C   UNL A   1      28.002  32.369  22.660  1.00  0.00     0.026 C 
ATOM     19  C   UNL A   1      27.748  31.745  21.295  1.00  0.00     0.023 C 
ATOM     20  C   UNL A   1      28.893  30.746  21.150  1.00  0.00     0.117 C 
ENDBRANCH  10  15
ENDBRANCH   8   9
ENDBRANCH   7   8
ENDBRANCH   4   7
ENDBRANCH   2   3
ENDBRANCH   1   2
BRANCH   1  21
ATOM     21  C   UNL A   1      33.410  28.553  27.352  1.00  0.00     0.118 C 
BRANCH  21  22
ATOM     22  N   UNL A   1      33.415  29.965  27.718  1.00  0.00    -0.352 N 
ATOM     23  C   UNL A   1      34.397  30.735  28.295  1.00  0.00     0.251 C 
ATOM     24  H   UNL A   1      32.580  30.446  27.519  1.00  0.00     0.163 HD
ATOM     25  O   UNL A   1      34.128  31.877  28.663  1.00  0.00    -0.269 OA
BRANCH  23  26
ATOM     26  C   UNL A   1      35.757  30.194  28.503  1.00  0.00     0.039 A 
ATOM     27  C   UNL A   1      36.653  30.193  27.430  1.00  0.00     0.014 A 
ATOM     28  C   UNL A   1      36.151  29.683  29.742  1.00  0.00     0.014 A 
ATOM     29  C   UNL A   1      37.972  29.771  27.625  1.00  0.00     0.010 A 
ATOM     30  C   UNL A   1      37.482  29.325  29.952  1.00  0.00     0.010 A 
ATOM     31  C   UNL A   1      38.410  29.384  28.901  1.00  0.00    -0.014 A 
BRANCH  31  32
ATOM     32  C   UNL A   1      39.841  29.092  29.177  1.00  0.00     0.031 A 
ATOM     33  C   UNL A   1      40.758  30.171  29.681  1.00  0.00     0.074 A 
ATOM     34  C   UNL A   1      40.336  27.873  28.875  1.00  0.00     0.049 A 
ATOM     35  N   UNL A   1      42.054  30.140  29.852  1.00  0.00    -0.248 NA
ATOM     36  C   UNL A   1      40.139  31.463  30.015  1.00  0.00     0.031 C 
ATOM     37  C   UNL A   1      39.556  26.754  28.340  1.00  0.00     0.029 A 
ATOM     38  N   UNL A   1      41.614  27.378  28.947  1.00  0.00    -0.354 N 
ATOM     39  C   UNL A   1      42.411  31.407  30.296  1.00  0.00     0.074 A 
ATOM     40  C   UNL A   1      41.197  32.196  30.333  1.00  0.00     0.031 C 
ATOM     41  C   UNL A   1      40.370  25.705  28.139  1.00  0.00     0.029 A 
ATOM     42  C   UNL A   1      41.735  26.090  28.482  1.00  0.00     0.049 A 
ATOM     43  H   UNL A   1      42.373  27.898  29.300  1.00  0.00     0.167 HD
ATOM     44  C   UNL A   1      43.635  31.865  30.654  1.00  0.00     0.037 A 
ATOM     45  C   UNL A   1      42.824  25.311  28.320  1.00  0.00     0.037 A 
ATOM     46  C   UNL A   1      44.834  31.067  30.631  1.00  0.00     0.049 A 
ATOM     47  C   UNL A   1      44.175  25.852  28.701  1.00  0.00     0.074 A 
ATOM     48  C   UNL A   1      46.109  31.422  31.040  1.00  0.00     0.029 A 
ATOM     49  N   UNL A   1      44.913  29.762  30.168  1.00  0.00    -0.354 N 
ATOM     50  N   UNL A   1      44.484  27.031  29.186  1.00  0.00    -0.248 NA
ATOM     51  C   UNL A   1      45.327  24.958  28.514  1.00  0.00     0.031 C 
ATOM     52  C   UNL A   1      46.967  30.349  30.775  1.00  0.00     0.029 A 
ATOM     53  C   UNL A   1      46.219  29.308  30.250  1.00  0.00     0.049 A 
ATOM     54  H   UNL A   1      44.152  29.237  29.830  1.00  0.00     0.167 HD
ATOM     55  C   UNL A   1      45.861  27.015  29.377  1.00  0.00     0.074 A 
ATOM     56  C   UNL A   1      46.323  25.703  28.973  1.00  0.00     0.031 C 
ATOM     57  C   UNL A   1      46.668  27.998  29.846  1.00  0.00     0.037 A 
BRANCH  44  58
ATOM     58  C   UNL A   1      43.745  33.299  31.097  1.00  0.00     0.058 A 
ATOM     59  C   UNL A   1      43.661  33.662  32.450  1.00  0.00     0.135 A 
ATOM     60  C   UNL A   1      43.990  34.317  30.161  1.00  0.00     0.135 A 
ATOM     61  F   UNL A   1      43.417  32.731  33.386  1.00  0.00    -0.206 F 
ATOM     62  C   UNL A   1      43.790  34.986  32.858  1.00  0.00     0.059 A 
ATOM     63  C   UNL A   1      44.150  35.645  30.549  1.00  0.00     0.059 A 
ATOM     64  F   UNL A   1      44.081  34.027  28.853  1.00  0.00    -0.206 F 
ATOM     65  C   UNL A   1      44.035  35.971  31.899  1.00  0.00     0.060 A 
BRANCH  65  66
ATOM     66  S   UNL A   1      44.209  37.682  32.447  1.00  0.00     0.124 S 
ATOM     67  O   UNL A   1      43.201  37.755  33.499  1.00  0.00    -0.237 OA
ATOM     68  O   UNL A   1      45.598  37.726  32.897  1.00  0.00    -0.237 OA
ATOM     69  O   UNL A   1      43.919  38.457  31.244  1.00  0.00    -0.744 OA
ENDBRANCH  65  66
ENDBRANCH  44  58
BRANCH  45  70
ATOM     70  C   UNL A   1      42.680  23.939  27.764  1.00  0.00     0.058 A 
ATOM     71  C   UNL A   1      42.536  22.829  28.609  1.00  0.00     0.135 A 
ATOM     72  C   UNL A   1      42.669  23.712  26.379  1.00  0.00     0.135 A 
ATOM     73  F   UNL A   1      42.549  22.995  29.941  1.00  0.00    -0.206 F 
ATOM     74  C   UNL A   1      42.401  21.541  28.103  1.00  0.00     0.059 A 
ATOM     75  C   UNL A   1      42.508  22.436  25.849  1.00  0.00     0.059 A 
ATOM     76  F   UNL A   1      42.787  24.741  25.526  1.00  0.00    -0.206 F 
ATOM     77  C   UNL A   1      42.385  21.354  26.721  1.00  0.00     0.060 A 
BRANCH  77  78
ATOM     78  S   UNL A   1      42.159  19.683  26.074  1.00  0.00     0.124 S 
ATOM     79  O   UNL A   1      42.542  18.870  27.222  1.00  0.00    -0.237 OA
ATOM     80  O   UNL A   1      40.741  19.677  25.732  1.00  0.00    -0.237 OA
ATOM     81  O   UNL A   1      43.070  19.637  24.935  1.00  0.00    -0.744 OA
ENDBRANCH  77  78
ENDBRANCH  45  70
BRANCH  57  82
ATOM     82  C   UNL A   1      48.135  27.694  29.968  1.00  0.00     0.058 A 
ATOM     83  C   UNL A   1      48.659  27.027  31.087  1.00  0.00     0.135 A 
ATOM     84  C   UNL A   1      49.018  28.012  28.923  1.00  0.00     0.135 A 
ATOM     85  F   UNL A   1      47.860  26.709  32.118  1.00  0.00    -0.206 F 
ATOM     86  C   UNL A   1      50.007  26.699  31.171  1.00  0.00     0.059 A 
ATOM     87  C   UNL A   1      50.366  27.669  28.975  1.00  0.00     0.059 A 
ATOM     88  F   UNL A   1      48.570  28.644  27.826  1.00  0.00    -0.206 F 
ATOM     89  C   UNL A   1      50.853  27.019  30.107  1.00  0.00     0.060 A 
BRANCH  89  90
ATOM     90  S   UNL A   1      52.591  26.540  30.209  1.00  0.00     0.124 S 
ATOM     91  O   UNL A   1      53.219  27.793  30.614  1.00  0.00    -0.237 OA
ATOM     92  O   UNL A   1      52.566  25.488  31.220  1.00  0.00    -0.237 OA
ATOM     93  O   UNL A   1      52.901  26.093  28.855  1.00  0.00    -0.744 OA
ENDBRANCH  89  90
ENDBRANCH  57  82
ENDBRANCH  31  32
ENDBRANCH  23  26
ENDBRANCH  21  22
ENDBRANCH   1  21
TORSDOF 16
ENDMDL
