MODEL 1
REMARK VINA RESULT:     -10.9      0.000      0.000
REMARK SMILES C[C@H]([C@@H](C)C(=O)NCCCNC(=O)c1ccc(-c2c3nc(c(-c4c(F)cc(S(=O)(=O)[O-])cc4F)c4ccc([nH]4)c(-c4c(F)cc(S(=O)(=O)[O-])cc4F)c4nc(c(-c5c(F)cc(S(=O)(=O)[O-])cc5F)c5ccc2[nH]5)C=C4)C=C3)cc1)[NH+]1CCN(c2nccs2)CC1
REMARK SMILES IDX 9 1 8 2 7 3 5 4 6 5 3 7 4 8 2 9 1 10 80 11 81 12 90 13 82 15
REMARK SMILES IDX 89 16 83 17 84 18 85 19 88 20 86 21 87 22 10 23 11 24 12 25
REMARK SMILES IDX 13 27 14 28 15 29 79 30 16 31 78 32 17 33 18 34 19 35 72 36
REMARK SMILES IDX 20 37 77 38 71 39 73 40 21 41 76 42 70 43 69 44 22 46 56 47
REMARK SMILES IDX 35 48 55 49 36 50 39 51 54 52 74 53 37 54 38 55 53 57 75 58
REMARK SMILES IDX 40 59 23 60 24 61 33 62 25 63 26 64 32 65 34 66 27 67 28 68
REMARK SMILES IDX 29 69 30 70 31 71 57 72 58 73 67 74 59 75 60 76 66 77 68 78
REMARK SMILES IDX 61 79 62 80 63 81 64 82 65 83 41 84 42 85 51 86 43 87 44 88
REMARK SMILES IDX 50 89 52 90 45 91 46 92 47 93 48 94 49 95
REMARK H PARENT 7 6 80 14 11 26 73 45 39 56
REMARK Flexibility Score: inf
ROOT
ATOM      1  C   UNL A   1      45.511  24.329  26.506  1.00  0.00     0.042 C 
ENDROOT
BRANCH   1   2
ATOM      2  C   UNL A   1      46.341  23.601  25.456  1.00  0.00     0.117 C 
BRANCH   2   3
ATOM      3  N   UNL A   1      45.493  23.066  24.413  1.00  0.00    -0.356 N 
ATOM      4  C   UNL A   1      45.000  21.826  24.196  1.00  0.00     0.228 C 
ATOM      5  O   UNL A   1      44.456  21.633  23.104  1.00  0.00    -0.275 OA
ATOM      6  H   UNL A   1      45.224  23.728  23.735  1.00  0.00     0.163 HD
BRANCH   4   7
ATOM      7  C   UNL A   1      45.041  20.706  25.235  1.00  0.00     0.133 C 
ATOM      8  C   UNL A   1      46.296  19.844  25.074  1.00  0.00     0.024 C 
BRANCH   7   9
ATOM      9  C   UNL A   1      43.673  20.005  25.483  1.00  0.00     0.193 C 
ATOM     10  C   UNL A   1      43.743  18.478  25.648  1.00  0.00     0.076 C 
BRANCH   9  11
ATOM     11  N   UNL A   1      42.863  20.443  26.645  1.00  0.00    -0.329 N 
ATOM     12  C   UNL A   1      42.669  21.877  26.897  1.00  0.00     0.284 C 
ATOM     13  C   UNL A   1      41.576  19.737  26.793  1.00  0.00     0.284 C 
ATOM     14  H   UNL A   1      43.515  20.155  27.374  1.00  0.00     0.348 HD
ATOM     15  C   UNL A   1      41.509  22.574  26.140  1.00  0.00     0.180 C 
ATOM     16  C   UNL A   1      40.431  20.311  25.941  1.00  0.00     0.180 C 
ATOM     17  N   UNL A   1      40.302  21.754  26.141  1.00  0.00    -0.337 N 
BRANCH  17  18
ATOM     18  C   UNL A   1      39.072  22.316  26.088  1.00  0.00     0.185 A 
ATOM     19  N   UNL A   1      38.006  21.674  25.662  1.00  0.00    -0.229 NA
ATOM     20  S   UNL A   1      38.769  23.952  26.570  1.00  0.00    -0.106 S 
ATOM     21  C   UNL A   1      36.883  22.463  25.790  1.00  0.00     0.125 A 
ATOM     22  C   UNL A   1      37.107  23.747  26.225  1.00  0.00     0.088 A 
ENDBRANCH  17  18
ENDBRANCH   9  11
ENDBRANCH   7   9
ENDBRANCH   4   7
ENDBRANCH   2   3
ENDBRANCH   1   2
BRANCH   1  23
ATOM     23  C   UNL A   1      45.104  25.732  26.080  1.00  0.00     0.118 C 
BRANCH  23  24
ATOM     24  N   UNL A   1      43.877  25.728  25.293  1.00  0.00    -0.352 N 
ATOM     25  C   UNL A   1      42.604  26.081  25.655  1.00  0.00     0.251 C 
ATOM     26  H   UNL A   1      43.979  25.426  24.362  1.00  0.00     0.163 HD
ATOM     27  O   UNL A   1      41.660  25.754  24.931  1.00  0.00    -0.269 OA
BRANCH  25  28
ATOM     28  C   UNL A   1      42.359  26.837  26.899  1.00  0.00     0.039 A 
ATOM     29  C   UNL A   1      42.846  28.142  27.008  1.00  0.00     0.014 A 
ATOM     30  C   UNL A   1      41.676  26.253  27.970  1.00  0.00     0.014 A 
ATOM     31  C   UNL A   1      42.599  28.876  28.169  1.00  0.00     0.010 A 
ATOM     32  C   UNL A   1      41.350  27.017  29.086  1.00  0.00     0.010 A 
ATOM     33  C   UNL A   1      41.821  28.331  29.204  1.00  0.00    -0.014 A 
BRANCH  33  34
ATOM     34  C   UNL A   1      41.504  29.118  30.422  1.00  0.00     0.031 A 
ATOM     35  C   UNL A   1      42.331  28.949  31.668  1.00  0.00     0.074 A 
ATOM     36  C   UNL A   1      40.441  29.946  30.416  1.00  0.00     0.049 A 
ATOM     37  N   UNL A   1      42.181  29.510  32.840  1.00  0.00    -0.248 NA
ATOM     38  C   UNL A   1      43.456  28.001  31.601  1.00  0.00     0.031 C 
ATOM     39  C   UNL A   1      39.525  30.140  29.288  1.00  0.00     0.029 A 
ATOM     40  N   UNL A   1      39.944  30.773  31.389  1.00  0.00    -0.354 N 
ATOM     41  C   UNL A   1      43.182  28.981  33.646  1.00  0.00     0.074 A 
ATOM     42  C   UNL A   1      43.896  28.006  32.850  1.00  0.00     0.031 C 
ATOM     43  C   UNL A   1      38.595  31.047  29.626  1.00  0.00     0.029 A 
ATOM     44  C   UNL A   1      38.827  31.476  31.001  1.00  0.00     0.049 A 
ATOM     45  H   UNL A   1      40.348  30.856  32.284  1.00  0.00     0.167 HD
ATOM     46  C   UNL A   1      43.498  29.299  34.923  1.00  0.00     0.037 A 
ATOM     47  C   UNL A   1      38.076  32.364  31.679  1.00  0.00     0.037 A 
ATOM     48  C   UNL A   1      42.803  30.293  35.699  1.00  0.00     0.049 A 
ATOM     49  C   UNL A   1      38.465  32.722  33.086  1.00  0.00     0.074 A 
ATOM     50  C   UNL A   1      43.075  30.728  36.984  1.00  0.00     0.029 A 
ATOM     51  N   UNL A   1      41.702  31.011  35.257  1.00  0.00    -0.354 N 
ATOM     52  N   UNL A   1      39.454  32.253  33.812  1.00  0.00    -0.248 NA
ATOM     53  C   UNL A   1      37.647  33.736  33.764  1.00  0.00     0.031 C 
ATOM     54  C   UNL A   1      42.118  31.688  37.331  1.00  0.00     0.029 A 
ATOM     55  C   UNL A   1      41.275  31.880  36.248  1.00  0.00     0.049 A 
ATOM     56  H   UNL A   1      41.284  30.917  34.371  1.00  0.00     0.167 HD
ATOM     57  C   UNL A   1      39.384  32.928  35.026  1.00  0.00     0.074 A 
ATOM     58  C   UNL A   1      38.275  33.853  34.926  1.00  0.00     0.031 C 
ATOM     59  C   UNL A   1      40.166  32.791  36.127  1.00  0.00     0.037 A 
BRANCH  46  60
ATOM     60  C   UNL A   1      44.662  28.584  35.555  1.00  0.00     0.058 A 
ATOM     61  C   UNL A   1      44.487  27.384  36.264  1.00  0.00     0.135 A 
ATOM     62  C   UNL A   1      45.969  29.077  35.417  1.00  0.00     0.135 A 
ATOM     63  F   UNL A   1      43.256  26.879  36.443  1.00  0.00    -0.206 F 
ATOM     64  C   UNL A   1      45.562  26.709  36.830  1.00  0.00     0.059 A 
ATOM     65  C   UNL A   1      47.064  28.403  35.952  1.00  0.00     0.059 A 
ATOM     66  F   UNL A   1      46.194  30.222  34.753  1.00  0.00    -0.206 F 
ATOM     67  C   UNL A   1      46.849  27.225  36.667  1.00  0.00     0.060 A 
BRANCH  67  68
ATOM     68  S   UNL A   1      48.236  26.323  37.388  1.00  0.00     0.124 S 
ATOM     69  O   UNL A   1      47.641  25.010  37.617  1.00  0.00    -0.237 OA
ATOM     70  O   UNL A   1      49.237  26.388  36.329  1.00  0.00    -0.237 OA
ATOM     71  O   UNL A   1      48.550  27.087  38.591  1.00  0.00    -0.744 OA
ENDBRANCH  67  68
ENDBRANCH  46  60
BRANCH  47  72
ATOM     72  C   UNL A   1      36.894  32.990  31.029  1.00  0.00     0.058 A 
ATOM     73  C   UNL A   1      37.049  34.018  30.085  1.00  0.00     0.135 A 
ATOM     74  C   UNL A   1      35.590  32.572  31.332  1.00  0.00     0.135 A 
ATOM     75  F   UNL A   1      38.276  34.454  29.763  1.00  0.00    -0.206 F 
ATOM     76  C   UNL A   1      35.951  34.626  29.485  1.00  0.00     0.059 A 
ATOM     77  C   UNL A   1      34.478  33.147  30.726  1.00  0.00     0.059 A 
ATOM     78  F   UNL A   1      35.390  31.578  32.212  1.00  0.00    -0.206 F 
ATOM     79  C   UNL A   1      34.669  34.184  29.814  1.00  0.00     0.060 A 
BRANCH  79  80
ATOM     80  S   UNL A   1      33.250  34.955  29.005  1.00  0.00     0.124 S 
ATOM     81  O   UNL A   1      32.372  35.216  30.138  1.00  0.00    -0.237 OA
ATOM     82  O   UNL A   1      33.852  36.129  28.379  1.00  0.00    -0.237 OA
ATOM     83  O   UNL A   1      32.796  33.925  28.075  1.00  0.00    -0.744 OA
ENDBRANCH  79  80
ENDBRANCH  47  72
BRANCH  59  84
ATOM     84  C   UNL A   1      39.853  33.678  37.299  1.00  0.00     0.058 A 
ATOM     85  C   UNL A   1      40.415  34.958  37.420  1.00  0.00     0.135 A 
ATOM     86  C   UNL A   1      38.959  33.254  38.294  1.00  0.00     0.135 A 
ATOM     87  F   UNL A   1      41.279  35.408  36.496  1.00  0.00    -0.206 F 
ATOM     88  C   UNL A   1      40.131  35.774  38.510  1.00  0.00     0.059 A 
ATOM     89  C   UNL A   1      38.639  34.064  39.379  1.00  0.00     0.059 A 
ATOM     90  F   UNL A   1      38.384  32.043  38.217  1.00  0.00    -0.206 F 
ATOM     91  C   UNL A   1      39.244  35.316  39.486  1.00  0.00     0.060 A 
BRANCH  91  92
ATOM     92  S   UNL A   1      38.873  36.387  40.890  1.00  0.00     0.124 S 
ATOM     93  O   UNL A   1      40.151  36.399  41.595  1.00  0.00    -0.237 OA
ATOM     94  O   UNL A   1      38.497  37.640  40.240  1.00  0.00    -0.237 OA
ATOM     95  O   UNL A   1      37.786  35.690  41.571  1.00  0.00    -0.744 OA
ENDBRANCH  91  92
ENDBRANCH  59  84
ENDBRANCH  33  34
ENDBRANCH  25  28
ENDBRANCH  23  24
ENDBRANCH   1  23
TORSDOF 16
ENDMDL
MODEL 2
REMARK VINA RESULT:     -10.8      3.661      5.819
REMARK SMILES C[C@H]([C@@H](C)C(=O)NCCCNC(=O)c1ccc(-c2c3nc(c(-c4c(F)cc(S(=O)(=O)[O-])cc4F)c4ccc([nH]4)c(-c4c(F)cc(S(=O)(=O)[O-])cc4F)c4nc(c(-c5c(F)cc(S(=O)(=O)[O-])cc5F)c5ccc2[nH]5)C=C4)C=C3)cc1)[NH+]1CCN(c2nccs2)CC1
REMARK SMILES IDX 9 1 8 2 7 3 5 4 6 5 3 7 4 8 2 9 1 10 80 11 81 12 90 13 82 15
REMARK SMILES IDX 89 16 83 17 84 18 85 19 88 20 86 21 87 22 10 23 11 24 12 25
REMARK SMILES IDX 13 27 14 28 15 29 79 30 16 31 78 32 17 33 18 34 19 35 72 36
REMARK SMILES IDX 20 37 77 38 71 39 73 40 21 41 76 42 70 43 69 44 22 46 56 47
REMARK SMILES IDX 35 48 55 49 36 50 39 51 54 52 74 53 37 54 38 55 53 57 75 58
REMARK SMILES IDX 40 59 23 60 24 61 33 62 25 63 26 64 32 65 34 66 27 67 28 68
REMARK SMILES IDX 29 69 30 70 31 71 57 72 58 73 67 74 59 75 60 76 66 77 68 78
REMARK SMILES IDX 61 79 62 80 63 81 64 82 65 83 41 84 42 85 51 86 43 87 44 88
REMARK SMILES IDX 50 89 52 90 45 91 46 92 47 93 48 94 49 95
REMARK H PARENT 7 6 80 14 11 26 73 45 39 56
REMARK Flexibility Score: inf
ROOT
ATOM      1  C   UNL A   1      37.643  23.215  25.761  1.00  0.00     0.042 C 
ENDROOT
BRANCH   1   2
ATOM      2  C   UNL A   1      36.181  23.640  25.691  1.00  0.00     0.117 C 
BRANCH   2   3
ATOM      3  N   UNL A   1      35.762  23.809  24.316  1.00  0.00    -0.356 N 
ATOM      4  C   UNL A   1      34.538  23.936  23.755  1.00  0.00     0.228 C 
ATOM      5  O   UNL A   1      34.489  23.872  22.522  1.00  0.00    -0.275 OA
ATOM      6  H   UNL A   1      36.504  23.836  23.670  1.00  0.00     0.163 HD
BRANCH   4   7
ATOM      7  C   UNL A   1      33.263  24.201  24.555  1.00  0.00     0.133 C 
ATOM      8  C   UNL A   1      32.163  23.200  24.194  1.00  0.00     0.024 C 
BRANCH   7   9
ATOM      9  C   UNL A   1      32.893  25.706  24.703  1.00  0.00     0.193 C 
ATOM     10  C   UNL A   1      33.705  26.478  25.755  1.00  0.00     0.076 C 
BRANCH   9  11
ATOM     11  N   UNL A   1      32.975  26.568  23.499  1.00  0.00    -0.329 N 
ATOM     12  C   UNL A   1      32.124  26.278  22.338  1.00  0.00     0.284 C 
ATOM     13  C   UNL A   1      32.948  28.016  23.783  1.00  0.00     0.284 C 
ATOM     14  H   UNL A   1      33.905  26.280  23.197  1.00  0.00     0.348 HD
ATOM     15  C   UNL A   1      30.687  26.861  22.354  1.00  0.00     0.180 C 
ATOM     16  C   UNL A   1      31.538  28.606  23.953  1.00  0.00     0.180 C 
ATOM     17  N   UNL A   1      30.678  28.242  22.827  1.00  0.00    -0.337 N 
BRANCH  17  18
ATOM     18  C   UNL A   1      29.736  29.120  22.411  1.00  0.00     0.185 A 
ATOM     19  N   UNL A   1      29.982  30.084  21.551  1.00  0.00    -0.229 NA
ATOM     20  S   UNL A   1      28.099  29.074  22.975  1.00  0.00    -0.106 S 
ATOM     21  C   UNL A   1      28.826  30.772  21.252  1.00  0.00     0.125 A 
ATOM     22  C   UNL A   1      27.711  30.395  21.962  1.00  0.00     0.088 A 
ENDBRANCH  17  18
ENDBRANCH   9  11
ENDBRANCH   7   9
ENDBRANCH   4   7
ENDBRANCH   2   3
ENDBRANCH   1   2
BRANCH   1  23
ATOM     23  C   UNL A   1      38.521  24.209  26.508  1.00  0.00     0.118 C 
BRANCH  23  24
ATOM     24  N   UNL A   1      39.912  24.135  26.080  1.00  0.00    -0.352 N 
ATOM     25  C   UNL A   1      40.974  24.934  26.413  1.00  0.00     0.251 C 
ATOM     26  H   UNL A   1      40.120  23.400  25.459  1.00  0.00     0.163 HD
ATOM     27  O   UNL A   1      42.006  24.874  25.741  1.00  0.00    -0.269 OA
BRANCH  25  28
ATOM     28  C   UNL A   1      40.884  25.864  27.556  1.00  0.00     0.039 A 
ATOM     29  C   UNL A   1      41.793  26.920  27.646  1.00  0.00     0.014 A 
ATOM     30  C   UNL A   1      39.923  25.681  28.556  1.00  0.00     0.014 A 
ATOM     31  C   UNL A   1      41.702  27.822  28.708  1.00  0.00     0.010 A 
ATOM     32  C   UNL A   1      39.774  26.631  29.561  1.00  0.00     0.010 A 
ATOM     33  C   UNL A   1      40.672  27.703  29.656  1.00  0.00    -0.014 A 
BRANCH  33  34
ATOM     34  C   UNL A   1      40.529  28.684  30.760  1.00  0.00     0.031 A 
ATOM     35  C   UNL A   1      41.386  28.565  31.993  1.00  0.00     0.074 A 
ATOM     36  C   UNL A   1      39.594  29.649  30.670  1.00  0.00     0.049 A 
ATOM     37  N   UNL A   1      41.374  29.294  33.078  1.00  0.00    -0.248 NA
ATOM     38  C   UNL A   1      42.362  27.462  32.025  1.00  0.00     0.031 C 
ATOM     39  C   UNL A   1      38.659  29.822  29.555  1.00  0.00     0.029 A 
ATOM     40  N   UNL A   1      39.266  30.663  31.533  1.00  0.00    -0.354 N 
ATOM     41  C   UNL A   1      42.330  28.737  33.920  1.00  0.00     0.074 A 
ATOM     42  C   UNL A   1      42.860  27.572  33.247  1.00  0.00     0.031 C 
ATOM     43  C   UNL A   1      37.883  30.892  29.790  1.00  0.00     0.029 A 
ATOM     44  C   UNL A   1      38.242  31.463  31.084  1.00  0.00     0.049 A 
ATOM     45  H   UNL A   1      39.723  30.805  32.395  1.00  0.00     0.167 HD
ATOM     46  C   UNL A   1      42.751  29.175  35.130  1.00  0.00     0.037 A 
ATOM     47  C   UNL A   1      37.657  32.533  31.653  1.00  0.00     0.037 A 
ATOM     48  C   UNL A   1      42.241  30.354  35.780  1.00  0.00     0.049 A 
ATOM     49  C   UNL A   1      38.162  33.016  32.984  1.00  0.00     0.074 A 
ATOM     50  C   UNL A   1      42.635  30.914  36.983  1.00  0.00     0.029 A 
ATOM     51  N   UNL A   1      41.231  31.159  35.275  1.00  0.00    -0.354 N 
ATOM     52  N   UNL A   1      39.110  32.511  33.739  1.00  0.00    -0.248 NA
ATOM     53  C   UNL A   1      37.528  34.221  33.538  1.00  0.00     0.031 C 
ATOM     54  C   UNL A   1      41.841  32.041  37.220  1.00  0.00     0.029 A 
ATOM     55  C   UNL A   1      40.980  32.206  36.147  1.00  0.00     0.049 A 
ATOM     56  H   UNL A   1      40.760  31.009  34.424  1.00  0.00     0.167 HD
ATOM     57  C   UNL A   1      39.196  33.344  34.848  1.00  0.00     0.074 A 
ATOM     58  C   UNL A   1      38.223  34.399  34.653  1.00  0.00     0.031 C 
ATOM     59  C   UNL A   1      40.005  33.245  35.933  1.00  0.00     0.037 A 
BRANCH  46  60
ATOM     60  C   UNL A   1      43.833  28.390  35.821  1.00  0.00     0.058 A 
ATOM     61  C   UNL A   1      43.527  27.330  36.691  1.00  0.00     0.135 A 
ATOM     62  C   UNL A   1      45.188  28.668  35.580  1.00  0.00     0.135 A 
ATOM     63  F   UNL A   1      42.249  27.034  36.972  1.00  0.00    -0.206 F 
ATOM     64  C   UNL A   1      44.524  26.588  37.313  1.00  0.00     0.059 A 
ATOM     65  C   UNL A   1      46.203  27.919  36.171  1.00  0.00     0.059 A 
ATOM     66  F   UNL A   1      45.538  29.671  34.760  1.00  0.00    -0.206 F 
ATOM     67  C   UNL A   1      45.861  26.889  37.045  1.00  0.00     0.060 A 
BRANCH  67  68
ATOM     68  S   UNL A   1      47.142  25.899  37.844  1.00  0.00     0.124 S 
ATOM     69  O   UNL A   1      47.377  24.863  36.842  1.00  0.00    -0.237 OA
ATOM     70  O   UNL A   1      48.221  26.866  38.020  1.00  0.00    -0.237 OA
ATOM     71  O   UNL A   1      46.504  25.446  39.075  1.00  0.00    -0.744 OA
ENDBRANCH  67  68
ENDBRANCH  46  60
BRANCH  47  72
ATOM     72  C   UNL A   1      36.544  33.232  30.958  1.00  0.00     0.058 A 
ATOM     73  C   UNL A   1      36.786  34.040  29.836  1.00  0.00     0.135 A 
ATOM     74  C   UNL A   1      35.218  33.104  31.396  1.00  0.00     0.135 A 
ATOM     75  F   UNL A   1      38.038  34.195  29.379  1.00  0.00    -0.206 F 
ATOM     76  C   UNL A   1      35.757  34.714  29.188  1.00  0.00     0.059 A 
ATOM     77  C   UNL A   1      34.168  33.749  30.750  1.00  0.00     0.059 A 
ATOM     78  F   UNL A   1      34.930  32.326  32.451  1.00  0.00    -0.206 F 
ATOM     79  C   UNL A   1      34.450  34.564  29.654  1.00  0.00     0.060 A 
BRANCH  79  80
ATOM     80  S   UNL A   1      33.114  35.416  28.788  1.00  0.00     0.124 S 
ATOM     81  O   UNL A   1      32.331  35.940  29.900  1.00  0.00    -0.237 OA
ATOM     82  O   UNL A   1      33.841  36.404  27.996  1.00  0.00    -0.237 OA
ATOM     83  O   UNL A   1      32.483  34.350  28.015  1.00  0.00    -0.744 OA
ENDBRANCH  79  80
ENDBRANCH  47  72
BRANCH  59  84
ATOM     84  C   UNL A   1      39.878  34.316  36.978  1.00  0.00     0.058 A 
ATOM     85  C   UNL A   1      39.060  34.147  38.106  1.00  0.00     0.135 A 
ATOM     86  C   UNL A   1      40.604  35.512  36.865  1.00  0.00     0.135 A 
ATOM     87  F   UNL A   1      38.342  33.024  38.258  1.00  0.00    -0.206 F 
ATOM     88  C   UNL A   1      38.938  35.143  39.068  1.00  0.00     0.059 A 
ATOM     89  C   UNL A   1      40.518  36.511  37.830  1.00  0.00     0.059 A 
ATOM     90  F   UNL A   1      41.411  35.717  35.812  1.00  0.00    -0.206 F 
ATOM     91  C   UNL A   1      39.669  36.324  38.919  1.00  0.00     0.060 A 
BRANCH  91  92
ATOM     92  S   UNL A   1      39.512  37.605  40.179  1.00  0.00     0.124 S 
ATOM     93  O   UNL A   1      38.514  38.486  39.580  1.00  0.00    -0.237 OA
ATOM     94  O   UNL A   1      39.068  36.847  41.346  1.00  0.00    -0.237 OA
ATOM     95  O   UNL A   1      40.860  38.156  40.273  1.00  0.00    -0.744 OA
ENDBRANCH  91  92
ENDBRANCH  59  84
ENDBRANCH  33  34
ENDBRANCH  25  28
ENDBRANCH  23  24
ENDBRANCH   1  23
TORSDOF 16
ENDMDL
MODEL 3
REMARK VINA RESULT:     -10.7      6.820     12.809
REMARK SMILES C[C@H]([C@@H](C)C(=O)NCCCNC(=O)c1ccc(-c2c3nc(c(-c4c(F)cc(S(=O)(=O)[O-])cc4F)c4ccc([nH]4)c(-c4c(F)cc(S(=O)(=O)[O-])cc4F)c4nc(c(-c5c(F)cc(S(=O)(=O)[O-])cc5F)c5ccc2[nH]5)C=C4)C=C3)cc1)[NH+]1CCN(c2nccs2)CC1
REMARK SMILES IDX 9 1 8 2 7 3 5 4 6 5 3 7 4 8 2 9 1 10 80 11 81 12 90 13 82 15
REMARK SMILES IDX 89 16 83 17 84 18 85 19 88 20 86 21 87 22 10 23 11 24 12 25
REMARK SMILES IDX 13 27 14 28 15 29 79 30 16 31 78 32 17 33 18 34 19 35 72 36
REMARK SMILES IDX 20 37 77 38 71 39 73 40 21 41 76 42 70 43 69 44 22 46 56 47
REMARK SMILES IDX 35 48 55 49 36 50 39 51 54 52 74 53 37 54 38 55 53 57 75 58
REMARK SMILES IDX 40 59 23 60 24 61 33 62 25 63 26 64 32 65 34 66 27 67 28 68
REMARK SMILES IDX 29 69 30 70 31 71 57 72 58 73 67 74 59 75 60 76 66 77 68 78
REMARK SMILES IDX 61 79 62 80 63 81 64 82 65 83 41 84 42 85 51 86 43 87 44 88
REMARK SMILES IDX 50 89 52 90 45 91 46 92 47 93 48 94 49 95
REMARK H PARENT 7 6 80 14 11 26 73 45 39 56
REMARK Flexibility Score: inf
ROOT
ATOM      1  C   UNL A   1      33.884  29.179  27.046  1.00  0.00     0.042 C 
ENDROOT
BRANCH   1   2
ATOM      2  C   UNL A   1      33.763  27.990  26.101  1.00  0.00     0.117 C 
BRANCH   2   3
ATOM      3  N   UNL A   1      32.908  26.970  26.668  1.00  0.00    -0.356 N 
ATOM      4  C   UNL A   1      32.328  25.874  26.126  1.00  0.00     0.228 C 
ATOM      5  O   UNL A   1      31.489  25.295  26.823  1.00  0.00    -0.275 OA
ATOM      6  H   UNL A   1      32.711  27.096  27.624  1.00  0.00     0.163 HD
BRANCH   4   7
ATOM      7  C   UNL A   1      32.697  25.313  24.754  1.00  0.00     0.133 C 
ATOM      8  C   UNL A   1      31.471  25.230  23.840  1.00  0.00     0.024 C 
BRANCH   7   9
ATOM      9  C   UNL A   1      33.690  24.114  24.791  1.00  0.00     0.193 C 
ATOM     10  C   UNL A   1      35.134  24.475  25.173  1.00  0.00     0.076 C 
BRANCH   9  11
ATOM     11  N   UNL A   1      33.371  22.969  25.678  1.00  0.00    -0.329 N 
ATOM     12  C   UNL A   1      32.193  22.138  25.398  1.00  0.00     0.284 C 
ATOM     13  C   UNL A   1      34.523  22.102  25.993  1.00  0.00     0.284 C 
ATOM     14  H   UNL A   1      33.098  23.511  26.496  1.00  0.00     0.348 HD
ATOM     15  C   UNL A   1      32.372  20.982  24.382  1.00  0.00     0.180 C 
ATOM     16  C   UNL A   1      34.825  21.031  24.931  1.00  0.00     0.180 C 
ATOM     17  N   UNL A   1      33.623  20.265  24.604  1.00  0.00    -0.337 N 
BRANCH  17  18
ATOM     18  C   UNL A   1      33.747  18.955  24.288  1.00  0.00     0.185 A 
ATOM     19  N   UNL A   1      34.766  18.216  24.670  1.00  0.00    -0.229 NA
ATOM     20  S   UNL A   1      32.574  18.107  23.335  1.00  0.00    -0.106 S 
ATOM     21  C   UNL A   1      34.591  16.908  24.273  1.00  0.00     0.125 A 
ATOM     22  C   UNL A   1      33.480  16.666  23.499  1.00  0.00     0.088 A 
ENDBRANCH  17  18
ENDBRANCH   9  11
ENDBRANCH   7   9
ENDBRANCH   4   7
ENDBRANCH   2   3
ENDBRANCH   1   2
BRANCH   1  23
ATOM     23  C   UNL A   1      35.287  29.359  27.607  1.00  0.00     0.118 C 
BRANCH  23  24
ATOM     24  N   UNL A   1      35.267  29.874  28.970  1.00  0.00    -0.352 N 
ATOM     25  C   UNL A   1      36.253  29.874  29.921  1.00  0.00     0.251 C 
ATOM     26  H   UNL A   1      34.416  30.283  29.249  1.00  0.00     0.163 HD
ATOM     27  O   UNL A   1      35.957  30.112  31.094  1.00  0.00    -0.269 OA
BRANCH  25  28
ATOM     28  C   UNL A   1      37.652  29.585  29.551  1.00  0.00     0.039 A 
ATOM     29  C   UNL A   1      38.548  29.181  30.543  1.00  0.00     0.014 A 
ATOM     30  C   UNL A   1      38.092  29.740  28.232  1.00  0.00     0.014 A 
ATOM     31  C   UNL A   1      39.868  28.880  30.201  1.00  0.00     0.010 A 
ATOM     32  C   UNL A   1      39.379  29.350  27.877  1.00  0.00     0.010 A 
ATOM     33  C   UNL A   1      40.285  28.931  28.860  1.00  0.00    -0.014 A 
BRANCH  33  34
ATOM     34  C   UNL A   1      41.669  28.562  28.473  1.00  0.00     0.031 A 
ATOM     35  C   UNL A   1      42.745  29.614  28.420  1.00  0.00     0.074 A 
ATOM     36  C   UNL A   1      41.942  27.290  28.124  1.00  0.00     0.049 A 
ATOM     37  N   UNL A   1      43.997  29.496  28.061  1.00  0.00    -0.248 NA
ATOM     38  C   UNL A   1      42.357  30.987  28.787  1.00  0.00     0.031 C 
ATOM     39  C   UNL A   1      40.965  26.199  28.072  1.00  0.00     0.029 A 
ATOM     40  N   UNL A   1      43.116  26.698  27.738  1.00  0.00    -0.354 N 
ATOM     41  C   UNL A   1      44.540  30.772  28.151  1.00  0.00     0.074 A 
ATOM     42  C   UNL A   1      43.469  31.662  28.538  1.00  0.00     0.031 C 
ATOM     43  C   UNL A   1      41.586  25.067  27.702  1.00  0.00     0.029 A 
ATOM     44  C   UNL A   1      42.996  25.357  27.461  1.00  0.00     0.049 A 
ATOM     45  H   UNL A   1      43.968  27.189  27.665  1.00  0.00     0.167 HD
ATOM     46  C   UNL A   1      45.823  31.162  27.959  1.00  0.00     0.037 A 
ATOM     47  C   UNL A   1      43.918  24.463  27.056  1.00  0.00     0.037 A 
ATOM     48  C   UNL A   1      46.891  30.264  27.604  1.00  0.00     0.049 A 
ATOM     49  C   UNL A   1      45.340  24.915  26.878  1.00  0.00     0.074 A 
ATOM     50  C   UNL A   1      48.235  30.548  27.436  1.00  0.00     0.029 A 
ATOM     51  N   UNL A   1      46.736  28.906  27.370  1.00  0.00    -0.354 N 
ATOM     52  N   UNL A   1      45.847  26.117  27.027  1.00  0.00    -0.248 NA
ATOM     53  C   UNL A   1      46.319  23.891  26.488  1.00  0.00     0.031 C 
ATOM     54  C   UNL A   1      48.888  29.366  27.070  1.00  0.00     0.029 A 
ATOM     55  C   UNL A   1      47.959  28.339  27.049  1.00  0.00     0.049 A 
ATOM     56  H   UNL A   1      45.883  28.417  27.423  1.00  0.00     0.167 HD
ATOM     57  C   UNL A   1      47.207  25.989  26.765  1.00  0.00     0.074 A 
ATOM     58  C   UNL A   1      47.445  24.591  26.473  1.00  0.00     0.031 C 
ATOM     59  C   UNL A   1      48.171  26.943  26.761  1.00  0.00     0.037 A 
BRANCH  46  60
ATOM     60  C   UNL A   1      46.148  32.618  28.154  1.00  0.00     0.058 A 
ATOM     61  C   UNL A   1      46.605  33.107  29.389  1.00  0.00     0.135 A 
ATOM     62  C   UNL A   1      46.045  33.527  27.088  1.00  0.00     0.135 A 
ATOM     63  F   UNL A   1      46.704  32.286  30.446  1.00  0.00    -0.206 F 
ATOM     64  C   UNL A   1      46.929  34.447  29.566  1.00  0.00     0.059 A 
ATOM     65  C   UNL A   1      46.390  34.868  27.237  1.00  0.00     0.059 A 
ATOM     66  F   UNL A   1      45.610  33.115  25.887  1.00  0.00    -0.206 F 
ATOM     67  C   UNL A   1      46.820  35.321  28.483  1.00  0.00     0.060 A 
BRANCH  67  68
ATOM     68  S   UNL A   1      47.267  37.053  28.726  1.00  0.00     0.124 S 
ATOM     69  O   UNL A   1      48.684  37.040  28.374  1.00  0.00    -0.237 OA
ATOM     70  O   UNL A   1      46.387  37.738  27.786  1.00  0.00    -0.237 OA
ATOM     71  O   UNL A   1      46.973  37.285  30.137  1.00  0.00    -0.744 OA
ENDBRANCH  67  68
ENDBRANCH  46  60
BRANCH  47  72
ATOM     72  C   UNL A   1      43.527  23.049  26.812  1.00  0.00     0.058 A 
ATOM     73  C   UNL A   1      43.175  22.203  27.874  1.00  0.00     0.135 A 
ATOM     74  C   UNL A   1      43.495  22.517  25.514  1.00  0.00     0.135 A 
ATOM     75  F   UNL A   1      43.193  22.665  29.134  1.00  0.00    -0.206 F 
ATOM     76  C   UNL A   1      42.828  20.873  27.662  1.00  0.00     0.059 A 
ATOM     77  C   UNL A   1      43.126  21.197  25.274  1.00  0.00     0.059 A 
ATOM     78  F   UNL A   1      43.802  23.291  24.462  1.00  0.00    -0.206 F 
ATOM     79  C   UNL A   1      42.808  20.378  26.357  1.00  0.00     0.060 A 
BRANCH  79  80
ATOM     80  S   UNL A   1      42.324  18.660  26.085  1.00  0.00     0.124 S 
ATOM     81  O   UNL A   1      40.915  18.804  25.739  1.00  0.00    -0.237 OA
ATOM     82  O   UNL A   1      43.211  18.258  24.998  1.00  0.00    -0.237 OA
ATOM     83  O   UNL A   1      42.599  18.028  27.372  1.00  0.00    -0.744 OA
ENDBRANCH  79  80
ENDBRANCH  47  72
BRANCH  59  84
ATOM     84  C   UNL A   1      49.571  26.496  26.449  1.00  0.00     0.058 A 
ATOM     85  C   UNL A   1      50.117  26.637  25.163  1.00  0.00     0.135 A 
ATOM     86  C   UNL A   1      50.385  25.948  27.452  1.00  0.00     0.135 A 
ATOM     87  F   UNL A   1      49.378  27.152  24.168  1.00  0.00    -0.206 F 
ATOM     88  C   UNL A   1      51.409  26.215  24.874  1.00  0.00     0.059 A 
ATOM     89  C   UNL A   1      51.691  25.544  27.192  1.00  0.00     0.059 A 
ATOM     90  F   UNL A   1      49.914  25.803  28.701  1.00  0.00    -0.206 F 
ATOM     91  C   UNL A   1      52.188  25.666  25.896  1.00  0.00     0.060 A 
BRANCH  91  92
ATOM     92  S   UNL A   1      53.868  25.133  25.512  1.00  0.00     0.124 S 
ATOM     93  O   UNL A   1      54.601  25.608  26.682  1.00  0.00    -0.237 OA
ATOM     94  O   UNL A   1      53.722  23.684  25.403  1.00  0.00    -0.237 OA
ATOM     95  O   UNL A   1      54.166  25.822  24.261  1.00  0.00    -0.744 OA
ENDBRANCH  91  92
ENDBRANCH  59  84
ENDBRANCH  33  34
ENDBRANCH  25  28
ENDBRANCH  23  24
ENDBRANCH   1  23
TORSDOF 16
ENDMDL
