MODEL 1
REMARK VINA RESULT:     -14.4      0.000      0.000
REMARK SMILES O=C(NCCCNC(=O)c1ccc([C@@H]2CC(O)=Nc3c2ncn3-c2cccc(Cl)c2)cc1)c1ccc(-c2c3nc(c(-c4c(F)cc(S(=O)(=O)[O-])cc4F)c4ccc([nH]4)c(-c4c(F)cc(S(=O)(=O)[O-])cc4F)c4nc(c(-c5c(F)cc(S(=O)(=O)[O-])cc5F)c5ccc2[nH]5)C=C4)C=C3)cc1
REMARK SMILES IDX 4 1 3 2 1 3 2 4 33 6 34 7 98 8 35 9 97 10 36 11 37 12 38 13
REMARK SMILES IDX 91 14 39 15 96 16 90 17 92 18 40 19 95 20 89 21 88 22 41 24
REMARK SMILES IDX 75 25 54 26 74 27 55 28 58 29 73 30 93 31 56 32 57 33 72 35
REMARK SMILES IDX 94 36 59 37 42 38 43 39 52 40 44 41 45 42 51 43 53 44 46 45
REMARK SMILES IDX 47 46 48 47 49 48 50 49 76 50 77 51 86 52 78 53 79 54 85 55
REMARK SMILES IDX 87 56 80 57 81 58 82 59 83 60 84 61 60 62 61 63 70 64 62 65
REMARK SMILES IDX 63 66 69 67 71 68 64 69 65 70 66 71 67 72 68 73 5 74 6 75
REMARK SMILES IDX 7 76 8 77 9 79 10 80 11 81 32 82 12 83 31 84 13 85 14 86
REMARK SMILES IDX 15 87 20 88 16 89 19 90 21 91 18 92 23 93 22 94 17 95 24 97
REMARK SMILES IDX 25 98 30 99 26 100 28 101 27 102 29 103
REMARK H PARENT 3 5 92 23 58 34 7 78 17 96
REMARK Flexibility Score: inf
ROOT
ATOM      1  C   UNL A   1      37.328  22.158  25.329  1.00  0.00     0.118 C 
ENDROOT
BRANCH   1   2
ATOM      2  N   UNL A   1      38.680  21.691  25.561  1.00  0.00    -0.352 N 
ATOM      3  O   UNL A   1      40.723  21.361  26.296  1.00  0.00    -0.269 OA
ATOM      4  C   UNL A   1      39.772  22.148  26.244  1.00  0.00     0.251 C 
ATOM      5  H   UNL A   1      38.857  20.832  25.114  1.00  0.00     0.163 HD
BRANCH   4   6
ATOM      6  C   UNL A   1      39.918  23.487  26.887  1.00  0.00     0.039 A 
ATOM      7  C   UNL A   1      39.060  24.576  26.730  1.00  0.00     0.014 A 
ATOM      8  C   UNL A   1      41.052  23.653  27.708  1.00  0.00     0.014 A 
ATOM      9  C   UNL A   1      39.351  25.802  27.342  1.00  0.00     0.010 A 
ATOM     10  C   UNL A   1      41.340  24.869  28.327  1.00  0.00     0.010 A 
ATOM     11  C   UNL A   1      40.499  25.958  28.128  1.00  0.00    -0.014 A 
BRANCH  11  12
ATOM     12  C   UNL A   1      40.717  27.242  28.805  1.00  0.00     0.031 A 
ATOM     13  C   UNL A   1      41.845  28.077  28.287  1.00  0.00     0.074 A 
ATOM     14  C   UNL A   1      39.890  27.784  29.724  1.00  0.00     0.049 A 
ATOM     15  N   UNL A   1      42.903  28.488  28.910  1.00  0.00    -0.248 NA
ATOM     16  C   UNL A   1      41.799  28.466  26.868  1.00  0.00     0.031 C 
ATOM     17  C   UNL A   1      38.560  27.326  30.130  1.00  0.00     0.029 A 
ATOM     18  N   UNL A   1      40.048  28.943  30.431  1.00  0.00    -0.354 N 
ATOM     19  C   UNL A   1      43.576  29.332  28.023  1.00  0.00     0.074 A 
ATOM     20  C   UNL A   1      42.909  29.196  26.753  1.00  0.00     0.031 C 
ATOM     21  C   UNL A   1      37.955  28.298  30.851  1.00  0.00     0.029 A 
ATOM     22  C   UNL A   1      38.900  29.379  31.079  1.00  0.00     0.049 A 
ATOM     23  H   UNL A   1      40.903  29.429  30.476  1.00  0.00     0.167 HD
ATOM     24  C   UNL A   1      44.539  30.210  28.426  1.00  0.00     0.037 A 
ATOM     25  C   UNL A   1      38.723  30.564  31.715  1.00  0.00     0.037 A 
ATOM     26  C   UNL A   1      45.042  29.894  29.733  1.00  0.00     0.049 A 
ATOM     27  C   UNL A   1      40.063  31.106  32.051  1.00  0.00     0.074 A 
ATOM     28  C   UNL A   1      45.678  28.804  30.297  1.00  0.00     0.029 A 
ATOM     29  N   UNL A   1      44.649  30.675  30.791  1.00  0.00    -0.354 N 
ATOM     30  N   UNL A   1      40.878  30.582  32.924  1.00  0.00    -0.248 NA
ATOM     31  C   UNL A   1      40.661  32.068  31.140  1.00  0.00     0.031 C 
ATOM     32  C   UNL A   1      45.196  28.746  31.637  1.00  0.00     0.029 A 
ATOM     33  C   UNL A   1      44.323  29.820  31.813  1.00  0.00     0.049 A 
ATOM     34  H   UNL A   1      44.608  31.659  30.812  1.00  0.00     0.167 HD
ATOM     35  C   UNL A   1      42.146  30.832  32.423  1.00  0.00     0.074 A 
ATOM     36  C   UNL A   1      41.952  31.845  31.392  1.00  0.00     0.031 C 
ATOM     37  C   UNL A   1      43.197  30.008  32.702  1.00  0.00     0.037 A 
BRANCH  24  38
ATOM     38  C   UNL A   1      44.838  31.528  27.752  1.00  0.00     0.058 A 
ATOM     39  C   UNL A   1      46.040  31.696  27.029  1.00  0.00     0.135 A 
ATOM     40  C   UNL A   1      44.118  32.714  28.018  1.00  0.00     0.135 A 
ATOM     41  F   UNL A   1      46.813  30.640  26.734  1.00  0.00    -0.206 F 
ATOM     42  C   UNL A   1      46.520  32.953  26.656  1.00  0.00     0.059 A 
ATOM     43  C   UNL A   1      44.552  33.971  27.608  1.00  0.00     0.059 A 
ATOM     44  F   UNL A   1      43.011  32.712  28.771  1.00  0.00    -0.206 F 
ATOM     45  C   UNL A   1      45.776  34.087  26.967  1.00  0.00     0.060 A 
BRANCH  45  46
ATOM     46  S   UNL A   1      46.449  35.717  26.594  1.00  0.00     0.124 S 
ATOM     47  O   UNL A   1      47.148  35.460  25.340  1.00  0.00    -0.237 OA
ATOM     48  O   UNL A   1      45.244  36.533  26.499  1.00  0.00    -0.237 OA
ATOM     49  O   UNL A   1      47.299  35.999  27.747  1.00  0.00    -0.744 OA
ENDBRANCH  45  46
ENDBRANCH  24  38
BRANCH  25  50
ATOM     50  C   UNL A   1      37.494  31.397  31.794  1.00  0.00     0.058 A 
ATOM     51  C   UNL A   1      36.879  31.679  33.027  1.00  0.00     0.135 A 
ATOM     52  C   UNL A   1      37.068  32.171  30.696  1.00  0.00     0.135 A 
ATOM     53  F   UNL A   1      37.241  31.007  34.130  1.00  0.00    -0.206 F 
ATOM     54  C   UNL A   1      35.934  32.699  33.173  1.00  0.00     0.059 A 
ATOM     55  C   UNL A   1      36.120  33.185  30.815  1.00  0.00     0.059 A 
ATOM     56  F   UNL A   1      37.633  32.025  29.488  1.00  0.00    -0.206 F 
ATOM     57  C   UNL A   1      35.576  33.462  32.062  1.00  0.00     0.060 A 
BRANCH  57  58
ATOM     58  S   UNL A   1      34.496  34.897  32.282  1.00  0.00     0.124 S 
ATOM     59  O   UNL A   1      33.369  34.317  33.004  1.00  0.00    -0.237 OA
ATOM     60  O   UNL A   1      35.343  35.807  33.044  1.00  0.00    -0.237 OA
ATOM     61  O   UNL A   1      34.212  35.318  30.912  1.00  0.00    -0.744 OA
ENDBRANCH  57  58
ENDBRANCH  25  50
BRANCH  37  62
ATOM     62  C   UNL A   1      43.062  29.018  33.828  1.00  0.00     0.058 A 
ATOM     63  C   UNL A   1      43.310  29.326  35.178  1.00  0.00     0.135 A 
ATOM     64  C   UNL A   1      42.478  27.771  33.552  1.00  0.00     0.135 A 
ATOM     65  F   UNL A   1      43.773  30.531  35.539  1.00  0.00    -0.206 F 
ATOM     66  C   UNL A   1      43.007  28.429  36.201  1.00  0.00     0.059 A 
ATOM     67  C   UNL A   1      42.136  26.873  34.562  1.00  0.00     0.059 A 
ATOM     68  F   UNL A   1      42.166  27.441  32.288  1.00  0.00    -0.206 F 
ATOM     69  C   UNL A   1      42.407  27.210  35.886  1.00  0.00     0.060 A 
BRANCH  69  70
ATOM     70  S   UNL A   1      41.880  26.129  37.235  1.00  0.00     0.124 S 
ATOM     71  O   UNL A   1      41.848  24.823  36.587  1.00  0.00    -0.237 OA
ATOM     72  O   UNL A   1      42.944  26.317  38.220  1.00  0.00    -0.237 OA
ATOM     73  O   UNL A   1      40.582  26.673  37.621  1.00  0.00    -0.744 OA
ENDBRANCH  69  70
ENDBRANCH  37  62
ENDBRANCH  11  12
ENDBRANCH   4   6
ENDBRANCH   1   2
BRANCH   1  74
ATOM     74  C   UNL A   1      36.322  21.052  25.018  1.00  0.00     0.042 C 
BRANCH  74  75
ATOM     75  C   UNL A   1      35.053  21.066  25.870  1.00  0.00     0.118 C 
BRANCH  75  76
ATOM     76  N   UNL A   1      34.078  20.055  25.486  1.00  0.00    -0.352 N 
ATOM     77  C   UNL A   1      32.854  20.196  24.870  1.00  0.00     0.251 C 
ATOM     78  H   UNL A   1      34.332  19.128  25.700  1.00  0.00     0.163 HD
ATOM     79  O   UNL A   1      32.134  19.226  24.697  1.00  0.00    -0.269 OA
BRANCH  77  80
ATOM     80  C   UNL A   1      32.393  21.537  24.445  1.00  0.00     0.039 A 
ATOM     81  C   UNL A   1      31.513  22.225  25.281  1.00  0.00     0.014 A 
ATOM     82  C   UNL A   1      32.820  22.111  23.246  1.00  0.00     0.014 A 
ATOM     83  C   UNL A   1      31.139  23.532  24.963  1.00  0.00     0.005 A 
ATOM     84  C   UNL A   1      32.455  23.423  22.935  1.00  0.00     0.005 A 
ATOM     85  C   UNL A   1      31.632  24.160  23.804  1.00  0.00    -0.038 A 
BRANCH  85  86
ATOM     86  C   UNL A   1      31.274  25.614  23.543  1.00  0.00     0.081 C 
ATOM     87  C   UNL A   1      32.008  26.210  22.325  1.00  0.00     0.111 C 
ATOM     88  C   UNL A   1      31.592  26.357  24.789  1.00  0.00     0.093 A 
ATOM     89  C   UNL A   1      33.060  27.255  22.653  1.00  0.00     0.188 C 
ATOM     90  C   UNL A   1      32.487  27.405  24.798  1.00  0.00     0.164 A 
ATOM     91  N   UNL A   1      31.101  26.096  26.038  1.00  0.00    -0.238 NA
ATOM     92  N   UNL A   1      33.260  27.856  23.779  1.00  0.00    -0.198 NA
ATOM     93  N   UNL A   1      32.543  27.826  26.118  1.00  0.00    -0.283 N 
ATOM     94  C   UNL A   1      31.723  26.960  26.819  1.00  0.00     0.206 A 
BRANCH  89  95
ATOM     95  O   UNL A   1      33.827  27.604  21.599  1.00  0.00    -0.496 OA
ATOM     96  H   UNL A   1      33.628  28.377  21.110  1.00  0.00     0.294 HD
ENDBRANCH  89  95
BRANCH  93  97
ATOM     97  C   UNL A   1      33.276  28.915  26.648  1.00  0.00     0.050 A 
ATOM     98  C   UNL A   1      32.655  30.152  26.856  1.00  0.00     0.027 A 
ATOM     99  C   UNL A   1      34.639  28.759  26.935  1.00  0.00     0.047 A 
ATOM    100  C   UNL A   1      33.390  31.215  27.385  1.00  0.00     0.004 A 
ATOM    101  C   UNL A   1      35.371  29.840  27.423  1.00  0.00     0.043 A 
ATOM    102  C   UNL A   1      34.749  31.063  27.666  1.00  0.00     0.020 A 
ATOM    103  Cl  UNL A   1      37.063  29.668  27.698  1.00  0.00    -0.084 Cl
ENDBRANCH  93  97
ENDBRANCH  85  86
ENDBRANCH  77  80
ENDBRANCH  75  76
ENDBRANCH  74  75
ENDBRANCH   1  74
TORSDOF 16
ENDMDL
MODEL 2
REMARK VINA RESULT:     -14.1      2.827      9.451
REMARK SMILES O=C(NCCCNC(=O)c1ccc([C@@H]2CC(O)=Nc3c2ncn3-c2cccc(Cl)c2)cc1)c1ccc(-c2c3nc(c(-c4c(F)cc(S(=O)(=O)[O-])cc4F)c4ccc([nH]4)c(-c4c(F)cc(S(=O)(=O)[O-])cc4F)c4nc(c(-c5c(F)cc(S(=O)(=O)[O-])cc5F)c5ccc2[nH]5)C=C4)C=C3)cc1
REMARK SMILES IDX 4 1 3 2 1 3 2 4 33 6 34 7 98 8 35 9 97 10 36 11 37 12 38 13
REMARK SMILES IDX 91 14 39 15 96 16 90 17 92 18 40 19 95 20 89 21 88 22 41 24
REMARK SMILES IDX 75 25 54 26 74 27 55 28 58 29 73 30 93 31 56 32 57 33 72 35
REMARK SMILES IDX 94 36 59 37 42 38 43 39 52 40 44 41 45 42 51 43 53 44 46 45
REMARK SMILES IDX 47 46 48 47 49 48 50 49 76 50 77 51 86 52 78 53 79 54 85 55
REMARK SMILES IDX 87 56 80 57 81 58 82 59 83 60 84 61 60 62 61 63 70 64 62 65
REMARK SMILES IDX 63 66 69 67 71 68 64 69 65 70 66 71 67 72 68 73 5 74 6 75
REMARK SMILES IDX 7 76 8 77 9 79 10 80 11 81 32 82 12 83 31 84 13 85 14 86
REMARK SMILES IDX 15 87 20 88 16 89 19 90 21 91 18 92 23 93 22 94 17 95 24 97
REMARK SMILES IDX 25 98 30 99 26 100 28 101 27 102 29 103
REMARK H PARENT 3 5 92 23 58 34 7 78 17 96
REMARK Flexibility Score: inf
ROOT
ATOM      1  C   UNL A   1      33.375  29.985  26.750  1.00  0.00     0.118 C 
ENDROOT
BRANCH   1   2
ATOM      2  N   UNL A   1      33.674  31.114  27.609  1.00  0.00    -0.352 N 
ATOM      3  O   UNL A   1      34.635  32.679  28.813  1.00  0.00    -0.269 OA
ATOM      4  C   UNL A   1      34.774  31.575  28.277  1.00  0.00     0.251 C 
ATOM      5  H   UNL A   1      32.889  31.691  27.748  1.00  0.00     0.163 HD
BRANCH   4   6
ATOM      6  C   UNL A   1      36.078  30.865  28.432  1.00  0.00     0.039 A 
ATOM      7  C   UNL A   1      36.318  29.515  28.178  1.00  0.00     0.014 A 
ATOM      8  C   UNL A   1      37.150  31.649  28.905  1.00  0.00     0.014 A 
ATOM      9  C   UNL A   1      37.578  28.959  28.428  1.00  0.00     0.010 A 
ATOM     10  C   UNL A   1      38.410  31.101  29.147  1.00  0.00     0.010 A 
ATOM     11  C   UNL A   1      38.623  29.744  28.930  1.00  0.00    -0.014 A 
BRANCH  11  12
ATOM     12  C   UNL A   1      39.944  29.129  29.105  1.00  0.00     0.031 A 
ATOM     13  C   UNL A   1      40.424  28.988  30.515  1.00  0.00     0.074 A 
ATOM     14  C   UNL A   1      40.662  28.541  28.125  1.00  0.00     0.049 A 
ATOM     15  N   UNL A   1      41.480  29.494  31.067  1.00  0.00    -0.248 NA
ATOM     16  C   UNL A   1      39.582  28.213  31.440  1.00  0.00     0.031 C 
ATOM     17  C   UNL A   1      40.249  28.245  26.752  1.00  0.00     0.029 A 
ATOM     18  N   UNL A   1      41.911  27.992  28.198  1.00  0.00    -0.354 N 
ATOM     19  C   UNL A   1      41.538  28.966  32.358  1.00  0.00     0.074 A 
ATOM     20  C   UNL A   1      40.293  28.271  32.566  1.00  0.00     0.031 C 
ATOM     21  C   UNL A   1      41.145  27.400  26.190  1.00  0.00     0.029 A 
ATOM     22  C   UNL A   1      42.259  27.211  27.104  1.00  0.00     0.049 A 
ATOM     23  H   UNL A   1      42.515  28.138  28.962  1.00  0.00     0.167 HD
ATOM     24  C   UNL A   1      42.671  28.996  33.118  1.00  0.00     0.037 A 
ATOM     25  C   UNL A   1      43.358  26.426  26.979  1.00  0.00     0.037 A 
ATOM     26  C   UNL A   1      43.627  29.946  32.623  1.00  0.00     0.049 A 
ATOM     27  C   UNL A   1      44.373  26.905  27.951  1.00  0.00     0.074 A 
ATOM     28  C   UNL A   1      43.626  31.312  32.413  1.00  0.00     0.029 A 
ATOM     29  N   UNL A   1      44.732  29.475  31.959  1.00  0.00    -0.354 N 
ATOM     30  N   UNL A   1      44.991  28.051  27.874  1.00  0.00    -0.248 NA
ATOM     31  C   UNL A   1      44.457  26.236  29.239  1.00  0.00     0.031 C 
ATOM     32  C   UNL A   1      44.424  31.510  31.249  1.00  0.00     0.029 A 
ATOM     33  C   UNL A   1      44.885  30.257  30.842  1.00  0.00     0.049 A 
ATOM     34  H   UNL A   1      45.304  28.721  32.232  1.00  0.00     0.167 HD
ATOM     35  C   UNL A   1      45.192  28.435  29.191  1.00  0.00     0.074 A 
ATOM     36  C   UNL A   1      44.949  27.232  29.978  1.00  0.00     0.031 C 
ATOM     37  C   UNL A   1      45.274  29.751  29.544  1.00  0.00     0.037 A 
BRANCH  24  38
ATOM     38  C   UNL A   1      43.036  27.964  34.159  1.00  0.00     0.058 A 
ATOM     39  C   UNL A   1      43.243  28.356  35.500  1.00  0.00     0.135 A 
ATOM     40  C   UNL A   1      43.457  26.655  33.837  1.00  0.00     0.135 A 
ATOM     41  F   UNL A   1      42.897  29.584  35.915  1.00  0.00    -0.206 F 
ATOM     42  C   UNL A   1      43.877  27.531  36.432  1.00  0.00     0.059 A 
ATOM     43  C   UNL A   1      44.042  25.798  34.764  1.00  0.00     0.059 A 
ATOM     44  F   UNL A   1      43.405  26.187  32.583  1.00  0.00    -0.206 F 
ATOM     45  C   UNL A   1      44.289  26.259  36.047  1.00  0.00     0.060 A 
BRANCH  45  46
ATOM     46  S   UNL A   1      45.214  25.239  37.210  1.00  0.00     0.124 S 
ATOM     47  O   UNL A   1      45.144  23.932  36.566  1.00  0.00    -0.237 OA
ATOM     48  O   UNL A   1      46.524  25.883  37.210  1.00  0.00    -0.237 OA
ATOM     49  O   UNL A   1      44.458  25.375  38.451  1.00  0.00    -0.744 OA
ENDBRANCH  45  46
ENDBRANCH  24  38
BRANCH  25  50
ATOM     50  C   UNL A   1      43.486  25.117  26.287  1.00  0.00     0.058 A 
ATOM     51  C   UNL A   1      44.385  24.938  25.220  1.00  0.00     0.135 A 
ATOM     52  C   UNL A   1      42.944  23.942  26.845  1.00  0.00     0.135 A 
ATOM     53  F   UNL A   1      44.968  26.000  24.643  1.00  0.00    -0.206 F 
ATOM     54  C   UNL A   1      44.762  23.670  24.766  1.00  0.00     0.059 A 
ATOM     55  C   UNL A   1      43.296  22.669  26.403  1.00  0.00     0.059 A 
ATOM     56  F   UNL A   1      42.125  23.997  27.907  1.00  0.00    -0.206 F 
ATOM     57  C   UNL A   1      44.226  22.538  25.380  1.00  0.00     0.060 A 
BRANCH  57  58
ATOM     58  S   UNL A   1      44.846  20.902  24.922  1.00  0.00     0.124 S 
ATOM     59  O   UNL A   1      43.886  20.022  25.580  1.00  0.00    -0.237 OA
ATOM     60  O   UNL A   1      44.781  20.943  23.466  1.00  0.00    -0.237 OA
ATOM     61  O   UNL A   1      46.196  20.884  25.481  1.00  0.00    -0.744 OA
ENDBRANCH  57  58
ENDBRANCH  25  50
BRANCH  37  62
ATOM     62  C   UNL A   1      45.490  30.778  28.464  1.00  0.00     0.058 A 
ATOM     63  C   UNL A   1      44.461  31.299  27.659  1.00  0.00     0.135 A 
ATOM     64  C   UNL A   1      46.749  31.393  28.372  1.00  0.00     0.135 A 
ATOM     65  F   UNL A   1      43.206  30.837  27.756  1.00  0.00    -0.206 F 
ATOM     66  C   UNL A   1      44.679  32.369  26.792  1.00  0.00     0.059 A 
ATOM     67  C   UNL A   1      46.981  32.485  27.537  1.00  0.00     0.059 A 
ATOM     68  F   UNL A   1      47.758  30.978  29.155  1.00  0.00    -0.206 F 
ATOM     69  C   UNL A   1      45.939  32.966  26.747  1.00  0.00     0.060 A 
BRANCH  69  70
ATOM     70  S   UNL A   1      46.161  34.446  25.736  1.00  0.00     0.124 S 
ATOM     71  O   UNL A   1      45.230  34.211  24.638  1.00  0.00    -0.237 OA
ATOM     72  O   UNL A   1      45.787  35.516  26.659  1.00  0.00    -0.237 OA
ATOM     73  O   UNL A   1      47.576  34.407  25.380  1.00  0.00    -0.744 OA
ENDBRANCH  69  70
ENDBRANCH  37  62
ENDBRANCH  11  12
ENDBRANCH   4   6
ENDBRANCH   1   2
BRANCH   1  74
ATOM     74  C   UNL A   1      32.055  30.100  25.992  1.00  0.00     0.042 C 
BRANCH  74  75
ATOM     75  C   UNL A   1      32.042  29.456  24.606  1.00  0.00     0.118 C 
BRANCH  75  76
ATOM     76  N   UNL A   1      30.733  29.467  23.967  1.00  0.00    -0.352 N 
ATOM     77  C   UNL A   1      29.911  28.418  23.617  1.00  0.00     0.251 C 
ATOM     78  H   UNL A   1      30.381  30.361  23.753  1.00  0.00     0.163 HD
ATOM     79  O   UNL A   1      28.872  28.623  23.011  1.00  0.00    -0.269 OA
BRANCH  77  80
ATOM     80  C   UNL A   1      30.307  27.030  23.945  1.00  0.00     0.039 A 
ATOM     81  C   UNL A   1      30.587  26.160  22.890  1.00  0.00     0.014 A 
ATOM     82  C   UNL A   1      30.406  26.591  25.266  1.00  0.00     0.014 A 
ATOM     83  C   UNL A   1      31.062  24.876  23.164  1.00  0.00     0.005 A 
ATOM     84  C   UNL A   1      30.893  25.311  25.538  1.00  0.00     0.005 A 
ATOM     85  C   UNL A   1      31.254  24.446  24.490  1.00  0.00    -0.038 A 
BRANCH  85  86
ATOM     86  C   UNL A   1      31.861  23.075  24.742  1.00  0.00     0.081 C 
ATOM     87  C   UNL A   1      31.593  22.546  26.165  1.00  0.00     0.111 C 
ATOM     88  C   UNL A   1      33.316  23.202  24.472  1.00  0.00     0.093 A 
ATOM     89  C   UNL A   1      32.811  22.479  27.070  1.00  0.00     0.188 C 
ATOM     90  C   UNL A   1      34.258  22.920  25.437  1.00  0.00     0.164 A 
ATOM     91  N   UNL A   1      33.892  23.629  23.308  1.00  0.00    -0.238 NA
ATOM     92  N   UNL A   1      34.055  22.598  26.738  1.00  0.00    -0.198 NA
ATOM     93  N   UNL A   1      35.482  23.171  24.836  1.00  0.00    -0.283 N 
ATOM     94  C   UNL A   1      35.185  23.645  23.571  1.00  0.00     0.206 A 
BRANCH  89  95
ATOM     95  O   UNL A   1      32.517  22.216  28.360  1.00  0.00    -0.496 OA
ATOM     96  H   UNL A   1      32.561  21.337  28.680  1.00  0.00     0.294 HD
ENDBRANCH  89  95
BRANCH  93  97
ATOM     97  C   UNL A   1      36.772  22.979  25.388  1.00  0.00     0.050 A 
ATOM     98  C   UNL A   1      37.463  21.781  25.174  1.00  0.00     0.027 A 
ATOM     99  C   UNL A   1      37.343  23.985  26.179  1.00  0.00     0.047 A 
ATOM    100  C   UNL A   1      38.737  21.610  25.721  1.00  0.00     0.004 A 
ATOM    101  C   UNL A   1      38.597  23.784  26.754  1.00  0.00     0.043 A 
ATOM    102  C   UNL A   1      39.305  22.609  26.514  1.00  0.00     0.020 A 
ATOM    103  Cl  UNL A   1      39.260  24.990  27.791  1.00  0.00    -0.084 Cl
ENDBRANCH  93  97
ENDBRANCH  85  86
ENDBRANCH  77  80
ENDBRANCH  75  76
ENDBRANCH  74  75
ENDBRANCH   1  74
TORSDOF 16
ENDMDL
MODEL 3
REMARK VINA RESULT:     -13.9      3.150      9.786
REMARK SMILES O=C(NCCCNC(=O)c1ccc([C@@H]2CC(O)=Nc3c2ncn3-c2cccc(Cl)c2)cc1)c1ccc(-c2c3nc(c(-c4c(F)cc(S(=O)(=O)[O-])cc4F)c4ccc([nH]4)c(-c4c(F)cc(S(=O)(=O)[O-])cc4F)c4nc(c(-c5c(F)cc(S(=O)(=O)[O-])cc5F)c5ccc2[nH]5)C=C4)C=C3)cc1
REMARK SMILES IDX 4 1 3 2 1 3 2 4 33 6 34 7 98 8 35 9 97 10 36 11 37 12 38 13
REMARK SMILES IDX 91 14 39 15 96 16 90 17 92 18 40 19 95 20 89 21 88 22 41 24
REMARK SMILES IDX 75 25 54 26 74 27 55 28 58 29 73 30 93 31 56 32 57 33 72 35
REMARK SMILES IDX 94 36 59 37 42 38 43 39 52 40 44 41 45 42 51 43 53 44 46 45
REMARK SMILES IDX 47 46 48 47 49 48 50 49 76 50 77 51 86 52 78 53 79 54 85 55
REMARK SMILES IDX 87 56 80 57 81 58 82 59 83 60 84 61 60 62 61 63 70 64 62 65
REMARK SMILES IDX 63 66 69 67 71 68 64 69 65 70 66 71 67 72 68 73 5 74 6 75
REMARK SMILES IDX 7 76 8 77 9 79 10 80 11 81 32 82 12 83 31 84 13 85 14 86
REMARK SMILES IDX 15 87 20 88 16 89 19 90 21 91 18 92 23 93 22 94 17 95 24 97
REMARK SMILES IDX 25 98 30 99 26 100 28 101 27 102 29 103
REMARK H PARENT 3 5 92 23 58 34 7 78 17 96
REMARK Flexibility Score: inf
ROOT
ATOM      1  C   UNL A   1      33.300  30.129  27.244  1.00  0.00     0.118 C 
ENDROOT
BRANCH   1   2
ATOM      2  N   UNL A   1      33.779  31.428  27.672  1.00  0.00    -0.352 N 
ATOM      3  O   UNL A   1      34.984  33.187  28.196  1.00  0.00    -0.269 OA
ATOM      4  C   UNL A   1      34.991  31.967  28.002  1.00  0.00     0.251 C 
ATOM      5  H   UNL A   1      33.050  32.086  27.744  1.00  0.00     0.163 HD
BRANCH   4   6
ATOM      6  C   UNL A   1      36.274  31.224  28.171  1.00  0.00     0.039 A 
ATOM      7  C   UNL A   1      36.541  29.927  27.731  1.00  0.00     0.014 A 
ATOM      8  C   UNL A   1      37.292  31.909  28.865  1.00  0.00     0.014 A 
ATOM      9  C   UNL A   1      37.771  29.322  28.015  1.00  0.00     0.010 A 
ATOM     10  C   UNL A   1      38.522  31.313  29.141  1.00  0.00     0.010 A 
ATOM     11  C   UNL A   1      38.760  30.004  28.735  1.00  0.00    -0.014 A 
BRANCH  11  12
ATOM     12  C   UNL A   1      40.057  29.350  28.940  1.00  0.00     0.031 A 
ATOM     13  C   UNL A   1      40.497  29.190  30.361  1.00  0.00     0.074 A 
ATOM     14  C   UNL A   1      40.783  28.746  27.975  1.00  0.00     0.049 A 
ATOM     15  N   UNL A   1      41.553  29.664  30.942  1.00  0.00    -0.248 NA
ATOM     16  C   UNL A   1      39.611  28.436  31.261  1.00  0.00     0.031 C 
ATOM     17  C   UNL A   1      40.397  28.468  26.591  1.00  0.00     0.029 A 
ATOM     18  N   UNL A   1      42.014  28.162  28.077  1.00  0.00    -0.354 N 
ATOM     19  C   UNL A   1      41.564  29.129  32.232  1.00  0.00     0.074 A 
ATOM     20  C   UNL A   1      40.295  28.469  32.405  1.00  0.00     0.031 C 
ATOM     21  C   UNL A   1      41.282  27.600  26.047  1.00  0.00     0.029 A 
ATOM     22  C   UNL A   1      42.367  27.376  26.989  1.00  0.00     0.049 A 
ATOM     23  H   UNL A   1      42.602  28.288  28.857  1.00  0.00     0.167 HD
ATOM     24  C   UNL A   1      42.677  29.123  33.020  1.00  0.00     0.037 A 
ATOM     25  C   UNL A   1      43.446  26.561  26.888  1.00  0.00     0.037 A 
ATOM     26  C   UNL A   1      43.672  30.048  32.553  1.00  0.00     0.049 A 
ATOM     27  C   UNL A   1      44.449  27.006  27.887  1.00  0.00     0.074 A 
ATOM     28  C   UNL A   1      43.715  31.414  32.351  1.00  0.00     0.029 A 
ATOM     29  N   UNL A   1      44.780  29.548  31.915  1.00  0.00    -0.354 N 
ATOM     30  N   UNL A   1      45.101  28.135  27.831  1.00  0.00    -0.248 NA
ATOM     31  C   UNL A   1      44.482  26.331  29.173  1.00  0.00     0.031 C 
ATOM     32  C   UNL A   1      44.548  31.594  31.208  1.00  0.00     0.029 A 
ATOM     33  C   UNL A   1      44.982  30.330  30.806  1.00  0.00     0.049 A 
ATOM     34  H   UNL A   1      45.323  28.778  32.198  1.00  0.00     0.167 HD
ATOM     35  C   UNL A   1      45.279  28.508  29.154  1.00  0.00     0.074 A 
ATOM     36  C   UNL A   1      44.983  27.309  29.929  1.00  0.00     0.031 C 
ATOM     37  C   UNL A   1      45.390  29.820  29.516  1.00  0.00     0.037 A 
BRANCH  24  38
ATOM     38  C   UNL A   1      42.986  28.077  34.065  1.00  0.00     0.058 A 
ATOM     39  C   UNL A   1      43.122  28.451  35.420  1.00  0.00     0.135 A 
ATOM     40  C   UNL A   1      43.424  26.773  33.747  1.00  0.00     0.135 A 
ATOM     41  F   UNL A   1      42.754  29.674  35.832  1.00  0.00    -0.206 F 
ATOM     42  C   UNL A   1      43.705  27.613  36.373  1.00  0.00     0.059 A 
ATOM     43  C   UNL A   1      43.959  25.903  34.692  1.00  0.00     0.059 A 
ATOM     44  F   UNL A   1      43.439  26.322  32.487  1.00  0.00    -0.206 F 
ATOM     45  C   UNL A   1      44.137  26.346  35.993  1.00  0.00     0.060 A 
BRANCH  45  46
ATOM     46  S   UNL A   1      45.000  25.310  37.190  1.00  0.00     0.124 S 
ATOM     47  O   UNL A   1      46.393  25.610  36.880  1.00  0.00    -0.237 OA
ATOM     48  O   UNL A   1      44.502  25.828  38.460  1.00  0.00    -0.237 OA
ATOM     49  O   UNL A   1      44.551  23.963  36.851  1.00  0.00    -0.744 OA
ENDBRANCH  45  46
ENDBRANCH  24  38
BRANCH  25  50
ATOM     50  C   UNL A   1      43.555  25.252  26.192  1.00  0.00     0.058 A 
ATOM     51  C   UNL A   1      44.580  24.999  25.263  1.00  0.00     0.135 A 
ATOM     52  C   UNL A   1      42.832  24.128  26.641  1.00  0.00     0.135 A 
ATOM     53  F   UNL A   1      45.335  26.007  24.800  1.00  0.00    -0.206 F 
ATOM     54  C   UNL A   1      44.902  23.705  24.841  1.00  0.00     0.059 A 
ATOM     55  C   UNL A   1      43.127  22.831  26.226  1.00  0.00     0.059 A 
ATOM     56  F   UNL A   1      41.875  24.250  27.573  1.00  0.00    -0.206 F 
ATOM     57  C   UNL A   1      44.182  22.623  25.346  1.00  0.00     0.060 A 
BRANCH  57  58
ATOM     58  S   UNL A   1      44.711  20.940  24.947  1.00  0.00     0.124 S 
ATOM     59  O   UNL A   1      43.780  20.138  25.733  1.00  0.00    -0.237 OA
ATOM     60  O   UNL A   1      44.528  20.894  23.500  1.00  0.00    -0.237 OA
ATOM     61  O   UNL A   1      46.100  20.907  25.397  1.00  0.00    -0.744 OA
ENDBRANCH  57  58
ENDBRANCH  25  50
BRANCH  37  62
ATOM     62  C   UNL A   1      45.662  30.844  28.446  1.00  0.00     0.058 A 
ATOM     63  C   UNL A   1      44.673  31.376  27.600  1.00  0.00     0.135 A 
ATOM     64  C   UNL A   1      46.931  31.445  28.407  1.00  0.00     0.135 A 
ATOM     65  F   UNL A   1      43.411  30.929  27.644  1.00  0.00    -0.206 F 
ATOM     66  C   UNL A   1      44.940  32.444  26.743  1.00  0.00     0.059 A 
ATOM     67  C   UNL A   1      47.209  32.535  27.584  1.00  0.00     0.059 A 
ATOM     68  F   UNL A   1      47.901  31.018  29.232  1.00  0.00    -0.206 F 
ATOM     69  C   UNL A   1      46.207  33.028  26.752  1.00  0.00     0.060 A 
BRANCH  69  70
ATOM     70  S   UNL A   1      46.487  34.506  25.752  1.00  0.00     0.124 S 
ATOM     71  O   UNL A   1      47.888  34.361  25.375  1.00  0.00    -0.237 OA
ATOM     72  O   UNL A   1      45.522  34.337  24.666  1.00  0.00    -0.237 OA
ATOM     73  O   UNL A   1      46.192  35.600  26.672  1.00  0.00    -0.744 OA
ENDBRANCH  69  70
ENDBRANCH  37  62
ENDBRANCH  11  12
ENDBRANCH   4   6
ENDBRANCH   1   2
BRANCH   1  74
ATOM     74  C   UNL A   1      32.841  30.072  25.789  1.00  0.00     0.042 C 
BRANCH  74  75
ATOM     75  C   UNL A   1      31.331  30.173  25.577  1.00  0.00     0.118 C 
BRANCH  75  76
ATOM     76  N   UNL A   1      30.913  29.915  24.206  1.00  0.00    -0.352 N 
ATOM     77  C   UNL A   1      31.082  28.792  23.426  1.00  0.00     0.251 C 
ATOM     78  H   UNL A   1      30.435  30.657  23.769  1.00  0.00     0.163 HD
ATOM     79  O   UNL A   1      30.727  28.791  22.259  1.00  0.00    -0.269 OA
BRANCH  77  80
ATOM     80  C   UNL A   1      31.732  27.590  23.996  1.00  0.00     0.039 A 
ATOM     81  C   UNL A   1      32.943  27.172  23.441  1.00  0.00     0.014 A 
ATOM     82  C   UNL A   1      31.164  26.888  25.060  1.00  0.00     0.014 A 
ATOM     83  C   UNL A   1      33.634  26.106  24.019  1.00  0.00     0.005 A 
ATOM     84  C   UNL A   1      31.863  25.829  25.645  1.00  0.00     0.005 A 
ATOM     85  C   UNL A   1      33.120  25.442  25.149  1.00  0.00    -0.038 A 
BRANCH  85  86
ATOM     86  C   UNL A   1      33.948  24.348  25.803  1.00  0.00     0.081 C 
ATOM     87  C   UNL A   1      35.411  24.322  25.317  1.00  0.00     0.111 C 
ATOM     88  C   UNL A   1      33.255  23.066  25.517  1.00  0.00     0.093 A 
ATOM     89  C   UNL A   1      35.785  23.126  24.459  1.00  0.00     0.188 C 
ATOM     90  C   UNL A   1      33.882  22.040  24.844  1.00  0.00     0.164 A 
ATOM     91  N   UNL A   1      31.961  22.755  25.827  1.00  0.00    -0.238 NA
ATOM     92  N   UNL A   1      35.111  22.039  24.272  1.00  0.00    -0.198 NA
ATOM     93  N   UNL A   1      32.931  21.035  24.744  1.00  0.00    -0.283 N 
ATOM     94  C   UNL A   1      31.781  21.553  25.312  1.00  0.00     0.206 A 
BRANCH  89  95
ATOM     95  O   UNL A   1      36.998  23.232  23.877  1.00  0.00    -0.496 OA
ATOM     96  H   UNL A   1      37.503  22.463  23.702  1.00  0.00     0.294 HD
ENDBRANCH  89  95
BRANCH  93  97
ATOM     97  C   UNL A   1      33.094  19.743  24.188  1.00  0.00     0.050 A 
ATOM     98  C   UNL A   1      32.350  19.355  23.068  1.00  0.00     0.027 A 
ATOM     99  C   UNL A   1      33.984  18.839  24.785  1.00  0.00     0.047 A 
ATOM    100  C   UNL A   1      32.528  18.079  22.527  1.00  0.00     0.004 A 
ATOM    101  C   UNL A   1      34.120  17.554  24.260  1.00  0.00     0.043 A 
ATOM    102  C   UNL A   1      33.409  17.176  23.124  1.00  0.00     0.020 A 
ATOM    103  Cl  UNL A   1      35.153  16.421  25.044  1.00  0.00    -0.084 Cl
ENDBRANCH  93  97
ENDBRANCH  85  86
ENDBRANCH  77  80
ENDBRANCH  75  76
ENDBRANCH  74  75
ENDBRANCH   1  74
TORSDOF 16
ENDMDL
