MODEL 1
REMARK VINA RESULT:     -12.5      0.000      0.000
REMARK SMILES CCC[N@@H+]1CC2(CCN(C(=O)Cn3nnnc3C)CC2)C[C@H]1C(=O)NCCCNC(=O)c1ccc(-c2c3nc(c(-c4c(F)cc(S(=O)(=O)[O-])cc4F)c4ccc([nH]4)c(-c4c(F)cc(S(=O)(=O)[O-])cc4F)c4nc(c(-c5c(F)cc(S(=O)(=O)[O-])cc5F)c5ccc2[nH]5)C=C4)C=C3)cc1
REMARK SMILES IDX 27 1 26 2 25 3 23 4 24 5 22 7 4 8 5 9 6 11 21 12 7 13 20 14
REMARK SMILES IDX 8 15 19 16 9 17 10 18 11 19 3 20 2 21 1 22 12 23 13 24 14 25
REMARK SMILES IDX 17 26 15 27 16 28 18 29 28 30 29 31 30 32 31 34 32 35 33 36
REMARK SMILES IDX 97 37 34 38 96 39 35 40 36 41 37 42 90 43 38 44 95 45 89 46
REMARK SMILES IDX 91 47 39 48 94 49 88 50 87 51 40 53 74 54 53 55 73 56 54 57
REMARK SMILES IDX 57 58 72 59 92 60 55 61 56 62 71 64 93 65 58 66 41 67 42 68
REMARK SMILES IDX 51 69 43 70 44 71 50 72 52 73 45 74 46 75 47 76 48 77 49 78
REMARK SMILES IDX 75 79 76 80 85 81 77 82 78 83 84 84 86 85 79 86 80 87 81 88
REMARK SMILES IDX 82 89 83 90 59 91 60 92 69 93 61 94 62 95 68 96 70 97 63 98
REMARK SMILES IDX 64 99 65 100 66 101 67 102
REMARK H PARENT 25 6 4 10 29 33 91 52 57 63
REMARK Flexibility Score: inf
ROOT
ATOM      1  C   UNL A   1      38.232  24.026  25.998  1.00  0.00     0.042 C 
ENDROOT
BRANCH   1   2
ATOM      2  C   UNL A   1      36.835  23.400  26.028  1.00  0.00     0.118 C 
BRANCH   2   3
ATOM      3  N   UNL A   1      36.779  21.959  25.913  1.00  0.00    -0.351 N 
ATOM      4  C   UNL A   1      35.969  21.125  25.201  1.00  0.00     0.278 C 
ATOM      5  O   UNL A   1      36.384  19.962  25.082  1.00  0.00    -0.268 OA
ATOM      6  H   UNL A   1      37.455  21.491  26.454  1.00  0.00     0.163 HD
BRANCH   4   7
ATOM      7  C   UNL A   1      34.608  21.494  24.542  1.00  0.00     0.274 C 
ATOM      8  N   UNL A   1      33.577  21.853  25.543  1.00  0.00    -0.324 N 
ATOM      9  C   UNL A   1      33.382  23.292  25.426  1.00  0.00     0.270 C 
ATOM     10  H   UNL A   1      33.845  21.663  26.510  1.00  0.00     0.348 HD
ATOM     11  C   UNL A   1      33.755  23.754  24.007  1.00  0.00     0.029 C 
ATOM     12  C   UNL A   1      34.550  22.559  23.444  1.00  0.00     0.088 C 
ATOM     13  C   UNL A   1      34.620  25.029  23.880  1.00  0.00     0.034 C 
ATOM     14  C   UNL A   1      32.450  24.118  23.258  1.00  0.00     0.034 C 
ATOM     15  C   UNL A   1      34.014  26.198  24.621  1.00  0.00     0.120 C 
ATOM     16  C   UNL A   1      31.788  25.392  23.848  1.00  0.00     0.120 C 
ATOM     17  N   UNL A   1      32.713  26.519  24.047  1.00  0.00    -0.341 N 
ATOM     18  C   UNL A   1      32.251  27.817  23.876  1.00  0.00     0.244 C 
ATOM     19  O   UNL A   1      31.114  28.045  23.452  1.00  0.00    -0.273 OA
BRANCH   8  20
ATOM     20  C   UNL A   1      32.381  21.014  25.343  1.00  0.00     0.262 C 
BRANCH  20  21
ATOM     21  C   UNL A   1      32.622  19.532  25.014  1.00  0.00     0.058 C 
ATOM     22  C   UNL A   1      32.371  19.185  23.552  1.00  0.00     0.010 C 
ENDBRANCH  20  21
ENDBRANCH   8  20
BRANCH  18  23
ATOM     23  C   UNL A   1      33.169  28.984  24.184  1.00  0.00     0.248 C 
BRANCH  23  24
ATOM     24  N   UNL A   1      32.880  29.641  25.439  1.00  0.00    -0.220 N 
ATOM     25  N   UNL A   1      31.721  30.310  25.571  1.00  0.00    -0.044 NA
ATOM     26  C   UNL A   1      33.579  29.704  26.614  1.00  0.00     0.148 A 
ATOM     27  N   UNL A   1      31.731  30.794  26.803  1.00  0.00    -0.024 NA
ATOM     28  N   UNL A   1      32.877  30.431  27.459  1.00  0.00    -0.114 NA
ATOM     29  C   UNL A   1      34.893  29.090  26.892  1.00  0.00     0.091 C 
ENDBRANCH  23  24
ENDBRANCH  18  23
ENDBRANCH   4   7
ENDBRANCH   2   3
ENDBRANCH   1   2
BRANCH   1  30
ATOM     30  C   UNL A   1      39.173  23.497  27.064  1.00  0.00     0.118 C 
BRANCH  30  31
ATOM     31  N   UNL A   1      40.264  22.686  26.503  1.00  0.00    -0.352 N 
ATOM     32  C   UNL A   1      41.499  23.122  26.033  1.00  0.00     0.251 C 
ATOM     33  H   UNL A   1      40.101  21.716  26.454  1.00  0.00     0.163 HD
ATOM     34  O   UNL A   1      42.196  22.444  25.321  1.00  0.00    -0.269 OA
BRANCH  32  35
ATOM     35  C   UNL A   1      41.908  24.476  26.445  1.00  0.00     0.039 A 
ATOM     36  C   UNL A   1      41.538  25.591  25.694  1.00  0.00     0.014 A 
ATOM     37  C   UNL A   1      42.432  24.593  27.725  1.00  0.00     0.014 A 
ATOM     38  C   UNL A   1      41.575  26.842  26.305  1.00  0.00     0.010 A 
ATOM     39  C   UNL A   1      42.281  25.793  28.371  1.00  0.00     0.010 A 
ATOM     40  C   UNL A   1      41.894  26.937  27.669  1.00  0.00    -0.014 A 
BRANCH  40  41
ATOM     41  C   UNL A   1      41.726  28.198  28.395  1.00  0.00     0.031 A 
ATOM     42  C   UNL A   1      42.759  29.256  28.172  1.00  0.00     0.074 A 
ATOM     43  C   UNL A   1      40.607  28.509  29.085  1.00  0.00     0.049 A 
ATOM     44  N   UNL A   1      43.627  29.700  29.021  1.00  0.00    -0.248 NA
ATOM     45  C   UNL A   1      42.900  29.840  26.829  1.00  0.00     0.031 C 
ATOM     46  C   UNL A   1      39.353  27.754  29.203  1.00  0.00     0.029 A 
ATOM     47  N   UNL A   1      40.321  29.661  29.749  1.00  0.00    -0.354 N 
ATOM     48  C   UNL A   1      44.288  30.757  28.398  1.00  0.00     0.074 A 
ATOM     49  C   UNL A   1      43.910  30.696  27.008  1.00  0.00     0.031 C 
ATOM     50  C   UNL A   1      38.378  28.564  29.661  1.00  0.00     0.029 A 
ATOM     51  C   UNL A   1      38.981  29.815  30.067  1.00  0.00     0.049 A 
ATOM     52  H   UNL A   1      41.006  30.328  29.983  1.00  0.00     0.167 HD
ATOM     53  C   UNL A   1      44.940  31.723  29.111  1.00  0.00     0.037 A 
ATOM     54  C   UNL A   1      38.394  30.896  30.631  1.00  0.00     0.037 A 
ATOM     55  C   UNL A   1      45.108  31.338  30.490  1.00  0.00     0.049 A 
ATOM     56  C   UNL A   1      39.461  31.628  31.358  1.00  0.00     0.074 A 
ATOM     57  C   UNL A   1      45.715  30.279  31.139  1.00  0.00     0.029 A 
ATOM     58  N   UNL A   1      44.274  31.908  31.422  1.00  0.00    -0.354 N 
ATOM     59  N   UNL A   1      40.091  31.149  32.397  1.00  0.00    -0.248 NA
ATOM     60  C   UNL A   1      40.136  32.719  30.673  1.00  0.00     0.031 C 
ATOM     61  C   UNL A   1      44.844  29.966  32.224  1.00  0.00     0.029 A 
ATOM     62  C   UNL A   1      43.796  30.889  32.207  1.00  0.00     0.049 A 
ATOM     63  H   UNL A   1      44.060  32.865  31.511  1.00  0.00     0.167 HD
ATOM     64  C   UNL A   1      41.406  31.565  32.240  1.00  0.00     0.074 A 
ATOM     65  C   UNL A   1      41.345  32.620  31.230  1.00  0.00     0.031 C 
ATOM     66  C   UNL A   1      42.449  30.834  32.737  1.00  0.00     0.037 A 
BRANCH  53  67
ATOM     67  C   UNL A   1      45.144  33.150  28.657  1.00  0.00     0.058 A 
ATOM     68  C   UNL A   1      46.445  33.698  28.626  1.00  0.00     0.135 A 
ATOM     69  C   UNL A   1      44.090  34.077  28.516  1.00  0.00     0.135 A 
ATOM     70  F   UNL A   1      47.522  32.910  28.768  1.00  0.00    -0.206 F 
ATOM     71  C   UNL A   1      46.676  35.072  28.525  1.00  0.00     0.059 A 
ATOM     72  C   UNL A   1      44.300  35.444  28.358  1.00  0.00     0.059 A 
ATOM     73  F   UNL A   1      42.806  33.711  28.624  1.00  0.00    -0.206 F 
ATOM     74  C   UNL A   1      45.594  35.938  28.409  1.00  0.00     0.060 A 
BRANCH  74  75
ATOM     75  S   UNL A   1      45.881  37.718  28.392  1.00  0.00     0.124 S 
ATOM     76  O   UNL A   1      47.274  37.790  28.819  1.00  0.00    -0.237 OA
ATOM     77  O   UNL A   1      45.621  38.058  26.997  1.00  0.00    -0.237 OA
ATOM     78  O   UNL A   1      44.899  38.223  29.347  1.00  0.00    -0.744 OA
ENDBRANCH  74  75
ENDBRANCH  53  67
BRANCH  54  79
ATOM     79  C   UNL A   1      37.067  31.468  30.299  1.00  0.00     0.058 A 
ATOM     80  C   UNL A   1      36.234  31.975  31.309  1.00  0.00     0.135 A 
ATOM     81  C   UNL A   1      36.708  31.791  28.972  1.00  0.00     0.135 A 
ATOM     82  F   UNL A   1      36.506  31.722  32.597  1.00  0.00    -0.206 F 
ATOM     83  C   UNL A   1      35.155  32.817  31.028  1.00  0.00     0.059 A 
ATOM     84  C   UNL A   1      35.628  32.615  28.666  1.00  0.00     0.059 A 
ATOM     85  F   UNL A   1      37.456  31.394  27.931  1.00  0.00    -0.206 F 
ATOM     86  C   UNL A   1      34.878  33.154  29.703  1.00  0.00     0.060 A 
BRANCH  86  87
ATOM     87  S   UNL A   1      33.633  34.417  29.353  1.00  0.00     0.124 S 
ATOM     88  O   UNL A   1      32.666  33.673  28.554  1.00  0.00    -0.237 OA
ATOM     89  O   UNL A   1      33.196  34.796  30.693  1.00  0.00    -0.237 OA
ATOM     90  O   UNL A   1      34.383  35.442  28.634  1.00  0.00    -0.744 OA
ENDBRANCH  86  87
ENDBRANCH  54  79
BRANCH  66  91
ATOM     91  C   UNL A   1      42.149  29.730  33.722  1.00  0.00     0.058 A 
ATOM     92  C   UNL A   1      41.845  28.404  33.365  1.00  0.00     0.135 A 
ATOM     93  C   UNL A   1      42.315  29.995  35.090  1.00  0.00     0.135 A 
ATOM     94  F   UNL A   1      41.778  28.031  32.081  1.00  0.00    -0.206 F 
ATOM     95  C   UNL A   1      41.663  27.403  34.322  1.00  0.00     0.059 A 
ATOM     96  C   UNL A   1      42.171  29.006  36.062  1.00  0.00     0.059 A 
ATOM     97  F   UNL A   1      42.672  31.225  35.499  1.00  0.00    -0.206 F 
ATOM     98  C   UNL A   1      41.826  27.714  35.671  1.00  0.00     0.060 A 
BRANCH  98  99
ATOM     99  S   UNL A   1      41.650  26.405  36.902  1.00  0.00     0.124 S 
ATOM    100  O   UNL A   1      40.400  26.769  37.560  1.00  0.00    -0.237 OA
ATOM    101  O   UNL A   1      41.606  25.198  36.082  1.00  0.00    -0.237 OA
ATOM    102  O   UNL A   1      42.851  26.544  37.723  1.00  0.00    -0.744 OA
ENDBRANCH  98  99
ENDBRANCH  66  91
ENDBRANCH  40  41
ENDBRANCH  32  35
ENDBRANCH  30  31
ENDBRANCH   1  30
TORSDOF 17
ENDMDL
MODEL 2
REMARK VINA RESULT:     -12.2      1.817      2.466
REMARK SMILES CCC[N@@H+]1CC2(CCN(C(=O)Cn3nnnc3C)CC2)C[C@H]1C(=O)NCCCNC(=O)c1ccc(-c2c3nc(c(-c4c(F)cc(S(=O)(=O)[O-])cc4F)c4ccc([nH]4)c(-c4c(F)cc(S(=O)(=O)[O-])cc4F)c4nc(c(-c5c(F)cc(S(=O)(=O)[O-])cc5F)c5ccc2[nH]5)C=C4)C=C3)cc1
REMARK SMILES IDX 27 1 26 2 25 3 23 4 24 5 22 7 4 8 5 9 6 11 21 12 7 13 20 14
REMARK SMILES IDX 8 15 19 16 9 17 10 18 11 19 3 20 2 21 1 22 12 23 13 24 14 25
REMARK SMILES IDX 17 26 15 27 16 28 18 29 28 30 29 31 30 32 31 34 32 35 33 36
REMARK SMILES IDX 97 37 34 38 96 39 35 40 36 41 37 42 90 43 38 44 95 45 89 46
REMARK SMILES IDX 91 47 39 48 94 49 88 50 87 51 40 53 74 54 53 55 73 56 54 57
REMARK SMILES IDX 57 58 72 59 92 60 55 61 56 62 71 64 93 65 58 66 41 67 42 68
REMARK SMILES IDX 51 69 43 70 44 71 50 72 52 73 45 74 46 75 47 76 48 77 49 78
REMARK SMILES IDX 75 79 76 80 85 81 77 82 78 83 84 84 86 85 79 86 80 87 81 88
REMARK SMILES IDX 82 89 83 90 59 91 60 92 69 93 61 94 62 95 68 96 70 97 63 98
REMARK SMILES IDX 64 99 65 100 66 101 67 102
REMARK H PARENT 25 6 4 10 29 33 91 52 57 63
REMARK Flexibility Score: inf
ROOT
ATOM      1  C   UNL A   1      39.398  19.647  25.638  1.00  0.00     0.042 C 
ENDROOT
BRANCH   1   2
ATOM      2  C   UNL A   1      38.135  20.298  25.066  1.00  0.00     0.118 C 
BRANCH   2   3
ATOM      3  N   UNL A   1      38.091  21.743  25.101  1.00  0.00    -0.351 N 
ATOM      4  C   UNL A   1      37.058  22.629  25.180  1.00  0.00     0.278 C 
ATOM      5  O   UNL A   1      37.377  23.783  25.503  1.00  0.00    -0.268 OA
ATOM      6  H   UNL A   1      38.978  22.169  25.059  1.00  0.00     0.163 HD
BRANCH   4   7
ATOM      7  C   UNL A   1      35.555  22.327  24.909  1.00  0.00     0.274 C 
ATOM      8  N   UNL A   1      34.722  22.486  26.124  1.00  0.00    -0.324 N 
ATOM      9  C   UNL A   1      33.936  23.695  25.921  1.00  0.00     0.270 C 
ATOM     10  H   UNL A   1      35.255  22.614  26.985  1.00  0.00     0.348 HD
ATOM     11  C   UNL A   1      33.756  23.953  24.415  1.00  0.00     0.029 C 
ATOM     12  C   UNL A   1      34.821  23.043  23.772  1.00  0.00     0.088 C 
ATOM     13  C   UNL A   1      33.972  25.400  23.913  1.00  0.00     0.034 C 
ATOM     14  C   UNL A   1      32.284  23.650  24.044  1.00  0.00     0.034 C 
ATOM     15  C   UNL A   1      33.125  26.393  24.674  1.00  0.00     0.120 C 
ATOM     16  C   UNL A   1      31.312  24.687  24.667  1.00  0.00     0.120 C 
ATOM     17  N   UNL A   1      31.714  26.088  24.472  1.00  0.00    -0.341 N 
ATOM     18  C   UNL A   1      30.736  27.061  24.309  1.00  0.00     0.244 C 
ATOM     19  O   UNL A   1      29.542  26.763  24.213  1.00  0.00    -0.273 OA
BRANCH   8  20
ATOM     20  C   UNL A   1      33.963  21.246  26.367  1.00  0.00     0.262 C 
BRANCH  20  21
ATOM     21  C   UNL A   1      33.828  20.273  25.185  1.00  0.00     0.058 C 
ATOM     22  C   UNL A   1      32.943  19.070  25.486  1.00  0.00     0.010 C 
ENDBRANCH  20  21
ENDBRANCH   8  20
BRANCH  18  23
ATOM     23  C   UNL A   1      31.141  28.519  24.217  1.00  0.00     0.248 C 
BRANCH  23  24
ATOM     24  N   UNL A   1      30.368  29.282  23.263  1.00  0.00    -0.220 N 
ATOM     25  N   UNL A   1      30.163  28.772  22.036  1.00  0.00    -0.044 NA
ATOM     26  C   UNL A   1      29.734  30.490  23.367  1.00  0.00     0.148 A 
ATOM     27  N   UNL A   1      29.434  29.674  21.397  1.00  0.00    -0.024 NA
ATOM     28  N   UNL A   1      29.165  30.745  22.206  1.00  0.00    -0.114 NA
ATOM     29  C   UNL A   1      29.700  31.370  24.552  1.00  0.00     0.091 C 
ENDBRANCH  23  24
ENDBRANCH  18  23
ENDBRANCH   4   7
ENDBRANCH   2   3
ENDBRANCH   1   2
BRANCH   1  30
ATOM     30  C   UNL A   1      40.264  20.584  26.457  1.00  0.00     0.118 C 
BRANCH  30  31
ATOM     31  N   UNL A   1      41.554  20.873  25.810  1.00  0.00    -0.352 N 
ATOM     32  C   UNL A   1      42.230  22.088  25.757  1.00  0.00     0.251 C 
ATOM     33  H   UNL A   1      41.991  20.114  25.360  1.00  0.00     0.163 HD
ATOM     34  O   UNL A   1      43.108  22.304  24.961  1.00  0.00    -0.269 OA
BRANCH  32  35
ATOM     35  C   UNL A   1      41.802  23.111  26.727  1.00  0.00     0.039 A 
ATOM     36  C   UNL A   1      42.465  23.259  27.945  1.00  0.00     0.014 A 
ATOM     37  C   UNL A   1      40.906  24.061  26.258  1.00  0.00     0.014 A 
ATOM     38  C   UNL A   1      42.319  24.459  28.636  1.00  0.00     0.010 A 
ATOM     39  C   UNL A   1      40.923  25.301  26.845  1.00  0.00     0.010 A 
ATOM     40  C   UNL A   1      41.589  25.508  28.055  1.00  0.00    -0.014 A 
BRANCH  40  41
ATOM     41  C   UNL A   1      41.600  26.849  28.644  1.00  0.00     0.031 A 
ATOM     42  C   UNL A   1      42.737  27.747  28.274  1.00  0.00     0.074 A 
ATOM     43  C   UNL A   1      40.555  27.363  29.329  1.00  0.00     0.049 A 
ATOM     44  N   UNL A   1      43.687  28.170  29.044  1.00  0.00    -0.248 NA
ATOM     45  C   UNL A   1      42.887  28.165  26.872  1.00  0.00     0.031 C 
ATOM     46  C   UNL A   1      39.228  26.780  29.567  1.00  0.00     0.029 A 
ATOM     47  N   UNL A   1      40.433  28.604  29.871  1.00  0.00    -0.354 N 
ATOM     48  C   UNL A   1      44.439  29.069  28.289  1.00  0.00     0.074 A 
ATOM     49  C   UNL A   1      43.996  28.907  26.926  1.00  0.00     0.031 C 
ATOM     50  C   UNL A   1      38.374  27.744  29.963  1.00  0.00     0.029 A 
ATOM     51  C   UNL A   1      39.135  28.950  30.211  1.00  0.00     0.049 A 
ATOM     52  H   UNL A   1      41.200  29.205  30.009  1.00  0.00     0.167 HD
ATOM     53  C   UNL A   1      45.228  30.020  28.872  1.00  0.00     0.037 A 
ATOM     54  C   UNL A   1      38.702  30.146  30.671  1.00  0.00     0.037 A 
ATOM     55  C   UNL A   1      45.410  29.764  30.279  1.00  0.00     0.049 A 
ATOM     56  C   UNL A   1      39.877  30.818  31.280  1.00  0.00     0.074 A 
ATOM     57  C   UNL A   1      45.917  28.715  31.020  1.00  0.00     0.029 A 
ATOM     58  N   UNL A   1      44.688  30.525  31.168  1.00  0.00    -0.354 N 
ATOM     59  N   UNL A   1      40.492  30.379  32.346  1.00  0.00    -0.248 NA
ATOM     60  C   UNL A   1      40.643  31.742  30.461  1.00  0.00     0.031 C 
ATOM     61  C   UNL A   1      45.063  28.623  32.159  1.00  0.00     0.029 A 
ATOM     62  C   UNL A   1      44.129  29.658  32.074  1.00  0.00     0.049 A 
ATOM     63  H   UNL A   1      44.590  31.505  31.157  1.00  0.00     0.167 HD
ATOM     64  C   UNL A   1      41.837  30.615  32.104  1.00  0.00     0.074 A 
ATOM     65  C   UNL A   1      41.856  31.558  30.988  1.00  0.00     0.031 C 
ATOM     66  C   UNL A   1      42.809  29.821  32.646  1.00  0.00     0.037 A 
BRANCH  53  67
ATOM     67  C   UNL A   1      45.576  31.356  28.258  1.00  0.00     0.058 A 
ATOM     68  C   UNL A   1      44.545  32.238  27.865  1.00  0.00     0.135 A 
ATOM     69  C   UNL A   1      46.867  31.684  27.793  1.00  0.00     0.135 A 
ATOM     70  F   UNL A   1      43.275  32.014  28.237  1.00  0.00    -0.206 F 
ATOM     71  C   UNL A   1      44.773  33.328  27.022  1.00  0.00     0.059 A 
ATOM     72  C   UNL A   1      47.126  32.797  26.998  1.00  0.00     0.059 A 
ATOM     73  F   UNL A   1      47.920  30.885  28.007  1.00  0.00    -0.206 F 
ATOM     74  C   UNL A   1      46.067  33.588  26.580  1.00  0.00     0.060 A 
BRANCH  74  75
ATOM     75  S   UNL A   1      46.349  34.924  25.403  1.00  0.00     0.124 S 
ATOM     76  O   UNL A   1      47.757  34.727  25.074  1.00  0.00    -0.237 OA
ATOM     77  O   UNL A   1      45.395  34.608  24.345  1.00  0.00    -0.237 OA
ATOM     78  O   UNL A   1      46.042  36.122  26.177  1.00  0.00    -0.744 OA
ENDBRANCH  74  75
ENDBRANCH  53  67
BRANCH  54  79
ATOM     79  C   UNL A   1      37.437  30.836  30.318  1.00  0.00     0.058 A 
ATOM     80  C   UNL A   1      36.672  31.475  31.307  1.00  0.00     0.135 A 
ATOM     81  C   UNL A   1      37.099  31.128  28.979  1.00  0.00     0.135 A 
ATOM     82  F   UNL A   1      36.930  31.257  32.605  1.00  0.00    -0.206 F 
ATOM     83  C   UNL A   1      35.682  32.408  30.991  1.00  0.00     0.059 A 
ATOM     84  C   UNL A   1      36.106  32.044  28.640  1.00  0.00     0.059 A 
ATOM     85  F   UNL A   1      37.791  30.606  27.955  1.00  0.00    -0.206 F 
ATOM     86  C   UNL A   1      35.426  32.707  29.652  1.00  0.00     0.060 A 
BRANCH  86  87
ATOM     87  S   UNL A   1      34.313  34.072  29.248  1.00  0.00     0.124 S 
ATOM     88  O   UNL A   1      33.689  34.344  30.537  1.00  0.00    -0.237 OA
ATOM     89  O   UNL A   1      35.239  35.089  28.760  1.00  0.00    -0.237 OA
ATOM     90  O   UNL A   1      33.431  33.500  28.234  1.00  0.00    -0.744 OA
ENDBRANCH  86  87
ENDBRANCH  54  79
BRANCH  66  91
ATOM     91  C   UNL A   1      42.427  28.871  33.756  1.00  0.00     0.058 A 
ATOM     92  C   UNL A   1      41.907  27.579  33.555  1.00  0.00     0.135 A 
ATOM     93  C   UNL A   1      42.730  29.233  35.077  1.00  0.00     0.135 A 
ATOM     94  F   UNL A   1      41.693  27.105  32.322  1.00  0.00    -0.206 F 
ATOM     95  C   UNL A   1      41.654  26.710  34.618  1.00  0.00     0.059 A 
ATOM     96  C   UNL A   1      42.516  28.370  36.152  1.00  0.00     0.059 A 
ATOM     97  F   UNL A   1      43.290  30.427  35.336  1.00  0.00    -0.206 F 
ATOM     98  C   UNL A   1      41.960  27.116  35.916  1.00  0.00     0.060 A 
BRANCH  98  99
ATOM     99  S   UNL A   1      41.687  25.967  37.282  1.00  0.00     0.124 S 
ATOM    100  O   UNL A   1      41.852  24.672  36.632  1.00  0.00    -0.237 OA
ATOM    101  O   UNL A   1      42.737  26.339  38.227  1.00  0.00    -0.237 OA
ATOM    102  O   UNL A   1      40.329  26.276  37.722  1.00  0.00    -0.744 OA
ENDBRANCH  98  99
ENDBRANCH  66  91
ENDBRANCH  40  41
ENDBRANCH  32  35
ENDBRANCH  30  31
ENDBRANCH   1  30
TORSDOF 17
ENDMDL
MODEL 3
REMARK VINA RESULT:     -12.0      2.842      9.608
REMARK SMILES CCC[N@@H+]1CC2(CCN(C(=O)Cn3nnnc3C)CC2)C[C@H]1C(=O)NCCCNC(=O)c1ccc(-c2c3nc(c(-c4c(F)cc(S(=O)(=O)[O-])cc4F)c4ccc([nH]4)c(-c4c(F)cc(S(=O)(=O)[O-])cc4F)c4nc(c(-c5c(F)cc(S(=O)(=O)[O-])cc5F)c5ccc2[nH]5)C=C4)C=C3)cc1
REMARK SMILES IDX 27 1 26 2 25 3 23 4 24 5 22 7 4 8 5 9 6 11 21 12 7 13 20 14
REMARK SMILES IDX 8 15 19 16 9 17 10 18 11 19 3 20 2 21 1 22 12 23 13 24 14 25
REMARK SMILES IDX 17 26 15 27 16 28 18 29 28 30 29 31 30 32 31 34 32 35 33 36
REMARK SMILES IDX 97 37 34 38 96 39 35 40 36 41 37 42 90 43 38 44 95 45 89 46
REMARK SMILES IDX 91 47 39 48 94 49 88 50 87 51 40 53 74 54 53 55 73 56 54 57
REMARK SMILES IDX 57 58 72 59 92 60 55 61 56 62 71 64 93 65 58 66 41 67 42 68
REMARK SMILES IDX 51 69 43 70 44 71 50 72 52 73 45 74 46 75 47 76 48 77 49 78
REMARK SMILES IDX 75 79 76 80 85 81 77 82 78 83 84 84 86 85 79 86 80 87 81 88
REMARK SMILES IDX 82 89 83 90 59 91 60 92 69 93 61 94 62 95 68 96 70 97 63 98
REMARK SMILES IDX 64 99 65 100 66 101 67 102
REMARK H PARENT 25 6 4 10 29 33 91 52 57 63
REMARK Flexibility Score: inf
ROOT
ATOM      1  C   UNL A   1      32.536  31.843  27.146  1.00  0.00     0.042 C 
ENDROOT
BRANCH   1   2
ATOM      2  C   UNL A   1      32.156  30.552  26.414  1.00  0.00     0.118 C 
BRANCH   2   3
ATOM      3  N   UNL A   1      31.751  29.442  27.248  1.00  0.00    -0.351 N 
ATOM      4  C   UNL A   1      31.457  28.141  26.966  1.00  0.00     0.278 C 
ATOM      5  O   UNL A   1      31.448  27.379  27.944  1.00  0.00    -0.268 OA
ATOM      6  H   UNL A   1      31.670  29.670  28.202  1.00  0.00     0.163 HD
BRANCH   4   7
ATOM      7  C   UNL A   1      31.143  27.544  25.563  1.00  0.00     0.274 C 
ATOM      8  N   UNL A   1      32.365  27.349  24.748  1.00  0.00    -0.324 N 
ATOM      9  C   UNL A   1      32.588  25.911  24.689  1.00  0.00     0.270 C 
ATOM     10  H   UNL A   1      33.206  27.768  25.146  1.00  0.00     0.348 HD
ATOM     11  C   UNL A   1      31.253  25.169  24.876  1.00  0.00     0.029 C 
ATOM     12  C   UNL A   1      30.320  26.258  25.443  1.00  0.00     0.088 C 
ATOM     13  C   UNL A   1      31.244  23.959  25.839  1.00  0.00     0.034 C 
ATOM     14  C   UNL A   1      30.842  24.560  23.514  1.00  0.00     0.034 C 
ATOM     15  C   UNL A   1      32.309  22.948  25.484  1.00  0.00     0.120 C 
ATOM     16  C   UNL A   1      31.794  23.409  23.092  1.00  0.00     0.120 C 
ATOM     17  N   UNL A   1      32.056  22.420  24.149  1.00  0.00    -0.341 N 
ATOM     18  C   UNL A   1      32.245  21.088  23.803  1.00  0.00     0.244 C 
ATOM     19  O   UNL A   1      32.089  20.695  22.643  1.00  0.00    -0.273 OA
BRANCH   8  20
ATOM     20  C   UNL A   1      32.210  28.041  23.455  1.00  0.00     0.262 C 
BRANCH  20  21
ATOM     21  C   UNL A   1      30.981  28.950  23.298  1.00  0.00     0.058 C 
ATOM     22  C   UNL A   1      29.847  28.307  22.508  1.00  0.00     0.010 C 
ENDBRANCH  20  21
ENDBRANCH   8  20
BRANCH  18  23
ATOM     23  C   UNL A   1      32.623  20.084  24.875  1.00  0.00     0.248 C 
BRANCH  23  24
ATOM     24  N   UNL A   1      33.993  19.633  24.799  1.00  0.00    -0.220 N 
ATOM     25  N   UNL A   1      34.981  20.502  25.079  1.00  0.00    -0.044 NA
ATOM     26  C   UNL A   1      34.532  18.409  24.506  1.00  0.00     0.148 A 
ATOM     27  N   UNL A   1      36.105  19.819  24.932  1.00  0.00    -0.024 NA
ATOM     28  N   UNL A   1      35.843  18.523  24.573  1.00  0.00    -0.114 NA
ATOM     29  C   UNL A   1      33.792  17.181  24.157  1.00  0.00     0.091 C 
ENDBRANCH  23  24
ENDBRANCH  18  23
ENDBRANCH   4   7
ENDBRANCH   2   3
ENDBRANCH   1   2
BRANCH   1  30
ATOM     30  C   UNL A   1      33.953  31.855  27.689  1.00  0.00     0.118 C 
BRANCH  30  31
ATOM     31  N   UNL A   1      34.021  32.322  29.082  1.00  0.00    -0.352 N 
ATOM     32  C   UNL A   1      34.955  31.978  30.054  1.00  0.00     0.251 C 
ATOM     33  H   UNL A   1      33.319  32.955  29.361  1.00  0.00     0.163 HD
ATOM     34  O   UNL A   1      34.762  32.161  31.229  1.00  0.00    -0.269 OA
BRANCH  32  35
ATOM     35  C   UNL A   1      36.200  31.360  29.566  1.00  0.00     0.039 A 
ATOM     36  C   UNL A   1      37.321  32.143  29.290  1.00  0.00     0.014 A 
ATOM     37  C   UNL A   1      36.272  29.977  29.654  1.00  0.00     0.014 A 
ATOM     38  C   UNL A   1      38.565  31.519  29.236  1.00  0.00     0.010 A 
ATOM     39  C   UNL A   1      37.513  29.409  29.790  1.00  0.00     0.010 A 
ATOM     40  C   UNL A   1      38.669  30.153  29.544  1.00  0.00    -0.014 A 
BRANCH  40  41
ATOM     41  C   UNL A   1      39.977  29.517  29.716  1.00  0.00     0.031 A 
ATOM     42  C   UNL A   1      40.402  29.197  31.114  1.00  0.00     0.074 A 
ATOM     43  C   UNL A   1      40.708  29.042  28.684  1.00  0.00     0.049 A 
ATOM     44  N   UNL A   1      41.365  29.739  31.787  1.00  0.00    -0.248 NA
ATOM     45  C   UNL A   1      39.624  28.218  31.888  1.00  0.00     0.031 C 
ATOM     46  C   UNL A   1      40.364  28.982  27.258  1.00  0.00     0.029 A 
ATOM     47  N   UNL A   1      41.902  28.392  28.727  1.00  0.00    -0.354 N 
ATOM     48  C   UNL A   1      41.454  29.037  32.988  1.00  0.00     0.074 A 
ATOM     49  C   UNL A   1      40.267  28.223  33.059  1.00  0.00     0.031 C 
ATOM     50  C   UNL A   1      41.187  28.117  26.630  1.00  0.00     0.029 A 
ATOM     51  C   UNL A   1      42.235  27.737  27.552  1.00  0.00     0.049 A 
ATOM     52  H   UNL A   1      42.480  28.387  29.525  1.00  0.00     0.167 HD
ATOM     53  C   UNL A   1      42.596  29.030  33.738  1.00  0.00     0.037 A 
ATOM     54  C   UNL A   1      43.302  26.934  27.339  1.00  0.00     0.037 A 
ATOM     55  C   UNL A   1      43.520  30.047  33.301  1.00  0.00     0.049 A 
ATOM     56  C   UNL A   1      44.329  27.315  28.341  1.00  0.00     0.074 A 
ATOM     57  C   UNL A   1      43.467  31.422  33.175  1.00  0.00     0.029 A 
ATOM     58  N   UNL A   1      44.601  29.652  32.550  1.00  0.00    -0.354 N 
ATOM     59  N   UNL A   1      44.925  28.477  28.362  1.00  0.00    -0.248 NA
ATOM     60  C   UNL A   1      44.387  26.567  29.586  1.00  0.00     0.031 C 
ATOM     61  C   UNL A   1      44.176  31.707  31.970  1.00  0.00     0.029 A 
ATOM     62  C   UNL A   1      44.669  30.499  31.472  1.00  0.00     0.049 A 
ATOM     63  H   UNL A   1      45.210  28.904  32.745  1.00  0.00     0.167 HD
ATOM     64  C   UNL A   1      45.046  28.791  29.708  1.00  0.00     0.074 A 
ATOM     65  C   UNL A   1      44.806  27.532  30.408  1.00  0.00     0.031 C 
ATOM     66  C   UNL A   1      45.058  30.089  30.138  1.00  0.00     0.037 A 
BRANCH  53  67
ATOM     67  C   UNL A   1      43.027  27.909  34.654  1.00  0.00     0.058 A 
ATOM     68  C   UNL A   1      43.243  28.165  36.026  1.00  0.00     0.135 A 
ATOM     69  C   UNL A   1      43.500  26.664  34.187  1.00  0.00     0.135 A 
ATOM     70  F   UNL A   1      42.848  29.326  36.574  1.00  0.00    -0.206 F 
ATOM     71  C   UNL A   1      43.932  27.277  36.855  1.00  0.00     0.059 A 
ATOM     72  C   UNL A   1      44.140  25.740  35.008  1.00  0.00     0.059 A 
ATOM     73  F   UNL A   1      43.451  26.330  32.891  1.00  0.00    -0.206 F 
ATOM     74  C   UNL A   1      44.391  26.073  36.330  1.00  0.00     0.060 A 
BRANCH  74  75
ATOM     75  S   UNL A   1      45.378  24.975  37.365  1.00  0.00     0.124 S 
ATOM     76  O   UNL A   1      45.025  23.669  36.819  1.00  0.00    -0.237 OA
ATOM     77  O   UNL A   1      46.735  25.436  37.095  1.00  0.00    -0.237 OA
ATOM     78  O   UNL A   1      44.885  25.252  38.711  1.00  0.00    -0.744 OA
ENDBRANCH  74  75
ENDBRANCH  53  67
BRANCH  54  79
ATOM     79  C   UNL A   1      43.333  25.679  26.549  1.00  0.00     0.058 A 
ATOM     80  C   UNL A   1      44.198  25.547  25.452  1.00  0.00     0.135 A 
ATOM     81  C   UNL A   1      42.732  24.491  27.018  1.00  0.00     0.135 A 
ATOM     82  F   UNL A   1      44.816  26.625  24.946  1.00  0.00    -0.206 F 
ATOM     83  C   UNL A   1      44.512  24.302  24.899  1.00  0.00     0.059 A 
ATOM     84  C   UNL A   1      43.018  23.241  26.474  1.00  0.00     0.059 A 
ATOM     85  F   UNL A   1      41.921  24.494  28.087  1.00  0.00    -0.206 F 
ATOM     86  C   UNL A   1      43.937  23.151  25.438  1.00  0.00     0.060 A 
BRANCH  86  87
ATOM     87  S   UNL A   1      44.512  21.531  24.879  1.00  0.00     0.124 S 
ATOM     88  O   UNL A   1      44.593  21.721  23.436  1.00  0.00    -0.237 OA
ATOM     89  O   UNL A   1      45.786  21.400  25.579  1.00  0.00    -0.237 OA
ATOM     90  O   UNL A   1      43.461  20.624  25.333  1.00  0.00    -0.744 OA
ENDBRANCH  86  87
ENDBRANCH  54  79
BRANCH  66  91
ATOM     91  C   UNL A   1      45.246  31.185  29.117  1.00  0.00     0.058 A 
ATOM     92  C   UNL A   1      46.493  31.601  28.616  1.00  0.00     0.135 A 
ATOM     93  C   UNL A   1      44.106  31.740  28.518  1.00  0.00     0.135 A 
ATOM     94  F   UNL A   1      47.632  31.045  29.046  1.00  0.00    -0.206 F 
ATOM     95  C   UNL A   1      46.602  32.560  27.606  1.00  0.00     0.059 A 
ATOM     96  C   UNL A   1      44.189  32.675  27.486  1.00  0.00     0.059 A 
ATOM     97  F   UNL A   1      42.882  31.340  28.901  1.00  0.00    -0.206 F 
ATOM     98  C   UNL A   1      45.442  33.094  27.048  1.00  0.00     0.060 A 
BRANCH  98  99
ATOM     99  S   UNL A   1      45.585  34.289  25.701  1.00  0.00     0.124 S 
ATOM    100  O   UNL A   1      47.024  34.308  25.460  1.00  0.00    -0.237 OA
ATOM    101  O   UNL A   1      44.775  33.683  24.648  1.00  0.00    -0.237 OA
ATOM    102  O   UNL A   1      45.031  35.514  26.272  1.00  0.00    -0.744 OA
ENDBRANCH  98  99
ENDBRANCH  66  91
ENDBRANCH  40  41
ENDBRANCH  32  35
ENDBRANCH  30  31
ENDBRANCH   1  30
TORSDOF 17
ENDMDL
