MODEL 1
REMARK VINA RESULT:      -9.2      0.000      0.000
REMARK SMILES COC(=O)[C@@H]1CCN(C(=O)NC(=O)COCC(=O)NCCCNC(=O)c2ccc(-c3c4nc(c(-c5c(F)cc(S(=O)(=O)[O-])cc5F)c5ccc([nH]5)c(-c5c(F)cc(S(=O)(=O)[O-])cc5F)c5nc(c(-c6c(F)cc(S(=O)(=O)[O-])cc6F)c6ccc3[nH]6)C=C5)C=C4)cc2)C1
REMARK SMILES IDX 17 1 18 2 19 3 16 5 15 6 14 7 12 8 9 9 10 10 11 11 13 13
REMARK SMILES IDX 8 14 5 15 6 16 92 17 7 18 3 19 4 20 2 21 1 22 20 23 21 24
REMARK SMILES IDX 22 25 23 26 24 27 25 29 26 30 27 31 91 32 28 33 90 34 29 35
REMARK SMILES IDX 30 36 31 37 84 38 32 39 89 40 83 41 85 42 33 43 88 44 82 45
REMARK SMILES IDX 81 46 34 48 68 49 47 50 67 51 48 52 51 53 66 54 86 55 49 56
REMARK SMILES IDX 50 57 65 59 87 60 52 61 35 62 36 63 45 64 37 65 38 66 44 67
REMARK SMILES IDX 46 68 39 69 40 70 41 71 42 72 43 73 69 74 70 75 79 76 71 77
REMARK SMILES IDX 72 78 78 79 80 80 73 81 74 82 75 83 76 84 77 85 53 86 54 87
REMARK SMILES IDX 63 88 55 89 56 90 62 91 64 92 57 93 58 94 59 95 60 96 61 97
REMARK H PARENT 19 4 11 12 23 28 85 47 51 58
REMARK Flexibility Score: inf
ROOT
ATOM      1  C   UNL A   1      33.766  37.583  32.484  1.00  0.00     0.246 C 
ATOM      2  O   UNL A   1      34.049  38.706  32.903  1.00  0.00    -0.272 OA
ATOM      3  N   UNL A   1      33.431  37.429  31.167  1.00  0.00    -0.354 N 
ATOM      4  H   UNL A   1      33.400  38.254  30.631  1.00  0.00     0.163 HD
ENDROOT
BRANCH   1   5
ATOM      5  C   UNL A   1      33.772  36.359  33.402  1.00  0.00     0.260 C 
BRANCH   5   6
ATOM      6  O   UNL A   1      35.058  35.756  33.478  1.00  0.00    -0.362 OA
BRANCH   6   7
ATOM      7  C   UNL A   1      35.070  34.607  34.307  1.00  0.00     0.261 C 
BRANCH   7   8
ATOM      8  C   UNL A   1      35.123  33.282  33.556  1.00  0.00     0.254 C 
ATOM      9  C   UNL A   1      37.331  32.350  34.437  1.00  0.00     0.324 C 
ATOM     10  O   UNL A   1      37.563  31.254  34.951  1.00  0.00    -0.248 OA
ATOM     11  N   UNL A   1      36.224  32.452  33.632  1.00  0.00    -0.276 N 
ATOM     12  H   UNL A   1      36.211  31.760  32.933  1.00  0.00     0.174 HD
ATOM     13  O   UNL A   1      34.166  32.915  32.865  1.00  0.00    -0.272 OA
BRANCH   9  14
ATOM     14  N   UNL A   1      38.195  33.401  34.554  1.00  0.00    -0.324 N 
ATOM     15  C   UNL A   1      40.235  34.457  35.206  1.00  0.00     0.120 C 
ATOM     16  C   UNL A   1      39.950  34.695  33.721  1.00  0.00     0.039 C 
ATOM     17  C   UNL A   1      39.211  33.398  35.607  1.00  0.00     0.136 C 
ATOM     18  C   UNL A   1      38.455  34.471  33.614  1.00  0.00     0.122 C 
BRANCH  15  19
ATOM     19  C   UNL A   1      40.150  35.675  36.107  1.00  0.00     0.310 C 
ATOM     20  O   UNL A   1      39.857  36.787  35.700  1.00  0.00    -0.252 OA
BRANCH  19  21
ATOM     21  O   UNL A   1      40.370  35.360  37.413  1.00  0.00    -0.469 OA
ATOM     22  C   UNL A   1      39.390  35.854  38.329  1.00  0.00     0.282 C 
ENDBRANCH  19  21
ENDBRANCH  15  19
ENDBRANCH   9  14
ENDBRANCH   7   8
ENDBRANCH   6   7
ENDBRANCH   5   6
ENDBRANCH   1   5
BRANCH   3  23
ATOM     23  C   UNL A   1      33.114  36.201  30.462  1.00  0.00     0.117 C 
BRANCH  23  24
ATOM     24  C   UNL A   1      33.125  36.360  28.946  1.00  0.00     0.042 C 
BRANCH  24  25
ATOM     25  C   UNL A   1      34.058  35.414  28.196  1.00  0.00     0.118 C 
BRANCH  25  26
ATOM     26  N   UNL A   1      33.678  34.016  28.335  1.00  0.00    -0.352 N 
ATOM     27  C   UNL A   1      34.417  32.901  28.642  1.00  0.00     0.251 C 
ATOM     28  H   UNL A   1      32.722  33.840  28.182  1.00  0.00     0.163 HD
ATOM     29  O   UNL A   1      33.881  31.800  28.532  1.00  0.00    -0.269 OA
BRANCH  27  30
ATOM     30  C   UNL A   1      35.833  32.983  29.083  1.00  0.00     0.039 A 
ATOM     31  C   UNL A   1      36.770  32.151  28.458  1.00  0.00     0.014 A 
ATOM     32  C   UNL A   1      36.243  33.795  30.142  1.00  0.00     0.014 A 
ATOM     33  C   UNL A   1      38.109  32.163  28.863  1.00  0.00     0.010 A 
ATOM     34  C   UNL A   1      37.593  33.863  30.496  1.00  0.00     0.010 A 
ATOM     35  C   UNL A   1      38.541  33.038  29.872  1.00  0.00    -0.014 A 
BRANCH  35  36
ATOM     36  C   UNL A   1      39.968  33.083  30.299  1.00  0.00     0.031 A 
ATOM     37  C   UNL A   1      40.510  32.048  31.255  1.00  0.00     0.074 A 
ATOM     38  C   UNL A   1      40.768  34.080  29.868  1.00  0.00     0.049 A 
ATOM     39  N   UNL A   1      41.699  31.966  31.796  1.00  0.00    -0.248 NA
ATOM     40  C   UNL A   1      39.589  30.980  31.674  1.00  0.00     0.031 C 
ATOM     41  C   UNL A   1      40.364  35.161  28.966  1.00  0.00     0.029 A 
ATOM     42  N   UNL A   1      42.086  34.355  30.139  1.00  0.00    -0.354 N 
ATOM     43  C   UNL A   1      41.662  30.856  32.634  1.00  0.00     0.074 A 
ATOM     44  C   UNL A   1      40.320  30.320  32.561  1.00  0.00     0.031 C 
ATOM     45  C   UNL A   1      41.416  35.965  28.741  1.00  0.00     0.029 A 
ATOM     46  C   UNL A   1      42.557  35.487  29.516  1.00  0.00     0.049 A 
ATOM     47  H   UNL A   1      42.644  33.793  30.725  1.00  0.00     0.167 HD
ATOM     48  C   UNL A   1      42.658  30.320  33.380  1.00  0.00     0.037 A 
ATOM     49  C   UNL A   1      43.766  36.081  29.568  1.00  0.00     0.037 A 
ATOM     50  C   UNL A   1      44.005  30.832  33.419  1.00  0.00     0.049 A 
ATOM     51  C   UNL A   1      44.853  35.468  30.411  1.00  0.00     0.074 A 
ATOM     52  C   UNL A   1      45.100  30.316  34.093  1.00  0.00     0.029 A 
ATOM     53  N   UNL A   1      44.444  31.970  32.760  1.00  0.00    -0.354 N 
ATOM     54  N   UNL A   1      44.813  34.384  31.149  1.00  0.00    -0.248 NA
ATOM     55  C   UNL A   1      46.153  36.153  30.423  1.00  0.00     0.031 C 
ATOM     56  C   UNL A   1      46.186  31.170  33.884  1.00  0.00     0.029 A 
ATOM     57  C   UNL A   1      45.785  32.185  33.029  1.00  0.00     0.049 A 
ATOM     58  H   UNL A   1      43.884  32.540  32.184  1.00  0.00     0.167 HD
ATOM     59  C   UNL A   1      46.093  34.236  31.675  1.00  0.00     0.074 A 
ATOM     60  C   UNL A   1      46.884  35.336  31.168  1.00  0.00     0.031 C 
ATOM     61  C   UNL A   1      46.570  33.271  32.500  1.00  0.00     0.037 A 
BRANCH  48  62
ATOM     62  C   UNL A   1      42.342  29.115  34.224  1.00  0.00     0.058 A 
ATOM     63  C   UNL A   1      42.523  27.807  33.745  1.00  0.00     0.135 A 
ATOM     64  C   UNL A   1      41.921  29.270  35.555  1.00  0.00     0.135 A 
ATOM     65  F   UNL A   1      42.910  27.598  32.476  1.00  0.00    -0.206 F 
ATOM     66  C   UNL A   1      42.280  26.698  34.549  1.00  0.00     0.059 A 
ATOM     67  C   UNL A   1      41.702  28.176  36.387  1.00  0.00     0.059 A 
ATOM     68  F   UNL A   1      41.733  30.497  36.065  1.00  0.00    -0.206 F 
ATOM     69  C   UNL A   1      41.874  26.893  35.871  1.00  0.00     0.060 A 
BRANCH  69  70
ATOM     70  S   UNL A   1      41.594  25.442  36.909  1.00  0.00     0.124 S 
ATOM     71  O   UNL A   1      42.849  25.368  37.649  1.00  0.00    -0.237 OA
ATOM     72  O   UNL A   1      40.423  25.836  37.685  1.00  0.00    -0.237 OA
ATOM     73  O   UNL A   1      41.372  24.371  35.943  1.00  0.00    -0.744 OA
ENDBRANCH  69  70
ENDBRANCH  48  62
BRANCH  49  74
ATOM     74  C   UNL A   1      44.029  37.324  28.791  1.00  0.00     0.058 A 
ATOM     75  C   UNL A   1      43.887  38.588  29.382  1.00  0.00     0.135 A 
ATOM     76  C   UNL A   1      44.398  37.275  27.437  1.00  0.00     0.135 A 
ATOM     77  F   UNL A   1      43.529  38.688  30.672  1.00  0.00    -0.206 F 
ATOM     78  C   UNL A   1      44.068  39.760  28.654  1.00  0.00     0.059 A 
ATOM     79  C   UNL A   1      44.614  38.432  26.696  1.00  0.00     0.059 A 
ATOM     80  F   UNL A   1      44.567  36.092  26.827  1.00  0.00    -0.206 F 
ATOM     81  C   UNL A   1      44.428  39.670  27.309  1.00  0.00     0.060 A 
BRANCH  81  82
ATOM     82  S   UNL A   1      44.676  41.196  26.375  1.00  0.00     0.124 S 
ATOM     83  O   UNL A   1      43.307  41.675  26.229  1.00  0.00    -0.237 OA
ATOM     84  O   UNL A   1      45.534  41.967  27.269  1.00  0.00    -0.237 OA
ATOM     85  O   UNL A   1      45.318  40.734  25.148  1.00  0.00    -0.744 OA
ENDBRANCH  81  82
ENDBRANCH  49  74
BRANCH  61  86
ATOM     86  C   UNL A   1      48.032  33.320  32.858  1.00  0.00     0.058 A 
ATOM     87  C   UNL A   1      48.497  33.986  34.001  1.00  0.00     0.135 A 
ATOM     88  C   UNL A   1      48.975  32.643  32.064  1.00  0.00     0.135 A 
ATOM     89  F   UNL A   1      47.642  34.653  34.791  1.00  0.00    -0.206 F 
ATOM     90  C   UNL A   1      49.850  34.007  34.329  1.00  0.00     0.059 A 
ATOM     91  C   UNL A   1      50.326  32.624  32.390  1.00  0.00     0.059 A 
ATOM     92  F   UNL A   1      48.581  31.979  30.965  1.00  0.00    -0.206 F 
ATOM     93  C   UNL A   1      50.757  33.322  33.518  1.00  0.00     0.060 A 
BRANCH  93  94
ATOM     94  S   UNL A   1      52.505  33.333  33.970  1.00  0.00     0.124 S 
ATOM     95  O   UNL A   1      52.711  31.949  34.384  1.00  0.00    -0.237 OA
ATOM     96  O   UNL A   1      53.148  33.724  32.720  1.00  0.00    -0.237 OA
ATOM     97  O   UNL A   1      52.573  34.324  35.040  1.00  0.00    -0.744 OA
ENDBRANCH  93  94
ENDBRANCH  61  86
ENDBRANCH  35  36
ENDBRANCH  27  30
ENDBRANCH  25  26
ENDBRANCH  24  25
ENDBRANCH  23  24
ENDBRANCH   3  23
TORSDOF 19
ENDMDL
MODEL 2
REMARK VINA RESULT:      -9.2      5.024      8.802
REMARK SMILES COC(=O)[C@@H]1CCN(C(=O)NC(=O)COCC(=O)NCCCNC(=O)c2ccc(-c3c4nc(c(-c5c(F)cc(S(=O)(=O)[O-])cc5F)c5ccc([nH]5)c(-c5c(F)cc(S(=O)(=O)[O-])cc5F)c5nc(c(-c6c(F)cc(S(=O)(=O)[O-])cc6F)c6ccc3[nH]6)C=C5)C=C4)cc2)C1
REMARK SMILES IDX 17 1 18 2 19 3 16 5 15 6 14 7 12 8 9 9 10 10 11 11 13 13
REMARK SMILES IDX 8 14 5 15 6 16 92 17 7 18 3 19 4 20 2 21 1 22 20 23 21 24
REMARK SMILES IDX 22 25 23 26 24 27 25 29 26 30 27 31 91 32 28 33 90 34 29 35
REMARK SMILES IDX 30 36 31 37 84 38 32 39 89 40 83 41 85 42 33 43 88 44 82 45
REMARK SMILES IDX 81 46 34 48 68 49 47 50 67 51 48 52 51 53 66 54 86 55 49 56
REMARK SMILES IDX 50 57 65 59 87 60 52 61 35 62 36 63 45 64 37 65 38 66 44 67
REMARK SMILES IDX 46 68 39 69 40 70 41 71 42 72 43 73 69 74 70 75 79 76 71 77
REMARK SMILES IDX 72 78 78 79 80 80 73 81 74 82 75 83 76 84 77 85 53 86 54 87
REMARK SMILES IDX 63 88 55 89 56 90 62 91 64 92 57 93 58 94 59 95 60 96 61 97
REMARK H PARENT 19 4 11 12 23 28 85 47 51 58
REMARK Flexibility Score: inf
ROOT
ATOM      1  C   UNL A   1      35.856  33.881  32.587  1.00  0.00     0.246 C 
ATOM      2  O   UNL A   1      36.373  34.831  33.178  1.00  0.00    -0.272 OA
ATOM      3  N   UNL A   1      35.236  34.101  31.389  1.00  0.00    -0.354 N 
ATOM      4  H   UNL A   1      35.209  35.037  31.082  1.00  0.00     0.163 HD
ENDROOT
BRANCH   1   5
ATOM      5  C   UNL A   1      35.883  32.465  33.166  1.00  0.00     0.260 C 
BRANCH   5   6
ATOM      6  O   UNL A   1      36.921  31.677  32.597  1.00  0.00    -0.362 OA
BRANCH   6   7
ATOM      7  C   UNL A   1      38.088  31.655  33.400  1.00  0.00     0.261 C 
BRANCH   7   8
ATOM      8  C   UNL A   1      38.295  30.366  34.187  1.00  0.00     0.254 C 
ATOM      9  C   UNL A   1      38.120  31.261  36.572  1.00  0.00     0.324 C 
ATOM     10  O   UNL A   1      37.403  30.875  37.498  1.00  0.00    -0.248 OA
ATOM     11  N   UNL A   1      38.392  30.370  35.564  1.00  0.00    -0.276 N 
ATOM     12  H   UNL A   1      38.745  29.519  35.910  1.00  0.00     0.174 HD
ATOM     13  O   UNL A   1      38.372  29.280  33.603  1.00  0.00    -0.272 OA
BRANCH   9  14
ATOM     14  N   UNL A   1      38.727  32.484  36.591  1.00  0.00    -0.324 N 
ATOM     15  C   UNL A   1      40.512  34.016  36.177  1.00  0.00     0.120 C 
ATOM     16  C   UNL A   1      39.200  34.538  35.587  1.00  0.00     0.039 C 
ATOM     17  C   UNL A   1      40.187  32.575  36.566  1.00  0.00     0.136 C 
ATOM     18  C   UNL A   1      38.142  33.791  36.377  1.00  0.00     0.122 C 
BRANCH  15  19
ATOM     19  C   UNL A   1      41.073  34.792  37.355  1.00  0.00     0.310 C 
ATOM     20  O   UNL A   1      41.823  34.300  38.182  1.00  0.00    -0.252 OA
BRANCH  19  21
ATOM     21  O   UNL A   1      40.696  36.099  37.329  1.00  0.00    -0.469 OA
ATOM     22  C   UNL A   1      40.896  36.813  38.551  1.00  0.00     0.282 C 
ENDBRANCH  19  21
ENDBRANCH  15  19
ENDBRANCH   9  14
ENDBRANCH   7   8
ENDBRANCH   6   7
ENDBRANCH   5   6
ENDBRANCH   1   5
BRANCH   3  23
ATOM     23  C   UNL A   1      34.612  33.129  30.512  1.00  0.00     0.117 C 
BRANCH  23  24
ATOM     24  C   UNL A   1      34.153  33.723  29.185  1.00  0.00     0.042 C 
BRANCH  24  25
ATOM     25  C   UNL A   1      34.547  32.930  27.942  1.00  0.00     0.118 C 
BRANCH  25  26
ATOM     26  N   UNL A   1      33.832  31.668  27.826  1.00  0.00    -0.352 N 
ATOM     27  C   UNL A   1      34.272  30.368  27.871  1.00  0.00     0.251 C 
ATOM     28  H   UNL A   1      32.862  31.764  27.691  1.00  0.00     0.163 HD
ATOM     29  O   UNL A   1      33.478  29.476  27.576  1.00  0.00    -0.269 OA
BRANCH  27  30
ATOM     30  C   UNL A   1      35.664  30.014  28.244  1.00  0.00     0.039 A 
ATOM     31  C   UNL A   1      36.645  30.042  27.245  1.00  0.00     0.014 A 
ATOM     32  C   UNL A   1      36.010  29.581  29.526  1.00  0.00     0.014 A 
ATOM     33  C   UNL A   1      37.964  29.679  27.537  1.00  0.00     0.010 A 
ATOM     34  C   UNL A   1      37.341  29.291  29.836  1.00  0.00     0.010 A 
ATOM     35  C   UNL A   1      38.333  29.323  28.844  1.00  0.00    -0.014 A 
BRANCH  35  36
ATOM     36  C   UNL A   1      39.738  28.958  29.180  1.00  0.00     0.031 A 
ATOM     37  C   UNL A   1      40.641  29.954  29.866  1.00  0.00     0.074 A 
ATOM     38  C   UNL A   1      40.222  27.749  28.827  1.00  0.00     0.049 A 
ATOM     39  N   UNL A   1      41.909  29.845  30.172  1.00  0.00    -0.248 NA
ATOM     40  C   UNL A   1      40.045  31.248  30.237  1.00  0.00     0.031 C 
ATOM     41  C   UNL A   1      39.466  26.703  28.133  1.00  0.00     0.029 A 
ATOM     42  N   UNL A   1      41.469  27.197  28.992  1.00  0.00    -0.354 N 
ATOM     43  C   UNL A   1      42.268  31.060  30.748  1.00  0.00     0.074 A 
ATOM     44  C   UNL A   1      41.095  31.905  30.711  1.00  0.00     0.031 C 
ATOM     45  C   UNL A   1      40.256  25.632  27.955  1.00  0.00     0.029 A 
ATOM     46  C   UNL A   1      41.587  25.927  28.478  1.00  0.00     0.049 A 
ATOM     47  H   UNL A   1      42.210  27.667  29.439  1.00  0.00     0.167 HD
ATOM     48  C   UNL A   1      43.460  31.432  31.275  1.00  0.00     0.037 A 
ATOM     49  C   UNL A   1      42.647  25.095  28.423  1.00  0.00     0.037 A 
ATOM     50  C   UNL A   1      44.615  30.574  31.347  1.00  0.00     0.049 A 
ATOM     51  C   UNL A   1      43.961  25.536  29.012  1.00  0.00     0.074 A 
ATOM     52  C   UNL A   1      45.846  30.839  31.925  1.00  0.00     0.029 A 
ATOM     53  N   UNL A   1      44.687  29.290  30.830  1.00  0.00    -0.354 N 
ATOM     54  N   UNL A   1      44.262  26.667  29.604  1.00  0.00    -0.248 NA
ATOM     55  C   UNL A   1      45.079  24.585  28.933  1.00  0.00     0.031 C 
ATOM     56  C   UNL A   1      46.678  29.736  31.711  1.00  0.00     0.029 A 
ATOM     57  C   UNL A   1      45.947  28.759  31.055  1.00  0.00     0.049 A 
ATOM     58  H   UNL A   1      43.950  28.823  30.372  1.00  0.00     0.167 HD
ATOM     59  C   UNL A   1      45.589  26.544  30.006  1.00  0.00     0.074 A 
ATOM     60  C   UNL A   1      46.030  25.229  29.593  1.00  0.00     0.031 C 
ATOM     61  C   UNL A   1      46.369  27.439  30.662  1.00  0.00     0.037 A 
BRANCH  48  62
ATOM     62  C   UNL A   1      43.589  32.828  31.821  1.00  0.00     0.058 A 
ATOM     63  C   UNL A   1      44.014  33.901  31.021  1.00  0.00     0.135 A 
ATOM     64  C   UNL A   1      43.214  33.110  33.146  1.00  0.00     0.135 A 
ATOM     65  F   UNL A   1      44.399  33.688  29.752  1.00  0.00    -0.206 F 
ATOM     66  C   UNL A   1      44.078  35.199  31.519  1.00  0.00     0.059 A 
ATOM     67  C   UNL A   1      43.241  34.405  33.655  1.00  0.00     0.059 A 
ATOM     68  F   UNL A   1      42.800  32.123  33.955  1.00  0.00    -0.206 F 
ATOM     69  C   UNL A   1      43.685  35.442  32.837  1.00  0.00     0.060 A 
BRANCH  69  70
ATOM     70  S   UNL A   1      43.748  37.137  33.455  1.00  0.00     0.124 S 
ATOM     71  O   UNL A   1      44.963  37.106  34.263  1.00  0.00    -0.237 OA
ATOM     72  O   UNL A   1      43.825  37.915  32.224  1.00  0.00    -0.237 OA
ATOM     73  O   UNL A   1      42.502  37.272  34.203  1.00  0.00    -0.744 OA
ENDBRANCH  69  70
ENDBRANCH  48  62
BRANCH  49  74
ATOM     74  C   UNL A   1      42.516  23.749  27.799  1.00  0.00     0.058 A 
ATOM     75  C   UNL A   1      42.347  22.602  28.588  1.00  0.00     0.135 A 
ATOM     76  C   UNL A   1      42.586  23.579  26.407  1.00  0.00     0.135 A 
ATOM     77  F   UNL A   1      42.281  22.711  29.924  1.00  0.00    -0.206 F 
ATOM     78  C   UNL A   1      42.286  21.331  28.025  1.00  0.00     0.059 A 
ATOM     79  C   UNL A   1      42.497  22.322  25.819  1.00  0.00     0.059 A 
ATOM     80  F   UNL A   1      42.727  24.645  25.605  1.00  0.00    -0.206 F 
ATOM     81  C   UNL A   1      42.366  21.201  26.638  1.00  0.00     0.060 A 
BRANCH  81  82
ATOM     82  S   UNL A   1      42.270  19.550  25.915  1.00  0.00     0.124 S 
ATOM     83  O   UNL A   1      42.663  18.713  27.043  1.00  0.00    -0.237 OA
ATOM     84  O   UNL A   1      40.868  19.471  25.515  1.00  0.00    -0.237 OA
ATOM     85  O   UNL A   1      43.225  19.614  24.812  1.00  0.00    -0.744 OA
ENDBRANCH  81  82
ENDBRANCH  49  74
BRANCH  61  86
ATOM     86  C   UNL A   1      47.762  27.007  31.036  1.00  0.00     0.058 A 
ATOM     87  C   UNL A   1      48.011  26.142  32.111  1.00  0.00     0.135 A 
ATOM     88  C   UNL A   1      48.861  27.432  30.269  1.00  0.00     0.135 A 
ATOM     89  F   UNL A   1      46.999  25.710  32.880  1.00  0.00    -0.206 F 
ATOM     90  C   UNL A   1      49.303  25.737  32.433  1.00  0.00     0.059 A 
ATOM     91  C   UNL A   1      50.157  27.015  30.553  1.00  0.00     0.059 A 
ATOM     92  F   UNL A   1      48.678  28.251  29.220  1.00  0.00    -0.206 F 
ATOM     93  C   UNL A   1      50.370  26.177  31.647  1.00  0.00     0.060 A 
BRANCH  93  94
ATOM     94  S   UNL A   1      52.037  25.622  32.058  1.00  0.00     0.124 S 
ATOM     95  O   UNL A   1      52.408  26.560  33.112  1.00  0.00    -0.237 OA
ATOM     96  O   UNL A   1      51.812  24.245  32.485  1.00  0.00    -0.237 OA
ATOM     97  O   UNL A   1      52.766  25.771  30.801  1.00  0.00    -0.744 OA
ENDBRANCH  93  94
ENDBRANCH  61  86
ENDBRANCH  35  36
ENDBRANCH  27  30
ENDBRANCH  25  26
ENDBRANCH  24  25
ENDBRANCH  23  24
ENDBRANCH   3  23
TORSDOF 19
ENDMDL
MODEL 3
REMARK VINA RESULT:      -9.1      6.321     12.470
REMARK SMILES COC(=O)[C@@H]1CCN(C(=O)NC(=O)COCC(=O)NCCCNC(=O)c2ccc(-c3c4nc(c(-c5c(F)cc(S(=O)(=O)[O-])cc5F)c5ccc([nH]5)c(-c5c(F)cc(S(=O)(=O)[O-])cc5F)c5nc(c(-c6c(F)cc(S(=O)(=O)[O-])cc6F)c6ccc3[nH]6)C=C5)C=C4)cc2)C1
REMARK SMILES IDX 17 1 18 2 19 3 16 5 15 6 14 7 12 8 9 9 10 10 11 11 13 13
REMARK SMILES IDX 8 14 5 15 6 16 92 17 7 18 3 19 4 20 2 21 1 22 20 23 21 24
REMARK SMILES IDX 22 25 23 26 24 27 25 29 26 30 27 31 91 32 28 33 90 34 29 35
REMARK SMILES IDX 30 36 31 37 84 38 32 39 89 40 83 41 85 42 33 43 88 44 82 45
REMARK SMILES IDX 81 46 34 48 68 49 47 50 67 51 48 52 51 53 66 54 86 55 49 56
REMARK SMILES IDX 50 57 65 59 87 60 52 61 35 62 36 63 45 64 37 65 38 66 44 67
REMARK SMILES IDX 46 68 39 69 40 70 41 71 42 72 43 73 69 74 70 75 79 76 71 77
REMARK SMILES IDX 72 78 78 79 80 80 73 81 74 82 75 83 76 84 77 85 53 86 54 87
REMARK SMILES IDX 63 88 55 89 56 90 62 91 64 92 57 93 58 94 59 95 60 96 61 97
REMARK H PARENT 19 4 11 12 23 28 85 47 51 58
REMARK Flexibility Score: inf
ROOT
ATOM      1  C   UNL A   1      37.385  23.217  25.658  1.00  0.00     0.246 C 
ATOM      2  O   UNL A   1      36.594  24.152  25.788  1.00  0.00    -0.272 OA
ATOM      3  N   UNL A   1      38.605  23.288  26.272  1.00  0.00    -0.354 N 
ATOM      4  H   UNL A   1      38.793  24.121  26.761  1.00  0.00     0.163 HD
ENDROOT
BRANCH   1   5
ATOM      5  C   UNL A   1      37.041  21.983  24.821  1.00  0.00     0.260 C 
BRANCH   5   6
ATOM      6  O   UNL A   1      36.222  21.066  25.536  1.00  0.00    -0.362 OA
BRANCH   6   7
ATOM      7  C   UNL A   1      34.882  21.512  25.653  1.00  0.00     0.261 C 
BRANCH   7   8
ATOM      8  C   UNL A   1      33.849  20.602  25.000  1.00  0.00     0.254 C 
ATOM      9  C   UNL A   1      32.621  22.293  23.533  1.00  0.00     0.324 C 
ATOM     10  O   UNL A   1      32.383  22.246  22.324  1.00  0.00    -0.248 OA
ATOM     11  N   UNL A   1      32.860  21.106  24.179  1.00  0.00    -0.276 N 
ATOM     12  H   UNL A   1      32.146  20.448  24.018  1.00  0.00     0.174 HD
ATOM     13  O   UNL A   1      33.882  19.381  25.185  1.00  0.00    -0.272 OA
BRANCH   9  14
ATOM     14  N   UNL A   1      32.536  23.457  24.241  1.00  0.00    -0.324 N 
ATOM     15  C   UNL A   1      32.161  24.770  26.200  1.00  0.00     0.120 C 
ATOM     16  C   UNL A   1      33.516  25.106  25.572  1.00  0.00     0.039 C 
ATOM     17  C   UNL A   1      31.712  23.518  25.449  1.00  0.00     0.136 C 
ATOM     18  C   UNL A   1      33.357  24.645  24.136  1.00  0.00     0.122 C 
BRANCH  15  19
ATOM     19  C   UNL A   1      31.105  25.860  26.136  1.00  0.00     0.310 C 
ATOM     20  O   UNL A   1      29.908  25.634  26.205  1.00  0.00    -0.252 OA
BRANCH  19  21
ATOM     21  O   UNL A   1      31.658  27.101  26.066  1.00  0.00    -0.469 OA
ATOM     22  C   UNL A   1      31.992  27.690  27.325  1.00  0.00     0.282 C 
ENDBRANCH  19  21
ENDBRANCH  15  19
ENDBRANCH   9  14
ENDBRANCH   7   8
ENDBRANCH   6   7
ENDBRANCH   5   6
ENDBRANCH   1   5
BRANCH   3  23
ATOM     23  C   UNL A   1      39.658  22.290  26.291  1.00  0.00     0.117 C 
BRANCH  23  24
ATOM     24  C   UNL A   1      40.557  22.389  27.517  1.00  0.00     0.042 C 
BRANCH  24  25
ATOM     25  C   UNL A   1      41.818  23.231  27.338  1.00  0.00     0.118 C 
BRANCH  25  26
ATOM     26  N   UNL A   1      41.741  24.128  26.195  1.00  0.00    -0.352 N 
ATOM     27  C   UNL A   1      41.388  25.451  26.101  1.00  0.00     0.251 C 
ATOM     28  H   UNL A   1      41.985  23.711  25.337  1.00  0.00     0.163 HD
ATOM     29  O   UNL A   1      41.243  25.936  24.981  1.00  0.00    -0.269 OA
BRANCH  27  30
ATOM     30  C   UNL A   1      41.164  26.299  27.299  1.00  0.00     0.039 A 
ATOM     31  C   UNL A   1      42.044  27.363  27.532  1.00  0.00     0.014 A 
ATOM     32  C   UNL A   1      40.164  26.025  28.235  1.00  0.00     0.014 A 
ATOM     33  C   UNL A   1      41.899  28.168  28.667  1.00  0.00     0.010 A 
ATOM     34  C   UNL A   1      39.972  26.873  29.329  1.00  0.00     0.010 A 
ATOM     35  C   UNL A   1      40.845  27.946  29.567  1.00  0.00    -0.014 A 
BRANCH  35  36
ATOM     36  C   UNL A   1      40.659  28.809  30.769  1.00  0.00     0.031 A 
ATOM     37  C   UNL A   1      39.584  29.868  30.787  1.00  0.00     0.074 A 
ATOM     38  C   UNL A   1      41.484  28.675  31.827  1.00  0.00     0.049 A 
ATOM     39  N   UNL A   1      39.318  30.759  31.708  1.00  0.00    -0.248 NA
ATOM     40  C   UNL A   1      38.708  29.950  29.607  1.00  0.00     0.031 C 
ATOM     41  C   UNL A   1      42.583  27.711  31.928  1.00  0.00     0.029 A 
ATOM     42  N   UNL A   1      41.537  29.358  33.018  1.00  0.00    -0.354 N 
ATOM     43  C   UNL A   1      38.265  31.520  31.211  1.00  0.00     0.074 A 
ATOM     44  C   UNL A   1      37.967  31.012  29.890  1.00  0.00     0.031 C 
ATOM     45  C   UNL A   1      43.183  27.850  33.122  1.00  0.00     0.029 A 
ATOM     46  C   UNL A   1      42.545  28.940  33.854  1.00  0.00     0.049 A 
ATOM     47  H   UNL A   1      40.910  30.081  33.251  1.00  0.00     0.167 HD
ATOM     48  C   UNL A   1      37.594  32.536  31.807  1.00  0.00     0.037 A 
ATOM     49  C   UNL A   1      42.923  29.387  35.069  1.00  0.00     0.037 A 
ATOM     50  C   UNL A   1      37.866  33.013  33.140  1.00  0.00     0.049 A 
ATOM     51  C   UNL A   1      42.163  30.521  35.705  1.00  0.00     0.074 A 
ATOM     52  C   UNL A   1      37.195  33.992  33.854  1.00  0.00     0.029 A 
ATOM     53  N   UNL A   1      38.884  32.550  33.959  1.00  0.00    -0.354 N 
ATOM     54  N   UNL A   1      41.133  31.188  35.242  1.00  0.00    -0.248 NA
ATOM     55  C   UNL A   1      42.613  30.961  37.033  1.00  0.00     0.031 C 
ATOM     56  C   UNL A   1      37.839  34.157  35.083  1.00  0.00     0.029 A 
ATOM     57  C   UNL A   1      38.873  33.239  35.160  1.00  0.00     0.049 A 
ATOM     58  H   UNL A   1      39.520  31.836  33.721  1.00  0.00     0.167 HD
ATOM     59  C   UNL A   1      40.785  32.093  36.241  1.00  0.00     0.074 A 
ATOM     60  C   UNL A   1      41.712  31.886  37.332  1.00  0.00     0.031 C 
ATOM     61  C   UNL A   1      39.785  33.008  36.252  1.00  0.00     0.037 A 
BRANCH  48  62
ATOM     62  C   UNL A   1      36.495  33.212  31.031  1.00  0.00     0.058 A 
ATOM     63  C   UNL A   1      35.140  33.009  31.338  1.00  0.00     0.135 A 
ATOM     64  C   UNL A   1      36.805  34.130  30.014  1.00  0.00     0.135 A 
ATOM     65  F   UNL A   1      34.785  32.132  32.290  1.00  0.00    -0.206 F 
ATOM     66  C   UNL A   1      34.132  33.679  30.651  1.00  0.00     0.059 A 
ATOM     67  C   UNL A   1      35.814  34.834  29.336  1.00  0.00     0.059 A 
ATOM     68  F   UNL A   1      38.084  34.362  29.681  1.00  0.00    -0.206 F 
ATOM     69  C   UNL A   1      34.479  34.594  29.655  1.00  0.00     0.060 A 
BRANCH  69  70
ATOM     70  S   UNL A   1      33.158  35.476  28.796  1.00  0.00     0.124 S 
ATOM     71  O   UNL A   1      32.360  35.964  29.917  1.00  0.00    -0.237 OA
ATOM     72  O   UNL A   1      33.894  36.492  28.053  1.00  0.00    -0.237 OA
ATOM     73  O   UNL A   1      32.530  34.440  27.983  1.00  0.00    -0.744 OA
ENDBRANCH  69  70
ENDBRANCH  48  62
BRANCH  49  74
ATOM     74  C   UNL A   1      44.069  28.758  35.780  1.00  0.00     0.058 A 
ATOM     75  C   UNL A   1      43.864  27.727  36.710  1.00  0.00     0.135 A 
ATOM     76  C   UNL A   1      45.388  29.190  35.567  1.00  0.00     0.135 A 
ATOM     77  F   UNL A   1      42.621  27.283  36.954  1.00  0.00    -0.206 F 
ATOM     78  C   UNL A   1      44.918  27.171  37.428  1.00  0.00     0.059 A 
ATOM     79  C   UNL A   1      46.461  28.629  36.250  1.00  0.00     0.059 A 
ATOM     80  F   UNL A   1      45.643  30.159  34.674  1.00  0.00    -0.206 F 
ATOM     81  C   UNL A   1      46.214  27.632  37.194  1.00  0.00     0.060 A 
BRANCH  81  82
ATOM     82  S   UNL A   1      47.577  26.895  38.119  1.00  0.00     0.124 S 
ATOM     83  O   UNL A   1      47.939  27.981  39.023  1.00  0.00    -0.237 OA
ATOM     84  O   UNL A   1      46.938  25.735  38.734  1.00  0.00    -0.237 OA
ATOM     85  O   UNL A   1      48.555  26.584  37.081  1.00  0.00    -0.744 OA
ENDBRANCH  81  82
ENDBRANCH  49  74
BRANCH  61  86
ATOM     86  C   UNL A   1      39.594  33.816  37.508  1.00  0.00     0.058 A 
ATOM     87  C   UNL A   1      38.805  33.360  38.575  1.00  0.00     0.135 A 
ATOM     88  C   UNL A   1      40.255  35.047  37.662  1.00  0.00     0.135 A 
ATOM     89  F   UNL A   1      38.148  32.193  38.480  1.00  0.00    -0.206 F 
ATOM     90  C   UNL A   1      38.653  34.109  39.737  1.00  0.00     0.059 A 
ATOM     91  C   UNL A   1      40.142  35.798  38.827  1.00  0.00     0.059 A 
ATOM     92  F   UNL A   1      41.033  35.525  36.677  1.00  0.00    -0.206 F 
ATOM     93  C   UNL A   1      39.327  35.326  39.855  1.00  0.00     0.060 A 
BRANCH  93  94
ATOM     94  S   UNL A   1      39.143  36.276  41.380  1.00  0.00     0.124 S 
ATOM     95  O   UNL A   1      38.897  37.617  40.864  1.00  0.00    -0.237 OA
ATOM     96  O   UNL A   1      38.005  35.622  42.019  1.00  0.00    -0.237 OA
ATOM     97  O   UNL A   1      40.425  36.088  42.055  1.00  0.00    -0.744 OA
ENDBRANCH  93  94
ENDBRANCH  61  86
ENDBRANCH  35  36
ENDBRANCH  27  30
ENDBRANCH  25  26
ENDBRANCH  24  25
ENDBRANCH  23  24
ENDBRANCH   3  23
TORSDOF 19
ENDMDL
