MODEL 1
REMARK VINA RESULT:     -12.7      0.000      0.000
REMARK SMILES CCc1ccc2c(c1)C=C(C(=O)NCCCNC(=O)c1ccc(-c3c4nc(c(-c5c(F)cc(S(=O)(=O)[O-])cc5F)c5ccc([nH]5)c(-c5c(F)cc(S(=O)(=O)[O-])cc5F)c5nc(c(-c6c(F)cc(S(=O)(=O)[O-])cc6F)c6ccc3[nH]6)C=C5)C=C4)cc1)[C@H](C(F)(F)F)O2
REMARK SMILES IDX 16 1 15 2 14 3 13 4 11 5 12 6 10 8 3 9 4 10 8 11 5 12 7 13
REMARK SMILES IDX 6 14 9 15 91 16 86 17 2 18 1 19 87 20 88 21 89 22 90 23
REMARK SMILES IDX 17 24 18 25 19 27 20 28 21 29 85 30 22 31 84 32 23 33 24 34
REMARK SMILES IDX 25 35 78 36 26 37 83 38 77 39 79 40 27 41 82 42 76 43 75 44
REMARK SMILES IDX 28 46 62 47 41 48 61 49 42 50 45 51 60 52 80 53 43 54 44 55
REMARK SMILES IDX 59 57 81 58 46 59 29 60 30 61 39 62 31 63 32 64 38 65 40 66
REMARK SMILES IDX 33 67 34 68 35 69 36 70 37 71 63 72 64 73 73 74 65 75 66 76
REMARK SMILES IDX 72 77 74 78 67 79 68 80 69 81 70 82 71 83 47 84 48 85 57 86
REMARK SMILES IDX 49 87 50 88 56 89 58 90 51 91 52 92 53 93 54 94 55 95
REMARK H PARENT 13 7 17 26 79 45 45 56
REMARK Flexibility Score: inf
ROOT
ATOM      1  C   UNL A   1      38.144  24.256  26.393  1.00  0.00     0.118 C 
ENDROOT
BRANCH   1   2
ATOM      2  C   UNL A   1      37.240  23.374  25.531  1.00  0.00     0.042 C 
BRANCH   2   3
ATOM      3  C   UNL A   1      35.934  24.062  25.122  1.00  0.00     0.118 C 
BRANCH   3   4
ATOM      4  N   UNL A   1      34.918  23.898  26.153  1.00  0.00    -0.352 N 
ATOM      5  C   UNL A   1      33.809  23.119  26.251  1.00  0.00     0.251 C 
ATOM      6  O   UNL A   1      33.071  23.294  27.218  1.00  0.00    -0.270 OA
ATOM      7  H   UNL A   1      35.067  24.469  26.940  1.00  0.00     0.163 HD
BRANCH   5   8
ATOM      8  C   UNL A   1      33.498  22.025  25.295  1.00  0.00     0.067 C 
ATOM      9  C   UNL A   1      33.704  17.427  23.779  1.00  0.00    -0.047 A 
ATOM     10  C   UNL A   1      32.705  17.707  22.839  1.00  0.00     0.007 A 
ATOM     11  C   UNL A   1      34.180  18.479  24.577  1.00  0.00     0.015 A 
ATOM     12  C   UNL A   1      32.184  19.000  22.718  1.00  0.00     0.047 A 
ATOM     13  C   UNL A   1      33.656  19.773  24.460  1.00  0.00     0.017 A 
ATOM     14  C   UNL A   1      32.652  20.026  23.534  1.00  0.00     0.128 A 
ATOM     15  C   UNL A   1      34.076  20.820  25.374  1.00  0.00     0.025 C 
ATOM     16  O   UNL A   1      32.032  21.233  23.416  1.00  0.00    -0.475 OA
ATOM     17  C   UNL A   1      32.604  22.383  24.109  1.00  0.00     0.314 C 
BRANCH   9  18
ATOM     18  C   UNL A   1      34.267  16.046  24.028  1.00  0.00     0.032 C 
ATOM     19  C   UNL A   1      35.177  15.879  25.237  1.00  0.00     0.009 C 
ENDBRANCH   9  18
BRANCH  17  20
ATOM     20  C   UNL A   1      31.438  23.360  24.391  1.00  0.00     0.429 C 
ATOM     21  F   UNL A   1      31.848  24.628  24.609  1.00  0.00    -0.167 F 
ATOM     22  F   UNL A   1      30.599  23.436  23.319  1.00  0.00    -0.167 F 
ATOM     23  F   UNL A   1      30.680  22.972  25.444  1.00  0.00    -0.167 F 
ENDBRANCH  17  20
ENDBRANCH   5   8
ENDBRANCH   3   4
ENDBRANCH   2   3
ENDBRANCH   1   2
BRANCH   1  24
ATOM     24  N   UNL A   1      39.549  23.922  26.218  1.00  0.00    -0.352 N 
ATOM     25  C   UNL A   1      40.672  24.583  26.655  1.00  0.00     0.251 C 
ATOM     26  H   UNL A   1      39.723  23.096  25.711  1.00  0.00     0.163 HD
ATOM     27  O   UNL A   1      41.768  24.271  26.199  1.00  0.00    -0.269 OA
BRANCH  25  28
ATOM     28  C   UNL A   1      40.567  25.669  27.655  1.00  0.00     0.039 A 
ATOM     29  C   UNL A   1      39.543  25.614  28.606  1.00  0.00     0.014 A 
ATOM     30  C   UNL A   1      41.443  26.758  27.634  1.00  0.00     0.014 A 
ATOM     31  C   UNL A   1      39.437  26.619  29.571  1.00  0.00     0.010 A 
ATOM     32  C   UNL A   1      41.376  27.724  28.635  1.00  0.00     0.010 A 
ATOM     33  C   UNL A   1      40.373  27.665  29.614  1.00  0.00    -0.014 A 
BRANCH  33  34
ATOM     34  C   UNL A   1      40.331  28.696  30.683  1.00  0.00     0.031 A 
ATOM     35  C   UNL A   1      41.226  28.577  31.887  1.00  0.00     0.074 A 
ATOM     36  C   UNL A   1      39.434  29.699  30.603  1.00  0.00     0.049 A 
ATOM     37  N   UNL A   1      41.265  29.320  32.963  1.00  0.00    -0.248 NA
ATOM     38  C   UNL A   1      42.187  27.463  31.893  1.00  0.00     0.031 C 
ATOM     39  C   UNL A   1      38.487  29.899  29.503  1.00  0.00     0.029 A 
ATOM     40  N   UNL A   1      39.159  30.730  31.467  1.00  0.00    -0.354 N 
ATOM     41  C   UNL A   1      42.240  28.757  33.779  1.00  0.00     0.074 A 
ATOM     42  C   UNL A   1      42.736  27.584  33.093  1.00  0.00     0.031 C 
ATOM     43  C   UNL A   1      37.749  30.993  29.752  1.00  0.00     0.029 A 
ATOM     44  C   UNL A   1      38.137  31.546  31.045  1.00  0.00     0.049 A 
ATOM     45  H   UNL A   1      39.649  30.871  32.309  1.00  0.00     0.167 HD
ATOM     46  C   UNL A   1      42.694  29.191  34.980  1.00  0.00     0.037 A 
ATOM     47  C   UNL A   1      37.565  32.613  31.638  1.00  0.00     0.037 A 
ATOM     48  C   UNL A   1      42.208  30.371  35.647  1.00  0.00     0.049 A 
ATOM     49  C   UNL A   1      38.076  33.065  32.979  1.00  0.00     0.074 A 
ATOM     50  C   UNL A   1      42.639  30.924  36.840  1.00  0.00     0.029 A 
ATOM     51  N   UNL A   1      41.182  31.180  35.180  1.00  0.00    -0.354 N 
ATOM     52  N   UNL A   1      39.037  32.553  33.710  1.00  0.00    -0.248 NA
ATOM     53  C   UNL A   1      37.427  34.241  33.575  1.00  0.00     0.031 C 
ATOM     54  C   UNL A   1      41.844  32.043  37.117  1.00  0.00     0.029 A 
ATOM     55  C   UNL A   1      40.951  32.215  36.071  1.00  0.00     0.049 A 
ATOM     56  H   UNL A   1      40.690  31.040  34.338  1.00  0.00     0.167 HD
ATOM     57  C   UNL A   1      39.125  33.359  34.840  1.00  0.00     0.074 A 
ATOM     58  C   UNL A   1      38.127  34.399  34.690  1.00  0.00     0.031 C 
ATOM     59  C   UNL A   1      39.958  33.248  35.904  1.00  0.00     0.037 A 
BRANCH  46  60
ATOM     60  C   UNL A   1      43.774  28.386  35.651  1.00  0.00     0.058 A 
ATOM     61  C   UNL A   1      45.134  28.622  35.395  1.00  0.00     0.135 A 
ATOM     62  C   UNL A   1      43.449  27.394  36.592  1.00  0.00     0.135 A 
ATOM     63  F   UNL A   1      45.502  29.548  34.496  1.00  0.00    -0.206 F 
ATOM     64  C   UNL A   1      46.132  27.884  36.023  1.00  0.00     0.059 A 
ATOM     65  C   UNL A   1      44.432  26.663  37.253  1.00  0.00     0.059 A 
ATOM     66  F   UNL A   1      42.164  27.128  36.876  1.00  0.00    -0.206 F 
ATOM     67  C   UNL A   1      45.771  26.905  36.950  1.00  0.00     0.060 A 
BRANCH  67  68
ATOM     68  S   UNL A   1      47.079  25.959  37.759  1.00  0.00     0.124 S 
ATOM     69  O   UNL A   1      46.762  24.601  37.329  1.00  0.00    -0.237 OA
ATOM     70  O   UNL A   1      48.287  26.541  37.182  1.00  0.00    -0.237 OA
ATOM     71  O   UNL A   1      46.870  26.233  39.177  1.00  0.00    -0.744 OA
ENDBRANCH  67  68
ENDBRANCH  46  60
BRANCH  47  72
ATOM     72  C   UNL A   1      36.456  33.333  30.958  1.00  0.00     0.058 A 
ATOM     73  C   UNL A   1      35.137  33.227  31.424  1.00  0.00     0.135 A 
ATOM     74  C   UNL A   1      36.692  34.152  29.843  1.00  0.00     0.135 A 
ATOM     75  F   UNL A   1      34.860  32.451  32.482  1.00  0.00    -0.206 F 
ATOM     76  C   UNL A   1      34.089  33.897  30.802  1.00  0.00     0.059 A 
ATOM     77  C   UNL A   1      35.664  34.852  29.220  1.00  0.00     0.059 A 
ATOM     78  F   UNL A   1      37.939  34.301  29.369  1.00  0.00    -0.206 F 
ATOM     79  C   UNL A   1      34.363  34.711  29.701  1.00  0.00     0.060 A 
BRANCH  79  80
ATOM     80  S   UNL A   1      33.002  35.619  28.935  1.00  0.00     0.124 S 
ATOM     81  O   UNL A   1      32.358  34.573  28.149  1.00  0.00    -0.237 OA
ATOM     82  O   UNL A   1      32.259  36.096  30.096  1.00  0.00    -0.237 OA
ATOM     83  O   UNL A   1      33.684  36.658  28.167  1.00  0.00    -0.744 OA
ENDBRANCH  79  80
ENDBRANCH  47  72
BRANCH  59  84
ATOM     84  C   UNL A   1      39.851  34.293  36.979  1.00  0.00     0.058 A 
ATOM     85  C   UNL A   1      40.542  35.511  36.893  1.00  0.00     0.135 A 
ATOM     86  C   UNL A   1      38.999  34.097  38.077  1.00  0.00     0.135 A 
ATOM     87  F   UNL A   1      41.377  35.745  35.868  1.00  0.00    -0.206 F 
ATOM     88  C   UNL A   1      40.403  36.494  37.868  1.00  0.00     0.059 A 
ATOM     89  C   UNL A   1      38.824  35.076  39.050  1.00  0.00     0.059 A 
ATOM     90  F   UNL A   1      38.310  32.952  38.203  1.00  0.00    -0.206 F 
ATOM     91  C   UNL A   1      39.538  36.269  38.941  1.00  0.00     0.060 A 
BRANCH  91  92
ATOM     92  S   UNL A   1      39.331  37.572  40.173  1.00  0.00     0.124 S 
ATOM     93  O   UNL A   1      38.267  38.374  39.579  1.00  0.00    -0.237 OA
ATOM     94  O   UNL A   1      38.965  36.816  41.368  1.00  0.00    -0.237 OA
ATOM     95  O   UNL A   1      40.646  38.207  40.220  1.00  0.00    -0.744 OA
ENDBRANCH  91  92
ENDBRANCH  59  84
ENDBRANCH  33  34
ENDBRANCH  25  28
ENDBRANCH   1  24
TORSDOF 15
ENDMDL
MODEL 2
REMARK VINA RESULT:     -12.7      5.094     10.357
REMARK SMILES CCc1ccc2c(c1)C=C(C(=O)NCCCNC(=O)c1ccc(-c3c4nc(c(-c5c(F)cc(S(=O)(=O)[O-])cc5F)c5ccc([nH]5)c(-c5c(F)cc(S(=O)(=O)[O-])cc5F)c5nc(c(-c6c(F)cc(S(=O)(=O)[O-])cc6F)c6ccc3[nH]6)C=C5)C=C4)cc1)[C@H](C(F)(F)F)O2
REMARK SMILES IDX 16 1 15 2 14 3 13 4 11 5 12 6 10 8 3 9 4 10 8 11 5 12 7 13
REMARK SMILES IDX 6 14 9 15 91 16 86 17 2 18 1 19 87 20 88 21 89 22 90 23
REMARK SMILES IDX 17 24 18 25 19 27 20 28 21 29 85 30 22 31 84 32 23 33 24 34
REMARK SMILES IDX 25 35 78 36 26 37 83 38 77 39 79 40 27 41 82 42 76 43 75 44
REMARK SMILES IDX 28 46 62 47 41 48 61 49 42 50 45 51 60 52 80 53 43 54 44 55
REMARK SMILES IDX 59 57 81 58 46 59 29 60 30 61 39 62 31 63 32 64 38 65 40 66
REMARK SMILES IDX 33 67 34 68 35 69 36 70 37 71 63 72 64 73 73 74 65 75 66 76
REMARK SMILES IDX 72 77 74 78 67 79 68 80 69 81 70 82 71 83 47 84 48 85 57 86
REMARK SMILES IDX 49 87 50 88 56 89 58 90 51 91 52 92 53 93 54 94 55 95
REMARK H PARENT 13 7 17 26 79 45 45 56
REMARK Flexibility Score: inf
ROOT
ATOM      1  C   UNL A   1      33.643  28.300  27.274  1.00  0.00     0.118 C 
ENDROOT
BRANCH   1   2
ATOM      2  C   UNL A   1      33.157  27.948  25.868  1.00  0.00     0.042 C 
BRANCH   2   3
ATOM      3  C   UNL A   1      31.653  27.668  25.800  1.00  0.00     0.118 C 
BRANCH   3   4
ATOM      4  N   UNL A   1      31.308  26.499  26.596  1.00  0.00    -0.352 N 
ATOM      5  C   UNL A   1      31.674  25.191  26.535  1.00  0.00     0.251 C 
ATOM      6  O   UNL A   1      31.111  24.404  27.293  1.00  0.00    -0.270 OA
ATOM      7  H   UNL A   1      30.683  26.697  27.330  1.00  0.00     0.163 HD
BRANCH   5   8
ATOM      8  C   UNL A   1      32.767  24.693  25.661  1.00  0.00     0.067 C 
ATOM      9  C   UNL A   1      37.092  22.645  24.897  1.00  0.00    -0.047 A 
ATOM     10  C   UNL A   1      36.769  22.502  23.541  1.00  0.00     0.007 A 
ATOM     11  C   UNL A   1      36.172  23.295  25.734  1.00  0.00     0.015 A 
ATOM     12  C   UNL A   1      35.550  22.978  23.047  1.00  0.00     0.047 A 
ATOM     13  C   UNL A   1      34.948  23.766  25.241  1.00  0.00     0.017 A 
ATOM     14  C   UNL A   1      34.639  23.598  23.898  1.00  0.00     0.128 A 
ATOM     15  C   UNL A   1      33.961  24.327  26.145  1.00  0.00     0.025 C 
ATOM     16  O   UNL A   1      33.439  23.952  23.358  1.00  0.00    -0.475 OA
ATOM     17  C   UNL A   1      32.528  24.768  24.154  1.00  0.00     0.314 C 
BRANCH   9  18
ATOM     18  C   UNL A   1      38.351  22.095  25.528  1.00  0.00     0.032 C 
ATOM     19  C   UNL A   1      39.006  22.940  26.611  1.00  0.00     0.009 C 
ENDBRANCH   9  18
BRANCH  17  20
ATOM     20  C   UNL A   1      31.097  24.447  23.663  1.00  0.00     0.429 C 
ATOM     21  F   UNL A   1      30.491  23.481  24.387  1.00  0.00    -0.167 F 
ATOM     22  F   UNL A   1      30.288  25.538  23.778  1.00  0.00    -0.167 F 
ATOM     23  F   UNL A   1      31.066  24.082  22.359  1.00  0.00    -0.167 F 
ENDBRANCH  17  20
ENDBRANCH   5   8
ENDBRANCH   3   4
ENDBRANCH   2   3
ENDBRANCH   1   2
BRANCH   1  24
ATOM     24  N   UNL A   1      33.554  29.730  27.534  1.00  0.00    -0.352 N 
ATOM     25  C   UNL A   1      34.456  30.573  28.138  1.00  0.00     0.251 C 
ATOM     26  H   UNL A   1      32.720  30.158  27.232  1.00  0.00     0.163 HD
ATOM     27  O   UNL A   1      34.093  31.694  28.481  1.00  0.00    -0.269 OA
BRANCH  25  28
ATOM     28  C   UNL A   1      35.848  30.135  28.387  1.00  0.00     0.039 A 
ATOM     29  C   UNL A   1      36.757  30.142  27.325  1.00  0.00     0.014 A 
ATOM     30  C   UNL A   1      36.248  29.681  29.647  1.00  0.00     0.014 A 
ATOM     31  C   UNL A   1      38.081  29.750  27.541  1.00  0.00     0.010 A 
ATOM     32  C   UNL A   1      37.582  29.352  29.876  1.00  0.00     0.010 A 
ATOM     33  C   UNL A   1      38.513  29.384  28.827  1.00  0.00    -0.014 A 
BRANCH  33  34
ATOM     34  C   UNL A   1      39.935  29.048  29.098  1.00  0.00     0.031 A 
ATOM     35  C   UNL A   1      40.867  30.090  29.655  1.00  0.00     0.074 A 
ATOM     36  C   UNL A   1      40.401  27.827  28.773  1.00  0.00     0.049 A 
ATOM     37  N   UNL A   1      42.156  30.016  29.866  1.00  0.00    -0.248 NA
ATOM     38  C   UNL A   1      40.277  31.394  29.998  1.00  0.00     0.031 C 
ATOM     39  C   UNL A   1      39.603  26.745  28.191  1.00  0.00     0.029 A 
ATOM     40  N   UNL A   1      41.661  27.291  28.869  1.00  0.00    -0.354 N 
ATOM     41  C   UNL A   1      42.534  31.262  30.350  1.00  0.00     0.074 A 
ATOM     42  C   UNL A   1      41.347  32.089  30.359  1.00  0.00     0.031 C 
ATOM     43  C   UNL A   1      40.388  25.673  27.999  1.00  0.00     0.029 A 
ATOM     44  C   UNL A   1      41.751  26.002  28.400  1.00  0.00     0.049 A 
ATOM     45  H   UNL A   1      42.429  27.785  29.240  1.00  0.00     0.167 HD
ATOM     46  C   UNL A   1      43.756  31.674  30.770  1.00  0.00     0.037 A 
ATOM     47  C   UNL A   1      42.815  25.181  28.291  1.00  0.00     0.037 A 
ATOM     48  C   UNL A   1      44.929  30.838  30.776  1.00  0.00     0.049 A 
ATOM     49  C   UNL A   1      44.163  25.666  28.747  1.00  0.00     0.074 A 
ATOM     50  C   UNL A   1      46.200  31.143  31.230  1.00  0.00     0.029 A 
ATOM     51  N   UNL A   1      44.976  29.533  30.307  1.00  0.00    -0.354 N 
ATOM     52  N   UNL A   1      44.491  26.830  29.254  1.00  0.00    -0.248 NA
ATOM     53  C   UNL A   1      45.286  24.727  28.619  1.00  0.00     0.031 C 
ATOM     54  C   UNL A   1      47.027  30.039  30.995  1.00  0.00     0.029 A 
ATOM     55  C   UNL A   1      46.259  29.027  30.440  1.00  0.00     0.049 A 
ATOM     56  H   UNL A   1      44.210  29.039  29.935  1.00  0.00     0.167 HD
ATOM     57  C   UNL A   1      45.852  26.755  29.529  1.00  0.00     0.074 A 
ATOM     58  C   UNL A   1      46.284  25.427  29.143  1.00  0.00     0.031 C 
ATOM     59  C   UNL A   1      46.671  27.699  30.056  1.00  0.00     0.037 A 
BRANCH  46  60
ATOM     60  C   UNL A   1      43.887  33.091  31.258  1.00  0.00     0.058 A 
ATOM     61  C   UNL A   1      44.163  34.150  30.379  1.00  0.00     0.135 A 
ATOM     62  C   UNL A   1      43.694  33.402  32.615  1.00  0.00     0.135 A 
ATOM     63  F   UNL A   1      44.370  33.910  29.075  1.00  0.00    -0.206 F 
ATOM     64  C   UNL A   1      44.275  35.461  30.831  1.00  0.00     0.059 A 
ATOM     65  C   UNL A   1      43.773  34.710  33.084  1.00  0.00     0.059 A 
ATOM     66  F   UNL A   1      43.426  32.428  33.500  1.00  0.00    -0.206 F 
ATOM     67  C   UNL A   1      44.079  35.731  32.186  1.00  0.00     0.060 A 
BRANCH  67  68
ATOM     68  S   UNL A   1      44.224  37.439  32.754  1.00  0.00     0.124 S 
ATOM     69  O   UNL A   1      45.564  37.439  33.332  1.00  0.00    -0.237 OA
ATOM     70  O   UNL A   1      44.068  38.195  31.515  1.00  0.00    -0.237 OA
ATOM     71  O   UNL A   1      43.129  37.574  33.710  1.00  0.00    -0.744 OA
ENDBRANCH  67  68
ENDBRANCH  46  60
BRANCH  47  72
ATOM     72  C   UNL A   1      42.640  23.811  27.740  1.00  0.00     0.058 A 
ATOM     73  C   UNL A   1      42.697  23.579  26.357  1.00  0.00     0.135 A 
ATOM     74  C   UNL A   1      42.429  22.707  28.580  1.00  0.00     0.135 A 
ATOM     75  F   UNL A   1      42.890  24.604  25.513  1.00  0.00    -0.206 F 
ATOM     76  C   UNL A   1      42.540  22.304  25.825  1.00  0.00     0.059 A 
ATOM     77  C   UNL A   1      42.294  21.418  28.073  1.00  0.00     0.059 A 
ATOM     78  F   UNL A   1      42.384  22.873  29.911  1.00  0.00    -0.206 F 
ATOM     79  C   UNL A   1      42.341  21.228  26.692  1.00  0.00     0.060 A 
BRANCH  79  80
ATOM     80  S   UNL A   1      42.192  19.568  25.995  1.00  0.00     0.124 S 
ATOM     81  O   UNL A   1      43.072  19.658  24.835  1.00  0.00    -0.237 OA
ATOM     82  O   UNL A   1      42.664  18.730  27.092  1.00  0.00    -0.237 OA
ATOM     83  O   UNL A   1      40.766  19.456  25.700  1.00  0.00    -0.744 OA
ENDBRANCH  79  80
ENDBRANCH  47  72
BRANCH  59  84
ATOM     84  C   UNL A   1      48.110  27.326  30.276  1.00  0.00     0.058 A 
ATOM     85  C   UNL A   1      49.095  27.593  29.313  1.00  0.00     0.135 A 
ATOM     86  C   UNL A   1      48.517  26.751  31.490  1.00  0.00     0.135 A 
ATOM     87  F   UNL A   1      48.758  28.134  28.132  1.00  0.00    -0.206 F 
ATOM     88  C   UNL A   1      50.433  27.289  29.541  1.00  0.00     0.059 A 
ATOM     89  C   UNL A   1      49.852  26.462  31.750  1.00  0.00     0.059 A 
ATOM     90  F   UNL A   1      47.614  26.482  32.447  1.00  0.00    -0.206 F 
ATOM     91  C   UNL A   1      50.803  26.727  30.765  1.00  0.00     0.060 A 
BRANCH  91  92
ATOM     92  S   UNL A   1      52.549  26.380  31.066  1.00  0.00     0.124 S 
ATOM     93  O   UNL A   1      52.476  25.128  31.812  1.00  0.00    -0.237 OA
ATOM     94  O   UNL A   1      53.086  26.281  29.712  1.00  0.00    -0.237 OA
ATOM     95  O   UNL A   1      53.000  27.540  31.829  1.00  0.00    -0.744 OA
ENDBRANCH  91  92
ENDBRANCH  59  84
ENDBRANCH  33  34
ENDBRANCH  25  28
ENDBRANCH   1  24
TORSDOF 15
ENDMDL
MODEL 3
REMARK VINA RESULT:     -12.6      5.201     10.406
REMARK SMILES CCc1ccc2c(c1)C=C(C(=O)NCCCNC(=O)c1ccc(-c3c4nc(c(-c5c(F)cc(S(=O)(=O)[O-])cc5F)c5ccc([nH]5)c(-c5c(F)cc(S(=O)(=O)[O-])cc5F)c5nc(c(-c6c(F)cc(S(=O)(=O)[O-])cc6F)c6ccc3[nH]6)C=C5)C=C4)cc1)[C@H](C(F)(F)F)O2
REMARK SMILES IDX 16 1 15 2 14 3 13 4 11 5 12 6 10 8 3 9 4 10 8 11 5 12 7 13
REMARK SMILES IDX 6 14 9 15 91 16 86 17 2 18 1 19 87 20 88 21 89 22 90 23
REMARK SMILES IDX 17 24 18 25 19 27 20 28 21 29 85 30 22 31 84 32 23 33 24 34
REMARK SMILES IDX 25 35 78 36 26 37 83 38 77 39 79 40 27 41 82 42 76 43 75 44
REMARK SMILES IDX 28 46 62 47 41 48 61 49 42 50 45 51 60 52 80 53 43 54 44 55
REMARK SMILES IDX 59 57 81 58 46 59 29 60 30 61 39 62 31 63 32 64 38 65 40 66
REMARK SMILES IDX 33 67 34 68 35 69 36 70 37 71 63 72 64 73 73 74 65 75 66 76
REMARK SMILES IDX 72 77 74 78 67 79 68 80 69 81 70 82 71 83 47 84 48 85 57 86
REMARK SMILES IDX 49 87 50 88 56 89 58 90 51 91 52 92 53 93 54 94 55 95
REMARK H PARENT 13 7 17 26 79 45 45 56
REMARK Flexibility Score: inf
ROOT
ATOM      1  C   UNL A   1      33.708  28.304  27.256  1.00  0.00     0.118 C 
ENDROOT
BRANCH   1   2
ATOM      2  C   UNL A   1      33.191  28.006  25.849  1.00  0.00     0.042 C 
BRANCH   2   3
ATOM      3  C   UNL A   1      31.668  27.841  25.785  1.00  0.00     0.118 C 
BRANCH   3   4
ATOM      4  N   UNL A   1      31.245  26.662  26.527  1.00  0.00    -0.352 N 
ATOM      5  C   UNL A   1      31.569  25.344  26.444  1.00  0.00     0.251 C 
ATOM      6  O   UNL A   1      30.943  24.556  27.148  1.00  0.00    -0.270 OA
ATOM      7  H   UNL A   1      30.591  26.860  27.235  1.00  0.00     0.163 HD
BRANCH   5   8
ATOM      8  C   UNL A   1      32.688  24.834  25.609  1.00  0.00     0.067 C 
ATOM      9  C   UNL A   1      36.970  22.649  24.996  1.00  0.00    -0.047 A 
ATOM     10  C   UNL A   1      36.714  22.564  23.622  1.00  0.00     0.007 A 
ATOM     11  C   UNL A   1      36.031  23.305  25.808  1.00  0.00     0.015 A 
ATOM     12  C   UNL A   1      35.540  23.101  23.083  1.00  0.00     0.047 A 
ATOM     13  C   UNL A   1      34.853  23.839  25.270  1.00  0.00     0.017 A 
ATOM     14  C   UNL A   1      34.608  23.728  23.907  1.00  0.00     0.128 A 
ATOM     15  C   UNL A   1      33.841  24.407  26.141  1.00  0.00     0.025 C 
ATOM     16  O   UNL A   1      33.453  24.144  23.319  1.00  0.00    -0.475 OA
ATOM     17  C   UNL A   1      32.531  24.967  24.096  1.00  0.00     0.314 C 
BRANCH   9  18
ATOM     18  C   UNL A   1      38.173  22.031  25.672  1.00  0.00     0.032 C 
ATOM     19  C   UNL A   1      39.081  22.966  26.457  1.00  0.00     0.009 C 
ENDBRANCH   9  18
BRANCH  17  20
ATOM     20  C   UNL A   1      31.117  24.718  23.521  1.00  0.00     0.429 C 
ATOM     21  F   UNL A   1      30.341  25.823  23.521  1.00  0.00    -0.167 F 
ATOM     22  F   UNL A   1      31.185  24.330  22.216  1.00  0.00    -0.167 F 
ATOM     23  F   UNL A   1      30.456  23.736  24.179  1.00  0.00    -0.167 F 
ENDBRANCH  17  20
ENDBRANCH   5   8
ENDBRANCH   3   4
ENDBRANCH   2   3
ENDBRANCH   1   2
BRANCH   1  24
ATOM     24  N   UNL A   1      33.602  29.718  27.583  1.00  0.00    -0.352 N 
ATOM     25  C   UNL A   1      34.496  30.543  28.222  1.00  0.00     0.251 C 
ATOM     26  H   UNL A   1      32.762  30.150  27.304  1.00  0.00     0.163 HD
ATOM     27  O   UNL A   1      34.122  31.643  28.617  1.00  0.00    -0.269 OA
BRANCH  25  28
ATOM     28  C   UNL A   1      35.895  30.112  28.445  1.00  0.00     0.039 A 
ATOM     29  C   UNL A   1      36.779  30.102  27.362  1.00  0.00     0.014 A 
ATOM     30  C   UNL A   1      36.325  29.678  29.702  1.00  0.00     0.014 A 
ATOM     31  C   UNL A   1      38.108  29.715  27.554  1.00  0.00     0.010 A 
ATOM     32  C   UNL A   1      37.665  29.356  29.906  1.00  0.00     0.010 A 
ATOM     33  C   UNL A   1      38.570  29.371  28.835  1.00  0.00    -0.014 A 
BRANCH  33  34
ATOM     34  C   UNL A   1      39.999  29.042  29.078  1.00  0.00     0.031 A 
ATOM     35  C   UNL A   1      40.939  30.090  29.610  1.00  0.00     0.074 A 
ATOM     36  C   UNL A   1      40.463  27.820  28.750  1.00  0.00     0.049 A 
ATOM     37  N   UNL A   1      42.232  30.021  29.794  1.00  0.00    -0.248 NA
ATOM     38  C   UNL A   1      40.352  31.394  29.958  1.00  0.00     0.031 C 
ATOM     39  C   UNL A   1      39.656  26.733  28.191  1.00  0.00     0.029 A 
ATOM     40  N   UNL A   1      41.727  27.289  28.823  1.00  0.00    -0.354 N 
ATOM     41  C   UNL A   1      42.616  31.271  30.264  1.00  0.00     0.074 A 
ATOM     42  C   UNL A   1      41.426  32.094  30.293  1.00  0.00     0.031 C 
ATOM     43  C   UNL A   1      40.441  25.662  27.987  1.00  0.00     0.029 A 
ATOM     44  C   UNL A   1      41.811  25.998  28.358  1.00  0.00     0.049 A 
ATOM     45  H   UNL A   1      42.500  27.787  29.174  1.00  0.00     0.167 HD
ATOM     46  C   UNL A   1      43.845  31.690  30.656  1.00  0.00     0.037 A 
ATOM     47  C   UNL A   1      42.875  25.180  28.231  1.00  0.00     0.037 A 
ATOM     48  C   UNL A   1      45.020  30.858  30.642  1.00  0.00     0.049 A 
ATOM     49  C   UNL A   1      44.231  25.672  28.657  1.00  0.00     0.074 A 
ATOM     50  C   UNL A   1      46.300  31.170  31.067  1.00  0.00     0.029 A 
ATOM     51  N   UNL A   1      45.063  29.550  30.179  1.00  0.00    -0.354 N 
ATOM     52  N   UNL A   1      44.566  26.840  29.151  1.00  0.00    -0.248 NA
ATOM     53  C   UNL A   1      45.354  24.736  28.511  1.00  0.00     0.031 C 
ATOM     54  C   UNL A   1      47.125  30.067  30.821  1.00  0.00     0.029 A 
ATOM     55  C   UNL A   1      46.349  29.050  30.288  1.00  0.00     0.049 A 
ATOM     56  H   UNL A   1      44.291  29.052  29.825  1.00  0.00     0.167 HD
ATOM     57  C   UNL A   1      45.932  26.771  29.398  1.00  0.00     0.074 A 
ATOM     58  C   UNL A   1      46.360  25.442  29.010  1.00  0.00     0.031 C 
ATOM     59  C   UNL A   1      46.758  27.721  29.903  1.00  0.00     0.037 A 
BRANCH  46  60
ATOM     60  C   UNL A   1      43.981  33.110  31.134  1.00  0.00     0.058 A 
ATOM     61  C   UNL A   1      43.813  33.450  32.485  1.00  0.00     0.135 A 
ATOM     62  C   UNL A   1      44.323  34.137  30.239  1.00  0.00     0.135 A 
ATOM     63  F   UNL A   1      43.472  32.511  33.382  1.00  0.00    -0.206 F 
ATOM     64  C   UNL A   1      43.948  34.762  32.928  1.00  0.00     0.059 A 
ATOM     65  C   UNL A   1      44.491  35.452  30.665  1.00  0.00     0.059 A 
ATOM     66  F   UNL A   1      44.497  33.868  28.935  1.00  0.00    -0.206 F 
ATOM     67  C   UNL A   1      44.286  35.756  32.010  1.00  0.00     0.060 A 
BRANCH  67  68
ATOM     68  S   UNL A   1      44.461  37.453  32.603  1.00  0.00     0.124 S 
ATOM     69  O   UNL A   1      45.911  37.567  32.730  1.00  0.00    -0.237 OA
ATOM     70  O   UNL A   1      43.857  38.226  31.522  1.00  0.00    -0.237 OA
ATOM     71  O   UNL A   1      43.720  37.453  33.860  1.00  0.00    -0.744 OA
ENDBRANCH  67  68
ENDBRANCH  46  60
BRANCH  47  72
ATOM     72  C   UNL A   1      42.694  23.807  27.691  1.00  0.00     0.058 A 
ATOM     73  C   UNL A   1      42.475  22.720  28.550  1.00  0.00     0.135 A 
ATOM     74  C   UNL A   1      42.720  23.555  26.311  1.00  0.00     0.135 A 
ATOM     75  F   UNL A   1      42.447  22.909  29.878  1.00  0.00    -0.206 F 
ATOM     76  C   UNL A   1      42.299  21.429  28.062  1.00  0.00     0.059 A 
ATOM     77  C   UNL A   1      42.522  22.277  25.797  1.00  0.00     0.059 A 
ATOM     78  F   UNL A   1      42.909  24.564  25.446  1.00  0.00    -0.206 F 
ATOM     79  C   UNL A   1      42.321  21.218  26.682  1.00  0.00     0.060 A 
BRANCH  79  80
ATOM     80  S   UNL A   1      42.038  19.547  26.056  1.00  0.00     0.124 S 
ATOM     81  O   UNL A   1      42.907  19.523  24.884  1.00  0.00    -0.237 OA
ATOM     82  O   UNL A   1      42.461  18.722  27.182  1.00  0.00    -0.237 OA
ATOM     83  O   UNL A   1      40.604  19.532  25.780  1.00  0.00    -0.744 OA
ENDBRANCH  79  80
ENDBRANCH  47  72
BRANCH  59  84
ATOM     84  C   UNL A   1      48.203  27.353  30.094  1.00  0.00     0.058 A 
ATOM     85  C   UNL A   1      49.154  27.551  29.081  1.00  0.00     0.135 A 
ATOM     86  C   UNL A   1      48.652  26.857  31.328  1.00  0.00     0.135 A 
ATOM     87  F   UNL A   1      48.776  28.015  27.880  1.00  0.00    -0.206 F 
ATOM     88  C   UNL A   1      50.498  27.254  29.281  1.00  0.00     0.059 A 
ATOM     89  C   UNL A   1      49.994  26.577  31.559  1.00  0.00     0.059 A 
ATOM     90  F   UNL A   1      47.783  26.657  32.333  1.00  0.00    -0.206 F 
ATOM     91  C   UNL A   1      50.910  26.771  30.524  1.00  0.00     0.060 A 
BRANCH  91  92
ATOM     92  S   UNL A   1      52.664  26.433  30.784  1.00  0.00     0.124 S 
ATOM     93  O   UNL A   1      53.133  26.238  29.416  1.00  0.00    -0.237 OA
ATOM     94  O   UNL A   1      53.123  27.652  31.444  1.00  0.00    -0.237 OA
ATOM     95  O   UNL A   1      52.660  25.237  31.622  1.00  0.00    -0.744 OA
ENDBRANCH  91  92
ENDBRANCH  59  84
ENDBRANCH  33  34
ENDBRANCH  25  28
ENDBRANCH   1  24
TORSDOF 15
ENDMDL
