MODEL 1
REMARK VINA RESULT:     -11.5      0.000      0.000
REMARK SMILES O=C(Cn1nc(-c2ccco2)ccc1=O)NCCCNC(=O)c1ccc(-c2c3nc(c(-c4c(F)cc(S(=O)(=O)[O-])cc4F)c4ccc([nH]4)c(-c4c(F)cc(S(=O)(=O)[O-])cc4F)c4nc(c(-c5c(F)cc(S(=O)(=O)[O-])cc5F)c5ccc2[nH]5)C=C4)C=C3)cc1
REMARK SMILES IDX 18 1 17 2 16 3 1 4 2 5 3 7 4 8 5 9 14 10 6 11 13 12 15 13
REMARK SMILES IDX 12 14 7 15 8 16 11 17 9 18 10 19 19 20 20 21 21 22 22 24
REMARK SMILES IDX 23 25 24 26 88 27 25 28 87 29 26 30 27 31 28 32 81 33 29 34
REMARK SMILES IDX 86 35 80 36 82 37 30 38 85 39 79 40 78 41 31 43 65 44 44 45
REMARK SMILES IDX 64 46 45 47 48 48 63 49 83 50 46 51 47 52 62 54 84 55 49 56
REMARK SMILES IDX 32 57 33 58 42 59 34 60 35 61 41 62 43 63 36 64 37 65 38 66
REMARK SMILES IDX 39 67 40 68 66 69 67 70 76 71 68 72 69 73 75 74 77 75 70 76
REMARK SMILES IDX 71 77 72 78 73 79 74 80 50 81 51 82 60 83 52 84 53 85 59 86
REMARK SMILES IDX 61 87 54 88 55 89 56 90 57 91 58 92
REMARK H PARENT 16 6 20 23 82 42 48 53
REMARK Flexibility Score: inf
ROOT
ATOM      1  C   UNL A   1      37.550  33.203  32.114  1.00  0.00     0.042 C 
ENDROOT
BRANCH   1   2
ATOM      2  C   UNL A   1      37.263  34.517  32.834  1.00  0.00     0.117 C 
BRANCH   2   3
ATOM      3  N   UNL A   1      35.965  35.072  32.519  1.00  0.00    -0.354 N 
ATOM      4  O   UNL A   1      34.761  33.886  34.065  1.00  0.00    -0.273 OA
ATOM      5  C   UNL A   1      34.806  34.758  33.201  1.00  0.00     0.241 C 
ATOM      6  H   UNL A   1      35.904  35.711  31.773  1.00  0.00     0.163 HD
BRANCH   5   7
ATOM      7  C   UNL A   1      33.545  35.426  32.638  1.00  0.00     0.248 C 
BRANCH   7   8
ATOM      8  N   UNL A   1      33.504  35.348  31.174  1.00  0.00    -0.220 N 
ATOM      9  N   UNL A   1      33.892  34.147  30.599  1.00  0.00    -0.166 NA
ATOM     10  C   UNL A   1      33.178  36.486  30.446  1.00  0.00     0.267 A 
ATOM     11  C   UNL A   1      34.013  34.105  29.306  1.00  0.00     0.126 A 
ATOM     12  C   UNL A   1      33.296  36.373  28.978  1.00  0.00     0.076 A 
ATOM     13  O   UNL A   1      32.815  37.556  30.925  1.00  0.00    -0.268 OA
ATOM     14  C   UNL A   1      33.725  35.245  28.411  1.00  0.00     0.040 A 
BRANCH  11  15
ATOM     15  C   UNL A   1      34.474  32.885  28.696  1.00  0.00     0.154 A 
ATOM     16  C   UNL A   1      35.739  32.444  28.359  1.00  0.00     0.052 A 
ATOM     17  O   UNL A   1      33.546  31.958  28.303  1.00  0.00    -0.463 OA
ATOM     18  C   UNL A   1      35.574  31.190  27.723  1.00  0.00     0.043 A 
ATOM     19  C   UNL A   1      34.221  30.953  27.687  1.00  0.00     0.196 A 
ENDBRANCH  11  15
ENDBRANCH   7   8
ENDBRANCH   5   7
ENDBRANCH   2   3
ENDBRANCH   1   2
BRANCH   1  20
ATOM     20  C   UNL A   1      37.319  31.946  32.948  1.00  0.00     0.118 C 
BRANCH  20  21
ATOM     21  N   UNL A   1      36.474  30.951  32.298  1.00  0.00    -0.352 N 
ATOM     22  C   UNL A   1      36.771  30.041  31.307  1.00  0.00     0.251 C 
ATOM     23  H   UNL A   1      35.544  30.924  32.618  1.00  0.00     0.163 HD
ATOM     24  O   UNL A   1      35.874  29.343  30.839  1.00  0.00    -0.269 OA
BRANCH  22  25
ATOM     25  C   UNL A   1      38.149  29.923  30.773  1.00  0.00     0.039 A 
ATOM     26  C   UNL A   1      38.477  30.387  29.499  1.00  0.00     0.014 A 
ATOM     27  C   UNL A   1      39.136  29.327  31.568  1.00  0.00     0.014 A 
ATOM     28  C   UNL A   1      39.725  30.092  28.954  1.00  0.00     0.010 A 
ATOM     29  C   UNL A   1      40.417  29.104  31.047  1.00  0.00     0.010 A 
ATOM     30  C   UNL A   1      40.704  29.429  29.713  1.00  0.00    -0.014 A 
BRANCH  30  31
ATOM     31  C   UNL A   1      41.996  29.054  29.074  1.00  0.00     0.031 A 
ATOM     32  C   UNL A   1      43.152  30.025  29.056  1.00  0.00     0.074 A 
ATOM     33  C   UNL A   1      42.161  27.812  28.576  1.00  0.00     0.049 A 
ATOM     34  N   UNL A   1      44.365  29.853  28.594  1.00  0.00    -0.248 NA
ATOM     35  C   UNL A   1      42.916  31.361  29.626  1.00  0.00     0.031 C 
ATOM     36  C   UNL A   1      41.126  26.778  28.540  1.00  0.00     0.029 A 
ATOM     37  N   UNL A   1      43.263  27.199  28.037  1.00  0.00    -0.354 N 
ATOM     38  C   UNL A   1      45.031  31.055  28.808  1.00  0.00     0.074 A 
ATOM     39  C   UNL A   1      44.078  31.963  29.409  1.00  0.00     0.031 C 
ATOM     40  C   UNL A   1      41.658  25.642  28.063  1.00  0.00     0.029 A 
ATOM     41  C   UNL A   1      43.055  25.879  27.712  1.00  0.00     0.049 A 
ATOM     42  H   UNL A   1      44.123  27.659  27.897  1.00  0.00     0.167 HD
ATOM     43  C   UNL A   1      46.322  31.371  28.547  1.00  0.00     0.037 A 
ATOM     44  C   UNL A   1      43.891  24.961  27.187  1.00  0.00     0.037 A 
ATOM     45  C   UNL A   1      47.282  30.462  27.975  1.00  0.00     0.049 A 
ATOM     46  C   UNL A   1      45.309  25.345  26.873  1.00  0.00     0.074 A 
ATOM     47  C   UNL A   1      48.619  30.688  27.695  1.00  0.00     0.029 A 
ATOM     48  N   UNL A   1      47.011  29.154  27.603  1.00  0.00    -0.354 N 
ATOM     49  N   UNL A   1      45.916  26.488  27.085  1.00  0.00    -0.248 NA
ATOM     50  C   UNL A   1      46.150  24.321  26.238  1.00  0.00     0.031 C 
ATOM     51  C   UNL A   1      49.148  29.528  27.121  1.00  0.00     0.029 A 
ATOM     52  C   UNL A   1      48.151  28.567  27.078  1.00  0.00     0.049 A 
ATOM     53  H   UNL A   1      46.139  28.709  27.697  1.00  0.00     0.167 HD
ATOM     54  C   UNL A   1      47.213  26.318  26.615  1.00  0.00     0.074 A 
ATOM     55  C   UNL A   1      47.309  24.959  26.125  1.00  0.00     0.031 C 
ATOM     56  C   UNL A   1      48.231  27.213  26.587  1.00  0.00     0.037 A 
BRANCH  43  57
ATOM     57  C   UNL A   1      46.784  32.764  28.877  1.00  0.00     0.058 A 
ATOM     58  C   UNL A   1      46.682  33.810  27.948  1.00  0.00     0.135 A 
ATOM     59  C   UNL A   1      47.284  33.067  30.154  1.00  0.00     0.135 A 
ATOM     60  F   UNL A   1      46.226  33.572  26.708  1.00  0.00    -0.206 F 
ATOM     61  C   UNL A   1      47.075  35.106  28.267  1.00  0.00     0.059 A 
ATOM     62  C   UNL A   1      47.662  34.361  30.503  1.00  0.00     0.059 A 
ATOM     63  F   UNL A   1      47.401  32.103  31.081  1.00  0.00    -0.206 F 
ATOM     64  C   UNL A   1      47.564  35.373  29.547  1.00  0.00     0.060 A 
BRANCH  64  65
ATOM     65  S   UNL A   1      48.059  37.062  29.948  1.00  0.00     0.124 S 
ATOM     66  O   UNL A   1      46.774  37.754  29.928  1.00  0.00    -0.237 OA
ATOM     67  O   UNL A   1      48.673  36.903  31.263  1.00  0.00    -0.237 OA
ATOM     68  O   UNL A   1      48.977  37.414  28.869  1.00  0.00    -0.744 OA
ENDBRANCH  64  65
ENDBRANCH  43  57
BRANCH  44  69
ATOM     69  C   UNL A   1      43.398  23.581  26.935  1.00  0.00     0.058 A 
ATOM     70  C   UNL A   1      43.112  23.145  25.633  1.00  0.00     0.135 A 
ATOM     71  C   UNL A   1      43.241  22.663  27.984  1.00  0.00     0.135 A 
ATOM     72  F   UNL A   1      43.238  23.991  24.599  1.00  0.00    -0.206 F 
ATOM     73  C   UNL A   1      42.691  21.845  25.379  1.00  0.00     0.059 A 
ATOM     74  C   UNL A   1      42.843  21.351  27.752  1.00  0.00     0.059 A 
ATOM     75  F   UNL A   1      43.514  23.031  29.246  1.00  0.00    -0.206 F 
ATOM     76  C   UNL A   1      42.567  20.951  26.445  1.00  0.00     0.060 A 
BRANCH  76  77
ATOM     77  S   UNL A   1      42.095  19.244  26.096  1.00  0.00     0.124 S 
ATOM     78  O   UNL A   1      42.921  18.942  24.935  1.00  0.00    -0.237 OA
ATOM     79  O   UNL A   1      42.462  18.565  27.336  1.00  0.00    -0.237 OA
ATOM     80  O   UNL A   1      40.659  19.338  25.846  1.00  0.00    -0.744 OA
ENDBRANCH  76  77
ENDBRANCH  44  69
BRANCH  56  81
ATOM     81  C   UNL A   1      49.540  26.759  26.009  1.00  0.00     0.058 A 
ATOM     82  C   UNL A   1      49.890  27.050  24.682  1.00  0.00     0.135 A 
ATOM     83  C   UNL A   1      50.483  26.091  26.807  1.00  0.00     0.135 A 
ATOM     84  F   UNL A   1      49.020  27.680  23.876  1.00  0.00    -0.206 F 
ATOM     85  C   UNL A   1      51.129  26.688  24.163  1.00  0.00     0.059 A 
ATOM     86  C   UNL A   1      51.735  25.738  26.314  1.00  0.00     0.059 A 
ATOM     87  F   UNL A   1      50.199  25.796  28.086  1.00  0.00    -0.206 F 
ATOM     88  C   UNL A   1      52.047  26.036  24.988  1.00  0.00     0.060 A 
BRANCH  88  89
ATOM     89  S   UNL A   1      53.669  25.617  24.314  1.00  0.00     0.124 S 
ATOM     90  O   UNL A   1      54.536  26.540  25.038  1.00  0.00    -0.237 OA
ATOM     91  O   UNL A   1      53.803  24.208  24.672  1.00  0.00    -0.237 OA
ATOM     92  O   UNL A   1      53.522  25.884  22.886  1.00  0.00    -0.744 OA
ENDBRANCH  88  89
ENDBRANCH  56  81
ENDBRANCH  30  31
ENDBRANCH  22  25
ENDBRANCH  20  21
ENDBRANCH   1  20
TORSDOF 15
ENDMDL
MODEL 2
REMARK VINA RESULT:     -11.3      5.842     14.200
REMARK SMILES O=C(Cn1nc(-c2ccco2)ccc1=O)NCCCNC(=O)c1ccc(-c2c3nc(c(-c4c(F)cc(S(=O)(=O)[O-])cc4F)c4ccc([nH]4)c(-c4c(F)cc(S(=O)(=O)[O-])cc4F)c4nc(c(-c5c(F)cc(S(=O)(=O)[O-])cc5F)c5ccc2[nH]5)C=C4)C=C3)cc1
REMARK SMILES IDX 18 1 17 2 16 3 1 4 2 5 3 7 4 8 5 9 14 10 6 11 13 12 15 13
REMARK SMILES IDX 12 14 7 15 8 16 11 17 9 18 10 19 19 20 20 21 21 22 22 24
REMARK SMILES IDX 23 25 24 26 88 27 25 28 87 29 26 30 27 31 28 32 81 33 29 34
REMARK SMILES IDX 86 35 80 36 82 37 30 38 85 39 79 40 78 41 31 43 65 44 44 45
REMARK SMILES IDX 64 46 45 47 48 48 63 49 83 50 46 51 47 52 62 54 84 55 49 56
REMARK SMILES IDX 32 57 33 58 42 59 34 60 35 61 41 62 43 63 36 64 37 65 38 66
REMARK SMILES IDX 39 67 40 68 66 69 67 70 76 71 68 72 69 73 75 74 77 75 70 76
REMARK SMILES IDX 71 77 72 78 73 79 74 80 50 81 51 82 60 83 52 84 53 85 59 86
REMARK SMILES IDX 61 87 54 88 55 89 56 90 57 91 58 92
REMARK H PARENT 16 6 20 23 82 42 48 53
REMARK Flexibility Score: inf
ROOT
ATOM      1  C   UNL A   1      45.465  24.038  28.112  1.00  0.00     0.042 C 
ENDROOT
BRANCH   1   2
ATOM      2  C   UNL A   1      46.344  24.122  26.868  1.00  0.00     0.117 C 
BRANCH   2   3
ATOM      3  N   UNL A   1      46.390  22.888  26.113  1.00  0.00    -0.354 N 
ATOM      4  O   UNL A   1      45.600  23.731  24.135  1.00  0.00    -0.273 OA
ATOM      5  C   UNL A   1      46.068  22.792  24.774  1.00  0.00     0.241 C 
ATOM      6  H   UNL A   1      46.667  22.069  26.583  1.00  0.00     0.163 HD
BRANCH   5   7
ATOM      7  C   UNL A   1      46.131  21.365  24.213  1.00  0.00     0.248 C 
BRANCH   7   8
ATOM      8  N   UNL A   1      45.011  20.550  24.695  1.00  0.00    -0.220 N 
ATOM      9  N   UNL A   1      43.913  21.228  25.203  1.00  0.00    -0.166 NA
ATOM     10  C   UNL A   1      45.140  19.166  24.707  1.00  0.00     0.267 A 
ATOM     11  C   UNL A   1      42.980  20.529  25.775  1.00  0.00     0.126 A 
ATOM     12  C   UNL A   1      44.033  18.417  25.337  1.00  0.00     0.076 A 
ATOM     13  O   UNL A   1      46.090  18.537  24.251  1.00  0.00    -0.268 OA
ATOM     14  C   UNL A   1      42.998  19.056  25.883  1.00  0.00     0.040 A 
BRANCH  11  15
ATOM     15  C   UNL A   1      41.863  21.221  26.363  1.00  0.00     0.154 A 
ATOM     16  C   UNL A   1      41.130  20.984  27.510  1.00  0.00     0.052 A 
ATOM     17  O   UNL A   1      41.337  22.297  25.699  1.00  0.00    -0.463 OA
ATOM     18  C   UNL A   1      40.104  21.958  27.544  1.00  0.00     0.043 A 
ATOM     19  C   UNL A   1      40.254  22.713  26.406  1.00  0.00     0.196 A 
ENDBRANCH  11  15
ENDBRANCH   7   8
ENDBRANCH   5   7
ENDBRANCH   2   3
ENDBRANCH   1   2
BRANCH   1  20
ATOM     20  C   UNL A   1      43.978  23.832  27.838  1.00  0.00     0.118 C 
BRANCH  20  21
ATOM     21  N   UNL A   1      43.547  24.299  26.525  1.00  0.00    -0.352 N 
ATOM     22  C   UNL A   1      42.752  25.369  26.177  1.00  0.00     0.251 C 
ATOM     23  H   UNL A   1      43.876  23.765  25.767  1.00  0.00     0.163 HD
ATOM     24  O   UNL A   1      42.442  25.533  24.998  1.00  0.00    -0.269 OA
BRANCH  22  25
ATOM     25  C   UNL A   1      42.238  26.301  27.209  1.00  0.00     0.039 A 
ATOM     26  C   UNL A   1      42.806  27.561  27.396  1.00  0.00     0.014 A 
ATOM     27  C   UNL A   1      41.162  25.899  28.011  1.00  0.00     0.014 A 
ATOM     28  C   UNL A   1      42.429  28.335  28.493  1.00  0.00     0.010 A 
ATOM     29  C   UNL A   1      40.729  26.715  29.063  1.00  0.00     0.010 A 
ATOM     30  C   UNL A   1      41.400  27.913  29.352  1.00  0.00    -0.014 A 
BRANCH  30  31
ATOM     31  C   UNL A   1      41.079  28.722  30.561  1.00  0.00     0.031 A 
ATOM     32  C   UNL A   1      41.952  28.644  31.790  1.00  0.00     0.074 A 
ATOM     33  C   UNL A   1      40.046  29.587  30.531  1.00  0.00     0.049 A 
ATOM     34  N   UNL A   1      41.857  29.313  32.912  1.00  0.00    -0.248 NA
ATOM     35  C   UNL A   1      43.073  27.691  31.758  1.00  0.00     0.031 C 
ATOM     36  C   UNL A   1      39.130  29.765  29.403  1.00  0.00     0.029 A 
ATOM     37  N   UNL A   1      39.611  30.501  31.458  1.00  0.00    -0.354 N 
ATOM     38  C   UNL A   1      42.895  28.857  33.718  1.00  0.00     0.074 A 
ATOM     39  C   UNL A   1      43.586  27.828  32.973  1.00  0.00     0.031 C 
ATOM     40  C   UNL A   1      38.282  30.767  29.679  1.00  0.00     0.029 A 
ATOM     41  C   UNL A   1      38.557  31.269  31.022  1.00  0.00     0.049 A 
ATOM     42  H   UNL A   1      40.015  30.597  32.351  1.00  0.00     0.167 HD
ATOM     43  C   UNL A   1      43.253  29.269  34.958  1.00  0.00     0.037 A 
ATOM     44  C   UNL A   1      37.883  32.264  31.633  1.00  0.00     0.037 A 
ATOM     45  C   UNL A   1      42.584  30.313  35.692  1.00  0.00     0.049 A 
ATOM     46  C   UNL A   1      38.277  32.680  33.021  1.00  0.00     0.074 A 
ATOM     47  C   UNL A   1      42.890  30.813  36.946  1.00  0.00     0.029 A 
ATOM     48  N   UNL A   1      41.482  31.021  35.238  1.00  0.00    -0.354 N 
ATOM     49  N   UNL A   1      39.261  32.235  33.765  1.00  0.00    -0.248 NA
ATOM     50  C   UNL A   1      37.460  33.722  33.660  1.00  0.00     0.031 C 
ATOM     51  C   UNL A   1      41.952  31.799  37.266  1.00  0.00     0.029 A 
ATOM     52  C   UNL A   1      41.084  31.941  36.195  1.00  0.00     0.049 A 
ATOM     53  H   UNL A   1      41.047  30.890  34.365  1.00  0.00     0.167 HD
ATOM     54  C   UNL A   1      39.187  32.948  34.956  1.00  0.00     0.074 A 
ATOM     55  C   UNL A   1      38.074  33.865  34.828  1.00  0.00     0.031 C 
ATOM     56  C   UNL A   1      39.969  32.844  36.058  1.00  0.00     0.037 A 
BRANCH  43  57
ATOM     57  C   UNL A   1      44.426  28.592  35.611  1.00  0.00     0.058 A 
ATOM     58  C   UNL A   1      45.737  29.060  35.431  1.00  0.00     0.135 A 
ATOM     59  C   UNL A   1      44.232  27.497  36.469  1.00  0.00     0.135 A 
ATOM     60  F   UNL A   1      45.979  30.094  34.610  1.00  0.00    -0.206 F 
ATOM     61  C   UNL A   1      46.817  28.456  36.066  1.00  0.00     0.059 A 
ATOM     62  C   UNL A   1      45.296  26.890  37.131  1.00  0.00     0.059 A 
ATOM     63  F   UNL A   1      42.998  27.010  36.676  1.00  0.00    -0.206 F 
ATOM     64  C   UNL A   1      46.588  27.371  36.914  1.00  0.00     0.060 A 
BRANCH  64  65
ATOM     65  S   UNL A   1      48.000  26.605  37.738  1.00  0.00     0.124 S 
ATOM     66  O   UNL A   1      48.567  27.740  38.460  1.00  0.00    -0.237 OA
ATOM     67  O   UNL A   1      47.363  25.583  38.563  1.00  0.00    -0.237 OA
ATOM     68  O   UNL A   1      48.808  26.100  36.632  1.00  0.00    -0.744 OA
ENDBRANCH  64  65
ENDBRANCH  43  57
BRANCH  44  69
ATOM     69  C   UNL A   1      36.768  32.940  30.919  1.00  0.00     0.058 A 
ATOM     70  C   UNL A   1      35.433  32.652  31.232  1.00  0.00     0.135 A 
ATOM     71  C   UNL A   1      37.017  33.912  29.938  1.00  0.00     0.135 A 
ATOM     72  F   UNL A   1      35.146  31.721  32.156  1.00  0.00    -0.206 F 
ATOM     73  C   UNL A   1      34.380  33.306  30.602  1.00  0.00     0.059 A 
ATOM     74  C   UNL A   1      35.983  34.596  29.310  1.00  0.00     0.059 A 
ATOM     75  F   UNL A   1      38.279  34.230  29.612  1.00  0.00    -0.206 F 
ATOM     76  C   UNL A   1      34.666  34.284  29.646  1.00  0.00     0.060 A 
BRANCH  76  77
ATOM     77  S   UNL A   1      33.296  35.183  28.889  1.00  0.00     0.124 S 
ATOM     78  O   UNL A   1      32.531  35.595  30.060  1.00  0.00    -0.237 OA
ATOM     79  O   UNL A   1      33.988  36.250  28.172  1.00  0.00    -0.237 OA
ATOM     80  O   UNL A   1      32.663  34.178  28.041  1.00  0.00    -0.744 OA
ENDBRANCH  76  77
ENDBRANCH  44  69
BRANCH  56  81
ATOM     81  C   UNL A   1      39.655  33.742  37.220  1.00  0.00     0.058 A 
ATOM     82  C   UNL A   1      38.803  33.325  38.253  1.00  0.00     0.135 A 
ATOM     83  C   UNL A   1      40.265  35.002  37.337  1.00  0.00     0.135 A 
ATOM     84  F   UNL A   1      38.190  32.133  38.183  1.00  0.00    -0.206 F 
ATOM     85  C   UNL A   1      38.562  34.129  39.363  1.00  0.00     0.059 A 
ATOM     86  C   UNL A   1      40.053  35.813  38.448  1.00  0.00     0.059 A 
ATOM     87  F   UNL A   1      41.094  35.444  36.378  1.00  0.00    -0.206 F 
ATOM     88  C   UNL A   1      39.195  35.370  39.453  1.00  0.00     0.060 A 
BRANCH  88  89
ATOM     89  S   UNL A   1      38.910  36.379  40.924  1.00  0.00     0.124 S 
ATOM     90  O   UNL A   1      37.826  35.652  41.574  1.00  0.00    -0.237 OA
ATOM     91  O   UNL A   1      40.205  36.322  41.597  1.00  0.00    -0.237 OA
ATOM     92  O   UNL A   1      38.552  37.684  40.375  1.00  0.00    -0.744 OA
ENDBRANCH  88  89
ENDBRANCH  56  81
ENDBRANCH  30  31
ENDBRANCH  22  25
ENDBRANCH  20  21
ENDBRANCH   1  20
TORSDOF 15
ENDMDL
MODEL 3
REMARK VINA RESULT:     -11.2      6.916     13.730
REMARK SMILES O=C(Cn1nc(-c2ccco2)ccc1=O)NCCCNC(=O)c1ccc(-c2c3nc(c(-c4c(F)cc(S(=O)(=O)[O-])cc4F)c4ccc([nH]4)c(-c4c(F)cc(S(=O)(=O)[O-])cc4F)c4nc(c(-c5c(F)cc(S(=O)(=O)[O-])cc5F)c5ccc2[nH]5)C=C4)C=C3)cc1
REMARK SMILES IDX 18 1 17 2 16 3 1 4 2 5 3 7 4 8 5 9 14 10 6 11 13 12 15 13
REMARK SMILES IDX 12 14 7 15 8 16 11 17 9 18 10 19 19 20 20 21 21 22 22 24
REMARK SMILES IDX 23 25 24 26 88 27 25 28 87 29 26 30 27 31 28 32 81 33 29 34
REMARK SMILES IDX 86 35 80 36 82 37 30 38 85 39 79 40 78 41 31 43 65 44 44 45
REMARK SMILES IDX 64 46 45 47 48 48 63 49 83 50 46 51 47 52 62 54 84 55 49 56
REMARK SMILES IDX 32 57 33 58 42 59 34 60 35 61 41 62 43 63 36 64 37 65 38 66
REMARK SMILES IDX 39 67 40 68 66 69 67 70 76 71 68 72 69 73 75 74 77 75 70 76
REMARK SMILES IDX 71 77 72 78 73 79 74 80 50 81 51 82 60 83 52 84 53 85 59 86
REMARK SMILES IDX 61 87 54 88 55 89 56 90 57 91 58 92
REMARK H PARENT 16 6 20 23 82 42 48 53
REMARK Flexibility Score: inf
ROOT
ATOM      1  C   UNL A   1      40.074  21.576  26.790  1.00  0.00     0.042 C 
ENDROOT
BRANCH   1   2
ATOM      2  C   UNL A   1      39.078  21.263  25.678  1.00  0.00     0.117 C 
BRANCH   2   3
ATOM      3  N   UNL A   1      37.724  21.662  25.992  1.00  0.00    -0.354 N 
ATOM      4  O   UNL A   1      37.091  22.234  23.866  1.00  0.00    -0.273 OA
ATOM      5  C   UNL A   1      36.801  22.066  25.048  1.00  0.00     0.241 C 
ATOM      6  H   UNL A   1      37.443  21.644  26.935  1.00  0.00     0.163 HD
BRANCH   5   7
ATOM      7  C   UNL A   1      35.451  22.501  25.634  1.00  0.00     0.248 C 
BRANCH   7   8
ATOM      8  N   UNL A   1      34.337  21.789  25.000  1.00  0.00    -0.220 N 
ATOM      9  N   UNL A   1      34.249  20.425  25.236  1.00  0.00    -0.166 NA
ATOM     10  C   UNL A   1      33.496  22.481  24.137  1.00  0.00     0.267 A 
ATOM     11  C   UNL A   1      33.366  19.749  24.564  1.00  0.00     0.126 A 
ATOM     12  C   UNL A   1      32.486  21.671  23.427  1.00  0.00     0.076 A 
ATOM     13  O   UNL A   1      33.538  23.689  23.922  1.00  0.00    -0.268 OA
ATOM     14  C   UNL A   1      32.426  20.350  23.596  1.00  0.00     0.040 A 
BRANCH  11  15
ATOM     15  C   UNL A   1      33.303  18.323  24.750  1.00  0.00     0.154 A 
ATOM     16  C   UNL A   1      34.050  17.290  24.220  1.00  0.00     0.052 A 
ATOM     17  O   UNL A   1      32.316  17.810  25.548  1.00  0.00    -0.463 OA
ATOM     18  C   UNL A   1      33.488  16.087  24.712  1.00  0.00     0.043 A 
ATOM     19  C   UNL A   1      32.418  16.456  25.491  1.00  0.00     0.196 A 
ENDBRANCH  11  15
ENDBRANCH   7   8
ENDBRANCH   5   7
ENDBRANCH   2   3
ENDBRANCH   1   2
BRANCH   1  20
ATOM     20  C   UNL A   1      40.132  23.042  27.211  1.00  0.00     0.118 C 
BRANCH  20  21
ATOM     21  N   UNL A   1      40.576  23.945  26.156  1.00  0.00    -0.352 N 
ATOM     22  C   UNL A   1      40.880  25.288  26.202  1.00  0.00     0.251 C 
ATOM     23  H   UNL A   1      40.674  23.530  25.270  1.00  0.00     0.163 HD
ATOM     24  O   UNL A   1      41.157  25.881  25.162  1.00  0.00    -0.269 OA
BRANCH  22  25
ATOM     25  C   UNL A   1      40.840  26.032  27.484  1.00  0.00     0.039 A 
ATOM     26  C   UNL A   1      39.762  25.911  28.360  1.00  0.00     0.014 A 
ATOM     27  C   UNL A   1      41.909  26.875  27.813  1.00  0.00     0.014 A 
ATOM     28  C   UNL A   1      39.663  26.762  29.459  1.00  0.00     0.010 A 
ATOM     29  C   UNL A   1      41.845  27.672  28.963  1.00  0.00     0.010 A 
ATOM     30  C   UNL A   1      40.694  27.667  29.764  1.00  0.00    -0.014 A 
BRANCH  30  31
ATOM     31  C   UNL A   1      40.520  28.620  30.896  1.00  0.00     0.031 A 
ATOM     32  C   UNL A   1      41.468  28.595  32.071  1.00  0.00     0.074 A 
ATOM     33  C   UNL A   1      39.558  29.563  30.835  1.00  0.00     0.049 A 
ATOM     34  N   UNL A   1      41.503  29.382  33.117  1.00  0.00    -0.248 NA
ATOM     35  C   UNL A   1      42.506  27.553  32.074  1.00  0.00     0.031 C 
ATOM     36  C   UNL A   1      38.584  29.700  29.751  1.00  0.00     0.029 A 
ATOM     37  N   UNL A   1      39.261  30.600  31.682  1.00  0.00    -0.354 N 
ATOM     38  C   UNL A   1      42.555  28.925  33.904  1.00  0.00     0.074 A 
ATOM     39  C   UNL A   1      43.111  27.770  33.234  1.00  0.00     0.031 C 
ATOM     40  C   UNL A   1      37.837  30.794  29.968  1.00  0.00     0.029 A 
ATOM     41  C   UNL A   1      38.242  31.406  31.230  1.00  0.00     0.049 A 
ATOM     42  H   UNL A   1      39.732  30.753  32.533  1.00  0.00     0.167 HD
ATOM     43  C   UNL A   1      43.029  29.431  35.069  1.00  0.00     0.037 A 
ATOM     44  C   UNL A   1      37.692  32.512  31.769  1.00  0.00     0.037 A 
ATOM     45  C   UNL A   1      42.496  30.597  35.724  1.00  0.00     0.049 A 
ATOM     46  C   UNL A   1      38.212  33.033  33.079  1.00  0.00     0.074 A 
ATOM     47  C   UNL A   1      42.925  31.195  36.897  1.00  0.00     0.029 A 
ATOM     48  N   UNL A   1      41.424  31.346  35.264  1.00  0.00    -0.354 N 
ATOM     49  N   UNL A   1      39.207  32.586  33.805  1.00  0.00    -0.248 NA
ATOM     50  C   UNL A   1      37.525  34.201  33.649  1.00  0.00     0.031 C 
ATOM     51  C   UNL A   1      42.091  32.286  37.163  1.00  0.00     0.029 A 
ATOM     52  C   UNL A   1      41.165  32.389  36.138  1.00  0.00     0.049 A 
ATOM     53  H   UNL A   1      40.920  31.163  34.438  1.00  0.00     0.167 HD
ATOM     54  C   UNL A   1      39.271  33.421  34.914  1.00  0.00     0.074 A 
ATOM     55  C   UNL A   1      38.227  34.411  34.756  1.00  0.00     0.031 C 
ATOM     56  C   UNL A   1      40.117  33.365  35.972  1.00  0.00     0.037 A 
BRANCH  43  57
ATOM     57  C   UNL A   1      44.188  28.727  35.719  1.00  0.00     0.058 A 
ATOM     58  C   UNL A   1      45.514  29.098  35.452  1.00  0.00     0.135 A 
ATOM     59  C   UNL A   1      43.968  27.707  36.659  1.00  0.00     0.135 A 
ATOM     60  F   UNL A   1      45.781  30.057  34.551  1.00  0.00    -0.206 F 
ATOM     61  C   UNL A   1      46.585  28.472  36.083  1.00  0.00     0.059 A 
ATOM     62  C   UNL A   1      45.023  27.081  37.318  1.00  0.00     0.059 A 
ATOM     63  F   UNL A   1      42.718  27.314  36.951  1.00  0.00    -0.206 F 
ATOM     64  C   UNL A   1      46.330  27.464  37.015  1.00  0.00     0.060 A 
BRANCH  64  65
ATOM     65  S   UNL A   1      47.730  26.669  37.832  1.00  0.00     0.124 S 
ATOM     66  O   UNL A   1      47.570  27.137  39.205  1.00  0.00    -0.237 OA
ATOM     67  O   UNL A   1      47.457  25.253  37.610  1.00  0.00    -0.237 OA
ATOM     68  O   UNL A   1      48.888  27.201  37.120  1.00  0.00    -0.744 OA
ENDBRANCH  64  65
ENDBRANCH  43  57
BRANCH  44  69
ATOM     69  C   UNL A   1      36.587  33.203  31.055  1.00  0.00     0.058 A 
ATOM     70  C   UNL A   1      35.266  33.114  31.515  1.00  0.00     0.135 A 
ATOM     71  C   UNL A   1      36.835  33.994  29.924  1.00  0.00     0.135 A 
ATOM     72  F   UNL A   1      34.977  32.360  32.588  1.00  0.00    -0.206 F 
ATOM     73  C   UNL A   1      34.228  33.788  30.881  1.00  0.00     0.059 A 
ATOM     74  C   UNL A   1      35.819  34.697  29.286  1.00  0.00     0.059 A 
ATOM     75  F   UNL A   1      38.086  34.120  29.453  1.00  0.00    -0.206 F 
ATOM     76  C   UNL A   1      34.516  34.585  29.770  1.00  0.00     0.060 A 
BRANCH  76  77
ATOM     77  S   UNL A   1      33.176  35.518  29.001  1.00  0.00     0.124 S 
ATOM     78  O   UNL A   1      33.914  36.486  28.199  1.00  0.00    -0.237 OA
ATOM     79  O   UNL A   1      32.467  34.481  28.257  1.00  0.00    -0.237 OA
ATOM     80  O   UNL A   1      32.449  36.065  30.144  1.00  0.00    -0.744 OA
ENDBRANCH  76  77
ENDBRANCH  44  69
BRANCH  56  81
ATOM     81  C   UNL A   1      39.955  34.401  37.047  1.00  0.00     0.058 A 
ATOM     82  C   UNL A   1      40.562  35.662  36.940  1.00  0.00     0.135 A 
ATOM     83  C   UNL A   1      39.130  34.159  38.157  1.00  0.00     0.135 A 
ATOM     84  F   UNL A   1      41.366  35.939  35.902  1.00  0.00    -0.206 F 
ATOM     85  C   UNL A   1      40.361  36.646  37.902  1.00  0.00     0.059 A 
ATOM     86  C   UNL A   1      38.900  35.136  39.120  1.00  0.00     0.059 A 
ATOM     87  F   UNL A   1      38.522  32.971  38.301  1.00  0.00    -0.206 F 
ATOM     88  C   UNL A   1      39.524  36.376  38.987  1.00  0.00     0.060 A 
BRANCH  88  89
ATOM     89  S   UNL A   1      39.233  37.682  40.200  1.00  0.00     0.124 S 
ATOM     90  O   UNL A   1      38.134  38.416  39.584  1.00  0.00    -0.237 OA
ATOM     91  O   UNL A   1      38.895  36.923  41.401  1.00  0.00    -0.237 OA
ATOM     92  O   UNL A   1      40.510  38.388  40.250  1.00  0.00    -0.744 OA
ENDBRANCH  88  89
ENDBRANCH  56  81
ENDBRANCH  30  31
ENDBRANCH  22  25
ENDBRANCH  20  21
ENDBRANCH   1  20
TORSDOF 15
ENDMDL
