MODEL 1
REMARK VINA RESULT:     -11.7      0.000      0.000
REMARK SMILES C[C@@H](C(=O)NCCCNC(=O)c1ccc(-c2c3nc(c(-c4c(F)cc(S(=O)(=O)[O-])cc4F)c4ccc([nH]4)c(-c4c(F)cc(S(=O)(=O)[O-])cc4F)c4nc(c(-c5c(F)cc(S(=O)(=O)[O-])cc5F)c5ccc2[nH]5)C=C4)C=C3)cc1)c1ccc(OC2CCCC2)cc1F
REMARK SMILES IDX 7 1 6 2 5 3 3 4 4 5 2 7 1 8 78 9 79 10 89 11 80 12 88 13
REMARK SMILES IDX 90 14 81 15 82 16 83 17 84 18 87 19 85 20 86 21 8 22 9 23
REMARK SMILES IDX 10 24 11 26 12 27 13 28 77 29 14 30 76 31 15 32 16 33 17 34
REMARK SMILES IDX 70 35 18 36 75 37 69 38 71 39 19 40 74 41 68 42 67 43 20 45
REMARK SMILES IDX 54 46 33 47 53 48 34 49 37 50 52 51 72 52 35 53 36 54 51 56
REMARK SMILES IDX 73 57 38 58 21 59 22 60 31 61 23 62 24 63 30 64 32 65 25 66
REMARK SMILES IDX 26 67 27 68 28 69 29 70 55 71 56 72 65 73 57 74 58 75 64 76
REMARK SMILES IDX 66 77 59 78 60 79 61 80 62 81 63 82 39 83 40 84 49 85 41 86
REMARK SMILES IDX 42 87 48 88 50 89 43 90 44 91 45 92 46 93 47 94
REMARK H PARENT 5 6 9 25 71 44 37 55
REMARK Flexibility Score: inf
ROOT
ATOM      1  C   UNL A   1      33.019  28.013  25.896  1.00  0.00     0.042 C 
ENDROOT
BRANCH   1   2
ATOM      2  C   UNL A   1      31.536  27.697  25.737  1.00  0.00     0.117 C 
BRANCH   2   3
ATOM      3  N   UNL A   1      31.157  26.506  26.474  1.00  0.00    -0.356 N 
ATOM      4  C   UNL A   1      31.118  25.199  26.087  1.00  0.00     0.227 C 
ATOM      5  O   UNL A   1      30.659  24.396  26.902  1.00  0.00    -0.274 OA
ATOM      6  H   UNL A   1      30.885  26.667  27.407  1.00  0.00     0.163 HD
BRANCH   4   7
ATOM      7  C   UNL A   1      31.645  24.792  24.705  1.00  0.00     0.108 C 
ATOM      8  C   UNL A   1      30.539  24.787  23.649  1.00  0.00     0.023 C 
BRANCH   7   9
ATOM      9  C   UNL A   1      32.349  23.445  24.719  1.00  0.00     0.000 A 
ATOM     10  C   UNL A   1      31.917  22.373  23.928  1.00  0.00     0.011 A 
ATOM     11  C   UNL A   1      33.476  23.253  25.520  1.00  0.00     0.130 A 
ATOM     12  C   UNL A   1      32.610  21.160  23.941  1.00  0.00     0.047 A 
ATOM     13  C   UNL A   1      34.172  22.045  25.532  1.00  0.00     0.086 A 
ATOM     14  F   UNL A   1      33.927  24.251  26.296  1.00  0.00    -0.207 F 
ATOM     15  C   UNL A   1      33.754  20.993  24.725  1.00  0.00     0.122 A 
BRANCH  15  16
ATOM     16  O   UNL A   1      34.334  19.766  24.612  1.00  0.00    -0.490 OA
BRANCH  16  17
ATOM     17  C   UNL A   1      33.581  18.575  24.441  1.00  0.00     0.173 C 
ATOM     18  C   UNL A   1      34.305  17.364  23.858  1.00  0.00     0.045 C 
ATOM     19  C   UNL A   1      32.825  18.087  25.677  1.00  0.00     0.045 C 
ATOM     20  C   UNL A   1      33.364  16.215  24.182  1.00  0.00     0.004 C 
ATOM     21  C   UNL A   1      32.748  16.567  25.535  1.00  0.00     0.004 C 
ENDBRANCH  16  17
ENDBRANCH  15  16
ENDBRANCH   7   9
ENDBRANCH   4   7
ENDBRANCH   2   3
ENDBRANCH   1   2
BRANCH   1  22
ATOM     22  C   UNL A   1      33.431  28.375  27.318  1.00  0.00     0.118 C 
BRANCH  22  23
ATOM     23  N   UNL A   1      33.357  29.806  27.581  1.00  0.00    -0.352 N 
ATOM     24  C   UNL A   1      34.313  30.636  28.114  1.00  0.00     0.251 C 
ATOM     25  H   UNL A   1      32.504  30.237  27.344  1.00  0.00     0.163 HD
ATOM     26  O   UNL A   1      34.023  31.788  28.423  1.00  0.00    -0.269 OA
BRANCH  24  27
ATOM     27  C   UNL A   1      35.682  30.126  28.336  1.00  0.00     0.039 A 
ATOM     28  C   UNL A   1      36.591  30.121  27.273  1.00  0.00     0.014 A 
ATOM     29  C   UNL A   1      36.072  29.674  29.600  1.00  0.00     0.014 A 
ATOM     30  C   UNL A   1      37.913  29.730  27.496  1.00  0.00     0.010 A 
ATOM     31  C   UNL A   1      37.403  29.353  29.834  1.00  0.00     0.010 A 
ATOM     32  C   UNL A   1      38.338  29.378  28.786  1.00  0.00    -0.014 A 
BRANCH  32  33
ATOM     33  C   UNL A   1      39.746  29.018  29.085  1.00  0.00     0.031 A 
ATOM     34  C   UNL A   1      40.693  30.078  29.572  1.00  0.00     0.074 A 
ATOM     35  C   UNL A   1      40.201  27.782  28.801  1.00  0.00     0.049 A 
ATOM     36  N   UNL A   1      41.993  30.035  29.693  1.00  0.00    -0.248 NA
ATOM     37  C   UNL A   1      40.094  31.372  29.931  1.00  0.00     0.031 C 
ATOM     38  C   UNL A   1      39.388  26.678  28.289  1.00  0.00     0.029 A 
ATOM     39  N   UNL A   1      41.469  27.259  28.867  1.00  0.00    -0.354 N 
ATOM     40  C   UNL A   1      42.374  31.307  30.105  1.00  0.00     0.074 A 
ATOM     41  C   UNL A   1      41.170  32.105  30.178  1.00  0.00     0.031 C 
ATOM     42  C   UNL A   1      40.177  25.611  28.080  1.00  0.00     0.029 A 
ATOM     43  C   UNL A   1      41.558  25.969  28.401  1.00  0.00     0.049 A 
ATOM     44  H   UNL A   1      42.241  27.760  29.217  1.00  0.00     0.167 HD
ATOM     45  C   UNL A   1      43.614  31.763  30.404  1.00  0.00     0.037 A 
ATOM     46  C   UNL A   1      42.630  25.173  28.223  1.00  0.00     0.037 A 
ATOM     47  C   UNL A   1      44.801  30.952  30.359  1.00  0.00     0.049 A 
ATOM     48  C   UNL A   1      43.995  25.686  28.587  1.00  0.00     0.074 A 
ATOM     49  C   UNL A   1      46.096  31.300  30.699  1.00  0.00     0.029 A 
ATOM     50  N   UNL A   1      44.837  29.627  29.947  1.00  0.00    -0.354 N 
ATOM     51  N   UNL A   1      44.336  26.876  29.019  1.00  0.00    -0.248 NA
ATOM     52  C   UNL A   1      45.120  24.751  28.445  1.00  0.00     0.031 C 
ATOM     53  C   UNL A   1      46.920  30.194  30.464  1.00  0.00     0.029 A 
ATOM     54  C   UNL A   1      46.133  29.145  30.016  1.00  0.00     0.049 A 
ATOM     55  H   UNL A   1      44.056  29.106  29.650  1.00  0.00     0.167 HD
ATOM     56  C   UNL A   1      45.710  26.827  29.225  1.00  0.00     0.074 A 
ATOM     57  C   UNL A   1      46.138  25.490  28.870  1.00  0.00     0.031 C 
ATOM     58  C   UNL A   1      46.538  27.802  29.675  1.00  0.00     0.037 A 
BRANCH  45  59
ATOM     59  C   UNL A   1      43.735  33.211  30.790  1.00  0.00     0.058 A 
ATOM     60  C   UNL A   1      44.050  34.203  29.847  1.00  0.00     0.135 A 
ATOM     61  C   UNL A   1      43.557  33.610  32.125  1.00  0.00     0.135 A 
ATOM     62  F   UNL A   1      44.245  33.874  28.560  1.00  0.00    -0.206 F 
ATOM     63  C   UNL A   1      44.243  35.527  30.223  1.00  0.00     0.059 A 
ATOM     64  C   UNL A   1      43.715  34.935  32.518  1.00  0.00     0.059 A 
ATOM     65  F   UNL A   1      43.249  32.704  33.066  1.00  0.00    -0.206 F 
ATOM     66  C   UNL A   1      44.085  35.882  31.563  1.00  0.00     0.060 A 
BRANCH  66  67
ATOM     67  S   UNL A   1      44.387  37.594  32.049  1.00  0.00     0.124 S 
ATOM     68  O   UNL A   1      43.683  37.660  33.326  1.00  0.00    -0.237 OA
ATOM     69  O   UNL A   1      45.843  37.649  32.126  1.00  0.00    -0.237 OA
ATOM     70  O   UNL A   1      43.792  38.364  30.962  1.00  0.00    -0.744 OA
ENDBRANCH  66  67
ENDBRANCH  45  59
BRANCH  46  71
ATOM     71  C   UNL A   1      42.434  23.801  27.687  1.00  0.00     0.058 A 
ATOM     72  C   UNL A   1      42.392  23.569  26.305  1.00  0.00     0.135 A 
ATOM     73  C   UNL A   1      42.364  22.690  28.542  1.00  0.00     0.135 A 
ATOM     74  F   UNL A   1      42.449  24.601  25.451  1.00  0.00    -0.206 F 
ATOM     75  C   UNL A   1      42.297  22.282  25.787  1.00  0.00     0.059 A 
ATOM     76  C   UNL A   1      42.288  21.392  28.047  1.00  0.00     0.059 A 
ATOM     77  F   UNL A   1      42.417  22.860  29.872  1.00  0.00    -0.206 F 
ATOM     78  C   UNL A   1      42.257  21.198  26.666  1.00  0.00     0.060 A 
BRANCH  78  79
ATOM     79  S   UNL A   1      42.240  19.527  25.981  1.00  0.00     0.124 S 
ATOM     80  O   UNL A   1      40.839  19.376  25.608  1.00  0.00    -0.237 OA
ATOM     81  O   UNL A   1      43.187  19.639  24.875  1.00  0.00    -0.237 OA
ATOM     82  O   UNL A   1      42.690  18.702  27.098  1.00  0.00    -0.744 OA
ENDBRANCH  78  79
ENDBRANCH  46  71
BRANCH  58  83
ATOM     83  C   UNL A   1      47.989  27.461  29.855  1.00  0.00     0.058 A 
ATOM     84  C   UNL A   1      48.931  27.689  28.841  1.00  0.00     0.135 A 
ATOM     85  C   UNL A   1      48.456  26.998  31.096  1.00  0.00     0.135 A 
ATOM     86  F   UNL A   1      48.534  28.123  27.635  1.00  0.00    -0.206 F 
ATOM     87  C   UNL A   1      50.289  27.474  29.053  1.00  0.00     0.059 A 
ATOM     88  C   UNL A   1      49.810  26.795  31.336  1.00  0.00     0.059 A 
ATOM     89  F   UNL A   1      47.593  26.772  32.099  1.00  0.00    -0.206 F 
ATOM     90  C   UNL A   1      50.721  27.035  30.307  1.00  0.00     0.060 A 
BRANCH  90  91
ATOM     91  S   UNL A   1      52.492  26.837  30.597  1.00  0.00     0.124 S 
ATOM     92  O   UNL A   1      52.937  28.226  30.658  1.00  0.00    -0.237 OA
ATOM     93  O   UNL A   1      52.524  26.105  31.859  1.00  0.00    -0.237 OA
ATOM     94  O   UNL A   1      52.944  26.083  29.431  1.00  0.00    -0.744 OA
ENDBRANCH  90  91
ENDBRANCH  58  83
ENDBRANCH  32  33
ENDBRANCH  24  27
ENDBRANCH  22  23
ENDBRANCH   1  22
TORSDOF 16
ENDMDL
MODEL 2
REMARK VINA RESULT:     -11.7      3.640      9.944
REMARK SMILES C[C@@H](C(=O)NCCCNC(=O)c1ccc(-c2c3nc(c(-c4c(F)cc(S(=O)(=O)[O-])cc4F)c4ccc([nH]4)c(-c4c(F)cc(S(=O)(=O)[O-])cc4F)c4nc(c(-c5c(F)cc(S(=O)(=O)[O-])cc5F)c5ccc2[nH]5)C=C4)C=C3)cc1)c1ccc(OC2CCCC2)cc1F
REMARK SMILES IDX 7 1 6 2 5 3 3 4 4 5 2 7 1 8 78 9 79 10 89 11 80 12 88 13
REMARK SMILES IDX 90 14 81 15 82 16 83 17 84 18 87 19 85 20 86 21 8 22 9 23
REMARK SMILES IDX 10 24 11 26 12 27 13 28 77 29 14 30 76 31 15 32 16 33 17 34
REMARK SMILES IDX 70 35 18 36 75 37 69 38 71 39 19 40 74 41 68 42 67 43 20 45
REMARK SMILES IDX 54 46 33 47 53 48 34 49 37 50 52 51 72 52 35 53 36 54 51 56
REMARK SMILES IDX 73 57 38 58 21 59 22 60 31 61 23 62 24 63 30 64 32 65 25 66
REMARK SMILES IDX 26 67 27 68 28 69 29 70 55 71 56 72 65 73 57 74 58 75 64 76
REMARK SMILES IDX 66 77 59 78 60 79 61 80 62 81 63 82 39 83 40 84 49 85 41 86
REMARK SMILES IDX 42 87 48 88 50 89 43 90 44 91 45 92 46 93 47 94
REMARK H PARENT 5 6 9 25 71 44 37 55
REMARK Flexibility Score: inf
ROOT
ATOM      1  C   UNL A   1      35.599  23.681  25.613  1.00  0.00     0.042 C 
ENDROOT
BRANCH   1   2
ATOM      2  C   UNL A   1      34.636  24.839  25.372  1.00  0.00     0.117 C 
BRANCH   2   3
ATOM      3  N   UNL A   1      33.340  24.595  25.976  1.00  0.00    -0.356 N 
ATOM      4  C   UNL A   1      32.379  25.468  26.395  1.00  0.00     0.227 C 
ATOM      5  O   UNL A   1      31.402  24.980  26.967  1.00  0.00    -0.274 OA
ATOM      6  H   UNL A   1      33.116  23.644  26.103  1.00  0.00     0.163 HD
BRANCH   4   7
ATOM      7  C   UNL A   1      32.541  26.971  26.132  1.00  0.00     0.108 C 
ATOM      8  C   UNL A   1      32.252  27.805  27.380  1.00  0.00     0.023 C 
BRANCH   7   9
ATOM      9  C   UNL A   1      31.683  27.459  24.976  1.00  0.00     0.000 A 
ATOM     10  C   UNL A   1      30.489  26.822  24.617  1.00  0.00     0.011 A 
ATOM     11  C   UNL A   1      32.065  28.588  24.249  1.00  0.00     0.130 A 
ATOM     12  C   UNL A   1      29.708  27.320  23.570  1.00  0.00     0.047 A 
ATOM     13  C   UNL A   1      31.286  29.090  23.207  1.00  0.00     0.086 A 
ATOM     14  F   UNL A   1      33.202  29.232  24.556  1.00  0.00    -0.207 F 
ATOM     15  C   UNL A   1      30.088  28.469  22.873  1.00  0.00     0.122 A 
BRANCH  15  16
ATOM     16  O   UNL A   1      29.214  28.845  21.899  1.00  0.00    -0.490 OA
BRANCH  16  17
ATOM     17  C   UNL A   1      28.400  30.003  22.005  1.00  0.00     0.173 C 
ATOM     18  C   UNL A   1      28.031  30.476  23.409  1.00  0.00     0.045 C 
ATOM     19  C   UNL A   1      28.893  31.230  21.239  1.00  0.00     0.045 C 
ATOM     20  C   UNL A   1      27.531  31.892  23.171  1.00  0.00     0.004 C 
ATOM     21  C   UNL A   1      28.387  32.436  22.030  1.00  0.00     0.004 C 
ENDBRANCH  16  17
ENDBRANCH  15  16
ENDBRANCH   7   9
ENDBRANCH   4   7
ENDBRANCH   2   3
ENDBRANCH   1   2
BRANCH   1  22
ATOM     22  C   UNL A   1      36.919  23.800  24.861  1.00  0.00     0.118 C 
BRANCH  22  23
ATOM     23  N   UNL A   1      37.875  22.766  25.232  1.00  0.00    -0.352 N 
ATOM     24  C   UNL A   1      39.012  22.875  25.995  1.00  0.00     0.251 C 
ATOM     25  H   UNL A   1      37.679  21.864  24.888  1.00  0.00     0.163 HD
ATOM     26  O   UNL A   1      39.795  21.933  26.069  1.00  0.00    -0.269 OA
BRANCH  24  27
ATOM     27  C   UNL A   1      39.298  24.140  26.703  1.00  0.00     0.039 A 
ATOM     28  C   UNL A   1      38.770  24.343  27.982  1.00  0.00     0.014 A 
ATOM     29  C   UNL A   1      40.105  25.116  26.110  1.00  0.00     0.014 A 
ATOM     30  C   UNL A   1      39.112  25.493  28.697  1.00  0.00     0.010 A 
ATOM     31  C   UNL A   1      40.499  26.224  26.850  1.00  0.00     0.010 A 
ATOM     32  C   UNL A   1      40.008  26.424  28.150  1.00  0.00    -0.014 A 
BRANCH  32  33
ATOM     33  C   UNL A   1      40.451  27.629  28.897  1.00  0.00     0.031 A 
ATOM     34  C   UNL A   1      41.739  27.587  29.668  1.00  0.00     0.074 A 
ATOM     35  C   UNL A   1      39.642  28.703  28.984  1.00  0.00     0.049 A 
ATOM     36  N   UNL A   1      42.208  28.436  30.544  1.00  0.00    -0.248 NA
ATOM     37  C   UNL A   1      42.593  26.410  29.450  1.00  0.00     0.031 C 
ATOM     38  C   UNL A   1      38.350  28.847  28.311  1.00  0.00     0.029 A 
ATOM     39  N   UNL A   1      39.773  29.862  29.707  1.00  0.00    -0.354 N 
ATOM     40  C   UNL A   1      43.391  27.878  31.012  1.00  0.00     0.074 A 
ATOM     41  C   UNL A   1      43.549  26.603  30.347  1.00  0.00     0.031 C 
ATOM     42  C   UNL A   1      37.804  30.023  28.659  1.00  0.00     0.029 A 
ATOM     43  C   UNL A   1      38.684  30.695  29.613  1.00  0.00     0.049 A 
ATOM     44  H   UNL A   1      40.571  30.077  30.242  1.00  0.00     0.167 HD
ATOM     45  C   UNL A   1      44.272  28.388  31.907  1.00  0.00     0.037 A 
ATOM     46  C   UNL A   1      38.410  31.855  30.242  1.00  0.00     0.037 A 
ATOM     47  C   UNL A   1      44.121  29.670  32.539  1.00  0.00     0.049 A 
ATOM     48  C   UNL A   1      39.409  32.420  31.211  1.00  0.00     0.074 A 
ATOM     49  C   UNL A   1      44.983  30.306  33.415  1.00  0.00     0.029 A 
ATOM     50  N   UNL A   1      43.035  30.516  32.362  1.00  0.00    -0.354 N 
ATOM     51  N   UNL A   1      40.547  31.904  31.611  1.00  0.00    -0.248 NA
ATOM     52  C   UNL A   1      39.095  33.723  31.812  1.00  0.00     0.031 C 
ATOM     53  C   UNL A   1      44.404  31.523  33.790  1.00  0.00     0.029 A 
ATOM     54  C   UNL A   1      43.200  31.664  33.118  1.00  0.00     0.049 A 
ATOM     55  H   UNL A   1      42.261  30.328  31.783  1.00  0.00     0.167 HD
ATOM     56  C   UNL A   1      41.098  32.830  32.490  1.00  0.00     0.074 A 
ATOM     57  C   UNL A   1      40.168  33.938  32.564  1.00  0.00     0.031 C 
ATOM     58  C   UNL A   1      42.271  32.767  33.166  1.00  0.00     0.037 A 
BRANCH  45  59
ATOM     59  C   UNL A   1      45.461  27.537  32.258  1.00  0.00     0.058 A 
ATOM     60  C   UNL A   1      45.429  26.627  33.325  1.00  0.00     0.135 A 
ATOM     61  C   UNL A   1      46.656  27.652  31.530  1.00  0.00     0.135 A 
ATOM     62  F   UNL A   1      44.315  26.488  34.062  1.00  0.00    -0.206 F 
ATOM     63  C   UNL A   1      46.556  25.903  33.698  1.00  0.00     0.059 A 
ATOM     64  C   UNL A   1      47.788  26.915  31.866  1.00  0.00     0.059 A 
ATOM     65  F   UNL A   1      46.741  28.503  30.496  1.00  0.00    -0.206 F 
ATOM     66  C   UNL A   1      47.736  26.063  32.969  1.00  0.00     0.060 A 
BRANCH  66  67
ATOM     67  S   UNL A   1      49.207  25.158  33.491  1.00  0.00     0.124 S 
ATOM     68  O   UNL A   1      48.616  24.050  34.234  1.00  0.00    -0.237 OA
ATOM     69  O   UNL A   1      49.831  24.807  32.219  1.00  0.00    -0.237 OA
ATOM     70  O   UNL A   1      49.937  26.134  34.293  1.00  0.00    -0.744 OA
ENDBRANCH  66  67
ENDBRANCH  45  59
BRANCH  46  71
ATOM     71  C   UNL A   1      37.132  32.554  29.950  1.00  0.00     0.058 A 
ATOM     72  C   UNL A   1      35.966  32.250  30.666  1.00  0.00     0.135 A 
ATOM     73  C   UNL A   1      37.070  33.592  29.006  1.00  0.00     0.135 A 
ATOM     74  F   UNL A   1      35.976  31.262  31.574  1.00  0.00    -0.206 F 
ATOM     75  C   UNL A   1      34.784  32.955  30.466  1.00  0.00     0.059 A 
ATOM     76  C   UNL A   1      35.905  34.324  28.801  1.00  0.00     0.059 A 
ATOM     77  F   UNL A   1      38.164  33.931  28.307  1.00  0.00    -0.206 F 
ATOM     78  C   UNL A   1      34.766  33.999  29.538  1.00  0.00     0.060 A 
BRANCH  78  79
ATOM     79  S   UNL A   1      33.257  34.975  29.362  1.00  0.00     0.124 S 
ATOM     80  O   UNL A   1      33.786  36.259  28.917  1.00  0.00    -0.237 OA
ATOM     81  O   UNL A   1      32.512  34.211  28.366  1.00  0.00    -0.237 OA
ATOM     82  O   UNL A   1      32.688  34.957  30.707  1.00  0.00    -0.744 OA
ENDBRANCH  78  79
ENDBRANCH  46  71
BRANCH  58  83
ATOM     83  C   UNL A   1      42.651  33.943  34.019  1.00  0.00     0.058 A 
ATOM     84  C   UNL A   1      42.405  33.961  35.401  1.00  0.00     0.135 A 
ATOM     85  C   UNL A   1      43.363  35.017  33.463  1.00  0.00     0.135 A 
ATOM     86  F   UNL A   1      41.722  32.962  35.979  1.00  0.00    -0.206 F 
ATOM     87  C   UNL A   1      42.858  35.004  36.203  1.00  0.00     0.059 A 
ATOM     88  C   UNL A   1      43.842  36.060  34.248  1.00  0.00     0.059 A 
ATOM     89  F   UNL A   1      43.628  35.042  32.147  1.00  0.00    -0.206 F 
ATOM     90  C   UNL A   1      43.584  36.045  35.619  1.00  0.00     0.060 A 
BRANCH  90  91
ATOM     91  S   UNL A   1      44.237  37.352  36.681  1.00  0.00     0.124 S 
ATOM     92  O   UNL A   1      43.120  37.574  37.594  1.00  0.00    -0.237 OA
ATOM     93  O   UNL A   1      45.417  36.721  37.265  1.00  0.00    -0.237 OA
ATOM     94  O   UNL A   1      44.512  38.440  35.748  1.00  0.00    -0.744 OA
ENDBRANCH  90  91
ENDBRANCH  58  83
ENDBRANCH  32  33
ENDBRANCH  24  27
ENDBRANCH  22  23
ENDBRANCH   1  22
TORSDOF 16
ENDMDL
MODEL 3
REMARK VINA RESULT:     -11.6      3.889      6.649
REMARK SMILES C[C@@H](C(=O)NCCCNC(=O)c1ccc(-c2c3nc(c(-c4c(F)cc(S(=O)(=O)[O-])cc4F)c4ccc([nH]4)c(-c4c(F)cc(S(=O)(=O)[O-])cc4F)c4nc(c(-c5c(F)cc(S(=O)(=O)[O-])cc5F)c5ccc2[nH]5)C=C4)C=C3)cc1)c1ccc(OC2CCCC2)cc1F
REMARK SMILES IDX 7 1 6 2 5 3 3 4 4 5 2 7 1 8 78 9 79 10 89 11 80 12 88 13
REMARK SMILES IDX 90 14 81 15 82 16 83 17 84 18 87 19 85 20 86 21 8 22 9 23
REMARK SMILES IDX 10 24 11 26 12 27 13 28 77 29 14 30 76 31 15 32 16 33 17 34
REMARK SMILES IDX 70 35 18 36 75 37 69 38 71 39 19 40 74 41 68 42 67 43 20 45
REMARK SMILES IDX 54 46 33 47 53 48 34 49 37 50 52 51 72 52 35 53 36 54 51 56
REMARK SMILES IDX 73 57 38 58 21 59 22 60 31 61 23 62 24 63 30 64 32 65 25 66
REMARK SMILES IDX 26 67 27 68 28 69 29 70 55 71 56 72 65 73 57 74 58 75 64 76
REMARK SMILES IDX 66 77 59 78 60 79 61 80 62 81 63 82 39 83 40 84 49 85 41 86
REMARK SMILES IDX 42 87 48 88 50 89 43 90 44 91 45 92 46 93 47 94
REMARK H PARENT 5 6 9 25 71 44 37 55
REMARK Flexibility Score: inf
ROOT
ATOM      1  C   UNL A   1      34.115  33.959  29.619  1.00  0.00     0.042 C 
ENDROOT
BRANCH   1   2
ATOM      2  C   UNL A   1      34.221  34.244  31.113  1.00  0.00     0.117 C 
BRANCH   2   3
ATOM      3  N   UNL A   1      35.535  34.742  31.474  1.00  0.00    -0.356 N 
ATOM      4  C   UNL A   1      36.299  34.508  32.579  1.00  0.00     0.227 C 
ATOM      5  O   UNL A   1      37.349  35.147  32.670  1.00  0.00    -0.274 OA
ATOM      6  H   UNL A   1      35.944  35.346  30.812  1.00  0.00     0.163 HD
BRANCH   4   7
ATOM      7  C   UNL A   1      35.842  33.481  33.624  1.00  0.00     0.108 C 
ATOM      8  C   UNL A   1      35.452  34.142  34.946  1.00  0.00     0.023 C 
BRANCH   7   9
ATOM      9  C   UNL A   1      36.880  32.399  33.875  1.00  0.00     0.000 A 
ATOM     10  C   UNL A   1      37.747  32.444  34.974  1.00  0.00     0.011 A 
ATOM     11  C   UNL A   1      36.976  31.307  33.010  1.00  0.00     0.130 A 
ATOM     12  C   UNL A   1      38.666  31.414  35.192  1.00  0.00     0.047 A 
ATOM     13  C   UNL A   1      37.889  30.276  33.229  1.00  0.00     0.086 A 
ATOM     14  F   UNL A   1      36.167  31.221  31.943  1.00  0.00    -0.207 F 
ATOM     15  C   UNL A   1      38.729  30.313  34.335  1.00  0.00     0.122 A 
BRANCH  15  16
ATOM     16  O   UNL A   1      39.655  29.380  34.692  1.00  0.00    -0.490 OA
BRANCH  16  17
ATOM     17  C   UNL A   1      40.707  28.974  33.829  1.00  0.00     0.173 C 
ATOM     18  C   UNL A   1      41.853  29.958  33.607  1.00  0.00     0.045 C 
ATOM     19  C   UNL A   1      41.341  27.621  34.151  1.00  0.00     0.045 C 
ATOM     20  C   UNL A   1      42.938  29.086  32.998  1.00  0.00     0.004 C 
ATOM     21  C   UNL A   1      42.789  27.725  33.674  1.00  0.00     0.004 C 
ENDBRANCH  16  17
ENDBRANCH  15  16
ENDBRANCH   7   9
ENDBRANCH   4   7
ENDBRANCH   2   3
ENDBRANCH   1   2
BRANCH   1  22
ATOM     22  C   UNL A   1      34.905  32.741  29.158  1.00  0.00     0.118 C 
BRANCH  22  23
ATOM     23  N   UNL A   1      34.061  31.708  28.574  1.00  0.00    -0.352 N 
ATOM     24  C   UNL A   1      34.416  30.469  28.097  1.00  0.00     0.251 C 
ATOM     25  H   UNL A   1      33.103  31.928  28.511  1.00  0.00     0.163 HD
ATOM     26  O   UNL A   1      33.600  29.790  27.483  1.00  0.00    -0.269 OA
BRANCH  24  27
ATOM     27  C   UNL A   1      35.793  29.973  28.307  1.00  0.00     0.039 A 
ATOM     28  C   UNL A   1      36.724  30.081  27.271  1.00  0.00     0.014 A 
ATOM     29  C   UNL A   1      36.165  29.420  29.537  1.00  0.00     0.014 A 
ATOM     30  C   UNL A   1      38.051  29.702  27.492  1.00  0.00     0.010 A 
ATOM     31  C   UNL A   1      37.498  29.110  29.775  1.00  0.00     0.010 A 
ATOM     32  C   UNL A   1      38.455  29.247  28.756  1.00  0.00    -0.014 A 
BRANCH  32  33
ATOM     33  C   UNL A   1      39.865  28.894  29.057  1.00  0.00     0.031 A 
ATOM     34  C   UNL A   1      40.803  29.956  29.556  1.00  0.00     0.074 A 
ATOM     35  C   UNL A   1      40.328  27.663  28.763  1.00  0.00     0.049 A 
ATOM     36  N   UNL A   1      42.103  29.921  29.682  1.00  0.00    -0.248 NA
ATOM     37  C   UNL A   1      40.194  31.243  29.925  1.00  0.00     0.031 C 
ATOM     38  C   UNL A   1      39.524  26.558  28.239  1.00  0.00     0.029 A 
ATOM     39  N   UNL A   1      41.600  27.149  28.830  1.00  0.00    -0.354 N 
ATOM     40  C   UNL A   1      42.474  31.191  30.106  1.00  0.00     0.074 A 
ATOM     41  C   UNL A   1      41.264  31.981  30.181  1.00  0.00     0.031 C 
ATOM     42  C   UNL A   1      40.322  25.499  28.024  1.00  0.00     0.029 A 
ATOM     43  C   UNL A   1      41.698  25.863  28.352  1.00  0.00     0.049 A 
ATOM     44  H   UNL A   1      42.367  27.651  29.187  1.00  0.00     0.167 HD
ATOM     45  C   UNL A   1      43.710  31.653  30.413  1.00  0.00     0.037 A 
ATOM     46  C   UNL A   1      42.776  25.076  28.172  1.00  0.00     0.037 A 
ATOM     47  C   UNL A   1      44.902  30.850  30.365  1.00  0.00     0.049 A 
ATOM     48  C   UNL A   1      44.137  25.594  28.544  1.00  0.00     0.074 A 
ATOM     49  C   UNL A   1      46.193  31.204  30.712  1.00  0.00     0.029 A 
ATOM     50  N   UNL A   1      44.948  29.529  29.941  1.00  0.00    -0.354 N 
ATOM     51  N   UNL A   1      44.469  26.783  28.988  1.00  0.00    -0.248 NA
ATOM     52  C   UNL A   1      45.268  24.668  28.399  1.00  0.00     0.031 C 
ATOM     53  C   UNL A   1      47.025  30.105  30.471  1.00  0.00     0.029 A 
ATOM     54  C   UNL A   1      46.247  29.055  30.011  1.00  0.00     0.049 A 
ATOM     55  H   UNL A   1      44.171  29.006  29.637  1.00  0.00     0.167 HD
ATOM     56  C   UNL A   1      45.842  26.742  29.199  1.00  0.00     0.074 A 
ATOM     57  C   UNL A   1      46.280  25.410  28.833  1.00  0.00     0.031 C 
ATOM     58  C   UNL A   1      46.662  27.718  29.660  1.00  0.00     0.037 A 
BRANCH  45  59
ATOM     59  C   UNL A   1      43.820  33.098  30.812  1.00  0.00     0.058 A 
ATOM     60  C   UNL A   1      43.910  34.123  29.857  1.00  0.00     0.135 A 
ATOM     61  C   UNL A   1      43.859  33.462  32.168  1.00  0.00     0.135 A 
ATOM     62  F   UNL A   1      43.892  33.830  28.546  1.00  0.00    -0.206 F 
ATOM     63  C   UNL A   1      44.096  35.450  30.229  1.00  0.00     0.059 A 
ATOM     64  C   UNL A   1      44.013  34.787  32.564  1.00  0.00     0.059 A 
ATOM     65  F   UNL A   1      43.771  32.523  33.123  1.00  0.00    -0.206 F 
ATOM     66  C   UNL A   1      44.158  35.771  31.586  1.00  0.00     0.060 A 
BRANCH  66  67
ATOM     67  S   UNL A   1      44.450  37.488  32.059  1.00  0.00     0.124 S 
ATOM     68  O   UNL A   1      43.495  37.653  33.151  1.00  0.00    -0.237 OA
ATOM     69  O   UNL A   1      45.857  37.475  32.445  1.00  0.00    -0.237 OA
ATOM     70  O   UNL A   1      44.146  38.230  30.840  1.00  0.00    -0.744 OA
ENDBRANCH  66  67
ENDBRANCH  45  59
BRANCH  46  71
ATOM     71  C   UNL A   1      42.591  23.707  27.623  1.00  0.00     0.058 A 
ATOM     72  C   UNL A   1      42.648  23.473  26.242  1.00  0.00     0.135 A 
ATOM     73  C   UNL A   1      42.433  22.599  28.471  1.00  0.00     0.135 A 
ATOM     74  F   UNL A   1      42.793  24.502  25.394  1.00  0.00    -0.206 F 
ATOM     75  C   UNL A   1      42.565  22.187  25.719  1.00  0.00     0.059 A 
ATOM     76  C   UNL A   1      42.365  21.302  27.972  1.00  0.00     0.059 A 
ATOM     77  F   UNL A   1      42.389  22.771  29.800  1.00  0.00    -0.206 F 
ATOM     78  C   UNL A   1      42.435  21.106  26.593  1.00  0.00     0.060 A 
BRANCH  78  79
ATOM     79  S   UNL A   1      42.432  19.434  25.909  1.00  0.00     0.124 S 
ATOM     80  O   UNL A   1      41.009  19.205  25.697  1.00  0.00    -0.237 OA
ATOM     81  O   UNL A   1      43.240  19.595  24.703  1.00  0.00    -0.237 OA
ATOM     82  O   UNL A   1      43.052  18.640  26.966  1.00  0.00    -0.744 OA
ENDBRANCH  78  79
ENDBRANCH  46  71
BRANCH  58  83
ATOM     83  C   UNL A   1      48.115  27.384  29.842  1.00  0.00     0.058 A 
ATOM     84  C   UNL A   1      49.056  27.611  28.827  1.00  0.00     0.135 A 
ATOM     85  C   UNL A   1      48.584  26.931  31.085  1.00  0.00     0.135 A 
ATOM     86  F   UNL A   1      48.657  28.038  27.619  1.00  0.00    -0.206 F 
ATOM     87  C   UNL A   1      50.415  27.404  29.040  1.00  0.00     0.059 A 
ATOM     88  C   UNL A   1      49.938  26.735  31.327  1.00  0.00     0.059 A 
ATOM     89  F   UNL A   1      47.722  26.705  32.090  1.00  0.00    -0.206 F 
ATOM     90  C   UNL A   1      50.848  26.974  30.297  1.00  0.00     0.060 A 
BRANCH  90  91
ATOM     91  S   UNL A   1      52.621  26.786  30.588  1.00  0.00     0.124 S 
ATOM     92  O   UNL A   1      52.672  25.496  31.268  1.00  0.00    -0.237 OA
ATOM     93  O   UNL A   1      53.165  26.811  29.234  1.00  0.00    -0.237 OA
ATOM     94  O   UNL A   1      52.954  27.945  31.411  1.00  0.00    -0.744 OA
ENDBRANCH  90  91
ENDBRANCH  58  83
ENDBRANCH  32  33
ENDBRANCH  24  27
ENDBRANCH  22  23
ENDBRANCH   1  22
TORSDOF 16
ENDMDL
