MODEL 1
REMARK VINA RESULT:     -12.2      0.000      0.000
REMARK SMILES C[C@H](C(=O)NCCCNC(=O)c1ccc(-c2c3nc(c(-c4c(F)cc(S(=O)(=O)[O-])cc4F)c4ccc([nH]4)c(-c4c(F)cc(S(=O)(=O)[O-])cc4F)c4nc(c(-c5c(F)cc(S(=O)(=O)[O-])cc5F)c5ccc2[nH]5)C=C4)C=C3)cc1)c1ccc(C[C@H]2CCC[C@@H]2O)cc1
REMARK SMILES IDX 6 1 5 2 3 3 4 4 2 6 1 7 78 8 79 9 90 10 80 11 89 12 81 13
REMARK SMILES IDX 82 14 83 15 84 16 87 17 85 18 86 19 88 20 7 22 8 23 9 24
REMARK SMILES IDX 10 25 11 27 12 28 13 29 77 30 14 31 76 32 15 33 16 34 17 35
REMARK SMILES IDX 70 36 18 37 75 38 69 39 71 40 19 41 74 42 68 43 67 44 20 46
REMARK SMILES IDX 54 47 33 48 53 49 34 50 37 51 52 52 72 53 35 54 36 55 51 57
REMARK SMILES IDX 73 58 38 59 21 60 22 61 31 62 23 63 24 64 30 65 32 66 25 67
REMARK SMILES IDX 26 68 27 69 28 70 29 71 55 72 56 73 65 74 57 75 58 76 64 77
REMARK SMILES IDX 66 78 59 79 60 80 61 81 62 82 63 83 39 84 40 85 49 86 41 87
REMARK SMILES IDX 42 88 48 89 50 90 43 91 44 92 45 93 46 94 47 95
REMARK H PARENT 5 5 88 21 9 26 71 45 37 56
REMARK Flexibility Score: inf
ROOT
ATOM      1  C   UNL A   1      37.330  22.427  25.486  1.00  0.00     0.117 C 
ENDROOT
BRANCH   1   2
ATOM      2  N   UNL A   1      36.275  22.049  26.413  1.00  0.00    -0.356 N 
ATOM      3  C   UNL A   1      34.919  22.003  26.225  1.00  0.00     0.227 C 
ATOM      4  O   UNL A   1      34.218  21.792  27.218  1.00  0.00    -0.274 OA
ATOM      5  H   UNL A   1      36.582  21.788  27.311  1.00  0.00     0.163 HD
BRANCH   3   6
ATOM      6  C   UNL A   1      34.316  22.175  24.817  1.00  0.00     0.105 C 
ATOM      7  C   UNL A   1      32.962  21.451  24.740  1.00  0.00     0.023 C 
BRANCH   6   8
ATOM      8  C   UNL A   1      34.235  23.644  24.420  1.00  0.00    -0.036 A 
ATOM      9  C   UNL A   1      34.233  24.644  25.405  1.00  0.00     0.005 A 
ATOM     10  C   UNL A   1      34.035  24.035  23.090  1.00  0.00     0.005 A 
ATOM     11  C   UNL A   1      33.869  25.958  25.093  1.00  0.00     0.004 A 
ATOM     12  C   UNL A   1      33.749  25.364  22.770  1.00  0.00     0.004 A 
ATOM     13  C   UNL A   1      33.570  26.316  23.776  1.00  0.00    -0.048 A 
BRANCH  13  14
ATOM     14  C   UNL A   1      32.991  27.677  23.458  1.00  0.00     0.041 C 
BRANCH  14  15
ATOM     15  C   UNL A   1      31.547  27.680  22.911  1.00  0.00     0.022 C 
ATOM     16  C   UNL A   1      30.520  26.820  23.668  1.00  0.00     0.007 C 
ATOM     17  C   UNL A   1      30.876  29.054  22.818  1.00  0.00     0.117 C 
ATOM     18  C   UNL A   1      29.176  27.546  23.549  1.00  0.00     0.003 C 
ATOM     19  C   UNL A   1      29.412  28.701  22.590  1.00  0.00     0.032 C 
BRANCH  17  20
ATOM     20  O   UNL A   1      31.397  29.836  21.759  1.00  0.00    -0.393 OA
ATOM     21  H   UNL A   1      30.726  29.927  21.065  1.00  0.00     0.210 HD
ENDBRANCH  17  20
ENDBRANCH  14  15
ENDBRANCH  13  14
ENDBRANCH   6   8
ENDBRANCH   3   6
ENDBRANCH   1   2
BRANCH   1  22
ATOM     22  C   UNL A   1      38.042  23.700  25.941  1.00  0.00     0.042 C 
BRANCH  22  23
ATOM     23  C   UNL A   1      39.245  23.448  26.839  1.00  0.00     0.118 C 
BRANCH  23  24
ATOM     24  N   UNL A   1      40.495  23.795  26.182  1.00  0.00    -0.352 N 
ATOM     25  C   UNL A   1      41.280  24.916  26.309  1.00  0.00     0.251 C 
ATOM     26  H   UNL A   1      40.832  23.121  25.548  1.00  0.00     0.163 HD
ATOM     27  O   UNL A   1      42.175  25.104  25.488  1.00  0.00    -0.269 OA
BRANCH  25  28
ATOM     28  C   UNL A   1      41.071  25.892  27.408  1.00  0.00     0.039 A 
ATOM     29  C   UNL A   1      41.948  26.977  27.515  1.00  0.00     0.014 A 
ATOM     30  C   UNL A   1      40.079  25.716  28.377  1.00  0.00     0.014 A 
ATOM     31  C   UNL A   1      41.808  27.895  28.562  1.00  0.00     0.010 A 
ATOM     32  C   UNL A   1      39.894  26.672  29.376  1.00  0.00     0.010 A 
ATOM     33  C   UNL A   1      40.765  27.764  29.492  1.00  0.00    -0.014 A 
BRANCH  33  34
ATOM     34  C   UNL A   1      40.596  28.736  30.605  1.00  0.00     0.031 A 
ATOM     35  C   UNL A   1      41.459  28.636  31.839  1.00  0.00     0.074 A 
ATOM     36  C   UNL A   1      39.638  29.683  30.533  1.00  0.00     0.049 A 
ATOM     37  N   UNL A   1      41.425  29.353  32.934  1.00  0.00    -0.248 NA
ATOM     38  C   UNL A   1      42.476  27.572  31.853  1.00  0.00     0.031 C 
ATOM     39  C   UNL A   1      38.713  29.866  29.413  1.00  0.00     0.029 A 
ATOM     40  N   UNL A   1      39.283  30.669  31.421  1.00  0.00    -0.354 N 
ATOM     41  C   UNL A   1      42.395  28.814  33.772  1.00  0.00     0.074 A 
ATOM     42  C   UNL A   1      42.968  27.682  33.078  1.00  0.00     0.031 C 
ATOM     43  C   UNL A   1      37.916  30.918  29.668  1.00  0.00     0.029 A 
ATOM     44  C   UNL A   1      38.249  31.462  30.983  1.00  0.00     0.049 A 
ATOM     45  H   UNL A   1      39.729  30.796  32.290  1.00  0.00     0.167 HD
ATOM     46  C   UNL A   1      42.790  29.236  34.999  1.00  0.00     0.037 A 
ATOM     47  C   UNL A   1      37.638  32.509  31.572  1.00  0.00     0.037 A 
ATOM     48  C   UNL A   1      42.249  30.388  35.671  1.00  0.00     0.049 A 
ATOM     49  C   UNL A   1      38.106  32.970  32.927  1.00  0.00     0.074 A 
ATOM     50  C   UNL A   1      42.628  30.934  36.885  1.00  0.00     0.029 A 
ATOM     51  N   UNL A   1      41.216  31.175  35.183  1.00  0.00    -0.354 N 
ATOM     52  N   UNL A   1      39.063  32.481  33.679  1.00  0.00    -0.248 NA
ATOM     53  C   UNL A   1      37.416  34.130  33.509  1.00  0.00     0.031 C 
ATOM     54  C   UNL A   1      41.798  32.030  37.150  1.00  0.00     0.029 A 
ATOM     55  C   UNL A   1      40.932  32.192  36.081  1.00  0.00     0.049 A 
ATOM     56  H   UNL A   1      40.752  31.033  34.328  1.00  0.00     0.167 HD
ATOM     57  C   UNL A   1      39.107  33.290  34.811  1.00  0.00     0.074 A 
ATOM     58  C   UNL A   1      38.088  34.305  34.638  1.00  0.00     0.031 C 
ATOM     59  C   UNL A   1      39.920  33.201  35.893  1.00  0.00     0.037 A 
BRANCH  46  60
ATOM     60  C   UNL A   1      43.865  28.444  35.694  1.00  0.00     0.058 A 
ATOM     61  C   UNL A   1      45.229  28.715  35.495  1.00  0.00     0.135 A 
ATOM     62  C   UNL A   1      43.527  27.418  36.593  1.00  0.00     0.135 A 
ATOM     63  F   UNL A   1      45.608  29.675  34.637  1.00  0.00    -0.206 F 
ATOM     64  C   UNL A   1      46.218  27.974  36.131  1.00  0.00     0.059 A 
ATOM     65  C   UNL A   1      44.502  26.682  37.262  1.00  0.00     0.059 A 
ATOM     66  F   UNL A   1      42.239  27.118  36.823  1.00  0.00    -0.206 F 
ATOM     67  C   UNL A   1      45.846  26.957  37.011  1.00  0.00     0.060 A 
BRANCH  67  68
ATOM     68  S   UNL A   1      47.140  25.997  37.826  1.00  0.00     0.124 S 
ATOM     69  O   UNL A   1      47.878  27.044  38.529  1.00  0.00    -0.237 OA
ATOM     70  O   UNL A   1      46.369  25.090  38.675  1.00  0.00    -0.237 OA
ATOM     71  O   UNL A   1      47.845  25.365  36.720  1.00  0.00    -0.744 OA
ENDBRANCH  67  68
ENDBRANCH  46  60
BRANCH  47  72
ATOM     72  C   UNL A   1      36.535  33.215  30.869  1.00  0.00     0.058 A 
ATOM     73  C   UNL A   1      35.205  33.073  31.291  1.00  0.00     0.135 A 
ATOM     74  C   UNL A   1      36.787  34.051  29.770  1.00  0.00     0.135 A 
ATOM     75  F   UNL A   1      34.914  32.278  32.333  1.00  0.00    -0.206 F 
ATOM     76  C   UNL A   1      34.160  33.722  30.642  1.00  0.00     0.059 A 
ATOM     77  C   UNL A   1      35.762  34.730  29.119  1.00  0.00     0.059 A 
ATOM     78  F   UNL A   1      38.045  34.236  29.340  1.00  0.00    -0.206 F 
ATOM     79  C   UNL A   1      34.449  34.551  29.557  1.00  0.00     0.060 A 
BRANCH  79  80
ATOM     80  S   UNL A   1      33.094  35.433  28.752  1.00  0.00     0.124 S 
ATOM     81  O   UNL A   1      32.331  35.907  29.901  1.00  0.00    -0.237 OA
ATOM     82  O   UNL A   1      33.803  36.455  27.989  1.00  0.00    -0.237 OA
ATOM     83  O   UNL A   1      32.452  34.396  27.949  1.00  0.00    -0.744 OA
ENDBRANCH  79  80
ENDBRANCH  47  72
BRANCH  59  84
ATOM     84  C   UNL A   1      39.765  34.246  36.962  1.00  0.00     0.058 A 
ATOM     85  C   UNL A   1      39.019  34.008  38.126  1.00  0.00     0.135 A 
ATOM     86  C   UNL A   1      40.410  35.489  36.838  1.00  0.00     0.135 A 
ATOM     87  F   UNL A   1      38.379  32.840  38.290  1.00  0.00    -0.206 F 
ATOM     88  C   UNL A   1      38.897  34.973  39.121  1.00  0.00     0.059 A 
ATOM     89  C   UNL A   1      40.321  36.459  37.831  1.00  0.00     0.059 A 
ATOM     90  F   UNL A   1      41.144  35.764  35.749  1.00  0.00    -0.206 F 
ATOM     91  C   UNL A   1      39.551  36.196  38.964  1.00  0.00     0.060 A 
BRANCH  91  92
ATOM     92  S   UNL A   1      39.408  37.432  40.273  1.00  0.00     0.124 S 
ATOM     93  O   UNL A   1      38.516  38.409  39.657  1.00  0.00    -0.237 OA
ATOM     94  O   UNL A   1      38.839  36.659  41.373  1.00  0.00    -0.237 OA
ATOM     95  O   UNL A   1      40.784  37.875  40.473  1.00  0.00    -0.744 OA
ENDBRANCH  91  92
ENDBRANCH  59  84
ENDBRANCH  33  34
ENDBRANCH  25  28
ENDBRANCH  23  24
ENDBRANCH  22  23
ENDBRANCH   1  22
TORSDOF 17
ENDMDL
MODEL 2
REMARK VINA RESULT:     -12.1      1.187      2.135
REMARK SMILES C[C@H](C(=O)NCCCNC(=O)c1ccc(-c2c3nc(c(-c4c(F)cc(S(=O)(=O)[O-])cc4F)c4ccc([nH]4)c(-c4c(F)cc(S(=O)(=O)[O-])cc4F)c4nc(c(-c5c(F)cc(S(=O)(=O)[O-])cc5F)c5ccc2[nH]5)C=C4)C=C3)cc1)c1ccc(C[C@H]2CCC[C@@H]2O)cc1
REMARK SMILES IDX 6 1 5 2 3 3 4 4 2 6 1 7 78 8 79 9 90 10 80 11 89 12 81 13
REMARK SMILES IDX 82 14 83 15 84 16 87 17 85 18 86 19 88 20 7 22 8 23 9 24
REMARK SMILES IDX 10 25 11 27 12 28 13 29 77 30 14 31 76 32 15 33 16 34 17 35
REMARK SMILES IDX 70 36 18 37 75 38 69 39 71 40 19 41 74 42 68 43 67 44 20 46
REMARK SMILES IDX 54 47 33 48 53 49 34 50 37 51 52 52 72 53 35 54 36 55 51 57
REMARK SMILES IDX 73 58 38 59 21 60 22 61 31 62 23 63 24 64 30 65 32 66 25 67
REMARK SMILES IDX 26 68 27 69 28 70 29 71 55 72 56 73 65 74 57 75 58 76 64 77
REMARK SMILES IDX 66 78 59 79 60 80 61 81 62 82 63 83 39 84 40 85 49 86 41 87
REMARK SMILES IDX 42 88 48 89 50 90 43 91 44 92 45 93 46 94 47 95
REMARK H PARENT 5 5 88 21 9 26 71 45 37 56
REMARK Flexibility Score: inf
ROOT
ATOM      1  C   UNL A   1      37.197  22.413  25.246  1.00  0.00     0.117 C 
ENDROOT
BRANCH   1   2
ATOM      2  N   UNL A   1      36.273  21.806  26.191  1.00  0.00    -0.356 N 
ATOM      3  C   UNL A   1      34.916  21.951  26.306  1.00  0.00     0.227 C 
ATOM      4  O   UNL A   1      34.374  21.443  27.290  1.00  0.00    -0.274 OA
ATOM      5  H   UNL A   1      36.685  21.200  26.847  1.00  0.00     0.163 HD
BRANCH   3   6
ATOM      6  C   UNL A   1      34.112  22.694  25.220  1.00  0.00     0.105 C 
ATOM      7  C   UNL A   1      32.872  21.870  24.837  1.00  0.00     0.023 C 
BRANCH   6   8
ATOM      8  C   UNL A   1      33.779  24.118  25.647  1.00  0.00    -0.036 A 
ATOM      9  C   UNL A   1      32.625  24.377  26.402  1.00  0.00     0.005 A 
ATOM     10  C   UNL A   1      34.530  25.213  25.202  1.00  0.00     0.005 A 
ATOM     11  C   UNL A   1      32.144  25.683  26.553  1.00  0.00     0.004 A 
ATOM     12  C   UNL A   1      34.090  26.520  25.423  1.00  0.00     0.004 A 
ATOM     13  C   UNL A   1      32.849  26.763  26.016  1.00  0.00    -0.048 A 
BRANCH  13  14
ATOM     14  C   UNL A   1      32.245  28.150  26.005  1.00  0.00     0.041 C 
BRANCH  14  15
ATOM     15  C   UNL A   1      32.855  29.154  27.006  1.00  0.00     0.022 C 
ATOM     16  C   UNL A   1      34.313  28.907  27.431  1.00  0.00     0.007 C 
ATOM     17  C   UNL A   1      32.846  30.621  26.563  1.00  0.00     0.117 C 
ATOM     18  C   UNL A   1      34.932  30.287  27.675  1.00  0.00     0.003 C 
ATOM     19  C   UNL A   1      33.788  31.281  27.561  1.00  0.00     0.032 C 
BRANCH  17  20
ATOM     20  O   UNL A   1      31.550  31.189  26.612  1.00  0.00    -0.393 OA
ATOM     21  H   UNL A   1      31.436  31.799  25.866  1.00  0.00     0.210 HD
ENDBRANCH  17  20
ENDBRANCH  14  15
ENDBRANCH  13  14
ENDBRANCH   6   8
ENDBRANCH   3   6
ENDBRANCH   1   2
BRANCH   1  22
ATOM     22  C   UNL A   1      37.769  23.722  25.788  1.00  0.00     0.042 C 
BRANCH  22  23
ATOM     23  C   UNL A   1      38.897  23.534  26.793  1.00  0.00     0.118 C 
BRANCH  23  24
ATOM     24  N   UNL A   1      40.201  23.776  26.197  1.00  0.00    -0.352 N 
ATOM     25  C   UNL A   1      41.071  24.826  26.369  1.00  0.00     0.251 C 
ATOM     26  H   UNL A   1      40.509  23.079  25.573  1.00  0.00     0.163 HD
ATOM     27  O   UNL A   1      42.016  24.941  25.591  1.00  0.00    -0.269 OA
BRANCH  25  28
ATOM     28  C   UNL A   1      40.894  25.812  27.465  1.00  0.00     0.039 A 
ATOM     29  C   UNL A   1      41.812  26.862  27.575  1.00  0.00     0.014 A 
ATOM     30  C   UNL A   1      39.891  25.676  28.429  1.00  0.00     0.014 A 
ATOM     31  C   UNL A   1      41.703  27.787  28.619  1.00  0.00     0.010 A 
ATOM     32  C   UNL A   1      39.738  26.641  29.425  1.00  0.00     0.010 A 
ATOM     33  C   UNL A   1      40.651  27.698  29.544  1.00  0.00    -0.014 A 
BRANCH  33  34
ATOM     34  C   UNL A   1      40.513  28.679  30.654  1.00  0.00     0.031 A 
ATOM     35  C   UNL A   1      41.392  28.571  31.876  1.00  0.00     0.074 A 
ATOM     36  C   UNL A   1      39.571  29.641  30.591  1.00  0.00     0.049 A 
ATOM     37  N   UNL A   1      41.386  29.293  32.968  1.00  0.00    -0.248 NA
ATOM     38  C   UNL A   1      42.391  27.490  31.881  1.00  0.00     0.031 C 
ATOM     39  C   UNL A   1      38.633  29.835  29.483  1.00  0.00     0.029 A 
ATOM     40  N   UNL A   1      39.245  30.637  31.479  1.00  0.00    -0.354 N 
ATOM     41  C   UNL A   1      42.359  28.743  33.795  1.00  0.00     0.074 A 
ATOM     42  C   UNL A   1      42.903  27.597  33.099  1.00  0.00     0.031 C 
ATOM     43  C   UNL A   1      37.858  30.901  29.745  1.00  0.00     0.029 A 
ATOM     44  C   UNL A   1      38.218  31.446  31.052  1.00  0.00     0.049 A 
ATOM     45  H   UNL A   1      39.705  30.761  32.341  1.00  0.00     0.167 HD
ATOM     46  C   UNL A   1      42.779  29.163  35.014  1.00  0.00     0.037 A 
ATOM     47  C   UNL A   1      37.633  32.506  31.644  1.00  0.00     0.037 A 
ATOM     48  C   UNL A   1      42.266  30.328  35.687  1.00  0.00     0.049 A 
ATOM     49  C   UNL A   1      38.128  32.966  32.989  1.00  0.00     0.074 A 
ATOM     50  C   UNL A   1      42.671  30.873  36.893  1.00  0.00     0.029 A 
ATOM     51  N   UNL A   1      41.240  31.130  35.211  1.00  0.00    -0.354 N 
ATOM     52  N   UNL A   1      39.087  32.464  33.731  1.00  0.00    -0.248 NA
ATOM     53  C   UNL A   1      37.466  34.139  33.575  1.00  0.00     0.031 C 
ATOM     54  C   UNL A   1      41.864  31.984  37.165  1.00  0.00     0.029 A 
ATOM     55  C   UNL A   1      40.986  32.155  36.108  1.00  0.00     0.049 A 
ATOM     56  H   UNL A   1      40.761  30.991  34.362  1.00  0.00     0.167 HD
ATOM     57  C   UNL A   1      39.161  33.278  34.857  1.00  0.00     0.074 A 
ATOM     58  C   UNL A   1      38.157  34.309  34.694  1.00  0.00     0.031 C 
ATOM     59  C   UNL A   1      39.988  33.180  35.928  1.00  0.00     0.037 A 
BRANCH  46  60
ATOM     60  C   UNL A   1      43.850  28.357  35.697  1.00  0.00     0.058 A 
ATOM     61  C   UNL A   1      45.215  28.594  35.467  1.00  0.00     0.135 A 
ATOM     62  C   UNL A   1      43.508  27.351  36.618  1.00  0.00     0.135 A 
ATOM     63  F   UNL A   1      45.597  29.534  34.588  1.00  0.00    -0.206 F 
ATOM     64  C   UNL A   1      46.201  27.840  36.093  1.00  0.00     0.059 A 
ATOM     65  C   UNL A   1      44.480  26.603  37.276  1.00  0.00     0.059 A 
ATOM     66  F   UNL A   1      42.219  27.084  36.879  1.00  0.00    -0.206 F 
ATOM     67  C   UNL A   1      45.824  26.844  36.994  1.00  0.00     0.060 A 
BRANCH  67  68
ATOM     68  S   UNL A   1      47.113  25.866  37.796  1.00  0.00     0.124 S 
ATOM     69  O   UNL A   1      46.883  26.183  39.204  1.00  0.00    -0.237 OA
ATOM     70  O   UNL A   1      46.769  24.504  37.391  1.00  0.00    -0.237 OA
ATOM     71  O   UNL A   1      48.345  26.392  37.226  1.00  0.00    -0.744 OA
ENDBRANCH  67  68
ENDBRANCH  46  60
BRANCH  47  72
ATOM     72  C   UNL A   1      36.532  33.226  30.953  1.00  0.00     0.058 A 
ATOM     73  C   UNL A   1      36.802  34.131  29.916  1.00  0.00     0.135 A 
ATOM     74  C   UNL A   1      35.189  33.018  31.306  1.00  0.00     0.135 A 
ATOM     75  F   UNL A   1      38.071  34.368  29.548  1.00  0.00    -0.206 F 
ATOM     76  C   UNL A   1      35.785  34.815  29.261  1.00  0.00     0.059 A 
ATOM     77  C   UNL A   1      34.152  33.673  30.650  1.00  0.00     0.059 A 
ATOM     78  F   UNL A   1      34.876  32.147  32.278  1.00  0.00    -0.206 F 
ATOM     79  C   UNL A   1      34.461  34.579  29.635  1.00  0.00     0.060 A 
BRANCH  79  80
ATOM     80  S   UNL A   1      33.141  35.432  28.745  1.00  0.00     0.124 S 
ATOM     81  O   UNL A   1      33.901  36.345  27.899  1.00  0.00    -0.237 OA
ATOM     82  O   UNL A   1      32.473  34.331  28.058  1.00  0.00    -0.237 OA
ATOM     83  O   UNL A   1      32.366  36.055  29.814  1.00  0.00    -0.744 OA
ENDBRANCH  79  80
ENDBRANCH  47  72
BRANCH  59  84
ATOM     84  C   UNL A   1      39.866  34.233  36.994  1.00  0.00     0.058 A 
ATOM     85  C   UNL A   1      40.490  35.484  36.870  1.00  0.00     0.135 A 
ATOM     86  C   UNL A   1      39.077  34.002  38.133  1.00  0.00     0.135 A 
ATOM     87  F   UNL A   1      41.259  35.753  35.805  1.00  0.00    -0.206 F 
ATOM     88  C   UNL A   1      40.355  36.462  37.852  1.00  0.00     0.059 A 
ATOM     89  C   UNL A   1      38.910  34.975  39.114  1.00  0.00     0.059 A 
ATOM     90  F   UNL A   1      38.451  32.827  38.295  1.00  0.00    -0.206 F 
ATOM     91  C   UNL A   1      39.564  36.198  38.970  1.00  0.00     0.060 A 
BRANCH  91  92
ATOM     92  S   UNL A   1      39.375  37.484  40.224  1.00  0.00     0.124 S 
ATOM     93  O   UNL A   1      38.437  38.392  39.572  1.00  0.00    -0.237 OA
ATOM     94  O   UNL A   1      38.847  36.737  41.362  1.00  0.00    -0.237 OA
ATOM     95  O   UNL A   1      40.731  37.995  40.393  1.00  0.00    -0.744 OA
ENDBRANCH  91  92
ENDBRANCH  59  84
ENDBRANCH  33  34
ENDBRANCH  25  28
ENDBRANCH  23  24
ENDBRANCH  22  23
ENDBRANCH   1  22
TORSDOF 17
ENDMDL
MODEL 3
REMARK VINA RESULT:     -11.9      2.369      3.777
REMARK SMILES C[C@H](C(=O)NCCCNC(=O)c1ccc(-c2c3nc(c(-c4c(F)cc(S(=O)(=O)[O-])cc4F)c4ccc([nH]4)c(-c4c(F)cc(S(=O)(=O)[O-])cc4F)c4nc(c(-c5c(F)cc(S(=O)(=O)[O-])cc5F)c5ccc2[nH]5)C=C4)C=C3)cc1)c1ccc(C[C@H]2CCC[C@@H]2O)cc1
REMARK SMILES IDX 6 1 5 2 3 3 4 4 2 6 1 7 78 8 79 9 90 10 80 11 89 12 81 13
REMARK SMILES IDX 82 14 83 15 84 16 87 17 85 18 86 19 88 20 7 22 8 23 9 24
REMARK SMILES IDX 10 25 11 27 12 28 13 29 77 30 14 31 76 32 15 33 16 34 17 35
REMARK SMILES IDX 70 36 18 37 75 38 69 39 71 40 19 41 74 42 68 43 67 44 20 46
REMARK SMILES IDX 54 47 33 48 53 49 34 50 37 51 52 52 72 53 35 54 36 55 51 57
REMARK SMILES IDX 73 58 38 59 21 60 22 61 31 62 23 63 24 64 30 65 32 66 25 67
REMARK SMILES IDX 26 68 27 69 28 70 29 71 55 72 56 73 65 74 57 75 58 76 64 77
REMARK SMILES IDX 66 78 59 79 60 80 61 81 62 82 63 83 39 84 40 85 49 86 41 87
REMARK SMILES IDX 42 88 48 89 50 90 43 91 44 92 45 93 46 94 47 95
REMARK H PARENT 5 5 88 21 9 26 71 45 37 56
REMARK Flexibility Score: inf
ROOT
ATOM      1  C   UNL A   1      39.801  22.455  27.182  1.00  0.00     0.117 C 
ENDROOT
BRANCH   1   2
ATOM      2  N   UNL A   1      39.315  21.530  26.171  1.00  0.00    -0.356 N 
ATOM      3  C   UNL A   1      38.090  21.461  25.562  1.00  0.00     0.227 C 
ATOM      4  O   UNL A   1      37.872  20.486  24.839  1.00  0.00    -0.274 OA
ATOM      5  H   UNL A   1      39.965  20.850  25.879  1.00  0.00     0.163 HD
BRANCH   3   6
ATOM      6  C   UNL A   1      37.053  22.585  25.759  1.00  0.00     0.105 C 
ATOM      7  C   UNL A   1      37.436  23.801  24.898  1.00  0.00     0.023 C 
BRANCH   6   8
ATOM      8  C   UNL A   1      35.636  22.089  25.501  1.00  0.00    -0.036 A 
ATOM      9  C   UNL A   1      34.882  21.530  26.544  1.00  0.00     0.005 A 
ATOM     10  C   UNL A   1      35.092  22.058  24.211  1.00  0.00     0.005 A 
ATOM     11  C   UNL A   1      33.713  20.810  26.278  1.00  0.00     0.004 A 
ATOM     12  C   UNL A   1      33.883  21.407  23.959  1.00  0.00     0.004 A 
ATOM     13  C   UNL A   1      33.232  20.697  24.971  1.00  0.00    -0.048 A 
BRANCH  13  14
ATOM     14  C   UNL A   1      32.085  19.766  24.647  1.00  0.00     0.041 C 
BRANCH  14  15
ATOM     15  C   UNL A   1      32.478  18.323  24.267  1.00  0.00     0.022 C 
ATOM     16  C   UNL A   1      32.934  18.092  22.815  1.00  0.00     0.007 C 
ATOM     17  C   UNL A   1      33.596  17.697  25.106  1.00  0.00     0.117 C 
ATOM     18  C   UNL A   1      33.980  16.973  22.864  1.00  0.00     0.003 C 
ATOM     19  C   UNL A   1      33.978  16.465  24.296  1.00  0.00     0.032 C 
BRANCH  17  20
ATOM     20  O   UNL A   1      33.162  17.353  26.409  1.00  0.00    -0.393 OA
ATOM     21  H   UNL A   1      32.758  18.128  26.830  1.00  0.00     0.210 HD
ENDBRANCH  17  20
ENDBRANCH  14  15
ENDBRANCH  13  14
ENDBRANCH   6   8
ENDBRANCH   3   6
ENDBRANCH   1   2
BRANCH   1  22
ATOM     22  C   UNL A   1      41.196  22.065  27.669  1.00  0.00     0.042 C 
BRANCH  22  23
ATOM     23  C   UNL A   1      42.210  23.200  27.611  1.00  0.00     0.118 C 
BRANCH  23  24
ATOM     24  N   UNL A   1      42.074  23.988  26.397  1.00  0.00    -0.352 N 
ATOM     25  C   UNL A   1      41.638  25.280  26.225  1.00  0.00     0.251 C 
ATOM     26  H   UNL A   1      42.336  23.523  25.569  1.00  0.00     0.163 HD
ATOM     27  O   UNL A   1      41.386  25.668  25.086  1.00  0.00    -0.269 OA
BRANCH  25  28
ATOM     28  C   UNL A   1      41.469  26.204  27.374  1.00  0.00     0.039 A 
ATOM     29  C   UNL A   1      40.367  26.028  28.218  1.00  0.00     0.014 A 
ATOM     30  C   UNL A   1      42.330  27.284  27.589  1.00  0.00     0.014 A 
ATOM     31  C   UNL A   1      40.152  26.905  29.287  1.00  0.00     0.010 A 
ATOM     32  C   UNL A   1      42.157  28.112  28.699  1.00  0.00     0.010 A 
ATOM     33  C   UNL A   1      41.058  27.944  29.552  1.00  0.00    -0.014 A 
BRANCH  33  34
ATOM     34  C   UNL A   1      40.849  28.879  30.690  1.00  0.00     0.031 A 
ATOM     35  C   UNL A   1      41.699  28.764  31.932  1.00  0.00     0.074 A 
ATOM     36  C   UNL A   1      39.869  29.804  30.632  1.00  0.00     0.049 A 
ATOM     37  N   UNL A   1      41.633  29.448  33.047  1.00  0.00    -0.248 NA
ATOM     38  C   UNL A   1      42.741  27.726  31.929  1.00  0.00     0.031 C 
ATOM     39  C   UNL A   1      38.954  29.997  29.505  1.00  0.00     0.029 A 
ATOM     40  N   UNL A   1      39.478  30.754  31.544  1.00  0.00    -0.354 N 
ATOM     41  C   UNL A   1      42.605  28.909  33.882  1.00  0.00     0.074 A 
ATOM     42  C   UNL A   1      43.215  27.812  33.164  1.00  0.00     0.031 C 
ATOM     43  C   UNL A   1      38.128  31.020  29.780  1.00  0.00     0.029 A 
ATOM     44  C   UNL A   1      38.430  31.534  31.115  1.00  0.00     0.049 A 
ATOM     45  H   UNL A   1      39.909  30.866  32.422  1.00  0.00     0.167 HD
ATOM     46  C   UNL A   1      42.974  29.304  35.126  1.00  0.00     0.037 A 
ATOM     47  C   UNL A   1      37.786  32.548  31.725  1.00  0.00     0.037 A 
ATOM     48  C   UNL A   1      42.395  30.423  35.823  1.00  0.00     0.049 A 
ATOM     49  C   UNL A   1      38.224  32.981  33.099  1.00  0.00     0.074 A 
ATOM     50  C   UNL A   1      42.744  30.942  37.058  1.00  0.00     0.029 A 
ATOM     51  N   UNL A   1      41.349  31.198  35.345  1.00  0.00    -0.354 N 
ATOM     52  N   UNL A   1      39.183  32.494  33.850  1.00  0.00    -0.248 NA
ATOM     53  C   UNL A   1      37.498  34.105  33.705  1.00  0.00     0.031 C 
ATOM     54  C   UNL A   1      41.884  32.009  37.343  1.00  0.00     0.029 A 
ATOM     55  C   UNL A   1      41.028  32.180  36.268  1.00  0.00     0.049 A 
ATOM     56  H   UNL A   1      40.900  31.069  34.479  1.00  0.00     0.167 HD
ATOM     57  C   UNL A   1      39.193  33.270  35.005  1.00  0.00     0.074 A 
ATOM     58  C   UNL A   1      38.151  34.264  34.848  1.00  0.00     0.031 C 
ATOM     59  C   UNL A   1      39.993  33.169  36.095  1.00  0.00     0.037 A 
BRANCH  46  60
ATOM     60  C   UNL A   1      44.059  28.519  35.812  1.00  0.00     0.058 A 
ATOM     61  C   UNL A   1      43.766  27.439  36.660  1.00  0.00     0.135 A 
ATOM     62  C   UNL A   1      45.412  28.834  35.598  1.00  0.00     0.135 A 
ATOM     63  F   UNL A   1      42.491  27.104  36.911  1.00  0.00    -0.206 F 
ATOM     64  C   UNL A   1      44.772  26.723  37.301  1.00  0.00     0.059 A 
ATOM     65  C   UNL A   1      46.435  28.113  36.207  1.00  0.00     0.059 A 
ATOM     66  F   UNL A   1      45.749  29.855  34.794  1.00  0.00    -0.206 F 
ATOM     67  C   UNL A   1      46.104  27.069  37.071  1.00  0.00     0.060 A 
BRANCH  67  68
ATOM     68  S   UNL A   1      47.401  26.137  37.914  1.00  0.00     0.124 S 
ATOM     69  O   UNL A   1      48.284  25.798  36.800  1.00  0.00    -0.237 OA
ATOM     70  O   UNL A   1      47.928  27.119  38.860  1.00  0.00    -0.237 OA
ATOM     71  O   UNL A   1      46.685  25.019  38.511  1.00  0.00    -0.744 OA
ENDBRANCH  67  68
ENDBRANCH  46  60
BRANCH  47  72
ATOM     72  C   UNL A   1      36.674  33.246  31.028  1.00  0.00     0.058 A 
ATOM     73  C   UNL A   1      36.931  34.141  29.979  1.00  0.00     0.135 A 
ATOM     74  C   UNL A   1      35.335  33.026  31.386  1.00  0.00     0.135 A 
ATOM     75  F   UNL A   1      38.196  34.388  29.605  1.00  0.00    -0.206 F 
ATOM     76  C   UNL A   1      35.904  34.805  29.318  1.00  0.00     0.059 A 
ATOM     77  C   UNL A   1      34.288  33.660  30.725  1.00  0.00     0.059 A 
ATOM     78  F   UNL A   1      35.035  32.163  32.370  1.00  0.00    -0.206 F 
ATOM     79  C   UNL A   1      34.584  34.557  29.698  1.00  0.00     0.060 A 
BRANCH  79  80
ATOM     80  S   UNL A   1      33.252  35.382  28.800  1.00  0.00     0.124 S 
ATOM     81  O   UNL A   1      33.998  36.305  27.952  1.00  0.00    -0.237 OA
ATOM     82  O   UNL A   1      32.605  34.267  28.116  1.00  0.00    -0.237 OA
ATOM     83  O   UNL A   1      32.463  35.996  29.864  1.00  0.00    -0.744 OA
ENDBRANCH  79  80
ENDBRANCH  47  72
BRANCH  59  84
ATOM     84  C   UNL A   1      39.799  34.179  37.191  1.00  0.00     0.058 A 
ATOM     85  C   UNL A   1      38.892  33.964  38.241  1.00  0.00     0.135 A 
ATOM     86  C   UNL A   1      40.563  35.358  37.214  1.00  0.00     0.135 A 
ATOM     87  F   UNL A   1      38.134  32.857  38.262  1.00  0.00    -0.206 F 
ATOM     88  C   UNL A   1      38.732  34.894  39.263  1.00  0.00     0.059 A 
ATOM     89  C   UNL A   1      40.436  36.290  38.240  1.00  0.00     0.059 A 
ATOM     90  F   UNL A   1      41.451  35.607  36.240  1.00  0.00    -0.206 F 
ATOM     91  C   UNL A   1      39.508  36.054  39.254  1.00  0.00     0.060 A 
BRANCH  91  92
ATOM     92  S   UNL A   1      39.311  37.242  40.600  1.00  0.00     0.124 S 
ATOM     93  O   UNL A   1      38.205  38.058  40.111  1.00  0.00    -0.237 OA
ATOM     94  O   UNL A   1      39.008  36.379  41.738  1.00  0.00    -0.237 OA
ATOM     95  O   UNL A   1      40.608  37.909  40.656  1.00  0.00    -0.744 OA
ENDBRANCH  91  92
ENDBRANCH  59  84
ENDBRANCH  33  34
ENDBRANCH  25  28
ENDBRANCH  23  24
ENDBRANCH  22  23
ENDBRANCH   1  22
TORSDOF 17
ENDMDL
