MODEL 1
REMARK VINA RESULT:     -11.7      0.000      0.000
REMARK SMILES CCc1cc(OC(F)(F)F)cc2c1O[C@H](C(F)(F)F)C(C(=O)NCCCNC(=O)c1ccc(-c3c4nc(c(-c5c(F)cc(S(=O)(=O)[O-])cc5F)c5ccc([nH]5)c(-c5c(F)cc(S(=O)(=O)[O-])cc5F)c5nc(c(-c6c(F)cc(S(=O)(=O)[O-])cc6F)c6ccc3[nH]6)C=C5)C=C4)cc1)=C2
REMARK SMILES IDX 25 1 24 2 23 3 21 4 22 5 20 7 3 8 4 9 13 10 5 11 12 12 14 13
REMARK SMILES IDX 11 14 96 15 15 16 2 17 1 18 6 19 7 20 8 21 9 22 10 23 16 24
REMARK SMILES IDX 17 25 18 26 19 27 26 28 27 29 28 30 29 32 30 33 31 34 95 35
REMARK SMILES IDX 32 36 94 37 33 38 34 39 35 40 88 41 36 42 93 43 87 44 89 45
REMARK SMILES IDX 37 46 92 47 86 48 85 49 38 51 72 52 51 53 71 54 52 55 55 56
REMARK SMILES IDX 70 57 90 58 53 59 54 60 69 62 91 63 56 64 39 65 40 66 49 67
REMARK SMILES IDX 41 68 42 69 48 70 50 71 43 72 44 73 45 74 46 75 47 76 73 77
REMARK SMILES IDX 74 78 83 79 75 80 76 81 82 82 84 83 77 84 78 85 79 86 80 87
REMARK SMILES IDX 81 88 57 89 58 90 67 91 59 92 60 93 66 94 68 95 61 96 62 97
REMARK SMILES IDX 63 98 64 99 65 100
REMARK H PARENT 23 6 27 31 89 50 55 61
REMARK Flexibility Score: inf
ROOT
ATOM      1  C   UNL A   1      33.985  28.394  24.869  1.00  0.00     0.042 C 
ENDROOT
BRANCH   1   2
ATOM      2  C   UNL A   1      32.695  27.793  24.308  1.00  0.00     0.118 C 
BRANCH   2   3
ATOM      3  N   UNL A   1      31.740  27.515  25.366  1.00  0.00    -0.352 N 
ATOM      4  C   UNL A   1      31.401  26.380  26.025  1.00  0.00     0.251 C 
ATOM      5  O   UNL A   1      30.562  26.469  26.921  1.00  0.00    -0.270 OA
ATOM      6  H   UNL A   1      31.240  28.309  25.663  1.00  0.00     0.163 HD
BRANCH   4   7
ATOM      7  C   UNL A   1      32.058  25.065  25.791  1.00  0.00     0.067 C 
ATOM      8  C   UNL A   1      33.285  21.082  25.202  1.00  0.00    -0.002 A 
ATOM      9  C   UNL A   1      34.645  20.765  25.392  1.00  0.00     0.054 A 
ATOM     10  C   UNL A   1      32.870  22.408  25.411  1.00  0.00     0.131 A 
ATOM     11  C   UNL A   1      35.560  21.731  25.818  1.00  0.00     0.130 A 
ATOM     12  C   UNL A   1      33.783  23.388  25.811  1.00  0.00     0.021 A 
ATOM     13  O   UNL A   1      31.536  22.686  25.280  1.00  0.00    -0.475 OA
ATOM     14  C   UNL A   1      35.121  23.042  26.016  1.00  0.00     0.058 A 
ATOM     15  C   UNL A   1      33.326  24.746  26.080  1.00  0.00     0.025 C 
ATOM     16  C   UNL A   1      31.175  24.075  25.049  1.00  0.00     0.314 C 
BRANCH   8  17
ATOM     17  C   UNL A   1      32.320  20.025  24.706  1.00  0.00     0.036 C 
ATOM     18  C   UNL A   1      32.256  19.894  23.189  1.00  0.00     0.009 C 
ENDBRANCH   8  17
BRANCH  11  19
ATOM     19  O   UNL A   1      36.886  21.538  26.075  1.00  0.00    -0.406 OA
BRANCH  19  20
ATOM     20  C   UNL A   1      37.773  21.454  24.973  1.00  0.00     0.573 C 
ATOM     21  F   UNL A   1      37.325  22.189  23.930  1.00  0.00    -0.132 F 
ATOM     22  F   UNL A   1      39.012  21.867  25.311  1.00  0.00    -0.132 F 
ATOM     23  F   UNL A   1      37.848  20.167  24.571  1.00  0.00    -0.132 F 
ENDBRANCH  19  20
ENDBRANCH  11  19
BRANCH  16  24
ATOM     24  C   UNL A   1      31.081  24.372  23.535  1.00  0.00     0.429 C 
ATOM     25  F   UNL A   1      30.656  23.307  22.815  1.00  0.00    -0.167 F 
ATOM     26  F   UNL A   1      30.210  25.384  23.277  1.00  0.00    -0.167 F 
ATOM     27  F   UNL A   1      32.271  24.765  23.023  1.00  0.00    -0.167 F 
ENDBRANCH  16  24
ENDBRANCH   4   7
ENDBRANCH   2   3
ENDBRANCH   1   2
BRANCH   1  28
ATOM     28  C   UNL A   1      34.032  28.405  26.396  1.00  0.00     0.118 C 
BRANCH  28  29
ATOM     29  N   UNL A   1      33.791  29.737  26.931  1.00  0.00    -0.352 N 
ATOM     30  C   UNL A   1      34.527  30.476  27.822  1.00  0.00     0.251 C 
ATOM     31  H   UNL A   1      32.973  30.176  26.602  1.00  0.00     0.163 HD
ATOM     32  O   UNL A   1      34.021  31.477  28.326  1.00  0.00    -0.269 OA
BRANCH  30  33
ATOM     33  C   UNL A   1      35.907  30.083  28.185  1.00  0.00     0.039 A 
ATOM     34  C   UNL A   1      36.907  30.169  27.211  1.00  0.00     0.014 A 
ATOM     35  C   UNL A   1      36.211  29.574  29.451  1.00  0.00     0.014 A 
ATOM     36  C   UNL A   1      38.216  29.788  27.517  1.00  0.00     0.010 A 
ATOM     37  C   UNL A   1      37.529  29.252  29.775  1.00  0.00     0.010 A 
ATOM     38  C   UNL A   1      38.543  29.348  28.810  1.00  0.00    -0.014 A 
BRANCH  38  39
ATOM     39  C   UNL A   1      39.938  28.984  29.169  1.00  0.00     0.031 A 
ATOM     40  C   UNL A   1      40.845  30.000  29.810  1.00  0.00     0.074 A 
ATOM     41  C   UNL A   1      40.408  27.763  28.849  1.00  0.00     0.049 A 
ATOM     42  N   UNL A   1      42.113  29.898  30.116  1.00  0.00    -0.248 NA
ATOM     43  C   UNL A   1      40.258  31.314  30.126  1.00  0.00     0.031 C 
ATOM     44  C   UNL A   1      39.641  26.712  28.174  1.00  0.00     0.029 A 
ATOM     45  N   UNL A   1      41.650  27.204  29.026  1.00  0.00    -0.354 N 
ATOM     46  C   UNL A   1      42.483  31.136  30.630  1.00  0.00     0.074 A 
ATOM     47  C   UNL A   1      41.313  31.985  30.568  1.00  0.00     0.031 C 
ATOM     48  C   UNL A   1      40.428  25.637  27.998  1.00  0.00     0.029 A 
ATOM     49  C   UNL A   1      41.760  25.931  28.516  1.00  0.00     0.049 A 
ATOM     50  H   UNL A   1      42.390  27.669  29.477  1.00  0.00     0.167 HD
ATOM     51  C   UNL A   1      43.685  31.523  31.122  1.00  0.00     0.037 A 
ATOM     52  C   UNL A   1      42.819  25.101  28.457  1.00  0.00     0.037 A 
ATOM     53  C   UNL A   1      44.830  30.657  31.224  1.00  0.00     0.049 A 
ATOM     54  C   UNL A   1      44.131  25.541  29.047  1.00  0.00     0.074 A 
ATOM     55  C   UNL A   1      46.062  30.926  31.795  1.00  0.00     0.029 A 
ATOM     56  N   UNL A   1      44.888  29.357  30.745  1.00  0.00    -0.354 N 
ATOM     57  N   UNL A   1      44.437  26.687  29.607  1.00  0.00    -0.248 NA
ATOM     58  C   UNL A   1      45.238  24.576  29.007  1.00  0.00     0.031 C 
ATOM     59  C   UNL A   1      46.878  29.804  31.625  1.00  0.00     0.029 A 
ATOM     60  C   UNL A   1      46.140  28.818  30.987  1.00  0.00     0.049 A 
ATOM     61  H   UNL A   1      44.147  28.886  30.298  1.00  0.00     0.167 HD
ATOM     62  C   UNL A   1      45.764  26.572  30.006  1.00  0.00     0.074 A 
ATOM     63  C   UNL A   1      46.197  25.241  29.637  1.00  0.00     0.031 C 
ATOM     64  C   UNL A   1      46.552  27.487  30.623  1.00  0.00     0.037 A 
BRANCH  51  65
ATOM     65  C   UNL A   1      43.830  32.943  31.596  1.00  0.00     0.058 A 
ATOM     66  C   UNL A   1      44.075  33.999  30.705  1.00  0.00     0.135 A 
ATOM     67  C   UNL A   1      43.653  33.260  32.954  1.00  0.00     0.135 A 
ATOM     68  F   UNL A   1      44.265  33.751  29.399  1.00  0.00    -0.206 F 
ATOM     69  C   UNL A   1      44.158  35.317  31.143  1.00  0.00     0.059 A 
ATOM     70  C   UNL A   1      43.707  34.573  33.411  1.00  0.00     0.059 A 
ATOM     71  F   UNL A   1      43.417  32.287  33.848  1.00  0.00    -0.206 F 
ATOM     72  C   UNL A   1      43.970  35.594  32.499  1.00  0.00     0.060 A 
BRANCH  72  73
ATOM     73  S   UNL A   1      44.052  37.312  33.048  1.00  0.00     0.124 S 
ATOM     74  O   UNL A   1      42.814  37.432  33.812  1.00  0.00    -0.237 OA
ATOM     75  O   UNL A   1      45.283  37.330  33.831  1.00  0.00    -0.237 OA
ATOM     76  O   UNL A   1      44.096  38.067  31.800  1.00  0.00    -0.744 OA
ENDBRANCH  72  73
ENDBRANCH  51  65
BRANCH  52  77
ATOM     77  C   UNL A   1      42.682  23.764  27.820  1.00  0.00     0.058 A 
ATOM     78  C   UNL A   1      42.446  22.616  28.590  1.00  0.00     0.135 A 
ATOM     79  C   UNL A   1      42.784  23.610  26.428  1.00  0.00     0.135 A 
ATOM     80  F   UNL A   1      42.344  22.712  29.924  1.00  0.00    -0.206 F 
ATOM     81  C   UNL A   1      42.341  21.356  28.007  1.00  0.00     0.059 A 
ATOM     82  C   UNL A   1      42.657  22.365  25.820  1.00  0.00     0.059 A 
ATOM     83  F   UNL A   1      42.989  24.680  25.646  1.00  0.00    -0.206 F 
ATOM     84  C   UNL A   1      42.450  21.241  26.620  1.00  0.00     0.060 A 
BRANCH  84  85
ATOM     85  S   UNL A   1      42.277  19.609  25.867  1.00  0.00     0.124 S 
ATOM     86  O   UNL A   1      40.868  19.608  25.493  1.00  0.00    -0.237 OA
ATOM     87  O   UNL A   1      43.231  19.676  24.764  1.00  0.00    -0.237 OA
ATOM     88  O   UNL A   1      42.646  18.701  26.949  1.00  0.00    -0.744 OA
ENDBRANCH  84  85
ENDBRANCH  52  77
BRANCH  64  89
ATOM     89  C   UNL A   1      47.954  27.071  30.969  1.00  0.00     0.058 A 
ATOM     90  C   UNL A   1      48.264  26.487  32.207  1.00  0.00     0.135 A 
ATOM     91  C   UNL A   1      48.987  27.210  30.029  1.00  0.00     0.135 A 
ATOM     92  F   UNL A   1      47.312  26.339  33.142  1.00  0.00    -0.206 F 
ATOM     93  C   UNL A   1      49.558  26.072  32.509  1.00  0.00     0.059 A 
ATOM     94  C   UNL A   1      50.283  26.779  30.301  1.00  0.00     0.059 A 
ATOM     95  F   UNL A   1      48.741  27.752  28.827  1.00  0.00    -0.206 F 
ATOM     96  C   UNL A   1      50.560  26.222  31.548  1.00  0.00     0.060 A 
BRANCH  96  97
ATOM     97  S   UNL A   1      52.227  25.648  31.938  1.00  0.00     0.124 S 
ATOM     98  O   UNL A   1      52.952  26.012  30.726  1.00  0.00    -0.237 OA
ATOM     99  O   UNL A   1      52.555  26.422  33.131  1.00  0.00    -0.237 OA
ATOM    100  O   UNL A   1      52.049  24.215  32.158  1.00  0.00    -0.744 OA
ENDBRANCH  96  97
ENDBRANCH  64  89
ENDBRANCH  38  39
ENDBRANCH  30  33
ENDBRANCH  28  29
ENDBRANCH   1  28
TORSDOF 17
ENDMDL
MODEL 2
REMARK VINA RESULT:     -11.5      2.884      3.660
REMARK SMILES CCc1cc(OC(F)(F)F)cc2c1O[C@H](C(F)(F)F)C(C(=O)NCCCNC(=O)c1ccc(-c3c4nc(c(-c5c(F)cc(S(=O)(=O)[O-])cc5F)c5ccc([nH]5)c(-c5c(F)cc(S(=O)(=O)[O-])cc5F)c5nc(c(-c6c(F)cc(S(=O)(=O)[O-])cc6F)c6ccc3[nH]6)C=C5)C=C4)cc1)=C2
REMARK SMILES IDX 25 1 24 2 23 3 21 4 22 5 20 7 3 8 4 9 13 10 5 11 12 12 14 13
REMARK SMILES IDX 11 14 96 15 15 16 2 17 1 18 6 19 7 20 8 21 9 22 10 23 16 24
REMARK SMILES IDX 17 25 18 26 19 27 26 28 27 29 28 30 29 32 30 33 31 34 95 35
REMARK SMILES IDX 32 36 94 37 33 38 34 39 35 40 88 41 36 42 93 43 87 44 89 45
REMARK SMILES IDX 37 46 92 47 86 48 85 49 38 51 72 52 51 53 71 54 52 55 55 56
REMARK SMILES IDX 70 57 90 58 53 59 54 60 69 62 91 63 56 64 39 65 40 66 49 67
REMARK SMILES IDX 41 68 42 69 48 70 50 71 43 72 44 73 45 74 46 75 47 76 73 77
REMARK SMILES IDX 74 78 83 79 75 80 76 81 82 82 84 83 77 84 78 85 79 86 80 87
REMARK SMILES IDX 81 88 57 89 58 90 67 91 59 92 60 93 66 94 68 95 61 96 62 97
REMARK SMILES IDX 63 98 64 99 65 100
REMARK H PARENT 23 6 27 31 89 50 55 61
REMARK Flexibility Score: inf
ROOT
ATOM      1  C   UNL A   1      34.979  29.568  27.383  1.00  0.00     0.042 C 
ENDROOT
BRANCH   1   2
ATOM      2  C   UNL A   1      33.704  29.732  26.553  1.00  0.00     0.118 C 
BRANCH   2   3
ATOM      3  N   UNL A   1      32.549  29.192  27.248  1.00  0.00    -0.352 N 
ATOM      4  C   UNL A   1      31.905  28.002  27.175  1.00  0.00     0.251 C 
ATOM      5  O   UNL A   1      30.955  27.819  27.937  1.00  0.00    -0.270 OA
ATOM      6  H   UNL A   1      32.157  29.814  27.902  1.00  0.00     0.163 HD
BRANCH   4   7
ATOM      7  C   UNL A   1      32.343  26.881  26.299  1.00  0.00     0.067 C 
ATOM      8  C   UNL A   1      32.944  23.475  23.899  1.00  0.00    -0.002 A 
ATOM      9  C   UNL A   1      34.264  23.033  23.682  1.00  0.00     0.054 A 
ATOM     10  C   UNL A   1      32.739  24.604  24.711  1.00  0.00     0.131 A 
ATOM     11  C   UNL A   1      35.349  23.671  24.289  1.00  0.00     0.130 A 
ATOM     12  C   UNL A   1      33.821  25.265  25.301  1.00  0.00     0.021 A 
ATOM     13  O   UNL A   1      31.448  24.985  24.960  1.00  0.00    -0.475 OA
ATOM     14  C   UNL A   1      35.118  24.792  25.090  1.00  0.00     0.058 A 
ATOM     15  C   UNL A   1      33.588  26.399  26.187  1.00  0.00     0.025 C 
ATOM     16  C   UNL A   1      31.241  26.356  25.395  1.00  0.00     0.314 C 
BRANCH   8  17
ATOM     17  C   UNL A   1      31.787  22.789  23.202  1.00  0.00     0.036 C 
ATOM     18  C   UNL A   1      32.160  21.488  22.499  1.00  0.00     0.009 C 
ENDBRANCH   8  17
BRANCH  11  19
ATOM     19  O   UNL A   1      36.663  23.313  24.190  1.00  0.00    -0.406 OA
BRANCH  19  20
ATOM     20  C   UNL A   1      37.319  22.860  25.362  1.00  0.00     0.573 C 
ATOM     21  F   UNL A   1      37.978  23.869  25.972  1.00  0.00    -0.132 F 
ATOM     22  F   UNL A   1      36.443  22.309  26.228  1.00  0.00    -0.132 F 
ATOM     23  F   UNL A   1      38.225  21.919  25.019  1.00  0.00    -0.132 F 
ENDBRANCH  19  20
ENDBRANCH  11  19
BRANCH  16  24
ATOM     24  C   UNL A   1      30.966  27.279  24.186  1.00  0.00     0.429 C 
ATOM     25  F   UNL A   1      30.006  28.202  24.435  1.00  0.00    -0.167 F 
ATOM     26  F   UNL A   1      32.079  27.970  23.822  1.00  0.00    -0.167 F 
ATOM     27  F   UNL A   1      30.586  26.578  23.091  1.00  0.00    -0.167 F 
ENDBRANCH  16  24
ENDBRANCH   4   7
ENDBRANCH   2   3
ENDBRANCH   1   2
BRANCH   1  28
ATOM     28  C   UNL A   1      35.503  30.886  27.950  1.00  0.00     0.118 C 
BRANCH  28  29
ATOM     29  N   UNL A   1      35.442  30.907  29.404  1.00  0.00    -0.352 N 
ATOM     30  C   UNL A   1      36.343  30.448  30.331  1.00  0.00     0.251 C 
ATOM     31  H   UNL A   1      34.628  31.314  29.780  1.00  0.00     0.163 HD
ATOM     32  O   UNL A   1      35.988  30.343  31.503  1.00  0.00    -0.269 OA
BRANCH  30  33
ATOM     33  C   UNL A   1      37.720  30.075  29.939  1.00  0.00     0.039 A 
ATOM     34  C   UNL A   1      38.643  29.762  30.943  1.00  0.00     0.014 A 
ATOM     35  C   UNL A   1      38.128  30.093  28.602  1.00  0.00     0.014 A 
ATOM     36  C   UNL A   1      39.955  29.425  30.605  1.00  0.00     0.010 A 
ATOM     37  C   UNL A   1      39.420  29.696  28.261  1.00  0.00     0.010 A 
ATOM     38  C   UNL A   1      40.350  29.366  29.259  1.00  0.00    -0.014 A 
BRANCH  38  39
ATOM     39  C   UNL A   1      41.728  28.962  28.877  1.00  0.00     0.031 A 
ATOM     40  C   UNL A   1      42.827  29.988  28.807  1.00  0.00     0.074 A 
ATOM     41  C   UNL A   1      41.969  27.685  28.521  1.00  0.00     0.049 A 
ATOM     42  N   UNL A   1      44.065  29.844  28.412  1.00  0.00    -0.248 NA
ATOM     43  C   UNL A   1      42.482  31.363  29.208  1.00  0.00     0.031 C 
ATOM     44  C   UNL A   1      40.972  26.611  28.495  1.00  0.00     0.029 A 
ATOM     45  N   UNL A   1      43.123  27.075  28.094  1.00  0.00    -0.354 N 
ATOM     46  C   UNL A   1      44.639  31.109  28.488  1.00  0.00     0.074 A 
ATOM     47  C   UNL A   1      43.605  32.014  28.938  1.00  0.00     0.031 C 
ATOM     48  C   UNL A   1      41.557  25.477  28.075  1.00  0.00     0.029 A 
ATOM     49  C   UNL A   1      42.959  25.747  27.773  1.00  0.00     0.049 A 
ATOM     50  H   UNL A   1      43.985  27.543  28.023  1.00  0.00     0.167 HD
ATOM     51  C   UNL A   1      45.916  31.476  28.221  1.00  0.00     0.037 A 
ATOM     52  C   UNL A   1      43.835  24.852  27.278  1.00  0.00     0.037 A 
ATOM     53  C   UNL A   1      46.951  30.559  27.820  1.00  0.00     0.049 A 
ATOM     54  C   UNL A   1      45.256  25.277  27.028  1.00  0.00     0.074 A 
ATOM     55  C   UNL A   1      48.296  30.817  27.619  1.00  0.00     0.029 A 
ATOM     56  N   UNL A   1      46.759  29.211  27.558  1.00  0.00    -0.354 N 
ATOM     57  N   UNL A   1      45.801  26.459  27.188  1.00  0.00    -0.248 NA
ATOM     58  C   UNL A   1      46.185  24.248  26.541  1.00  0.00     0.031 C 
ATOM     59  C   UNL A   1      48.910  29.634  27.196  1.00  0.00     0.029 A 
ATOM     60  C   UNL A   1      47.956  28.628  27.176  1.00  0.00     0.049 A 
ATOM     61  H   UNL A   1      45.899  28.737  27.633  1.00  0.00     0.167 HD
ATOM     62  C   UNL A   1      47.140  26.310  26.843  1.00  0.00     0.074 A 
ATOM     63  C   UNL A   1      47.326  24.922  26.480  1.00  0.00     0.031 C 
ATOM     64  C   UNL A   1      48.127  27.241  26.828  1.00  0.00     0.037 A 
BRANCH  51  65
ATOM     65  C   UNL A   1      46.276  32.930  28.357  1.00  0.00     0.058 A 
ATOM     66  C   UNL A   1      46.161  33.824  27.281  1.00  0.00     0.135 A 
ATOM     67  C   UNL A   1      46.677  33.449  29.600  1.00  0.00     0.135 A 
ATOM     68  F   UNL A   1      45.795  33.379  26.069  1.00  0.00    -0.206 F 
ATOM     69  C   UNL A   1      46.447  35.178  27.427  1.00  0.00     0.059 A 
ATOM     70  C   UNL A   1      46.944  34.803  29.774  1.00  0.00     0.059 A 
ATOM     71  F   UNL A   1      46.804  32.637  30.661  1.00  0.00    -0.206 F 
ATOM     72  C   UNL A   1      46.835  35.659  28.679  1.00  0.00     0.060 A 
BRANCH  72  73
ATOM     73  S   UNL A   1      47.176  37.422  28.858  1.00  0.00     0.124 S 
ATOM     74  O   UNL A   1      48.635  37.440  28.839  1.00  0.00    -0.237 OA
ATOM     75  O   UNL A   1      46.522  37.988  27.683  1.00  0.00    -0.237 OA
ATOM     76  O   UNL A   1      46.560  37.760  30.137  1.00  0.00    -0.744 OA
ENDBRANCH  72  73
ENDBRANCH  51  65
BRANCH  52  77
ATOM     77  C   UNL A   1      43.396  23.461  26.990  1.00  0.00     0.058 A 
ATOM     78  C   UNL A   1      43.118  23.045  25.681  1.00  0.00     0.135 A 
ATOM     79  C   UNL A   1      43.246  22.519  28.021  1.00  0.00     0.135 A 
ATOM     80  F   UNL A   1      43.242  23.909  24.662  1.00  0.00    -0.206 F 
ATOM     81  C   UNL A   1      42.682  21.753  25.403  1.00  0.00     0.059 A 
ATOM     82  C   UNL A   1      42.837  21.215  27.766  1.00  0.00     0.059 A 
ATOM     83  F   UNL A   1      43.519  22.862  29.290  1.00  0.00    -0.206 F 
ATOM     84  C   UNL A   1      42.543  20.845  26.453  1.00  0.00     0.060 A 
BRANCH  84  85
ATOM     85  S   UNL A   1      42.011  19.159  26.082  1.00  0.00     0.124 S 
ATOM     86  O   UNL A   1      40.575  19.340  25.901  1.00  0.00    -0.237 OA
ATOM     87  O   UNL A   1      42.774  18.855  24.875  1.00  0.00    -0.237 OA
ATOM     88  O   UNL A   1      42.411  18.413  27.270  1.00  0.00    -0.744 OA
ENDBRANCH  84  85
ENDBRANCH  52  77
BRANCH  64  89
ATOM     89  C   UNL A   1      49.503  26.782  26.439  1.00  0.00     0.058 A 
ATOM     90  C   UNL A   1      50.334  26.099  27.340  1.00  0.00     0.135 A 
ATOM     91  C   UNL A   1      49.974  26.983  25.132  1.00  0.00     0.135 A 
ATOM     92  F   UNL A   1      49.932  25.889  28.604  1.00  0.00    -0.206 F 
ATOM     93  C   UNL A   1      51.595  25.647  26.964  1.00  0.00     0.059 A 
ATOM     94  C   UNL A   1      51.222  26.518  24.727  1.00  0.00     0.059 A 
ATOM     95  F   UNL A   1      49.214  27.622  24.229  1.00  0.00    -0.206 F 
ATOM     96  C   UNL A   1      52.029  25.861  25.654  1.00  0.00     0.060 A 
BRANCH  96  97
ATOM     97  S   UNL A   1      53.653  25.239  25.167  1.00  0.00     0.124 S 
ATOM     98  O   UNL A   1      53.686  25.586  23.751  1.00  0.00    -0.237 OA
ATOM     99  O   UNL A   1      54.553  26.000  26.028  1.00  0.00    -0.237 OA
ATOM    100  O   UNL A   1      53.572  23.811  25.464  1.00  0.00    -0.744 OA
ENDBRANCH  96  97
ENDBRANCH  64  89
ENDBRANCH  38  39
ENDBRANCH  30  33
ENDBRANCH  28  29
ENDBRANCH   1  28
TORSDOF 17
ENDMDL
MODEL 3
REMARK VINA RESULT:     -11.4      2.892      3.798
REMARK SMILES CCc1cc(OC(F)(F)F)cc2c1O[C@H](C(F)(F)F)C(C(=O)NCCCNC(=O)c1ccc(-c3c4nc(c(-c5c(F)cc(S(=O)(=O)[O-])cc5F)c5ccc([nH]5)c(-c5c(F)cc(S(=O)(=O)[O-])cc5F)c5nc(c(-c6c(F)cc(S(=O)(=O)[O-])cc6F)c6ccc3[nH]6)C=C5)C=C4)cc1)=C2
REMARK SMILES IDX 25 1 24 2 23 3 21 4 22 5 20 7 3 8 4 9 13 10 5 11 12 12 14 13
REMARK SMILES IDX 11 14 96 15 15 16 2 17 1 18 6 19 7 20 8 21 9 22 10 23 16 24
REMARK SMILES IDX 17 25 18 26 19 27 26 28 27 29 28 30 29 32 30 33 31 34 95 35
REMARK SMILES IDX 32 36 94 37 33 38 34 39 35 40 88 41 36 42 93 43 87 44 89 45
REMARK SMILES IDX 37 46 92 47 86 48 85 49 38 51 72 52 51 53 71 54 52 55 55 56
REMARK SMILES IDX 70 57 90 58 53 59 54 60 69 62 91 63 56 64 39 65 40 66 49 67
REMARK SMILES IDX 41 68 42 69 48 70 50 71 43 72 44 73 45 74 46 75 47 76 73 77
REMARK SMILES IDX 74 78 83 79 75 80 76 81 82 82 84 83 77 84 78 85 79 86 80 87
REMARK SMILES IDX 81 88 57 89 58 90 67 91 59 92 60 93 66 94 68 95 61 96 62 97
REMARK SMILES IDX 63 98 64 99 65 100
REMARK H PARENT 23 6 27 31 89 50 55 61
REMARK Flexibility Score: inf
ROOT
ATOM      1  C   UNL A   1      34.486  29.196  27.234  1.00  0.00     0.042 C 
ENDROOT
BRANCH   1   2
ATOM      2  C   UNL A   1      33.226  29.762  26.576  1.00  0.00     0.118 C 
BRANCH   2   3
ATOM      3  N   UNL A   1      33.334  29.744  25.128  1.00  0.00    -0.352 N 
ATOM      4  C   UNL A   1      33.366  28.738  24.220  1.00  0.00     0.251 C 
ATOM      5  O   UNL A   1      33.426  29.044  23.030  1.00  0.00    -0.270 OA
ATOM      6  H   UNL A   1      33.395  30.640  24.726  1.00  0.00     0.163 HD
BRANCH   4   7
ATOM      7  C   UNL A   1      33.234  27.300  24.581  1.00  0.00     0.067 C 
ATOM      8  C   UNL A   1      32.554  23.462  26.172  1.00  0.00    -0.002 A 
ATOM      9  C   UNL A   1      33.334  22.391  25.693  1.00  0.00     0.054 A 
ATOM     10  C   UNL A   1      32.788  24.746  25.653  1.00  0.00     0.131 A 
ATOM     11  C   UNL A   1      34.347  22.597  24.753  1.00  0.00     0.130 A 
ATOM     12  C   UNL A   1      33.782  24.959  24.692  1.00  0.00     0.021 A 
ATOM     13  O   UNL A   1      32.063  25.785  26.171  1.00  0.00    -0.475 OA
ATOM     14  C   UNL A   1      34.557  23.883  24.252  1.00  0.00     0.058 A 
ATOM     15  C   UNL A   1      34.051  26.306  24.206  1.00  0.00     0.025 C 
ATOM     16  C   UNL A   1      31.967  26.988  25.361  1.00  0.00     0.314 C 
BRANCH   8  17
ATOM     17  C   UNL A   1      31.439  23.206  27.165  1.00  0.00     0.036 C 
ATOM     18  C   UNL A   1      30.129  22.746  26.534  1.00  0.00     0.009 C 
ENDBRANCH   8  17
BRANCH  11  19
ATOM     19  O   UNL A   1      35.192  21.652  24.246  1.00  0.00    -0.406 OA
BRANCH  19  20
ATOM     20  C   UNL A   1      36.412  21.418  24.928  1.00  0.00     0.573 C 
ATOM     21  F   UNL A   1      37.467  21.859  24.206  1.00  0.00    -0.132 F 
ATOM     22  F   UNL A   1      36.417  22.015  26.138  1.00  0.00    -0.132 F 
ATOM     23  F   UNL A   1      36.562  20.088  25.110  1.00  0.00    -0.132 F 
ENDBRANCH  19  20
ENDBRANCH  11  19
BRANCH  16  24
ATOM     24  C   UNL A   1      30.707  26.946  24.466  1.00  0.00     0.429 C 
ATOM     25  F   UNL A   1      30.204  28.176  24.207  1.00  0.00    -0.167 F 
ATOM     26  F   UNL A   1      30.970  26.376  23.259  1.00  0.00    -0.167 F 
ATOM     27  F   UNL A   1      29.718  26.206  25.020  1.00  0.00    -0.167 F 
ENDBRANCH  16  24
ENDBRANCH   4   7
ENDBRANCH   2   3
ENDBRANCH   1   2
BRANCH   1  28
ATOM     28  C   UNL A   1      35.458  30.276  27.706  1.00  0.00     0.118 C 
BRANCH  28  29
ATOM     29  N   UNL A   1      35.400  30.456  29.149  1.00  0.00    -0.352 N 
ATOM     30  C   UNL A   1      36.320  30.136  30.115  1.00  0.00     0.251 C 
ATOM     31  H   UNL A   1      34.572  30.870  29.484  1.00  0.00     0.163 HD
ATOM     32  O   UNL A   1      35.973  30.149  31.294  1.00  0.00    -0.269 OA
BRANCH  30  33
ATOM     33  C   UNL A   1      37.710  29.775  29.757  1.00  0.00     0.039 A 
ATOM     34  C   UNL A   1      38.591  29.403  30.778  1.00  0.00     0.014 A 
ATOM     35  C   UNL A   1      38.169  29.861  28.439  1.00  0.00     0.014 A 
ATOM     36  C   UNL A   1      39.915  29.075  30.474  1.00  0.00     0.010 A 
ATOM     37  C   UNL A   1      39.472  29.473  28.128  1.00  0.00     0.010 A 
ATOM     38  C   UNL A   1      40.360  29.084  29.142  1.00  0.00    -0.014 A 
BRANCH  38  39
ATOM     39  C   UNL A   1      41.750  28.691  28.793  1.00  0.00     0.031 A 
ATOM     40  C   UNL A   1      42.839  29.729  28.734  1.00  0.00     0.074 A 
ATOM     41  C   UNL A   1      42.012  27.413  28.456  1.00  0.00     0.049 A 
ATOM     42  N   UNL A   1      44.087  29.594  28.366  1.00  0.00    -0.248 NA
ATOM     43  C   UNL A   1      42.472  31.104  29.113  1.00  0.00     0.031 C 
ATOM     44  C   UNL A   1      41.028  26.329  28.421  1.00  0.00     0.029 A 
ATOM     45  N   UNL A   1      43.181  26.812  28.058  1.00  0.00    -0.354 N 
ATOM     46  C   UNL A   1      44.646  30.866  28.440  1.00  0.00     0.074 A 
ATOM     47  C   UNL A   1      43.593  31.765  28.859  1.00  0.00     0.031 C 
ATOM     48  C   UNL A   1      41.633  25.196  28.026  1.00  0.00     0.029 A 
ATOM     49  C   UNL A   1      43.038  25.479  27.749  1.00  0.00     0.049 A 
ATOM     50  H   UNL A   1      44.039  27.289  28.000  1.00  0.00     0.167 HD
ATOM     51  C   UNL A   1      45.924  31.244  28.195  1.00  0.00     0.037 A 
ATOM     52  C   UNL A   1      43.933  24.588  27.281  1.00  0.00     0.037 A 
ATOM     53  C   UNL A   1      46.976  30.334  27.824  1.00  0.00     0.049 A 
ATOM     54  C   UNL A   1      45.355  25.026  27.056  1.00  0.00     0.074 A 
ATOM     55  C   UNL A   1      48.323  30.604  27.648  1.00  0.00     0.029 A 
ATOM     56  N   UNL A   1      46.805  28.981  27.574  1.00  0.00    -0.354 N 
ATOM     57  N   UNL A   1      45.883  26.216  27.214  1.00  0.00    -0.248 NA
ATOM     58  C   UNL A   1      46.304  24.002  26.598  1.00  0.00     0.031 C 
ATOM     59  C   UNL A   1      48.957  29.424  27.250  1.00  0.00     0.029 A 
ATOM     60  C   UNL A   1      48.015  28.408  27.221  1.00  0.00     0.049 A 
ATOM     61  H   UNL A   1      45.948  28.499  27.636  1.00  0.00     0.167 HD
ATOM     62  C   UNL A   1      47.230  26.077  26.897  1.00  0.00     0.074 A 
ATOM     63  C   UNL A   1      47.438  24.687  26.554  1.00  0.00     0.031 C 
ATOM     64  C   UNL A   1      48.207  27.019  26.893  1.00  0.00     0.037 A 
BRANCH  51  65
ATOM     65  C   UNL A   1      46.265  32.703  28.322  1.00  0.00     0.058 A 
ATOM     66  C   UNL A   1      46.713  33.255  29.533  1.00  0.00     0.135 A 
ATOM     67  C   UNL A   1      46.209  33.546  27.199  1.00  0.00     0.135 A 
ATOM     68  F   UNL A   1      46.774  32.497  30.639  1.00  0.00    -0.206 F 
ATOM     69  C   UNL A   1      47.076  34.594  29.631  1.00  0.00     0.059 A 
ATOM     70  C   UNL A   1      46.590  34.883  27.270  1.00  0.00     0.059 A 
ATOM     71  F   UNL A   1      45.786  33.070  26.018  1.00  0.00    -0.206 F 
ATOM     72  C   UNL A   1      47.014  35.400  28.493  1.00  0.00     0.060 A 
BRANCH  72  73
ATOM     73  S   UNL A   1      47.515  37.129  28.631  1.00  0.00     0.124 S 
ATOM     74  O   UNL A   1      46.221  37.803  28.677  1.00  0.00    -0.237 OA
ATOM     75  O   UNL A   1      48.276  37.135  29.876  1.00  0.00    -0.237 OA
ATOM     76  O   UNL A   1      48.298  37.354  27.420  1.00  0.00    -0.744 OA
ENDBRANCH  72  73
ENDBRANCH  51  65
BRANCH  52  77
ATOM     77  C   UNL A   1      43.515  23.189  27.000  1.00  0.00     0.058 A 
ATOM     78  C   UNL A   1      43.234  22.293  28.041  1.00  0.00     0.135 A 
ATOM     79  C   UNL A   1      43.386  22.722  25.682  1.00  0.00     0.135 A 
ATOM     80  F   UNL A   1      43.346  22.691  29.317  1.00  0.00    -0.206 F 
ATOM     81  C   UNL A   1      42.865  20.975  27.789  1.00  0.00     0.059 A 
ATOM     82  C   UNL A   1      42.994  21.416  25.404  1.00  0.00     0.059 A 
ATOM     83  F   UNL A   1      43.624  23.546  24.649  1.00  0.00    -0.206 F 
ATOM     84  C   UNL A   1      42.750  20.546  26.466  1.00  0.00     0.060 A 
BRANCH  84  85
ATOM     85  S   UNL A   1      42.237  18.843  26.146  1.00  0.00     0.124 S 
ATOM     86  O   UNL A   1      40.840  19.026  25.769  1.00  0.00    -0.237 OA
ATOM     87  O   UNL A   1      43.142  18.446  25.071  1.00  0.00    -0.237 OA
ATOM     88  O   UNL A   1      42.467  18.179  27.425  1.00  0.00    -0.744 OA
ENDBRANCH  84  85
ENDBRANCH  52  77
BRANCH  64  89
ATOM     89  C   UNL A   1      49.597  26.571  26.536  1.00  0.00     0.058 A 
ATOM     90  C   UNL A   1      50.076  26.636  25.219  1.00  0.00     0.135 A 
ATOM     91  C   UNL A   1      50.475  26.123  27.535  1.00  0.00     0.135 A 
ATOM     92  F   UNL A   1      49.272  27.050  24.227  1.00  0.00    -0.206 F 
ATOM     93  C   UNL A   1      51.374  26.251  24.900  1.00  0.00     0.059 A 
ATOM     94  C   UNL A   1      51.786  25.757  27.242  1.00  0.00     0.059 A 
ATOM     95  F   UNL A   1      50.069  26.053  28.812  1.00  0.00    -0.206 F 
ATOM     96  C   UNL A   1      52.222  25.814  25.919  1.00  0.00     0.060 A 
BRANCH  96  97
ATOM     97  S   UNL A   1      53.916  25.352  25.500  1.00  0.00     0.124 S 
ATOM     98  O   UNL A   1      54.403  26.571  24.863  1.00  0.00    -0.237 OA
ATOM     99  O   UNL A   1      54.491  25.045  26.805  1.00  0.00    -0.237 OA
ATOM    100  O   UNL A   1      53.745  24.205  24.612  1.00  0.00    -0.744 OA
ENDBRANCH  96  97
ENDBRANCH  64  89
ENDBRANCH  38  39
ENDBRANCH  30  33
ENDBRANCH  28  29
ENDBRANCH   1  28
TORSDOF 17
ENDMDL
