MODEL 1
REMARK VINA RESULT:      -9.5      0.000      0.000
REMARK SMILES COc1ccc(OCCNc2ccc(C)cc2C(=O)NCCCNC(=O)c2ccc(-c3c4nc(c(-c5c(F)cc(S(=O)(=O)[O-])cc5F)c5ccc([nH]5)c(-c5c(F)cc(S(=O)(=O)[O-])cc5F)c5nc(c(-c6c(F)cc(S(=O)(=O)[O-])cc6F)c6ccc3[nH]6)C=C5)C=C4)cc2)cc1
REMARK SMILES IDX 18 1 19 2 20 3 17 5 11 6 12 7 13 8 16 9 14 10 15 11 10 12
REMARK SMILES IDX 9 14 8 15 7 16 6 17 3 18 4 19 94 20 5 21 93 22 2 23 1 24
REMARK SMILES IDX 21 25 22 26 23 27 24 28 25 29 26 31 27 32 28 33 92 34 29 35
REMARK SMILES IDX 91 36 30 37 31 38 32 39 85 40 33 41 90 42 84 43 86 44 34 45
REMARK SMILES IDX 89 46 83 47 82 48 35 50 69 51 48 52 68 53 49 54 52 55 67 56
REMARK SMILES IDX 87 57 50 58 51 59 66 61 88 62 53 63 36 64 37 65 46 66 38 67
REMARK SMILES IDX 39 68 45 69 47 70 40 71 41 72 42 73 43 74 44 75 70 76 71 77
REMARK SMILES IDX 80 78 72 79 73 80 79 81 81 82 74 83 75 84 76 85 77 86 78 87
REMARK SMILES IDX 54 88 55 89 64 90 56 91 57 92 63 93 65 94 58 95 59 96 60 97
REMARK SMILES IDX 61 98 62 99
REMARK H PARENT 20 4 10 13 24 30 86 49 52 60
REMARK Flexibility Score: inf
ROOT
ATOM      1  C   UNL A   1      35.169  33.315  32.827  1.00  0.00     0.253 C 
ATOM      2  O   UNL A   1      34.727  33.074  33.952  1.00  0.00    -0.269 OA
ATOM      3  N   UNL A   1      34.297  33.247  31.766  1.00  0.00    -0.352 N 
ATOM      4  H   UNL A   1      33.382  32.966  31.996  1.00  0.00     0.163 HD
ENDROOT
BRANCH   1   5
ATOM      5  C   UNL A   1      36.628  33.561  32.672  1.00  0.00     0.063 A 
ATOM      6  C   UNL A   1      37.608  33.384  33.659  1.00  0.00     0.047 A 
ATOM      7  C   UNL A   1      38.924  33.782  33.355  1.00  0.00     0.027 A 
ATOM      8  C   UNL A   1      39.297  34.223  32.088  1.00  0.00     0.005 A 
ATOM      9  C   UNL A   1      37.016  33.983  31.379  1.00  0.00     0.019 A 
ATOM     10  C   UNL A   1      38.347  34.295  31.074  1.00  0.00    -0.050 A 
ATOM     11  C   UNL A   1      38.758  34.737  29.704  1.00  0.00     0.044 C 
BRANCH   6  12
ATOM     12  N   UNL A   1      37.415  33.021  34.971  1.00  0.00    -0.381 N 
ATOM     13  H   UNL A   1      36.703  33.493  35.460  1.00  0.00     0.160 HD
BRANCH  12  14
ATOM     14  C   UNL A   1      38.155  32.012  35.711  1.00  0.00     0.154 C 
BRANCH  14  15
ATOM     15  C   UNL A   1      38.391  30.766  34.820  1.00  0.00     0.250 C 
BRANCH  15  16
ATOM     16  O   UNL A   1      39.542  29.994  35.198  1.00  0.00    -0.492 OA
BRANCH  16  17
ATOM     17  C   UNL A   1      40.470  29.642  34.254  1.00  0.00     0.119 A 
ATOM     18  C   UNL A   1      42.282  28.488  32.463  1.00  0.00     0.119 A 
ATOM     19  C   UNL A   1      40.946  28.104  32.435  1.00  0.00     0.050 A 
ATOM     20  C   UNL A   1      42.701  29.508  33.311  1.00  0.00     0.050 A 
ATOM     21  C   UNL A   1      40.045  28.672  33.341  1.00  0.00     0.050 A 
ATOM     22  C   UNL A   1      41.789  30.099  34.190  1.00  0.00     0.050 A 
BRANCH  18  23
ATOM     23  O   UNL A   1      43.157  27.893  31.598  1.00  0.00    -0.497 OA
ATOM     24  C   UNL A   1      44.179  27.190  32.309  1.00  0.00     0.278 C 
ENDBRANCH  18  23
ENDBRANCH  16  17
ENDBRANCH  15  16
ENDBRANCH  14  15
ENDBRANCH  12  14
ENDBRANCH   6  12
ENDBRANCH   1   5
BRANCH   3  25
ATOM     25  C   UNL A   1      34.518  33.525  30.360  1.00  0.00     0.118 C 
BRANCH  25  26
ATOM     26  C   UNL A   1      34.821  32.305  29.509  1.00  0.00     0.042 C 
BRANCH  26  27
ATOM     27  C   UNL A   1      33.953  32.152  28.263  1.00  0.00     0.118 C 
BRANCH  27  28
ATOM     28  N   UNL A   1      33.662  30.777  27.865  1.00  0.00    -0.352 N 
ATOM     29  C   UNL A   1      34.444  29.642  27.830  1.00  0.00     0.251 C 
ATOM     30  H   UNL A   1      32.736  30.634  27.567  1.00  0.00     0.163 HD
ATOM     31  O   UNL A   1      33.950  28.584  27.442  1.00  0.00    -0.269 OA
BRANCH  29  32
ATOM     32  C   UNL A   1      35.879  29.691  28.190  1.00  0.00     0.039 A 
ATOM     33  C   UNL A   1      36.272  29.293  29.472  1.00  0.00     0.014 A 
ATOM     34  C   UNL A   1      36.846  30.083  27.269  1.00  0.00     0.014 A 
ATOM     35  C   UNL A   1      37.632  29.153  29.772  1.00  0.00     0.010 A 
ATOM     36  C   UNL A   1      38.186  29.813  27.520  1.00  0.00     0.010 A 
ATOM     37  C   UNL A   1      38.600  29.330  28.771  1.00  0.00    -0.014 A 
BRANCH  37  38
ATOM     38  C   UNL A   1      40.038  28.998  28.979  1.00  0.00     0.031 A 
ATOM     39  C   UNL A   1      40.993  30.052  29.479  1.00  0.00     0.074 A 
ATOM     40  C   UNL A   1      40.514  27.794  28.597  1.00  0.00     0.049 A 
ATOM     41  N   UNL A   1      42.300  30.027  29.536  1.00  0.00    -0.248 NA
ATOM     42  C   UNL A   1      40.402  31.325  29.926  1.00  0.00     0.031 C 
ATOM     43  C   UNL A   1      39.717  26.701  28.031  1.00  0.00     0.029 A 
ATOM     44  N   UNL A   1      41.792  27.289  28.611  1.00  0.00    -0.354 N 
ATOM     45  C   UNL A   1      42.686  31.292  29.964  1.00  0.00     0.074 A 
ATOM     46  C   UNL A   1      41.478  32.075  30.110  1.00  0.00     0.031 C 
ATOM     47  C   UNL A   1      40.514  25.647  27.792  1.00  0.00     0.029 A 
ATOM     48  C   UNL A   1      41.886  26.003  28.133  1.00  0.00     0.049 A 
ATOM     49  H   UNL A   1      42.569  27.802  28.932  1.00  0.00     0.167 HD
ATOM     50  C   UNL A   1      43.930  31.757  30.234  1.00  0.00     0.037 A 
ATOM     51  C   UNL A   1      42.957  25.199  27.979  1.00  0.00     0.037 A 
ATOM     52  C   UNL A   1      45.120  30.951  30.171  1.00  0.00     0.049 A 
ATOM     53  C   UNL A   1      44.320  25.712  28.353  1.00  0.00     0.074 A 
ATOM     54  C   UNL A   1      46.413  31.296  30.524  1.00  0.00     0.029 A 
ATOM     55  N   UNL A   1      45.161  29.632  29.745  1.00  0.00    -0.354 N 
ATOM     56  N   UNL A   1      44.659  26.896  28.803  1.00  0.00    -0.248 NA
ATOM     57  C   UNL A   1      45.447  24.781  28.196  1.00  0.00     0.031 C 
ATOM     58  C   UNL A   1      47.240  30.193  30.288  1.00  0.00     0.029 A 
ATOM     59  C   UNL A   1      46.456  29.151  29.820  1.00  0.00     0.049 A 
ATOM     60  H   UNL A   1      44.383  29.114  29.435  1.00  0.00     0.167 HD
ATOM     61  C   UNL A   1      46.032  26.844  29.011  1.00  0.00     0.074 A 
ATOM     62  C   UNL A   1      46.461  25.510  28.643  1.00  0.00     0.031 C 
ATOM     63  C   UNL A   1      46.863  27.813  29.466  1.00  0.00     0.037 A 
BRANCH  50  64
ATOM     64  C   UNL A   1      44.062  33.199  30.639  1.00  0.00     0.058 A 
ATOM     65  C   UNL A   1      44.319  34.210  29.699  1.00  0.00     0.135 A 
ATOM     66  C   UNL A   1      43.914  33.579  31.983  1.00  0.00     0.135 A 
ATOM     67  F   UNL A   1      44.483  33.902  28.402  1.00  0.00    -0.206 F 
ATOM     68  C   UNL A   1      44.469  35.539  30.081  1.00  0.00     0.059 A 
ATOM     69  C   UNL A   1      44.029  34.907  32.385  1.00  0.00     0.059 A 
ATOM     70  F   UNL A   1      43.663  32.654  32.924  1.00  0.00    -0.206 F 
ATOM     71  C   UNL A   1      44.328  35.877  31.428  1.00  0.00     0.060 A 
BRANCH  71  72
ATOM     72  S   UNL A   1      44.537  37.603  31.912  1.00  0.00     0.124 S 
ATOM     73  O   UNL A   1      43.882  38.295  30.807  1.00  0.00    -0.237 OA
ATOM     74  O   UNL A   1      43.842  37.657  33.194  1.00  0.00    -0.237 OA
ATOM     75  O   UNL A   1      45.986  37.762  31.981  1.00  0.00    -0.744 OA
ENDBRANCH  71  72
ENDBRANCH  50  64
BRANCH  51  76
ATOM     76  C   UNL A   1      42.778  23.808  27.487  1.00  0.00     0.058 A 
ATOM     77  C   UNL A   1      42.521  22.762  28.387  1.00  0.00     0.135 A 
ATOM     78  C   UNL A   1      42.842  23.493  26.121  1.00  0.00     0.135 A 
ATOM     79  F   UNL A   1      42.457  23.014  29.704  1.00  0.00    -0.206 F 
ATOM     80  C   UNL A   1      42.350  21.452  27.956  1.00  0.00     0.059 A 
ATOM     81  C   UNL A   1      42.652  22.192  25.662  1.00  0.00     0.059 A 
ATOM     82  F   UNL A   1      43.067  24.459  25.218  1.00  0.00    -0.206 F 
ATOM     83  C   UNL A   1      42.416  21.177  26.589  1.00  0.00     0.060 A 
BRANCH  83  84
ATOM     84  S   UNL A   1      42.144  19.480  26.034  1.00  0.00     0.124 S 
ATOM     85  O   UNL A   1      43.006  19.413  24.859  1.00  0.00    -0.237 OA
ATOM     86  O   UNL A   1      42.582  18.704  27.191  1.00  0.00    -0.237 OA
ATOM     87  O   UNL A   1      40.709  19.440  25.769  1.00  0.00    -0.744 OA
ENDBRANCH  83  84
ENDBRANCH  51  76
BRANCH  63  88
ATOM     88  C   UNL A   1      48.312  27.459  29.635  1.00  0.00     0.058 A 
ATOM     89  C   UNL A   1      49.273  27.817  28.678  1.00  0.00     0.135 A 
ATOM     90  C   UNL A   1      48.751  26.807  30.798  1.00  0.00     0.135 A 
ATOM     91  F   UNL A   1      48.903  28.436  27.547  1.00  0.00    -0.206 F 
ATOM     92  C   UNL A   1      50.620  27.524  28.861  1.00  0.00     0.059 A 
ATOM     93  C   UNL A   1      50.095  26.524  31.012  1.00  0.00     0.059 A 
ATOM     94  F   UNL A   1      47.870  26.451  31.747  1.00  0.00    -0.206 F 
ATOM     95  C   UNL A   1      51.022  26.880  30.033  1.00  0.00     0.060 A 
BRANCH  95  96
ATOM     96  S   UNL A   1      52.779  26.545  30.280  1.00  0.00     0.124 S 
ATOM     97  O   UNL A   1      53.296  27.881  30.558  1.00  0.00    -0.237 OA
ATOM     98  O   UNL A   1      52.768  25.621  31.410  1.00  0.00    -0.237 OA
ATOM     99  O   UNL A   1      53.195  25.963  29.007  1.00  0.00    -0.744 OA
ENDBRANCH  95  96
ENDBRANCH  63  88
ENDBRANCH  37  38
ENDBRANCH  29  32
ENDBRANCH  27  28
ENDBRANCH  26  27
ENDBRANCH  25  26
ENDBRANCH   3  25
TORSDOF 19
ENDMDL
MODEL 2
REMARK VINA RESULT:      -8.9      0.989      8.282
REMARK SMILES COc1ccc(OCCNc2ccc(C)cc2C(=O)NCCCNC(=O)c2ccc(-c3c4nc(c(-c5c(F)cc(S(=O)(=O)[O-])cc5F)c5ccc([nH]5)c(-c5c(F)cc(S(=O)(=O)[O-])cc5F)c5nc(c(-c6c(F)cc(S(=O)(=O)[O-])cc6F)c6ccc3[nH]6)C=C5)C=C4)cc2)cc1
REMARK SMILES IDX 18 1 19 2 20 3 17 5 11 6 12 7 13 8 16 9 14 10 15 11 10 12
REMARK SMILES IDX 9 14 8 15 7 16 6 17 3 18 4 19 94 20 5 21 93 22 2 23 1 24
REMARK SMILES IDX 21 25 22 26 23 27 24 28 25 29 26 31 27 32 28 33 92 34 29 35
REMARK SMILES IDX 91 36 30 37 31 38 32 39 85 40 33 41 90 42 84 43 86 44 34 45
REMARK SMILES IDX 89 46 83 47 82 48 35 50 69 51 48 52 68 53 49 54 52 55 67 56
REMARK SMILES IDX 87 57 50 58 51 59 66 61 88 62 53 63 36 64 37 65 46 66 38 67
REMARK SMILES IDX 39 68 45 69 47 70 40 71 41 72 42 73 43 74 44 75 70 76 71 77
REMARK SMILES IDX 80 78 72 79 73 80 79 81 81 82 74 83 75 84 76 85 77 86 78 87
REMARK SMILES IDX 54 88 55 89 64 90 56 91 57 92 63 93 65 94 58 95 59 96 60 97
REMARK SMILES IDX 61 98 62 99
REMARK H PARENT 20 4 10 13 24 30 86 49 52 60
REMARK Flexibility Score: inf
ROOT
ATOM      1  C   UNL A   1      35.555  34.529  32.073  1.00  0.00     0.253 C 
ATOM      2  O   UNL A   1      34.942  35.072  32.995  1.00  0.00    -0.269 OA
ATOM      3  N   UNL A   1      34.824  34.024  31.025  1.00  0.00    -0.352 N 
ATOM      4  H   UNL A   1      33.848  34.106  31.120  1.00  0.00     0.163 HD
ENDROOT
BRANCH   1   5
ATOM      5  C   UNL A   1      37.028  34.360  32.200  1.00  0.00     0.063 A 
ATOM      6  C   UNL A   1      37.717  33.920  33.339  1.00  0.00     0.047 A 
ATOM      7  C   UNL A   1      39.125  33.937  33.301  1.00  0.00     0.027 A 
ATOM      8  C   UNL A   1      39.836  34.256  32.148  1.00  0.00     0.005 A 
ATOM      9  C   UNL A   1      37.754  34.657  31.023  1.00  0.00     0.019 A 
ATOM     10  C   UNL A   1      39.152  34.588  30.983  1.00  0.00    -0.050 A 
ATOM     11  C   UNL A   1      39.920  34.898  29.735  1.00  0.00     0.044 C 
BRANCH   6  12
ATOM     12  N   UNL A   1      37.188  33.625  34.574  1.00  0.00    -0.381 N 
ATOM     13  H   UNL A   1      36.268  33.276  34.587  1.00  0.00     0.160 HD
BRANCH  12  14
ATOM     14  C   UNL A   1      37.847  33.775  35.860  1.00  0.00     0.154 C 
BRANCH  14  15
ATOM     15  C   UNL A   1      38.052  32.386  36.517  1.00  0.00     0.250 C 
BRANCH  15  16
ATOM     16  O   UNL A   1      37.790  31.284  35.634  1.00  0.00    -0.492 OA
BRANCH  16  17
ATOM     17  C   UNL A   1      38.813  30.729  34.910  1.00  0.00     0.119 A 
ATOM     18  C   UNL A   1      40.630  29.218  33.414  1.00  0.00     0.119 A 
ATOM     19  C   UNL A   1      39.346  29.434  32.925  1.00  0.00     0.050 A 
ATOM     20  C   UNL A   1      41.043  29.828  34.594  1.00  0.00     0.050 A 
ATOM     21  C   UNL A   1      38.435  30.178  33.682  1.00  0.00     0.050 A 
ATOM     22  C   UNL A   1      40.140  30.600  35.330  1.00  0.00     0.050 A 
BRANCH  18  23
ATOM     23  O   UNL A   1      41.495  28.455  32.680  1.00  0.00    -0.497 OA
ATOM     24  C   UNL A   1      42.466  27.831  33.524  1.00  0.00     0.278 C 
ENDBRANCH  18  23
ENDBRANCH  16  17
ENDBRANCH  15  16
ENDBRANCH  14  15
ENDBRANCH  12  14
ENDBRANCH   6  12
ENDBRANCH   1   5
BRANCH   3  25
ATOM     25  C   UNL A   1      35.270  33.389  29.799  1.00  0.00     0.118 C 
BRANCH  25  26
ATOM     26  C   UNL A   1      34.642  32.035  29.519  1.00  0.00     0.042 C 
BRANCH  26  27
ATOM     27  C   UNL A   1      34.097  31.855  28.105  1.00  0.00     0.118 C 
BRANCH  27  28
ATOM     28  N   UNL A   1      33.889  30.471  27.685  1.00  0.00    -0.352 N 
ATOM     29  C   UNL A   1      34.729  29.379  27.660  1.00  0.00     0.251 C 
ATOM     30  H   UNL A   1      32.981  30.284  27.358  1.00  0.00     0.163 HD
ATOM     31  O   UNL A   1      34.302  28.301  27.247  1.00  0.00    -0.269 OA
BRANCH  29  32
ATOM     32  C   UNL A   1      36.149  29.497  28.062  1.00  0.00     0.039 A 
ATOM     33  C   UNL A   1      36.540  29.036  29.324  1.00  0.00     0.014 A 
ATOM     34  C   UNL A   1      37.108  30.016  27.197  1.00  0.00     0.014 A 
ATOM     35  C   UNL A   1      37.899  28.966  29.651  1.00  0.00     0.010 A 
ATOM     36  C   UNL A   1      38.458  29.819  27.466  1.00  0.00     0.010 A 
ATOM     37  C   UNL A   1      38.874  29.277  28.691  1.00  0.00    -0.014 A 
BRANCH  37  38
ATOM     38  C   UNL A   1      40.327  29.027  28.914  1.00  0.00     0.031 A 
ATOM     39  C   UNL A   1      40.936  27.705  28.521  1.00  0.00     0.074 A 
ATOM     40  C   UNL A   1      41.072  29.931  29.586  1.00  0.00     0.049 A 
ATOM     41  N   UNL A   1      42.117  27.218  28.806  1.00  0.00    -0.248 NA
ATOM     42  C   UNL A   1      40.084  26.786  27.747  1.00  0.00     0.031 C 
ATOM     43  C   UNL A   1      40.597  31.224  30.088  1.00  0.00     0.029 A 
ATOM     44  N   UNL A   1      42.388  29.894  29.979  1.00  0.00    -0.354 N 
ATOM     45  C   UNL A   1      42.125  25.922  28.304  1.00  0.00     0.074 A 
ATOM     46  C   UNL A   1      40.817  25.682  27.733  1.00  0.00     0.031 C 
ATOM     47  C   UNL A   1      41.612  31.870  30.683  1.00  0.00     0.029 A 
ATOM     48  C   UNL A   1      42.796  31.019  30.656  1.00  0.00     0.049 A 
ATOM     49  H   UNL A   1      42.983  29.132  29.794  1.00  0.00     0.167 HD
ATOM     50  C   UNL A   1      43.135  25.019  28.294  1.00  0.00     0.037 A 
ATOM     51  C   UNL A   1      43.989  31.331  31.202  1.00  0.00     0.037 A 
ATOM     52  C   UNL A   1      44.460  25.290  28.784  1.00  0.00     0.049 A 
ATOM     53  C   UNL A   1      45.117  30.341  31.118  1.00  0.00     0.074 A 
ATOM     54  C   UNL A   1      45.581  24.480  28.727  1.00  0.00     0.029 A 
ATOM     55  N   UNL A   1      44.849  26.468  29.404  1.00  0.00    -0.354 N 
ATOM     56  N   UNL A   1      45.119  29.139  30.593  1.00  0.00    -0.248 NA
ATOM     57  C   UNL A   1      46.404  30.748  31.700  1.00  0.00     0.031 C 
ATOM     58  C   UNL A   1      46.642  25.160  29.334  1.00  0.00     0.029 A 
ATOM     59  C   UNL A   1      46.190  26.405  29.739  1.00  0.00     0.049 A 
ATOM     60  H   UNL A   1      44.257  27.236  29.579  1.00  0.00     0.167 HD
ATOM     61  C   UNL A   1      46.413  28.657  30.757  1.00  0.00     0.074 A 
ATOM     62  C   UNL A   1      47.167  29.700  31.422  1.00  0.00     0.031 C 
ATOM     63  C   UNL A   1      46.930  27.460  30.387  1.00  0.00     0.037 A 
BRANCH  50  64
ATOM     64  C   UNL A   1      42.847  23.658  27.721  1.00  0.00     0.058 A 
ATOM     65  C   UNL A   1      42.444  22.585  28.531  1.00  0.00     0.135 A 
ATOM     66  C   UNL A   1      42.962  23.428  26.340  1.00  0.00     0.135 A 
ATOM     67  F   UNL A   1      42.332  22.745  29.859  1.00  0.00    -0.206 F 
ATOM     68  C   UNL A   1      42.207  21.321  28.000  1.00  0.00     0.059 A 
ATOM     69  C   UNL A   1      42.700  22.179  25.782  1.00  0.00     0.059 A 
ATOM     70  F   UNL A   1      43.340  24.420  25.517  1.00  0.00    -0.206 F 
ATOM     71  C   UNL A   1      42.343  21.127  26.624  1.00  0.00     0.060 A 
BRANCH  71  72
ATOM     72  S   UNL A   1      42.045  19.479  25.951  1.00  0.00     0.124 S 
ATOM     73  O   UNL A   1      42.495  18.631  27.050  1.00  0.00    -0.237 OA
ATOM     74  O   UNL A   1      40.605  19.493  25.711  1.00  0.00    -0.237 OA
ATOM     75  O   UNL A   1      42.876  19.448  24.752  1.00  0.00    -0.744 OA
ENDBRANCH  71  72
ENDBRANCH  50  64
BRANCH  51  76
ATOM     76  C   UNL A   1      44.190  32.659  31.839  1.00  0.00     0.058 A 
ATOM     77  C   UNL A   1      44.699  33.735  31.095  1.00  0.00     0.135 A 
ATOM     78  C   UNL A   1      43.868  32.889  33.185  1.00  0.00     0.135 A 
ATOM     79  F   UNL A   1      45.027  33.561  29.806  1.00  0.00    -0.206 F 
ATOM     80  C   UNL A   1      44.898  34.988  31.665  1.00  0.00     0.059 A 
ATOM     81  C   UNL A   1      44.038  34.141  33.773  1.00  0.00     0.059 A 
ATOM     82  F   UNL A   1      43.361  31.899  33.935  1.00  0.00    -0.206 F 
ATOM     83  C   UNL A   1      44.562  35.181  33.005  1.00  0.00     0.060 A 
BRANCH  83  84
ATOM     84  S   UNL A   1      44.779  36.824  33.723  1.00  0.00     0.124 S 
ATOM     85  O   UNL A   1      46.221  37.008  33.607  1.00  0.00    -0.237 OA
ATOM     86  O   UNL A   1      43.958  37.654  32.846  1.00  0.00    -0.237 OA
ATOM     87  O   UNL A   1      44.269  36.666  35.082  1.00  0.00    -0.744 OA
ENDBRANCH  83  84
ENDBRANCH  51  76
BRANCH  63  88
ATOM     88  C   UNL A   1      48.388  27.224  30.653  1.00  0.00     0.058 A 
ATOM     89  C   UNL A   1      48.829  26.574  31.815  1.00  0.00     0.135 A 
ATOM     90  C   UNL A   1      49.351  27.602  29.703  1.00  0.00     0.135 A 
ATOM     91  F   UNL A   1      47.947  26.199  32.755  1.00  0.00    -0.206 F 
ATOM     92  C   UNL A   1      50.178  26.319  32.035  1.00  0.00     0.059 A 
ATOM     93  C   UNL A   1      50.704  27.338  29.893  1.00  0.00     0.059 A 
ATOM     94  F   UNL A   1      48.979  28.221  28.572  1.00  0.00    -0.206 F 
ATOM     95  C   UNL A   1      51.108  26.703  31.067  1.00  0.00     0.060 A 
BRANCH  95  96
ATOM     96  S   UNL A   1      52.852  26.328  31.342  1.00  0.00     0.124 S 
ATOM     97  O   UNL A   1      52.770  25.068  32.073  1.00  0.00    -0.237 OA
ATOM     98  O   UNL A   1      53.374  26.239  29.982  1.00  0.00    -0.237 OA
ATOM     99  O   UNL A   1      53.327  27.472  32.115  1.00  0.00    -0.744 OA
ENDBRANCH  95  96
ENDBRANCH  63  88
ENDBRANCH  37  38
ENDBRANCH  29  32
ENDBRANCH  27  28
ENDBRANCH  26  27
ENDBRANCH  25  26
ENDBRANCH   3  25
TORSDOF 19
ENDMDL
MODEL 3
REMARK VINA RESULT:      -8.8      6.423     11.822
REMARK SMILES COc1ccc(OCCNc2ccc(C)cc2C(=O)NCCCNC(=O)c2ccc(-c3c4nc(c(-c5c(F)cc(S(=O)(=O)[O-])cc5F)c5ccc([nH]5)c(-c5c(F)cc(S(=O)(=O)[O-])cc5F)c5nc(c(-c6c(F)cc(S(=O)(=O)[O-])cc6F)c6ccc3[nH]6)C=C5)C=C4)cc2)cc1
REMARK SMILES IDX 18 1 19 2 20 3 17 5 11 6 12 7 13 8 16 9 14 10 15 11 10 12
REMARK SMILES IDX 9 14 8 15 7 16 6 17 3 18 4 19 94 20 5 21 93 22 2 23 1 24
REMARK SMILES IDX 21 25 22 26 23 27 24 28 25 29 26 31 27 32 28 33 92 34 29 35
REMARK SMILES IDX 91 36 30 37 31 38 32 39 85 40 33 41 90 42 84 43 86 44 34 45
REMARK SMILES IDX 89 46 83 47 82 48 35 50 69 51 48 52 68 53 49 54 52 55 67 56
REMARK SMILES IDX 87 57 50 58 51 59 66 61 88 62 53 63 36 64 37 65 46 66 38 67
REMARK SMILES IDX 39 68 45 69 47 70 40 71 41 72 42 73 43 74 44 75 70 76 71 77
REMARK SMILES IDX 80 78 72 79 73 80 79 81 81 82 74 83 75 84 76 85 77 86 78 87
REMARK SMILES IDX 54 88 55 89 64 90 56 91 57 92 63 93 65 94 58 95 59 96 60 97
REMARK SMILES IDX 61 98 62 99
REMARK H PARENT 20 4 10 13 24 30 86 49 52 60
REMARK Flexibility Score: inf
ROOT
ATOM      1  C   UNL A   1      45.220  41.980  25.507  1.00  0.00     0.253 C 
ATOM      2  O   UNL A   1      45.453  43.187  25.413  1.00  0.00    -0.269 OA
ATOM      3  N   UNL A   1      46.275  41.110  25.378  1.00  0.00    -0.352 N 
ATOM      4  H   UNL A   1      47.141  41.532  25.177  1.00  0.00     0.163 HD
ENDROOT
BRANCH   1   5
ATOM      5  C   UNL A   1      43.806  41.537  25.648  1.00  0.00     0.063 A 
ATOM      6  C   UNL A   1      42.761  41.801  24.752  1.00  0.00     0.047 A 
ATOM      7  C   UNL A   1      41.464  41.394  25.120  1.00  0.00     0.027 A 
ATOM      8  C   UNL A   1      41.213  40.647  26.267  1.00  0.00     0.005 A 
ATOM      9  C   UNL A   1      43.551  40.754  26.798  1.00  0.00     0.019 A 
ATOM     10  C   UNL A   1      42.265  40.289  27.103  1.00  0.00    -0.050 A 
ATOM     11  C   UNL A   1      41.997  39.456  28.318  1.00  0.00     0.044 C 
BRANCH   6  12
ATOM     12  N   UNL A   1      42.811  42.569  23.612  1.00  0.00    -0.381 N 
ATOM     13  H   UNL A   1      43.707  42.797  23.273  1.00  0.00     0.160 HD
BRANCH  12  14
ATOM     14  C   UNL A   1      41.680  43.078  22.856  1.00  0.00     0.154 C 
BRANCH  14  15
ATOM     15  C   UNL A   1      41.734  42.552  21.399  1.00  0.00     0.250 C 
BRANCH  15  16
ATOM     16  O   UNL A   1      42.875  43.014  20.659  1.00  0.00    -0.492 OA
BRANCH  16  17
ATOM     17  C   UNL A   1      42.702  43.851  19.587  1.00  0.00     0.119 A 
ATOM     18  C   UNL A   1      42.062  45.229  17.239  1.00  0.00     0.119 A 
ATOM     19  C   UNL A   1      41.049  44.847  18.112  1.00  0.00     0.050 A 
ATOM     20  C   UNL A   1      43.395  45.013  17.574  1.00  0.00     0.050 A 
ATOM     21  C   UNL A   1      41.370  44.146  19.279  1.00  0.00     0.050 A 
ATOM     22  C   UNL A   1      43.714  44.343  18.758  1.00  0.00     0.050 A 
BRANCH  18  23
ATOM     23  O   UNL A   1      41.727  45.878  16.084  1.00  0.00    -0.497 OA
ATOM     24  C   UNL A   1      41.879  47.292  16.230  1.00  0.00     0.278 C 
ENDBRANCH  18  23
ENDBRANCH  16  17
ENDBRANCH  15  16
ENDBRANCH  14  15
ENDBRANCH  12  14
ENDBRANCH   6  12
ENDBRANCH   1   5
BRANCH   3  25
ATOM     25  C   UNL A   1      46.309  39.664  25.491  1.00  0.00     0.118 C 
BRANCH  25  26
ATOM     26  C   UNL A   1      47.448  39.118  26.334  1.00  0.00     0.042 C 
BRANCH  26  27
ATOM     27  C   UNL A   1      47.140  37.819  27.074  1.00  0.00     0.118 C 
BRANCH  27  28
ATOM     28  N   UNL A   1      47.367  37.851  28.518  1.00  0.00    -0.352 N 
ATOM     29  C   UNL A   1      47.525  36.846  29.448  1.00  0.00     0.251 C 
ATOM     30  H   UNL A   1      47.414  38.757  28.895  1.00  0.00     0.163 HD
ATOM     31  O   UNL A   1      47.702  37.144  30.629  1.00  0.00    -0.269 OA
BRANCH  29  32
ATOM     32  C   UNL A   1      47.422  35.421  29.060  1.00  0.00     0.039 A 
ATOM     33  C   UNL A   1      47.568  34.437  30.042  1.00  0.00     0.014 A 
ATOM     34  C   UNL A   1      47.142  35.044  27.750  1.00  0.00     0.014 A 
ATOM     35  C   UNL A   1      47.290  33.100  29.736  1.00  0.00     0.010 A 
ATOM     36  C   UNL A   1      46.733  33.743  27.480  1.00  0.00     0.010 A 
ATOM     37  C   UNL A   1      46.787  32.753  28.473  1.00  0.00    -0.014 A 
BRANCH  37  38
ATOM     38  C   UNL A   1      46.284  31.385  28.158  1.00  0.00     0.031 A 
ATOM     39  C   UNL A   1      44.840  31.033  28.415  1.00  0.00     0.074 A 
ATOM     40  C   UNL A   1      47.146  30.423  27.765  1.00  0.00     0.049 A 
ATOM     41  N   UNL A   1      44.257  29.861  28.399  1.00  0.00    -0.248 NA
ATOM     42  C   UNL A   1      43.944  32.139  28.792  1.00  0.00     0.031 C 
ATOM     43  C   UNL A   1      48.583  30.604  27.542  1.00  0.00     0.029 A 
ATOM     44  N   UNL A   1      46.941  29.091  27.498  1.00  0.00    -0.354 N 
ATOM     45  C   UNL A   1      42.951  30.081  28.821  1.00  0.00     0.074 A 
ATOM     46  C   UNL A   1      42.838  31.491  29.127  1.00  0.00     0.031 C 
ATOM     47  C   UNL A   1      49.120  29.443  27.135  1.00  0.00     0.029 A 
ATOM     48  C   UNL A   1      48.081  28.420  27.120  1.00  0.00     0.049 A 
ATOM     49  H   UNL A   1      46.061  28.657  27.571  1.00  0.00     0.167 HD
ATOM     50  C   UNL A   1      41.929  29.198  28.922  1.00  0.00     0.037 A 
ATOM     51  C   UNL A   1      48.272  27.124  26.802  1.00  0.00     0.037 A 
ATOM     52  C   UNL A   1      42.020  27.815  28.534  1.00  0.00     0.049 A 
ATOM     53  C   UNL A   1      47.107  26.175  26.854  1.00  0.00     0.074 A 
ATOM     54  C   UNL A   1      41.016  26.862  28.500  1.00  0.00     0.029 A 
ATOM     55  N   UNL A   1      43.178  27.192  28.094  1.00  0.00    -0.354 N 
ATOM     56  N   UNL A   1      45.867  26.413  27.207  1.00  0.00    -0.248 NA
ATOM     57  C   UNL A   1      47.367  24.781  26.465  1.00  0.00     0.031 C 
ATOM     58  C   UNL A   1      41.573  25.656  28.062  1.00  0.00     0.029 A 
ATOM     59  C   UNL A   1      42.916  25.867  27.792  1.00  0.00     0.049 A 
ATOM     60  H   UNL A   1      44.057  27.628  28.009  1.00  0.00     0.167 HD
ATOM     61  C   UNL A   1      45.192  25.207  27.057  1.00  0.00     0.074 A 
ATOM     62  C   UNL A   1      46.160  24.243  26.573  1.00  0.00     0.031 C 
ATOM     63  C   UNL A   1      43.888  24.925  27.295  1.00  0.00     0.037 A 
BRANCH  50  64
ATOM     64  C   UNL A   1      40.619  29.706  29.459  1.00  0.00     0.058 A 
ATOM     65  C   UNL A   1      40.450  30.023  30.816  1.00  0.00     0.135 A 
ATOM     66  C   UNL A   1      39.522  29.894  28.602  1.00  0.00     0.135 A 
ATOM     67  F   UNL A   1      41.461  29.849  31.682  1.00  0.00    -0.206 F 
ATOM     68  C   UNL A   1      39.229  30.465  31.313  1.00  0.00     0.059 A 
ATOM     69  C   UNL A   1      38.299  30.365  29.072  1.00  0.00     0.059 A 
ATOM     70  F   UNL A   1      39.629  29.612  27.294  1.00  0.00    -0.206 F 
ATOM     71  C   UNL A   1      38.157  30.628  30.434  1.00  0.00     0.060 A 
BRANCH  71  72
ATOM     72  S   UNL A   1      36.575  31.191  31.095  1.00  0.00     0.124 S 
ATOM     73  O   UNL A   1      36.033  29.952  31.643  1.00  0.00    -0.237 OA
ATOM     74  O   UNL A   1      36.981  32.193  32.075  1.00  0.00    -0.237 OA
ATOM     75  O   UNL A   1      35.884  31.713  29.920  1.00  0.00    -0.744 OA
ENDBRANCH  71  72
ENDBRANCH  50  64
BRANCH  51  76
ATOM     76  C   UNL A   1      49.614  26.656  26.365  1.00  0.00     0.058 A 
ATOM     77  C   UNL A   1      50.548  26.195  27.306  1.00  0.00     0.135 A 
ATOM     78  C   UNL A   1      49.988  26.642  25.012  1.00  0.00     0.135 A 
ATOM     79  F   UNL A   1      50.238  26.194  28.612  1.00  0.00    -0.206 F 
ATOM     80  C   UNL A   1      51.810  25.752  26.926  1.00  0.00     0.059 A 
ATOM     81  C   UNL A   1      51.238  26.183  24.605  1.00  0.00     0.059 A 
ATOM     82  F   UNL A   1      49.125  27.056  24.072  1.00  0.00    -0.206 F 
ATOM     83  C   UNL A   1      52.145  25.748  25.571  1.00  0.00     0.060 A 
BRANCH  83  84
ATOM     84  S   UNL A   1      53.769  25.126  25.084  1.00  0.00     0.124 S 
ATOM     85  O   UNL A   1      54.560  25.401  26.278  1.00  0.00    -0.237 OA
ATOM     86  O   UNL A   1      53.491  23.718  24.813  1.00  0.00    -0.237 OA
ATOM     87  O   UNL A   1      54.096  25.930  23.909  1.00  0.00    -0.744 OA
ENDBRANCH  83  84
ENDBRANCH  51  76
BRANCH  63  88
ATOM     88  C   UNL A   1      43.417  23.530  26.999  1.00  0.00     0.058 A 
ATOM     89  C   UNL A   1      43.266  23.068  25.684  1.00  0.00     0.135 A 
ATOM     90  C   UNL A   1      43.172  22.629  28.047  1.00  0.00     0.135 A 
ATOM     91  F   UNL A   1      43.482  23.894  24.648  1.00  0.00    -0.206 F 
ATOM     92  C   UNL A   1      42.872  21.762  25.416  1.00  0.00     0.059 A 
ATOM     93  C   UNL A   1      42.798  21.312  27.802  1.00  0.00     0.059 A 
ATOM     94  F   UNL A   1      43.310  23.021  29.323  1.00  0.00    -0.206 F 
ATOM     95  C   UNL A   1      42.643  20.890  26.482  1.00  0.00     0.060 A 
BRANCH  95  96
ATOM     96  S   UNL A   1      42.175  19.183  26.123  1.00  0.00     0.124 S 
ATOM     97  O   UNL A   1      42.602  18.499  27.339  1.00  0.00    -0.237 OA
ATOM     98  O   UNL A   1      40.732  19.287  25.926  1.00  0.00    -0.237 OA
ATOM     99  O   UNL A   1      42.943  18.868  24.922  1.00  0.00    -0.744 OA
ENDBRANCH  95  96
ENDBRANCH  63  88
ENDBRANCH  37  38
ENDBRANCH  29  32
ENDBRANCH  27  28
ENDBRANCH  26  27
ENDBRANCH  25  26
ENDBRANCH   3  25
TORSDOF 19
ENDMDL
