MODEL 1
REMARK VINA RESULT:     -14.8      0.000      0.000
REMARK SMILES Cc1ccccc1/[NH+]=C1\S[C@@H](CC(=O)Nc2ccc(C(=O)NCCCNC(=O)c3ccc(-c4c5nc(c(-c6c(F)cc(S(=O)(=O)[O-])cc6F)c6ccc([nH]6)c(-c6c(F)cc(S(=O)(=O)[O-])cc6F)c6nc(c(-c7c(F)cc(S(=O)(=O)[O-])cc7F)c7ccc4[nH]7)C=C6)C=C5)cc3)cc2)C(=O)N1C
REMARK SMILES IDX 23 1 22 2 20 3 21 4 19 6 16 7 17 8 96 9 18 10 95 11 15 12
REMARK SMILES IDX 13 13 14 14 12 16 11 17 8 18 9 19 10 21 99 22 97 23 100 24
REMARK SMILES IDX 98 25 7 26 1 27 2 28 3 29 4 30 6 31 5 32 24 33 25 34 26 35
REMARK SMILES IDX 27 36 28 38 29 39 30 40 94 41 31 42 93 43 32 44 33 45 34 46
REMARK SMILES IDX 87 47 35 48 92 49 86 50 88 51 36 52 91 53 85 54 84 55 37 57
REMARK SMILES IDX 71 58 50 59 70 60 51 61 54 62 69 63 89 64 52 65 53 66 68 68
REMARK SMILES IDX 90 69 55 70 38 71 39 72 48 73 40 74 41 75 47 76 49 77 42 78
REMARK SMILES IDX 43 79 44 80 45 81 46 82 72 83 73 84 82 85 74 86 75 87 81 88
REMARK SMILES IDX 83 89 76 90 77 91 78 92 79 93 80 94 56 95 57 96 66 97 58 98
REMARK SMILES IDX 59 99 65 100 67 101 60 102 61 103 62 104 63 105 64 106
REMARK H PARENT 22 5 15 15 8 20 26 37 88 56 54 67
REMARK Flexibility Score: inf
ROOT
ATOM      1  C   UNL A   1      32.401  28.811  27.297  1.00  0.00     0.118 C 
ENDROOT
BRANCH   1   2
ATOM      2  N   UNL A   1      31.871  30.012  26.657  1.00  0.00    -0.352 N 
ATOM      3  C   UNL A   1      31.376  30.190  25.383  1.00  0.00     0.251 C 
ATOM      4  O   UNL A   1      30.674  31.165  25.125  1.00  0.00    -0.269 OA
ATOM      5  H   UNL A   1      31.867  30.818  27.223  1.00  0.00     0.163 HD
BRANCH   3   6
ATOM      6  C   UNL A   1      31.662  29.222  24.296  1.00  0.00     0.039 A 
ATOM      7  C   UNL A   1      32.182  27.317  22.318  1.00  0.00     0.041 A 
ATOM      8  C   UNL A   1      33.212  28.093  22.844  1.00  0.00     0.027 A 
ATOM      9  C   UNL A   1      30.863  27.607  22.650  1.00  0.00     0.027 A 
ATOM     10  C   UNL A   1      32.957  29.040  23.825  1.00  0.00     0.016 A 
ATOM     11  C   UNL A   1      30.606  28.553  23.655  1.00  0.00     0.016 A 
BRANCH   7  12
ATOM     12  N   UNL A   1      32.491  26.226  21.497  1.00  0.00    -0.326 N 
ATOM     13  C   UNL A   1      32.820  24.964  21.949  1.00  0.00     0.226 C 
ATOM     14  O   UNL A   1      33.317  24.131  21.192  1.00  0.00    -0.275 OA
ATOM     15  H   UNL A   1      32.472  26.370  20.523  1.00  0.00     0.169 HD
BRANCH  13  16
ATOM     16  C   UNL A   1      32.350  24.578  23.345  1.00  0.00     0.128 C 
BRANCH  16  17
ATOM     17  C   UNL A   1      33.189  23.550  24.073  1.00  0.00     0.183 C 
ATOM     18  N   UNL A   1      33.533  20.260  25.802  1.00  0.00    -0.234 N 
ATOM     19  C   UNL A   1      33.086  21.393  25.398  1.00  0.00     0.319 C 
ATOM     20  H   UNL A   1      33.813  20.225  26.745  1.00  0.00     0.313 HD
ATOM     21  S   UNL A   1      32.446  21.886  23.865  1.00  0.00    -0.022 SA
ATOM     22  N   UNL A   1      33.135  22.484  26.217  1.00  0.00    -0.193 N 
ATOM     23  C   UNL A   1      33.324  23.690  25.578  1.00  0.00     0.324 C 
ATOM     24  C   UNL A   1      33.194  22.388  27.661  1.00  0.00     0.301 C 
ATOM     25  O   UNL A   1      33.681  24.720  26.139  1.00  0.00    -0.245 OA
BRANCH  18  26
ATOM     26  C   UNL A   1      33.677  19.064  25.084  1.00  0.00     0.128 A 
ATOM     27  C   UNL A   1      36.233  19.131  24.705  1.00  0.00     0.049 C 
ATOM     28  C   UNL A   1      34.884  18.473  24.650  1.00  0.00    -0.004 A 
ATOM     29  C   UNL A   1      34.861  17.167  24.117  1.00  0.00     0.008 A 
ATOM     30  C   UNL A   1      33.689  16.417  24.081  1.00  0.00     0.001 A 
ATOM     31  C   UNL A   1      32.506  18.287  25.023  1.00  0.00     0.052 A 
ATOM     32  C   UNL A   1      32.507  16.979  24.540  1.00  0.00     0.004 A 
ENDBRANCH  18  26
ENDBRANCH  16  17
ENDBRANCH  13  16
ENDBRANCH   7  12
ENDBRANCH   3   6
ENDBRANCH   1   2
BRANCH   1  33
ATOM     33  C   UNL A   1      33.876  28.903  27.696  1.00  0.00     0.042 C 
BRANCH  33  34
ATOM     34  C   UNL A   1      34.651  30.000  26.970  1.00  0.00     0.118 C 
BRANCH  34  35
ATOM     35  N   UNL A   1      35.098  31.051  27.887  1.00  0.00    -0.352 N 
ATOM     36  C   UNL A   1      36.201  31.053  28.734  1.00  0.00     0.251 C 
ATOM     37  H   UNL A   1      34.545  31.865  27.905  1.00  0.00     0.163 HD
ATOM     38  O   UNL A   1      36.464  31.995  29.436  1.00  0.00    -0.269 OA
BRANCH  36  39
ATOM     39  C   UNL A   1      37.055  29.844  28.708  1.00  0.00     0.039 A 
ATOM     40  C   UNL A   1      37.142  29.060  29.861  1.00  0.00     0.014 A 
ATOM     41  C   UNL A   1      37.949  29.685  27.655  1.00  0.00     0.014 A 
ATOM     42  C   UNL A   1      38.256  28.241  30.046  1.00  0.00     0.010 A 
ATOM     43  C   UNL A   1      39.092  28.943  27.880  1.00  0.00     0.010 A 
ATOM     44  C   UNL A   1      39.276  28.256  29.093  1.00  0.00    -0.014 A 
BRANCH  44  45
ATOM     45  C   UNL A   1      40.618  27.712  29.303  1.00  0.00     0.031 A 
ATOM     46  C   UNL A   1      40.988  26.369  28.783  1.00  0.00     0.074 A 
ATOM     47  C   UNL A   1      41.593  28.494  29.825  1.00  0.00     0.049 A 
ATOM     48  N   UNL A   1      42.088  25.755  29.062  1.00  0.00    -0.248 NA
ATOM     49  C   UNL A   1      40.111  25.587  27.914  1.00  0.00     0.031 C 
ATOM     50  C   UNL A   1      43.034  28.315  29.662  1.00  0.00     0.029 A 
ATOM     51  N   UNL A   1      41.487  29.520  30.756  1.00  0.00    -0.354 N 
ATOM     52  C   UNL A   1      42.185  24.649  28.251  1.00  0.00     0.074 A 
ATOM     53  C   UNL A   1      40.916  24.579  27.565  1.00  0.00     0.031 C 
ATOM     54  C   UNL A   1      43.676  29.023  30.601  1.00  0.00     0.029 A 
ATOM     55  C   UNL A   1      42.677  29.559  31.506  1.00  0.00     0.049 A 
ATOM     56  H   UNL A   1      40.713  30.117  30.871  1.00  0.00     0.167 HD
ATOM     57  C   UNL A   1      43.360  23.961  28.179  1.00  0.00     0.037 A 
ATOM     58  C   UNL A   1      42.670  29.354  32.858  1.00  0.00     0.037 A 
ATOM     59  C   UNL A   1      44.357  24.483  29.108  1.00  0.00     0.049 A 
ATOM     60  C   UNL A   1      43.390  28.102  33.320  1.00  0.00     0.074 A 
ATOM     61  C   UNL A   1      45.411  25.375  29.006  1.00  0.00     0.029 A 
ATOM     62  N   UNL A   1      44.166  24.269  30.458  1.00  0.00    -0.354 N 
ATOM     63  N   UNL A   1      44.030  27.280  32.535  1.00  0.00    -0.248 NA
ATOM     64  C   UNL A   1      43.363  27.630  34.709  1.00  0.00     0.031 C 
ATOM     65  C   UNL A   1      45.824  25.724  30.324  1.00  0.00     0.029 A 
ATOM     66  C   UNL A   1      45.021  25.041  31.219  1.00  0.00     0.049 A 
ATOM     67  H   UNL A   1      43.502  23.646  30.831  1.00  0.00     0.167 HD
ATOM     68  C   UNL A   1      44.366  26.156  33.241  1.00  0.00     0.074 A 
ATOM     69  C   UNL A   1      43.976  26.439  34.608  1.00  0.00     0.031 C 
ATOM     70  C   UNL A   1      44.868  25.033  32.660  1.00  0.00     0.037 A 
BRANCH  57  71
ATOM     71  C   UNL A   1      43.667  22.919  27.133  1.00  0.00     0.058 A 
ATOM     72  C   UNL A   1      42.978  21.688  27.124  1.00  0.00     0.135 A 
ATOM     73  C   UNL A   1      44.645  23.062  26.130  1.00  0.00     0.135 A 
ATOM     74  F   UNL A   1      41.976  21.440  27.978  1.00  0.00    -0.206 F 
ATOM     75  C   UNL A   1      43.302  20.645  26.257  1.00  0.00     0.059 A 
ATOM     76  C   UNL A   1      45.029  22.012  25.290  1.00  0.00     0.059 A 
ATOM     77  F   UNL A   1      45.239  24.242  25.902  1.00  0.00    -0.206 F 
ATOM     78  C   UNL A   1      44.354  20.801  25.367  1.00  0.00     0.060 A 
BRANCH  78  79
ATOM     79  S   UNL A   1      44.831  19.402  24.335  1.00  0.00     0.124 S 
ATOM     80  O   UNL A   1      44.016  18.322  24.882  1.00  0.00    -0.237 OA
ATOM     81  O   UNL A   1      44.457  19.867  23.004  1.00  0.00    -0.237 OA
ATOM     82  O   UNL A   1      46.265  19.276  24.576  1.00  0.00    -0.744 OA
ENDBRANCH  78  79
ENDBRANCH  57  71
BRANCH  58  83
ATOM     83  C   UNL A   1      41.470  29.936  33.512  1.00  0.00     0.058 A 
ATOM     84  C   UNL A   1      41.469  31.326  33.735  1.00  0.00     0.135 A 
ATOM     85  C   UNL A   1      40.235  29.275  33.465  1.00  0.00     0.135 A 
ATOM     86  F   UNL A   1      42.630  31.996  33.810  1.00  0.00    -0.206 F 
ATOM     87  C   UNL A   1      40.292  32.060  33.706  1.00  0.00     0.059 A 
ATOM     88  C   UNL A   1      39.041  29.991  33.446  1.00  0.00     0.059 A 
ATOM     89  F   UNL A   1      40.183  27.950  33.268  1.00  0.00    -0.206 F 
ATOM     90  C   UNL A   1      39.093  31.385  33.482  1.00  0.00     0.060 A 
BRANCH  90  91
ATOM     91  S   UNL A   1      37.662  32.375  32.993  1.00  0.00     0.124 S 
ATOM     92  O   UNL A   1      38.204  33.183  31.907  1.00  0.00    -0.237 OA
ATOM     93  O   UNL A   1      36.717  31.331  32.600  1.00  0.00    -0.237 OA
ATOM     94  O   UNL A   1      37.323  33.099  34.213  1.00  0.00    -0.744 OA
ENDBRANCH  90  91
ENDBRANCH  58  83
BRANCH  70  95
ATOM     95  C   UNL A   1      45.226  23.813  33.447  1.00  0.00     0.058 A 
ATOM     96  C   UNL A   1      44.276  22.820  33.724  1.00  0.00     0.135 A 
ATOM     97  C   UNL A   1      46.490  23.671  34.053  1.00  0.00     0.135 A 
ATOM     98  F   UNL A   1      43.043  22.892  33.193  1.00  0.00    -0.206 F 
ATOM     99  C   UNL A   1      44.562  21.740  34.556  1.00  0.00     0.059 A 
ATOM    100  C   UNL A   1      46.786  22.623  34.918  1.00  0.00     0.059 A 
ATOM    101  F   UNL A   1      47.476  24.547  33.802  1.00  0.00    -0.206 F 
ATOM    102  C   UNL A   1      45.818  21.653  35.155  1.00  0.00     0.060 A 
BRANCH 102 103
ATOM    103  S   UNL A   1      46.179  20.288  36.277  1.00  0.00     0.124 S 
ATOM    104  O   UNL A   1      45.762  20.813  37.573  1.00  0.00    -0.237 OA
ATOM    105  O   UNL A   1      45.339  19.230  35.725  1.00  0.00    -0.237 OA
ATOM    106  O   UNL A   1      47.618  20.099  36.119  1.00  0.00    -0.744 OA
ENDBRANCH 102 103
ENDBRANCH  70  95
ENDBRANCH  44  45
ENDBRANCH  36  39
ENDBRANCH  34  35
ENDBRANCH  33  34
ENDBRANCH   1  33
TORSDOF 17
ENDMDL
MODEL 2
REMARK VINA RESULT:     -14.6      4.650     11.667
REMARK SMILES Cc1ccccc1/[NH+]=C1\S[C@@H](CC(=O)Nc2ccc(C(=O)NCCCNC(=O)c3ccc(-c4c5nc(c(-c6c(F)cc(S(=O)(=O)[O-])cc6F)c6ccc([nH]6)c(-c6c(F)cc(S(=O)(=O)[O-])cc6F)c6nc(c(-c7c(F)cc(S(=O)(=O)[O-])cc7F)c7ccc4[nH]7)C=C6)C=C5)cc3)cc2)C(=O)N1C
REMARK SMILES IDX 23 1 22 2 20 3 21 4 19 6 16 7 17 8 96 9 18 10 95 11 15 12
REMARK SMILES IDX 13 13 14 14 12 16 11 17 8 18 9 19 10 21 99 22 97 23 100 24
REMARK SMILES IDX 98 25 7 26 1 27 2 28 3 29 4 30 6 31 5 32 24 33 25 34 26 35
REMARK SMILES IDX 27 36 28 38 29 39 30 40 94 41 31 42 93 43 32 44 33 45 34 46
REMARK SMILES IDX 87 47 35 48 92 49 86 50 88 51 36 52 91 53 85 54 84 55 37 57
REMARK SMILES IDX 71 58 50 59 70 60 51 61 54 62 69 63 89 64 52 65 53 66 68 68
REMARK SMILES IDX 90 69 55 70 38 71 39 72 48 73 40 74 41 75 47 76 49 77 42 78
REMARK SMILES IDX 43 79 44 80 45 81 46 82 72 83 73 84 82 85 74 86 75 87 81 88
REMARK SMILES IDX 83 89 76 90 77 91 78 92 79 93 80 94 56 95 57 96 66 97 58 98
REMARK SMILES IDX 59 99 65 100 67 101 60 102 61 103 62 104 63 105 64 106
REMARK H PARENT 22 5 15 15 8 20 26 37 88 56 54 67
REMARK Flexibility Score: inf
ROOT
ATOM      1  C   UNL A   1      36.964  22.893  24.232  1.00  0.00     0.118 C 
ENDROOT
BRANCH   1   2
ATOM      2  N   UNL A   1      37.061  21.483  24.601  1.00  0.00    -0.352 N 
ATOM      3  C   UNL A   1      36.076  20.604  24.998  1.00  0.00     0.251 C 
ATOM      4  O   UNL A   1      36.275  19.392  24.946  1.00  0.00    -0.269 OA
ATOM      5  H   UNL A   1      37.969  21.103  24.560  1.00  0.00     0.163 HD
BRANCH   3   6
ATOM      6  C   UNL A   1      34.759  21.081  25.486  1.00  0.00     0.039 A 
ATOM      7  C   UNL A   1      32.278  22.055  26.327  1.00  0.00     0.041 A 
ATOM      8  C   UNL A   1      33.415  22.237  27.111  1.00  0.00     0.027 A 
ATOM      9  C   UNL A   1      32.340  21.238  25.204  1.00  0.00     0.027 A 
ATOM     10  C   UNL A   1      34.648  21.753  26.697  1.00  0.00     0.016 A 
ATOM     11  C   UNL A   1      33.589  20.763  24.775  1.00  0.00     0.016 A 
BRANCH   7  12
ATOM     12  N   UNL A   1      31.099  22.736  26.654  1.00  0.00    -0.326 N 
ATOM     13  C   UNL A   1      30.764  23.998  26.206  1.00  0.00     0.226 C 
ATOM     14  O   UNL A   1      29.844  24.629  26.724  1.00  0.00    -0.275 OA
ATOM     15  H   UNL A   1      30.462  22.280  27.249  1.00  0.00     0.169 HD
BRANCH  13  16
ATOM     16  C   UNL A   1      31.425  24.481  24.922  1.00  0.00     0.128 C 
BRANCH  16  17
ATOM     17  C   UNL A   1      31.625  25.976  24.795  1.00  0.00     0.183 C 
ATOM     18  N   UNL A   1      31.145  29.180  22.941  1.00  0.00    -0.234 N 
ATOM     19  C   UNL A   1      31.364  27.948  23.226  1.00  0.00     0.319 C 
ATOM     20  H   UNL A   1      31.926  29.688  22.624  1.00  0.00     0.313 HD
ATOM     21  S   UNL A   1      30.295  26.692  23.755  1.00  0.00    -0.022 SA
ATOM     22  N   UNL A   1      32.635  27.451  23.200  1.00  0.00    -0.193 N 
ATOM     23  C   UNL A   1      32.896  26.460  24.122  1.00  0.00     0.324 C 
ATOM     24  C   UNL A   1      33.702  28.044  22.420  1.00  0.00     0.301 C 
ATOM     25  O   UNL A   1      34.023  26.101  24.449  1.00  0.00    -0.245 OA
BRANCH  18  26
ATOM     26  C   UNL A   1      29.945  29.901  23.021  1.00  0.00     0.128 A 
ATOM     27  C   UNL A   1      30.447  31.281  25.148  1.00  0.00     0.049 C 
ATOM     28  C   UNL A   1      29.626  30.922  23.943  1.00  0.00    -0.004 A 
ATOM     29  C   UNL A   1      28.452  31.682  23.754  1.00  0.00     0.008 A 
ATOM     30  C   UNL A   1      27.644  31.503  22.635  1.00  0.00     0.001 A 
ATOM     31  C   UNL A   1      29.102  29.734  21.907  1.00  0.00     0.052 A 
ATOM     32  C   UNL A   1      27.972  30.528  21.706  1.00  0.00     0.004 A 
ENDBRANCH  18  26
ENDBRANCH  16  17
ENDBRANCH  13  16
ENDBRANCH   7  12
ENDBRANCH   3   6
ENDBRANCH   1   2
BRANCH   1  33
ATOM     33  C   UNL A   1      37.640  23.853  25.214  1.00  0.00     0.042 C 
BRANCH  33  34
ATOM     34  C   UNL A   1      37.928  23.245  26.583  1.00  0.00     0.118 C 
BRANCH  34  35
ATOM     35  N   UNL A   1      39.361  23.023  26.793  1.00  0.00    -0.352 N 
ATOM     36  C   UNL A   1      40.337  23.943  27.161  1.00  0.00     0.251 C 
ATOM     37  H   UNL A   1      39.674  22.100  26.655  1.00  0.00     0.163 HD
ATOM     38  O   UNL A   1      41.489  23.625  27.311  1.00  0.00    -0.269 OA
BRANCH  36  39
ATOM     39  C   UNL A   1      39.882  25.333  27.389  1.00  0.00     0.039 A 
ATOM     40  C   UNL A   1      40.365  26.342  26.552  1.00  0.00     0.014 A 
ATOM     41  C   UNL A   1      39.225  25.630  28.578  1.00  0.00     0.014 A 
ATOM     42  C   UNL A   1      40.366  27.661  27.007  1.00  0.00     0.010 A 
ATOM     43  C   UNL A   1      39.308  26.921  29.060  1.00  0.00     0.010 A 
ATOM     44  C   UNL A   1      39.920  27.934  28.301  1.00  0.00    -0.014 A 
BRANCH  44  45
ATOM     45  C   UNL A   1      40.159  29.190  29.015  1.00  0.00     0.031 A 
ATOM     46  C   UNL A   1      39.094  30.222  29.120  1.00  0.00     0.074 A 
ATOM     47  C   UNL A   1      41.293  29.355  29.735  1.00  0.00     0.049 A 
ATOM     48  N   UNL A   1      39.275  31.412  29.588  1.00  0.00    -0.248 NA
ATOM     49  C   UNL A   1      37.724  29.997  28.665  1.00  0.00     0.031 C 
ATOM     50  C   UNL A   1      41.488  30.272  30.856  1.00  0.00     0.029 A 
ATOM     51  N   UNL A   1      42.565  28.849  29.493  1.00  0.00    -0.354 N 
ATOM     52  C   UNL A   1      38.046  32.013  29.729  1.00  0.00     0.074 A 
ATOM     53  C   UNL A   1      37.111  31.094  29.121  1.00  0.00     0.031 C 
ATOM     54  C   UNL A   1      42.801  30.439  31.068  1.00  0.00     0.029 A 
ATOM     55  C   UNL A   1      43.507  29.766  29.995  1.00  0.00     0.049 A 
ATOM     56  H   UNL A   1      42.771  27.995  29.049  1.00  0.00     0.167 HD
ATOM     57  C   UNL A   1      37.937  33.182  30.422  1.00  0.00     0.037 A 
ATOM     58  C   UNL A   1      44.417  30.369  29.171  1.00  0.00     0.037 A 
ATOM     59  C   UNL A   1      39.238  33.690  30.844  1.00  0.00     0.049 A 
ATOM     60  C   UNL A   1      44.255  31.871  29.029  1.00  0.00     0.074 A 
ATOM     61  C   UNL A   1      39.985  33.610  32.007  1.00  0.00     0.029 A 
ATOM     62  N   UNL A   1      40.087  34.192  29.878  1.00  0.00    -0.354 N 
ATOM     63  N   UNL A   1      43.370  32.586  29.665  1.00  0.00    -0.248 NA
ATOM     64  C   UNL A   1      45.032  32.672  28.077  1.00  0.00     0.031 C 
ATOM     65  C   UNL A   1      41.311  34.037  31.711  1.00  0.00     0.029 A 
ATOM     66  C   UNL A   1      41.363  34.376  30.371  1.00  0.00     0.049 A 
ATOM     67  H   UNL A   1      39.817  34.392  28.953  1.00  0.00     0.167 HD
ATOM     68  C   UNL A   1      43.356  33.852  29.141  1.00  0.00     0.074 A 
ATOM     69  C   UNL A   1      44.447  33.877  28.186  1.00  0.00     0.031 C 
ATOM     70  C   UNL A   1      42.412  34.779  29.455  1.00  0.00     0.037 A 
BRANCH  57  71
ATOM     71  C   UNL A   1      36.628  33.778  30.873  1.00  0.00     0.058 A 
ATOM     72  C   UNL A   1      35.670  34.203  29.929  1.00  0.00     0.135 A 
ATOM     73  C   UNL A   1      36.269  33.982  32.220  1.00  0.00     0.135 A 
ATOM     74  F   UNL A   1      35.848  34.010  28.615  1.00  0.00    -0.206 F 
ATOM     75  C   UNL A   1      34.497  34.867  30.285  1.00  0.00     0.059 A 
ATOM     76  C   UNL A   1      35.130  34.700  32.600  1.00  0.00     0.059 A 
ATOM     77  F   UNL A   1      36.993  33.458  33.219  1.00  0.00    -0.206 F 
ATOM     78  C   UNL A   1      34.251  35.146  31.622  1.00  0.00     0.060 A 
BRANCH  78  79
ATOM     79  S   UNL A   1      32.788  36.105  32.053  1.00  0.00     0.124 S 
ATOM     80  O   UNL A   1      33.279  36.948  33.139  1.00  0.00    -0.237 OA
ATOM     81  O   UNL A   1      32.497  36.792  30.799  1.00  0.00    -0.237 OA
ATOM     82  O   UNL A   1      31.820  35.087  32.451  1.00  0.00    -0.744 OA
ENDBRANCH  78  79
ENDBRANCH  57  71
BRANCH  58  83
ATOM     83  C   UNL A   1      44.900  29.460  28.099  1.00  0.00     0.058 A 
ATOM     84  C   UNL A   1      45.867  28.502  28.456  1.00  0.00     0.135 A 
ATOM     85  C   UNL A   1      44.124  29.220  26.958  1.00  0.00     0.135 A 
ATOM     86  F   UNL A   1      46.647  28.702  29.531  1.00  0.00    -0.206 F 
ATOM     87  C   UNL A   1      45.921  27.265  27.831  1.00  0.00     0.059 A 
ATOM     88  C   UNL A   1      44.170  27.990  26.307  1.00  0.00     0.059 A 
ATOM     89  F   UNL A   1      43.198  30.108  26.568  1.00  0.00    -0.206 F 
ATOM     90  C   UNL A   1      45.012  26.996  26.809  1.00  0.00     0.060 A 
BRANCH  90  91
ATOM     91  S   UNL A   1      44.787  25.267  26.332  1.00  0.00     0.124 S 
ATOM     92  O   UNL A   1      43.631  25.341  25.446  1.00  0.00    -0.237 OA
ATOM     93  O   UNL A   1      46.067  24.984  25.685  1.00  0.00    -0.237 OA
ATOM     94  O   UNL A   1      44.567  24.594  27.607  1.00  0.00    -0.744 OA
ENDBRANCH  90  91
ENDBRANCH  58  83
BRANCH  70  95
ATOM     95  C   UNL A   1      42.411  36.155  28.871  1.00  0.00     0.058 A 
ATOM     96  C   UNL A   1      41.872  36.406  27.600  1.00  0.00     0.135 A 
ATOM     97  C   UNL A   1      43.065  37.227  29.508  1.00  0.00     0.135 A 
ATOM     98  F   UNL A   1      41.245  35.430  26.923  1.00  0.00    -0.206 F 
ATOM     99  C   UNL A   1      41.973  37.656  26.993  1.00  0.00     0.059 A 
ATOM    100  C   UNL A   1      43.212  38.472  28.906  1.00  0.00     0.059 A 
ATOM    101  F   UNL A   1      43.564  37.091  30.747  1.00  0.00    -0.206 F 
ATOM    102  C   UNL A   1      42.651  38.682  27.651  1.00  0.00     0.060 A 
BRANCH 102 103
ATOM    103  S   UNL A   1      42.834  40.287  26.849  1.00  0.00     0.124 S 
ATOM    104  O   UNL A   1      43.792  40.011  25.783  1.00  0.00    -0.237 OA
ATOM    105  O   UNL A   1      41.466  40.551  26.415  1.00  0.00    -0.237 OA
ATOM    106  O   UNL A   1      43.332  41.141  27.923  1.00  0.00    -0.744 OA
ENDBRANCH 102 103
ENDBRANCH  70  95
ENDBRANCH  44  45
ENDBRANCH  36  39
ENDBRANCH  34  35
ENDBRANCH  33  34
ENDBRANCH   1  33
TORSDOF 17
ENDMDL
MODEL 3
REMARK VINA RESULT:     -14.0      4.376     11.325
REMARK SMILES Cc1ccccc1/[NH+]=C1\S[C@@H](CC(=O)Nc2ccc(C(=O)NCCCNC(=O)c3ccc(-c4c5nc(c(-c6c(F)cc(S(=O)(=O)[O-])cc6F)c6ccc([nH]6)c(-c6c(F)cc(S(=O)(=O)[O-])cc6F)c6nc(c(-c7c(F)cc(S(=O)(=O)[O-])cc7F)c7ccc4[nH]7)C=C6)C=C5)cc3)cc2)C(=O)N1C
REMARK SMILES IDX 23 1 22 2 20 3 21 4 19 6 16 7 17 8 96 9 18 10 95 11 15 12
REMARK SMILES IDX 13 13 14 14 12 16 11 17 8 18 9 19 10 21 99 22 97 23 100 24
REMARK SMILES IDX 98 25 7 26 1 27 2 28 3 29 4 30 6 31 5 32 24 33 25 34 26 35
REMARK SMILES IDX 27 36 28 38 29 39 30 40 94 41 31 42 93 43 32 44 33 45 34 46
REMARK SMILES IDX 87 47 35 48 92 49 86 50 88 51 36 52 91 53 85 54 84 55 37 57
REMARK SMILES IDX 71 58 50 59 70 60 51 61 54 62 69 63 89 64 52 65 53 66 68 68
REMARK SMILES IDX 90 69 55 70 38 71 39 72 48 73 40 74 41 75 47 76 49 77 42 78
REMARK SMILES IDX 43 79 44 80 45 81 46 82 72 83 73 84 82 85 74 86 75 87 81 88
REMARK SMILES IDX 83 89 76 90 77 91 78 92 79 93 80 94 56 95 57 96 66 97 58 98
REMARK SMILES IDX 59 99 65 100 67 101 60 102 61 103 62 104 63 105 64 106
REMARK H PARENT 22 5 15 15 8 20 26 37 88 56 54 67
REMARK Flexibility Score: inf
ROOT
ATOM      1  C   UNL A   1      38.172  21.486  25.521  1.00  0.00     0.118 C 
ENDROOT
BRANCH   1   2
ATOM      2  N   UNL A   1      37.674  21.872  24.203  1.00  0.00    -0.352 N 
ATOM      3  C   UNL A   1      36.487  22.479  23.849  1.00  0.00     0.251 C 
ATOM      4  O   UNL A   1      36.379  23.027  22.755  1.00  0.00    -0.269 OA
ATOM      5  H   UNL A   1      38.279  21.668  23.453  1.00  0.00     0.163 HD
BRANCH   3   6
ATOM      6  C   UNL A   1      35.322  22.499  24.766  1.00  0.00     0.039 A 
ATOM      7  C   UNL A   1      33.062  22.556  26.410  1.00  0.00     0.041 A 
ATOM      8  C   UNL A   1      34.020  23.564  26.486  1.00  0.00     0.027 A 
ATOM      9  C   UNL A   1      33.311  21.426  25.639  1.00  0.00     0.027 A 
ATOM     10  C   UNL A   1      35.144  23.537  25.672  1.00  0.00     0.016 A 
ATOM     11  C   UNL A   1      34.438  21.407  24.803  1.00  0.00     0.016 A 
BRANCH   7  12
ATOM     12  N   UNL A   1      31.840  22.715  27.075  1.00  0.00    -0.326 N 
ATOM     13  C   UNL A   1      30.755  23.410  26.580  1.00  0.00     0.226 C 
ATOM     14  O   UNL A   1      29.814  23.718  27.311  1.00  0.00    -0.275 OA
ATOM     15  H   UNL A   1      31.749  22.301  27.963  1.00  0.00     0.169 HD
BRANCH  13  16
ATOM     16  C   UNL A   1      30.667  23.585  25.069  1.00  0.00     0.128 C 
BRANCH  16  17
ATOM     17  C   UNL A   1      31.131  24.918  24.523  1.00  0.00     0.183 C 
ATOM     18  N   UNL A   1      30.542  27.976  22.466  1.00  0.00    -0.234 N 
ATOM     19  C   UNL A   1      30.567  26.762  22.879  1.00  0.00     0.319 C 
ATOM     20  H   UNL A   1      31.129  28.176  21.701  1.00  0.00     0.313 HD
ATOM     21  S   UNL A   1      29.677  25.966  24.135  1.00  0.00    -0.022 SA
ATOM     22  N   UNL A   1      31.456  25.872  22.350  1.00  0.00    -0.193 N 
ATOM     23  C   UNL A   1      31.916  24.911  23.225  1.00  0.00     0.324 C 
ATOM     24  C   UNL A   1      32.046  26.028  21.037  1.00  0.00     0.301 C 
ATOM     25  O   UNL A   1      32.912  24.222  23.032  1.00  0.00    -0.245 OA
BRANCH  18  26
ATOM     26  C   UNL A   1      29.794  29.057  22.954  1.00  0.00     0.128 A 
ATOM     27  C   UNL A   1      31.374  29.810  24.856  1.00  0.00     0.049 C 
ATOM     28  C   UNL A   1      30.174  29.964  23.968  1.00  0.00    -0.004 A 
ATOM     29  C   UNL A   1      29.387  31.114  24.195  1.00  0.00     0.008 A 
ATOM     30  C   UNL A   1      28.292  31.416  23.391  1.00  0.00     0.001 A 
ATOM     31  C   UNL A   1      28.675  29.381  22.166  1.00  0.00     0.052 A 
ATOM     32  C   UNL A   1      27.937  30.548  22.370  1.00  0.00     0.004 A 
ENDBRANCH  18  26
ENDBRANCH  16  17
ENDBRANCH  13  16
ENDBRANCH   7  12
ENDBRANCH   3   6
ENDBRANCH   1   2
BRANCH   1  33
ATOM     33  C   UNL A   1      38.885  22.606  26.282  1.00  0.00     0.042 C 
BRANCH  33  34
ATOM     34  C   UNL A   1      40.180  22.171  26.963  1.00  0.00     0.118 C 
BRANCH  34  35
ATOM     35  N   UNL A   1      41.362  22.567  26.194  1.00  0.00    -0.352 N 
ATOM     36  C   UNL A   1      41.904  23.837  26.028  1.00  0.00     0.251 C 
ATOM     37  H   UNL A   1      41.836  21.837  25.734  1.00  0.00     0.163 HD
ATOM     38  O   UNL A   1      42.895  24.026  25.371  1.00  0.00    -0.269 OA
BRANCH  36  39
ATOM     39  C   UNL A   1      41.214  24.945  26.725  1.00  0.00     0.039 A 
ATOM     40  C   UNL A   1      40.856  26.080  25.992  1.00  0.00     0.014 A 
ATOM     41  C   UNL A   1      41.197  24.947  28.115  1.00  0.00     0.014 A 
ATOM     42  C   UNL A   1      40.670  27.291  26.659  1.00  0.00     0.010 A 
ATOM     43  C   UNL A   1      41.099  26.163  28.763  1.00  0.00     0.010 A 
ATOM     44  C   UNL A   1      40.883  27.348  28.037  1.00  0.00    -0.014 A 
BRANCH  44  45
ATOM     45  C   UNL A   1      41.039  28.585  28.804  1.00  0.00     0.031 A 
ATOM     46  C   UNL A   1      39.949  29.596  28.850  1.00  0.00     0.074 A 
ATOM     47  C   UNL A   1      42.108  28.748  29.619  1.00  0.00     0.049 A 
ATOM     48  N   UNL A   1      40.068  30.774  29.366  1.00  0.00    -0.248 NA
ATOM     49  C   UNL A   1      38.626  29.361  28.279  1.00  0.00     0.031 C 
ATOM     50  C   UNL A   1      42.193  29.634  30.778  1.00  0.00     0.029 A 
ATOM     51  N   UNL A   1      43.404  28.271  29.467  1.00  0.00    -0.354 N 
ATOM     52  C   UNL A   1      38.821  31.349  29.423  1.00  0.00     0.074 A 
ATOM     53  C   UNL A   1      37.956  30.433  28.715  1.00  0.00     0.031 C 
ATOM     54  C   UNL A   1      43.480  29.817  31.100  1.00  0.00     0.029 A 
ATOM     55  C   UNL A   1      44.284  29.189  30.070  1.00  0.00     0.049 A 
ATOM     56  H   UNL A   1      43.662  27.434  29.017  1.00  0.00     0.167 HD
ATOM     57  C   UNL A   1      38.633  32.495  30.138  1.00  0.00     0.037 A 
ATOM     58  C   UNL A   1      45.246  29.832  29.341  1.00  0.00     0.037 A 
ATOM     59  C   UNL A   1      39.885  33.012  30.679  1.00  0.00     0.049 A 
ATOM     60  C   UNL A   1      45.068  31.334  29.229  1.00  0.00     0.074 A 
ATOM     61  C   UNL A   1      40.537  32.910  31.896  1.00  0.00     0.029 A 
ATOM     62  N   UNL A   1      40.800  33.557  29.801  1.00  0.00    -0.354 N 
ATOM     63  N   UNL A   1      44.120  32.015  29.811  1.00  0.00    -0.248 NA
ATOM     64  C   UNL A   1      45.904  32.177  28.367  1.00  0.00     0.031 C 
ATOM     65  C   UNL A   1      41.874  33.368  31.722  1.00  0.00     0.029 A 
ATOM     66  C   UNL A   1      42.028  33.748  30.402  1.00  0.00     0.049 A 
ATOM     67  H   UNL A   1      40.602  33.780  28.863  1.00  0.00     0.167 HD
ATOM     68  C   UNL A   1      44.124  33.295  29.324  1.00  0.00     0.074 A 
ATOM     69  C   UNL A   1      45.288  33.367  28.463  1.00  0.00     0.031 C 
ATOM     70  C   UNL A   1      43.139  34.196  29.586  1.00  0.00     0.037 A 
BRANCH  57  71
ATOM     71  C   UNL A   1      37.280  33.055  30.498  1.00  0.00     0.058 A 
ATOM     72  C   UNL A   1      36.426  33.565  29.497  1.00  0.00     0.135 A 
ATOM     73  C   UNL A   1      36.779  33.141  31.811  1.00  0.00     0.135 A 
ATOM     74  F   UNL A   1      36.744  33.487  28.198  1.00  0.00    -0.206 F 
ATOM     75  C   UNL A   1      35.219  34.200  29.784  1.00  0.00     0.059 A 
ATOM     76  C   UNL A   1      35.602  33.828  32.129  1.00  0.00     0.059 A 
ATOM     77  F   UNL A   1      37.394  32.529  32.832  1.00  0.00    -0.206 F 
ATOM     78  C   UNL A   1      34.830  34.361  31.106  1.00  0.00     0.060 A 
BRANCH  78  79
ATOM     79  S   UNL A   1      33.325  35.286  31.460  1.00  0.00     0.124 S 
ATOM     80  O   UNL A   1      32.584  35.163  30.208  1.00  0.00    -0.237 OA
ATOM     81  O   UNL A   1      32.778  34.551  32.595  1.00  0.00    -0.237 OA
ATOM     82  O   UNL A   1      33.814  36.629  31.758  1.00  0.00    -0.744 OA
ENDBRANCH  78  79
ENDBRANCH  57  71
BRANCH  58  83
ATOM     83  C   UNL A   1      45.832  28.964  28.287  1.00  0.00     0.058 A 
ATOM     84  C   UNL A   1      46.940  28.174  28.646  1.00  0.00     0.135 A 
ATOM     85  C   UNL A   1      45.072  28.567  27.178  1.00  0.00     0.135 A 
ATOM     86  F   UNL A   1      47.709  28.529  29.689  1.00  0.00    -0.206 F 
ATOM     87  C   UNL A   1      47.162  26.935  28.063  1.00  0.00     0.059 A 
ATOM     88  C   UNL A   1      45.286  27.333  26.569  1.00  0.00     0.059 A 
ATOM     89  F   UNL A   1      44.014  29.293  26.787  1.00  0.00    -0.206 F 
ATOM     90  C   UNL A   1      46.278  26.495  27.079  1.00  0.00     0.060 A 
BRANCH  90  91
ATOM     91  S   UNL A   1      46.302  24.736  26.668  1.00  0.00     0.124 S 
ATOM     92  O   UNL A   1      47.629  24.333  27.117  1.00  0.00    -0.237 OA
ATOM     93  O   UNL A   1      45.182  24.244  27.470  1.00  0.00    -0.237 OA
ATOM     94  O   UNL A   1      46.090  24.726  25.225  1.00  0.00    -0.744 OA
ENDBRANCH  90  91
ENDBRANCH  58  83
BRANCH  70  95
ATOM     95  C   UNL A   1      43.159  35.589  29.043  1.00  0.00     0.058 A 
ATOM     96  C   UNL A   1      43.492  36.682  29.856  1.00  0.00     0.135 A 
ATOM     97  C   UNL A   1      42.719  35.878  27.737  1.00  0.00     0.135 A 
ATOM     98  F   UNL A   1      43.908  36.488  31.119  1.00  0.00    -0.206 F 
ATOM     99  C   UNL A   1      43.398  37.994  29.399  1.00  0.00     0.059 A 
ATOM    100  C   UNL A   1      42.580  37.180  27.271  1.00  0.00     0.059 A 
ATOM    101  F   UNL A   1      42.430  34.891  26.874  1.00  0.00    -0.206 F 
ATOM    102  C   UNL A   1      42.933  38.235  28.106  1.00  0.00     0.060 A 
BRANCH 102 103
ATOM    103  S   UNL A   1      42.755  39.932  27.524  1.00  0.00     0.124 S 
ATOM    104  O   UNL A   1      43.446  39.909  26.239  1.00  0.00    -0.237 OA
ATOM    105  O   UNL A   1      41.303  40.065  27.457  1.00  0.00    -0.237 OA
ATOM    106  O   UNL A   1      43.413  40.713  28.567  1.00  0.00    -0.744 OA
ENDBRANCH 102 103
ENDBRANCH  70  95
ENDBRANCH  44  45
ENDBRANCH  36  39
ENDBRANCH  34  35
ENDBRANCH  33  34
ENDBRANCH   1  33
TORSDOF 17
ENDMDL
