MODEL 1
REMARK VINA RESULT:     -13.2      0.000      0.000
REMARK SMILES Cc1ncccc1OC1(C(=O)NCCCNC(=O)c2ccc(-c3c4nc(c(-c5c(F)cc(S(=O)(=O)[O-])cc5F)c5ccc([nH]5)c(-c5c(F)cc(S(=O)(=O)[O-])cc5F)c5nc(c(-c6c(F)cc(S(=O)(=O)[O-])cc6F)c6ccc3[nH]6)C=C5)C=C4)cc2)CCN(C(=O)c2ccc(O)nn2)CC1
REMARK SMILES IDX 14 1 13 2 12 3 10 4 11 5 9 7 85 8 98 9 86 10 97 11 87 12
REMARK SMILES IDX 88 13 89 14 8 15 7 16 1 17 2 18 3 19 4 20 6 21 5 22 90 23
REMARK SMILES IDX 91 24 96 25 92 26 95 27 93 28 94 29 15 31 16 32 17 33 18 35
REMARK SMILES IDX 19 36 20 37 84 38 21 39 83 40 22 41 23 42 24 43 77 44 25 45
REMARK SMILES IDX 82 46 76 47 78 48 26 49 81 50 75 51 74 52 27 54 61 55 40 56
REMARK SMILES IDX 60 57 41 58 44 59 59 60 79 61 42 62 43 63 58 65 80 66 45 67
REMARK SMILES IDX 28 68 29 69 38 70 30 71 31 72 37 73 39 74 32 75 33 76 34 77
REMARK SMILES IDX 35 78 36 79 62 80 63 81 72 82 64 83 65 84 71 85 73 86 66 87
REMARK SMILES IDX 67 88 68 89 69 90 70 91 46 92 47 93 56 94 48 95 49 96 55 97
REMARK SMILES IDX 57 98 50 99 51 100 52 101 53 102 54 103
REMARK H PARENT 12 6 94 30 16 34 78 53 44 64
REMARK Flexibility Score: inf
ROOT
ATOM      1  C   UNL A   1      38.851  22.661  26.383  1.00  0.00     0.042 C 
ENDROOT
BRANCH   1   2
ATOM      2  C   UNL A   1      37.639  23.524  26.059  1.00  0.00     0.118 C 
BRANCH   2   3
ATOM      3  N   UNL A   1      37.281  23.500  24.654  1.00  0.00    -0.353 N 
ATOM      4  C   UNL A   1      36.123  23.185  24.000  1.00  0.00     0.264 C 
ATOM      5  O   UNL A   1      36.161  23.387  22.778  1.00  0.00    -0.270 OA
ATOM      6  H   UNL A   1      38.017  23.761  24.054  1.00  0.00     0.163 HD
BRANCH   4   7
ATOM      7  C   UNL A   1      34.839  22.612  24.719  1.00  0.00     0.190 C 
ATOM      8  C   UNL A   1      33.677  22.686  23.736  1.00  0.00     0.080 C 
ATOM      9  C   UNL A   1      35.205  21.283  25.370  1.00  0.00     0.080 C 
ATOM     10  C   UNL A   1      33.201  21.374  23.141  1.00  0.00     0.124 C 
ATOM     11  C   UNL A   1      34.505  20.030  24.871  1.00  0.00     0.124 C 
ATOM     12  N   UNL A   1      33.397  20.165  23.928  1.00  0.00    -0.337 N 
ATOM     13  C   UNL A   1      32.655  19.039  23.507  1.00  0.00     0.274 C 
ATOM     14  O   UNL A   1      31.889  19.065  22.545  1.00  0.00    -0.267 OA
BRANCH   7  15
ATOM     15  O   UNL A   1      34.655  23.610  25.760  1.00  0.00    -0.475 OA
BRANCH  15  16
ATOM     16  C   UNL A   1      33.643  24.468  26.048  1.00  0.00     0.142 A 
ATOM     17  C   UNL A   1      31.639  23.060  26.891  1.00  0.00     0.071 C 
ATOM     18  C   UNL A   1      32.338  24.319  26.528  1.00  0.00     0.079 A 
ATOM     19  N   UNL A   1      31.503  25.388  26.727  1.00  0.00    -0.258 NA
ATOM     20  C   UNL A   1      31.944  26.624  26.442  1.00  0.00     0.111 A 
ATOM     21  C   UNL A   1      34.052  25.785  25.778  1.00  0.00     0.050 A 
ATOM     22  C   UNL A   1      33.207  26.875  25.969  1.00  0.00     0.024 A 
ENDBRANCH  15  16
ENDBRANCH   7  15
BRANCH  13  23
ATOM     23  C   UNL A   1      32.868  17.741  24.187  1.00  0.00     0.151 A 
ATOM     24  C   UNL A   1      32.312  17.523  25.438  1.00  0.00     0.042 A 
ATOM     25  N   UNL A   1      33.546  16.784  23.504  1.00  0.00    -0.142 NA
ATOM     26  C   UNL A   1      32.433  16.253  25.984  1.00  0.00     0.072 A 
ATOM     27  N   UNL A   1      33.664  15.542  24.044  1.00  0.00    -0.112 NA
ATOM     28  C   UNL A   1      33.110  15.306  25.249  1.00  0.00     0.230 A 
BRANCH  28  29
ATOM     29  O   UNL A   1      33.241  14.036  25.710  1.00  0.00    -0.492 OA
ATOM     30  H   UNL A   1      32.535  13.630  26.173  1.00  0.00     0.295 HD
ENDBRANCH  28  29
ENDBRANCH  13  23
ENDBRANCH   4   7
ENDBRANCH   2   3
ENDBRANCH   1   2
BRANCH   1  31
ATOM     31  C   UNL A   1      39.992  23.417  27.050  1.00  0.00     0.118 C 
BRANCH  31  32
ATOM     32  N   UNL A   1      40.797  24.165  26.091  1.00  0.00    -0.352 N 
ATOM     33  C   UNL A   1      41.178  25.485  26.068  1.00  0.00     0.251 C 
ATOM     34  H   UNL A   1      41.124  23.632  25.330  1.00  0.00     0.163 HD
ATOM     35  O   UNL A   1      41.687  25.932  25.042  1.00  0.00    -0.269 OA
BRANCH  33  36
ATOM     36  C   UNL A   1      40.973  26.373  27.237  1.00  0.00     0.039 A 
ATOM     37  C   UNL A   1      40.003  26.026  28.185  1.00  0.00     0.014 A 
ATOM     38  C   UNL A   1      41.682  27.567  27.385  1.00  0.00     0.014 A 
ATOM     39  C   UNL A   1      39.798  26.834  29.309  1.00  0.00     0.010 A 
ATOM     40  C   UNL A   1      41.536  28.329  28.543  1.00  0.00     0.010 A 
ATOM     41  C   UNL A   1      40.590  27.974  29.517  1.00  0.00    -0.014 A 
BRANCH  41  42
ATOM     42  C   UNL A   1      40.452  28.806  30.741  1.00  0.00     0.031 A 
ATOM     43  C   UNL A   1      39.411  29.892  30.807  1.00  0.00     0.074 A 
ATOM     44  C   UNL A   1      41.317  28.643  31.762  1.00  0.00     0.049 A 
ATOM     45  N   UNL A   1      39.214  30.794  31.734  1.00  0.00    -0.248 NA
ATOM     46  C   UNL A   1      38.490  29.999  29.662  1.00  0.00     0.031 C 
ATOM     47  C   UNL A   1      42.403  27.660  31.803  1.00  0.00     0.029 A 
ATOM     48  N   UNL A   1      41.430  29.310  32.956  1.00  0.00    -0.354 N 
ATOM     49  C   UNL A   1      38.172  31.591  31.275  1.00  0.00     0.074 A 
ATOM     50  C   UNL A   1      37.802  31.089  29.969  1.00  0.00     0.031 C 
ATOM     51  C   UNL A   1      43.060  27.778  32.969  1.00  0.00     0.029 A 
ATOM     52  C   UNL A   1      42.467  28.865  33.742  1.00  0.00     0.049 A 
ATOM     53  H   UNL A   1      40.826  30.039  33.225  1.00  0.00     0.167 HD
ATOM     54  C   UNL A   1      37.568  32.635  31.892  1.00  0.00     0.037 A 
ATOM     55  C   UNL A   1      42.898  29.288  34.946  1.00  0.00     0.037 A 
ATOM     56  C   UNL A   1      37.904  33.102  33.211  1.00  0.00     0.049 A 
ATOM     57  C   UNL A   1      42.186  30.422  35.628  1.00  0.00     0.074 A 
ATOM     58  C   UNL A   1      37.301  34.104  33.950  1.00  0.00     0.029 A 
ATOM     59  N   UNL A   1      38.931  32.594  33.992  1.00  0.00    -0.354 N 
ATOM     60  N   UNL A   1      41.170  31.132  35.199  1.00  0.00    -0.248 NA
ATOM     61  C   UNL A   1      42.675  30.811  36.958  1.00  0.00     0.031 C 
ATOM     62  C   UNL A   1      37.980  34.221  35.168  1.00  0.00     0.029 A 
ATOM     63  C   UNL A   1      38.985  33.268  35.200  1.00  0.00     0.049 A 
ATOM     64  H   UNL A   1      39.534  31.862  33.726  1.00  0.00     0.167 HD
ATOM     65  C   UNL A   1      40.885  32.036  36.214  1.00  0.00     0.074 A 
ATOM     66  C   UNL A   1      41.828  31.779  37.283  1.00  0.00     0.031 C 
ATOM     67  C   UNL A   1      39.926  32.995  36.257  1.00  0.00     0.037 A 
BRANCH  54  68
ATOM     68  C   UNL A   1      36.470  33.342  31.145  1.00  0.00     0.058 A 
ATOM     69  C   UNL A   1      36.740  34.154  30.033  1.00  0.00     0.135 A 
ATOM     70  C   UNL A   1      35.128  33.182  31.530  1.00  0.00     0.135 A 
ATOM     71  F   UNL A   1      38.007  34.352  29.633  1.00  0.00    -0.206 F 
ATOM     72  C   UNL A   1      35.723  34.808  29.346  1.00  0.00     0.059 A 
ATOM     73  C   UNL A   1      34.093  33.808  30.842  1.00  0.00     0.059 A 
ATOM     74  F   UNL A   1      34.815  32.416  32.586  1.00  0.00    -0.206 F 
ATOM     75  C   UNL A   1      34.402  34.632  29.761  1.00  0.00     0.060 A 
BRANCH  75  76
ATOM     76  S   UNL A   1      33.092  35.490  28.863  1.00  0.00     0.124 S 
ATOM     77  O   UNL A   1      33.856  36.487  28.118  1.00  0.00    -0.237 OA
ATOM     78  O   UNL A   1      32.502  34.420  28.066  1.00  0.00    -0.237 OA
ATOM     79  O   UNL A   1      32.242  36.017  29.926  1.00  0.00    -0.744 OA
ENDBRANCH  75  76
ENDBRANCH  54  68
BRANCH  55  80
ATOM     80  C   UNL A   1      44.048  28.608  35.597  1.00  0.00     0.058 A 
ATOM     81  C   UNL A   1      45.362  29.031  35.350  1.00  0.00     0.135 A 
ATOM     82  C   UNL A   1      43.858  27.547  36.495  1.00  0.00     0.135 A 
ATOM     83  F   UNL A   1      45.592  30.038  34.494  1.00  0.00    -0.206 F 
ATOM     84  C   UNL A   1      46.450  28.422  35.964  1.00  0.00     0.059 A 
ATOM     85  C   UNL A   1      44.929  26.934  37.138  1.00  0.00     0.059 A 
ATOM     86  F   UNL A   1      42.617  27.118  36.775  1.00  0.00    -0.206 F 
ATOM     87  C   UNL A   1      46.223  27.375  36.860  1.00  0.00     0.060 A 
BRANCH  87  88
ATOM     88  S   UNL A   1      47.638  26.632  37.701  1.00  0.00     0.124 S 
ATOM     89  O   UNL A   1      48.657  27.660  37.523  1.00  0.00    -0.237 OA
ATOM     90  O   UNL A   1      47.134  26.462  39.061  1.00  0.00    -0.237 OA
ATOM     91  O   UNL A   1      47.853  25.392  36.962  1.00  0.00    -0.744 OA
ENDBRANCH  87  88
ENDBRANCH  55  80
BRANCH  67  92
ATOM     92  C   UNL A   1      39.828  33.817  37.510  1.00  0.00     0.058 A 
ATOM     93  C   UNL A   1      40.586  34.985  37.682  1.00  0.00     0.135 A 
ATOM     94  C   UNL A   1      38.929  33.460  38.526  1.00  0.00     0.135 A 
ATOM     95  F   UNL A   1      41.465  35.365  36.741  1.00  0.00    -0.206 F 
ATOM     96  C   UNL A   1      40.467  35.764  38.828  1.00  0.00     0.059 A 
ATOM     97  C   UNL A   1      38.778  34.235  39.672  1.00  0.00     0.059 A 
ATOM     98  F   UNL A   1      38.175  32.355  38.405  1.00  0.00    -0.206 F 
ATOM     99  C   UNL A   1      39.560  35.380  39.819  1.00  0.00     0.060 A 
BRANCH  99 100
ATOM    100  S   UNL A   1      39.386  36.417  41.286  1.00  0.00     0.124 S 
ATOM    101  O   UNL A   1      38.347  35.708  42.025  1.00  0.00    -0.237 OA
ATOM    102  O   UNL A   1      40.724  36.368  41.867  1.00  0.00    -0.237 OA
ATOM    103  O   UNL A   1      38.994  37.713  40.739  1.00  0.00    -0.744 OA
ENDBRANCH  99 100
ENDBRANCH  67  92
ENDBRANCH  41  42
ENDBRANCH  33  36
ENDBRANCH  31  32
ENDBRANCH   1  31
TORSDOF 17
ENDMDL
MODEL 2
REMARK VINA RESULT:     -13.0      6.548     11.264
REMARK SMILES Cc1ncccc1OC1(C(=O)NCCCNC(=O)c2ccc(-c3c4nc(c(-c5c(F)cc(S(=O)(=O)[O-])cc5F)c5ccc([nH]5)c(-c5c(F)cc(S(=O)(=O)[O-])cc5F)c5nc(c(-c6c(F)cc(S(=O)(=O)[O-])cc6F)c6ccc3[nH]6)C=C5)C=C4)cc2)CCN(C(=O)c2ccc(O)nn2)CC1
REMARK SMILES IDX 14 1 13 2 12 3 10 4 11 5 9 7 85 8 98 9 86 10 97 11 87 12
REMARK SMILES IDX 88 13 89 14 8 15 7 16 1 17 2 18 3 19 4 20 6 21 5 22 90 23
REMARK SMILES IDX 91 24 96 25 92 26 95 27 93 28 94 29 15 31 16 32 17 33 18 35
REMARK SMILES IDX 19 36 20 37 84 38 21 39 83 40 22 41 23 42 24 43 77 44 25 45
REMARK SMILES IDX 82 46 76 47 78 48 26 49 81 50 75 51 74 52 27 54 61 55 40 56
REMARK SMILES IDX 60 57 41 58 44 59 59 60 79 61 42 62 43 63 58 65 80 66 45 67
REMARK SMILES IDX 28 68 29 69 38 70 30 71 31 72 37 73 39 74 32 75 33 76 34 77
REMARK SMILES IDX 35 78 36 79 62 80 63 81 72 82 64 83 65 84 71 85 73 86 66 87
REMARK SMILES IDX 67 88 68 89 69 90 70 91 46 92 47 93 56 94 48 95 49 96 55 97
REMARK SMILES IDX 57 98 50 99 51 100 52 101 53 102 54 103
REMARK H PARENT 12 6 94 30 16 34 78 53 44 64
REMARK Flexibility Score: inf
ROOT
ATOM      1  C   UNL A   1      33.918  30.563  27.243  1.00  0.00     0.042 C 
ENDROOT
BRANCH   1   2
ATOM      2  C   UNL A   1      33.333  29.459  26.372  1.00  0.00     0.118 C 
BRANCH   2   3
ATOM      3  N   UNL A   1      34.033  29.296  25.113  1.00  0.00    -0.353 N 
ATOM      4  C   UNL A   1      33.782  28.533  24.007  1.00  0.00     0.264 C 
ATOM      5  O   UNL A   1      34.557  28.739  23.063  1.00  0.00    -0.270 OA
ATOM      6  H   UNL A   1      34.848  29.843  25.040  1.00  0.00     0.163 HD
BRANCH   4   7
ATOM      7  C   UNL A   1      32.613  27.473  23.922  1.00  0.00     0.190 C 
ATOM      8  C   UNL A   1      32.471  27.047  22.465  1.00  0.00     0.080 C 
ATOM      9  C   UNL A   1      32.833  26.425  25.006  1.00  0.00     0.080 C 
ATOM     10  C   UNL A   1      32.959  25.655  22.111  1.00  0.00     0.124 C 
ATOM     11  C   UNL A   1      33.087  24.992  24.569  1.00  0.00     0.124 C 
ATOM     12  N   UNL A   1      32.935  24.644  23.158  1.00  0.00    -0.337 N 
ATOM     13  C   UNL A   1      33.069  23.309  22.717  1.00  0.00     0.274 C 
ATOM     14  O   UNL A   1      33.194  23.006  21.531  1.00  0.00    -0.267 OA
BRANCH   7  15
ATOM     15  O   UNL A   1      31.480  28.304  24.294  1.00  0.00    -0.475 OA
BRANCH  15  16
ATOM     16  C   UNL A   1      30.209  28.398  23.824  1.00  0.00     0.142 A 
ATOM     17  C   UNL A   1      29.142  26.044  23.982  1.00  0.00     0.071 C 
ATOM     18  C   UNL A   1      29.157  27.493  23.656  1.00  0.00     0.079 A 
ATOM     19  N   UNL A   1      27.944  27.865  23.136  1.00  0.00    -0.258 NA
ATOM     20  C   UNL A   1      27.758  29.141  22.761  1.00  0.00     0.111 A 
ATOM     21  C   UNL A   1      29.951  29.721  23.424  1.00  0.00     0.050 A 
ATOM     22  C   UNL A   1      28.727  30.105  22.887  1.00  0.00     0.024 A 
ENDBRANCH  15  16
ENDBRANCH   7  15
BRANCH  13  23
ATOM     23  C   UNL A   1      33.157  22.224  23.722  1.00  0.00     0.151 A 
ATOM     24  C   UNL A   1      34.385  21.905  24.280  1.00  0.00     0.042 A 
ATOM     25  N   UNL A   1      31.996  21.638  24.108  1.00  0.00    -0.142 NA
ATOM     26  C   UNL A   1      34.404  20.968  25.303  1.00  0.00     0.072 A 
ATOM     27  N   UNL A   1      32.019  20.719  25.110  1.00  0.00    -0.112 NA
ATOM     28  C   UNL A   1      33.201  20.413  25.679  1.00  0.00     0.230 A 
BRANCH  28  29
ATOM     29  O   UNL A   1      33.141  19.511  26.692  1.00  0.00    -0.492 OA
ATOM     30  H   UNL A   1      33.103  18.595  26.502  1.00  0.00     0.295 HD
ENDBRANCH  28  29
ENDBRANCH  13  23
ENDBRANCH   4   7
ENDBRANCH   2   3
ENDBRANCH   1   2
BRANCH   1  31
ATOM     31  C   UNL A   1      35.198  30.169  27.968  1.00  0.00     0.118 C 
BRANCH  31  32
ATOM     32  N   UNL A   1      35.319  30.812  29.271  1.00  0.00    -0.352 N 
ATOM     33  C   UNL A   1      36.354  30.834  30.174  1.00  0.00     0.251 C 
ATOM     34  H   UNL A   1      34.522  31.318  29.552  1.00  0.00     0.163 HD
ATOM     35  O   UNL A   1      36.142  31.276  31.301  1.00  0.00    -0.269 OA
BRANCH  33  36
ATOM     36  C   UNL A   1      37.702  30.324  29.823  1.00  0.00     0.039 A 
ATOM     37  C   UNL A   1      38.071  30.268  28.475  1.00  0.00     0.014 A 
ATOM     38  C   UNL A   1      38.584  29.852  30.797  1.00  0.00     0.014 A 
ATOM     39  C   UNL A   1      39.342  29.809  28.113  1.00  0.00     0.010 A 
ATOM     40  C   UNL A   1      39.877  29.472  30.445  1.00  0.00     0.010 A 
ATOM     41  C   UNL A   1      40.271  29.442  29.099  1.00  0.00    -0.014 A 
BRANCH  41  42
ATOM     42  C   UNL A   1      41.656  29.028  28.750  1.00  0.00     0.031 A 
ATOM     43  C   UNL A   1      42.767  30.045  28.717  1.00  0.00     0.074 A 
ATOM     44  C   UNL A   1      41.901  27.756  28.380  1.00  0.00     0.049 A 
ATOM     45  N   UNL A   1      44.007  29.903  28.326  1.00  0.00    -0.248 NA
ATOM     46  C   UNL A   1      42.428  31.411  29.152  1.00  0.00     0.031 C 
ATOM     47  C   UNL A   1      40.902  26.685  28.319  1.00  0.00     0.029 A 
ATOM     48  N   UNL A   1      43.061  27.149  27.968  1.00  0.00    -0.354 N 
ATOM     49  C   UNL A   1      44.588  31.160  28.438  1.00  0.00     0.074 A 
ATOM     50  C   UNL A   1      43.555  32.063  28.899  1.00  0.00     0.031 C 
ATOM     51  C   UNL A   1      41.497  25.551  27.914  1.00  0.00     0.029 A 
ATOM     52  C   UNL A   1      42.907  25.821  27.650  1.00  0.00     0.049 A 
ATOM     53  H   UNL A   1      43.923  27.621  27.907  1.00  0.00     0.167 HD
ATOM     54  C   UNL A   1      45.870  31.527  28.194  1.00  0.00     0.037 A 
ATOM     55  C   UNL A   1      43.798  24.921  27.190  1.00  0.00     0.037 A 
ATOM     56  C   UNL A   1      46.907  30.619  27.783  1.00  0.00     0.049 A 
ATOM     57  C   UNL A   1      45.223  25.342  26.965  1.00  0.00     0.074 A 
ATOM     58  C   UNL A   1      48.251  30.882  27.582  1.00  0.00     0.029 A 
ATOM     59  N   UNL A   1      46.720  29.272  27.515  1.00  0.00    -0.354 N 
ATOM     60  N   UNL A   1      45.765  26.525  27.124  1.00  0.00    -0.248 NA
ATOM     61  C   UNL A   1      46.158  24.307  26.504  1.00  0.00     0.031 C 
ATOM     62  C   UNL A   1      48.873  29.698  27.168  1.00  0.00     0.029 A 
ATOM     63  C   UNL A   1      47.921  28.692  27.142  1.00  0.00     0.049 A 
ATOM     64  H   UNL A   1      45.859  28.797  27.580  1.00  0.00     0.167 HD
ATOM     65  C   UNL A   1      47.109  26.372  26.803  1.00  0.00     0.074 A 
ATOM     66  C   UNL A   1      47.300  24.981  26.449  1.00  0.00     0.031 C 
ATOM     67  C   UNL A   1      48.096  27.303  26.800  1.00  0.00     0.037 A 
BRANCH  54  68
ATOM     68  C   UNL A   1      46.223  32.978  28.375  1.00  0.00     0.058 A 
ATOM     69  C   UNL A   1      46.128  33.896  27.318  1.00  0.00     0.135 A 
ATOM     70  C   UNL A   1      46.634  33.461  29.628  1.00  0.00     0.135 A 
ATOM     71  F   UNL A   1      45.755  33.484  26.096  1.00  0.00    -0.206 F 
ATOM     72  C   UNL A   1      46.458  35.237  27.488  1.00  0.00     0.059 A 
ATOM     73  C   UNL A   1      46.946  34.803  29.827  1.00  0.00     0.059 A 
ATOM     74  F   UNL A   1      46.741  32.625  30.673  1.00  0.00    -0.206 F 
ATOM     75  C   UNL A   1      46.870  35.680  28.746  1.00  0.00     0.060 A 
BRANCH  75  76
ATOM     76  S   UNL A   1      47.299  37.421  28.951  1.00  0.00     0.124 S 
ATOM     77  O   UNL A   1      46.301  38.068  28.104  1.00  0.00    -0.237 OA
ATOM     78  O   UNL A   1      47.134  37.620  30.388  1.00  0.00    -0.237 OA
ATOM     79  O   UNL A   1      48.674  37.490  28.466  1.00  0.00    -0.744 OA
ENDBRANCH  75  76
ENDBRANCH  54  68
BRANCH  55  80
ATOM     80  C   UNL A   1      43.369  23.520  26.942  1.00  0.00     0.058 A 
ATOM     81  C   UNL A   1      43.108  22.652  28.012  1.00  0.00     0.135 A 
ATOM     82  C   UNL A   1      43.184  23.032  25.640  1.00  0.00     0.135 A 
ATOM     83  F   UNL A   1      43.277  23.074  29.274  1.00  0.00    -0.206 F 
ATOM     84  C   UNL A   1      42.686  21.343  27.801  1.00  0.00     0.059 A 
ATOM     85  C   UNL A   1      42.743  21.733  25.404  1.00  0.00     0.059 A 
ATOM     86  F   UNL A   1      43.405  23.830  24.585  1.00  0.00    -0.206 F 
ATOM     87  C   UNL A   1      42.504  20.894  26.492  1.00  0.00     0.060 A 
BRANCH  87  88
ATOM     88  S   UNL A   1      41.894  19.214  26.231  1.00  0.00     0.124 S 
ATOM     89  O   UNL A   1      40.463  19.443  26.068  1.00  0.00    -0.237 OA
ATOM     90  O   UNL A   1      42.617  18.808  25.029  1.00  0.00    -0.237 OA
ATOM     91  O   UNL A   1      42.289  18.522  27.453  1.00  0.00    -0.744 OA
ENDBRANCH  87  88
ENDBRANCH  55  80
BRANCH  67  92
ATOM     92  C   UNL A   1      49.477  26.841  26.434  1.00  0.00     0.058 A 
ATOM     93  C   UNL A   1      50.341  26.282  27.387  1.00  0.00     0.135 A 
ATOM     94  C   UNL A   1      49.921  26.911  25.104  1.00  0.00     0.135 A 
ATOM     95  F   UNL A   1      49.965  26.199  28.673  1.00  0.00    -0.206 F 
ATOM     96  C   UNL A   1      51.606  25.822  27.038  1.00  0.00     0.059 A 
ATOM     97  C   UNL A   1      51.174  26.439  24.728  1.00  0.00     0.059 A 
ATOM     98  F   UNL A   1      49.127  27.430  24.153  1.00  0.00    -0.206 F 
ATOM     99  C   UNL A   1      52.014  25.906  25.705  1.00  0.00     0.060 A 
BRANCH  99 100
ATOM    100  S   UNL A   1      53.644  25.273  25.254  1.00  0.00     0.124 S 
ATOM    101  O   UNL A   1      54.491  25.900  26.263  1.00  0.00    -0.237 OA
ATOM    102  O   UNL A   1      53.468  23.830  25.382  1.00  0.00    -0.237 OA
ATOM    103  O   UNL A   1      53.828  25.757  23.889  1.00  0.00    -0.744 OA
ENDBRANCH  99 100
ENDBRANCH  67  92
ENDBRANCH  41  42
ENDBRANCH  33  36
ENDBRANCH  31  32
ENDBRANCH   1  31
TORSDOF 17
ENDMDL
MODEL 3
REMARK VINA RESULT:     -13.0      1.676      8.980
REMARK SMILES Cc1ncccc1OC1(C(=O)NCCCNC(=O)c2ccc(-c3c4nc(c(-c5c(F)cc(S(=O)(=O)[O-])cc5F)c5ccc([nH]5)c(-c5c(F)cc(S(=O)(=O)[O-])cc5F)c5nc(c(-c6c(F)cc(S(=O)(=O)[O-])cc6F)c6ccc3[nH]6)C=C5)C=C4)cc2)CCN(C(=O)c2ccc(O)nn2)CC1
REMARK SMILES IDX 14 1 13 2 12 3 10 4 11 5 9 7 85 8 98 9 86 10 97 11 87 12
REMARK SMILES IDX 88 13 89 14 8 15 7 16 1 17 2 18 3 19 4 20 6 21 5 22 90 23
REMARK SMILES IDX 91 24 96 25 92 26 95 27 93 28 94 29 15 31 16 32 17 33 18 35
REMARK SMILES IDX 19 36 20 37 84 38 21 39 83 40 22 41 23 42 24 43 77 44 25 45
REMARK SMILES IDX 82 46 76 47 78 48 26 49 81 50 75 51 74 52 27 54 61 55 40 56
REMARK SMILES IDX 60 57 41 58 44 59 59 60 79 61 42 62 43 63 58 65 80 66 45 67
REMARK SMILES IDX 28 68 29 69 38 70 30 71 31 72 37 73 39 74 32 75 33 76 34 77
REMARK SMILES IDX 35 78 36 79 62 80 63 81 72 82 64 83 65 84 71 85 73 86 66 87
REMARK SMILES IDX 67 88 68 89 69 90 70 91 46 92 47 93 56 94 48 95 49 96 55 97
REMARK SMILES IDX 57 98 50 99 51 100 52 101 53 102 54 103
REMARK H PARENT 12 6 94 30 16 34 78 53 44 64
REMARK Flexibility Score: inf
ROOT
ATOM      1  C   UNL A   1      38.221  22.780  25.865  1.00  0.00     0.042 C 
ENDROOT
BRANCH   1   2
ATOM      2  C   UNL A   1      36.848  23.423  25.715  1.00  0.00     0.118 C 
BRANCH   2   3
ATOM      3  N   UNL A   1      35.968  23.155  26.835  1.00  0.00    -0.353 N 
ATOM      4  C   UNL A   1      34.631  22.884  26.916  1.00  0.00     0.264 C 
ATOM      5  O   UNL A   1      34.241  22.596  28.056  1.00  0.00    -0.270 OA
ATOM      6  H   UNL A   1      36.423  23.171  27.708  1.00  0.00     0.163 HD
BRANCH   4   7
ATOM      7  C   UNL A   1      33.651  22.929  25.678  1.00  0.00     0.190 C 
ATOM      8  C   UNL A   1      32.244  22.631  26.181  1.00  0.00     0.080 C 
ATOM      9  C   UNL A   1      33.927  24.206  24.892  1.00  0.00     0.080 C 
ATOM     10  C   UNL A   1      31.276  23.797  26.233  1.00  0.00     0.124 C 
ATOM     11  C   UNL A   1      32.813  25.235  24.794  1.00  0.00     0.124 C 
ATOM     12  N   UNL A   1      31.484  24.890  25.294  1.00  0.00    -0.337 N 
ATOM     13  C   UNL A   1      30.395  25.776  25.142  1.00  0.00     0.274 C 
ATOM     14  O   UNL A   1      29.335  25.643  25.752  1.00  0.00    -0.267 OA
BRANCH   7  15
ATOM     15  O   UNL A   1      34.143  21.793  24.915  1.00  0.00    -0.475 OA
BRANCH  15  16
ATOM     16  C   UNL A   1      33.528  20.713  24.367  1.00  0.00     0.142 A 
ATOM     17  C   UNL A   1      32.046  21.561  22.419  1.00  0.00     0.071 C 
ATOM     18  C   UNL A   1      32.628  20.527  23.314  1.00  0.00     0.079 A 
ATOM     19  N   UNL A   1      32.148  19.290  22.968  1.00  0.00    -0.258 NA
ATOM     20  C   UNL A   1      32.543  18.216  23.669  1.00  0.00     0.111 A 
ATOM     21  C   UNL A   1      33.914  19.551  25.057  1.00  0.00     0.050 A 
ATOM     22  C   UNL A   1      33.425  18.293  24.718  1.00  0.00     0.024 A 
ENDBRANCH  15  16
ENDBRANCH   7  15
BRANCH  13  23
ATOM     23  C   UNL A   1      30.554  26.973  24.285  1.00  0.00     0.151 A 
ATOM     24  C   UNL A   1      31.080  28.137  24.823  1.00  0.00     0.042 A 
ATOM     25  N   UNL A   1      30.242  26.843  22.970  1.00  0.00    -0.142 NA
ATOM     26  C   UNL A   1      31.326  29.194  23.958  1.00  0.00     0.072 A 
ATOM     27  N   UNL A   1      30.482  27.882  22.127  1.00  0.00    -0.112 NA
ATOM     28  C   UNL A   1      31.014  29.013  22.629  1.00  0.00     0.230 A 
BRANCH  28  29
ATOM     29  O   UNL A   1      31.254  29.994  21.722  1.00  0.00    -0.492 OA
ATOM     30  H   UNL A   1      31.855  29.845  21.019  1.00  0.00     0.295 HD
ENDBRANCH  28  29
ENDBRANCH  13  23
ENDBRANCH   4   7
ENDBRANCH   2   3
ENDBRANCH   1   2
BRANCH   1  31
ATOM     31  C   UNL A   1      39.166  23.540  26.786  1.00  0.00     0.118 C 
BRANCH  31  32
ATOM     32  N   UNL A   1      40.474  23.759  26.180  1.00  0.00    -0.352 N 
ATOM     33  C   UNL A   1      41.418  24.734  26.399  1.00  0.00     0.251 C 
ATOM     34  H   UNL A   1      40.724  23.096  25.497  1.00  0.00     0.163 HD
ATOM     35  O   UNL A   1      42.359  24.828  25.614  1.00  0.00    -0.269 OA
BRANCH  33  36
ATOM     36  C   UNL A   1      41.313  25.673  27.542  1.00  0.00     0.039 A 
ATOM     37  C   UNL A   1      42.409  26.488  27.847  1.00  0.00     0.014 A 
ATOM     38  C   UNL A   1      40.174  25.724  28.348  1.00  0.00     0.014 A 
ATOM     39  C   UNL A   1      42.334  27.398  28.907  1.00  0.00     0.010 A 
ATOM     40  C   UNL A   1      40.069  26.685  29.352  1.00  0.00     0.010 A 
ATOM     41  C   UNL A   1      41.148  27.531  29.646  1.00  0.00    -0.014 A 
BRANCH  41  42
ATOM     42  C   UNL A   1      41.011  28.545  30.724  1.00  0.00     0.031 A 
ATOM     43  C   UNL A   1      41.886  28.474  31.948  1.00  0.00     0.074 A 
ATOM     44  C   UNL A   1      40.044  29.481  30.644  1.00  0.00     0.049 A 
ATOM     45  N   UNL A   1      41.838  29.192  33.042  1.00  0.00    -0.248 NA
ATOM     46  C   UNL A   1      42.932  27.438  31.957  1.00  0.00     0.031 C 
ATOM     47  C   UNL A   1      39.097  29.626  29.535  1.00  0.00     0.029 A 
ATOM     48  N   UNL A   1      39.685  30.476  31.518  1.00  0.00    -0.354 N 
ATOM     49  C   UNL A   1      42.822  28.677  33.878  1.00  0.00     0.074 A 
ATOM     50  C   UNL A   1      43.427  27.563  33.180  1.00  0.00     0.031 C 
ATOM     51  C   UNL A   1      38.279  30.661  29.788  1.00  0.00     0.029 A 
ATOM     52  C   UNL A   1      38.617  31.228  31.090  1.00  0.00     0.049 A 
ATOM     53  H   UNL A   1      40.149  30.636  32.371  1.00  0.00     0.167 HD
ATOM     54  C   UNL A   1      43.198  29.104  35.108  1.00  0.00     0.037 A 
ATOM     55  C   UNL A   1      37.976  32.255  31.681  1.00  0.00     0.037 A 
ATOM     56  C   UNL A   1      42.628  30.242  35.779  1.00  0.00     0.049 A 
ATOM     57  C   UNL A   1      38.437  32.736  33.028  1.00  0.00     0.074 A 
ATOM     58  C   UNL A   1      42.992  30.796  36.994  1.00  0.00     0.029 A 
ATOM     59  N   UNL A   1      41.578  31.005  35.292  1.00  0.00    -0.354 N 
ATOM     60  N   UNL A   1      39.402  32.268  33.782  1.00  0.00    -0.248 NA
ATOM     61  C   UNL A   1      37.726  33.886  33.603  1.00  0.00     0.031 C 
ATOM     62  C   UNL A   1      42.145  31.880  37.253  1.00  0.00     0.029 A 
ATOM     63  C   UNL A   1      41.275  32.019  36.184  1.00  0.00     0.049 A 
ATOM     64  H   UNL A   1      41.116  30.848  34.436  1.00  0.00     0.167 HD
ATOM     65  C   UNL A   1      39.429  33.079  34.910  1.00  0.00     0.074 A 
ATOM     66  C   UNL A   1      38.390  34.073  34.737  1.00  0.00     0.031 C 
ATOM     67  C   UNL A   1      40.242  33.005  35.993  1.00  0.00     0.037 A 
BRANCH  54  68
ATOM     68  C   UNL A   1      44.287  28.337  35.806  1.00  0.00     0.058 A 
ATOM     69  C   UNL A   1      45.643  28.645  35.615  1.00  0.00     0.135 A 
ATOM     70  C   UNL A   1      43.971  27.300  36.698  1.00  0.00     0.135 A 
ATOM     71  F   UNL A   1      46.001  29.618  34.761  1.00  0.00    -0.206 F 
ATOM     72  C   UNL A   1      46.649  27.933  36.259  1.00  0.00     0.059 A 
ATOM     73  C   UNL A   1      44.959  26.589  37.372  1.00  0.00     0.059 A 
ATOM     74  F   UNL A   1      42.690  26.964  36.917  1.00  0.00    -0.206 F 
ATOM     75  C   UNL A   1      46.297  26.903  37.133  1.00  0.00     0.060 A 
BRANCH  75  76
ATOM     76  S   UNL A   1      47.612  25.983  37.960  1.00  0.00     0.124 S 
ATOM     77  O   UNL A   1      48.781  26.391  37.187  1.00  0.00    -0.237 OA
ATOM     78  O   UNL A   1      47.546  26.496  39.325  1.00  0.00    -0.237 OA
ATOM     79  O   UNL A   1      47.206  24.591  37.797  1.00  0.00    -0.744 OA
ENDBRANCH  75  76
ENDBRANCH  54  68
BRANCH  55  80
ATOM     80  C   UNL A   1      36.845  32.918  30.981  1.00  0.00     0.058 A 
ATOM     81  C   UNL A   1      37.078  33.772  29.894  1.00  0.00     0.135 A 
ATOM     82  C   UNL A   1      35.514  32.689  31.363  1.00  0.00     0.135 A 
ATOM     83  F   UNL A   1      38.334  34.024  29.498  1.00  0.00    -0.206 F 
ATOM     84  C   UNL A   1      36.032  34.386  29.213  1.00  0.00     0.059 A 
ATOM     85  C   UNL A   1      34.450  33.276  30.685  1.00  0.00     0.059 A 
ATOM     86  F   UNL A   1      35.241  31.866  32.388  1.00  0.00    -0.206 F 
ATOM     87  C   UNL A   1      34.720  34.128  29.615  1.00  0.00     0.060 A 
BRANCH  87  88
ATOM     88  S   UNL A   1      33.366  34.879  28.685  1.00  0.00     0.124 S 
ATOM     89  O   UNL A   1      33.064  33.834  27.713  1.00  0.00    -0.237 OA
ATOM     90  O   UNL A   1      32.362  35.098  29.722  1.00  0.00    -0.237 OA
ATOM     91  O   UNL A   1      33.968  36.093  28.142  1.00  0.00    -0.744 OA
ENDBRANCH  87  88
ENDBRANCH  55  80
BRANCH  67  92
ATOM     92  C   UNL A   1      40.063  34.046  37.062  1.00  0.00     0.058 A 
ATOM     93  C   UNL A   1      40.695  35.296  36.982  1.00  0.00     0.135 A 
ATOM     94  C   UNL A   1      39.207  33.809  38.148  1.00  0.00     0.135 A 
ATOM     95  F   UNL A   1      41.527  35.568  35.965  1.00  0.00    -0.206 F 
ATOM     96  C   UNL A   1      40.499  36.271  37.954  1.00  0.00     0.059 A 
ATOM     97  C   UNL A   1      38.980  34.776  39.122  1.00  0.00     0.059 A 
ATOM     98  F   UNL A   1      38.572  32.631  38.265  1.00  0.00    -0.206 F 
ATOM     99  C   UNL A   1      39.639  36.001  39.022  1.00  0.00     0.060 A 
BRANCH  99 100
ATOM    100  S   UNL A   1      39.361  37.285  40.260  1.00  0.00     0.124 S 
ATOM    101  O   UNL A   1      40.726  37.711  40.552  1.00  0.00    -0.237 OA
ATOM    102  O   UNL A   1      38.538  38.248  39.536  1.00  0.00    -0.237 OA
ATOM    103  O   UNL A   1      38.680  36.574  41.338  1.00  0.00    -0.744 OA
ENDBRANCH  99 100
ENDBRANCH  67  92
ENDBRANCH  41  42
ENDBRANCH  33  36
ENDBRANCH  31  32
ENDBRANCH   1  31
TORSDOF 17
ENDMDL
