MODEL 1
REMARK VINA RESULT:     -11.2      0.000      0.000
REMARK SMILES COCc1cc(SCC(=O)NCCCNC(=O)c2ccc(-c3c4nc(c(-c5c(F)cc(S(=O)(=O)[O-])cc5F)c5ccc([nH]5)c(-c5c(F)cc(S(=O)(=O)[O-])cc5F)c5nc(c(-c6c(F)cc(S(=O)(=O)[O-])cc6F)c6ccc3[nH]6)C=C5)C=C4)cc2)nc(-c2cccnc2)n1
REMARK SMILES IDX 12 1 11 2 9 3 10 4 8 6 7 7 6 8 4 9 5 10 92 11 85 12 84 13
REMARK SMILES IDX 3 14 2 15 1 16 86 17 87 18 91 19 88 20 90 21 89 22 13 23
REMARK SMILES IDX 14 24 15 25 16 26 17 28 18 29 19 30 83 31 20 32 82 33 21 34
REMARK SMILES IDX 22 35 23 36 76 37 24 38 81 39 75 40 77 41 25 42 80 43 74 44
REMARK SMILES IDX 73 45 26 47 60 48 39 49 59 50 40 51 43 52 58 53 78 54 41 55
REMARK SMILES IDX 42 56 57 58 79 59 44 60 27 61 28 62 37 63 29 64 30 65 36 66
REMARK SMILES IDX 38 67 31 68 32 69 33 70 34 71 35 72 61 73 62 74 71 75 63 76
REMARK SMILES IDX 64 77 70 78 72 79 65 80 66 81 67 82 68 83 69 84 45 85 46 86
REMARK SMILES IDX 55 87 47 88 48 89 54 90 56 91 49 92 50 93 51 94 52 95 53 96
REMARK H PARENT 11 5 15 27 77 46 43 57
REMARK Flexibility Score: inf
ROOT
ATOM      1  C   UNL A   1      33.383  29.309  26.221  1.00  0.00     0.117 C 
ENDROOT
BRANCH   1   2
ATOM      2  N   UNL A   1      33.789  29.368  24.830  1.00  0.00    -0.355 N 
ATOM      3  C   UNL A   1      33.893  28.372  23.910  1.00  0.00     0.230 C 
ATOM      4  O   UNL A   1      34.309  28.672  22.787  1.00  0.00    -0.274 OA
ATOM      5  H   UNL A   1      34.023  30.266  24.501  1.00  0.00     0.163 HD
BRANCH   3   6
ATOM      6  C   UNL A   1      33.443  26.958  24.215  1.00  0.00     0.176 C 
BRANCH   6   7
ATOM      7  S   UNL A   1      33.487  25.808  22.809  1.00  0.00    -0.096 SA
BRANCH   7   8
ATOM      8  C   UNL A   1      33.908  24.219  23.492  1.00  0.00     0.101 A 
ATOM      9  C   UNL A   1      33.595  21.958  24.040  1.00  0.00     0.071 A 
ATOM     10  C   UNL A   1      33.053  23.145  23.590  1.00  0.00     0.062 A 
ATOM     11  N   UNL A   1      34.881  21.859  24.431  1.00  0.00    -0.230 NA
ATOM     12  C   UNL A   1      35.610  22.984  24.417  1.00  0.00     0.162 A 
ATOM     13  N   UNL A   1      35.176  24.163  23.946  1.00  0.00    -0.222 NA
BRANCH   9  14
ATOM     14  C   UNL A   1      32.742  20.721  24.184  1.00  0.00     0.215 C 
BRANCH  14  15
ATOM     15  O   UNL A   1      33.317  19.762  25.079  1.00  0.00    -0.378 OA
ATOM     16  C   UNL A   1      33.572  18.508  24.449  1.00  0.00     0.195 C 
ENDBRANCH  14  15
ENDBRANCH   9  14
BRANCH  12  17
ATOM     17  C   UNL A   1      36.893  22.934  25.109  1.00  0.00     0.038 A 
ATOM     18  C   UNL A   1      37.366  24.002  25.885  1.00  0.00     0.015 A 
ATOM     19  C   UNL A   1      37.676  21.782  25.106  1.00  0.00     0.123 A 
ATOM     20  C   UNL A   1      38.552  23.877  26.608  1.00  0.00     0.021 A 
ATOM     21  N   UNL A   1      38.836  21.629  25.795  1.00  0.00    -0.264 NA
ATOM     22  C   UNL A   1      39.248  22.683  26.528  1.00  0.00     0.111 A 
ENDBRANCH  12  17
ENDBRANCH   7   8
ENDBRANCH   6   7
ENDBRANCH   3   6
ENDBRANCH   1   2
BRANCH   1  23
ATOM     23  C   UNL A   1      34.544  28.920  27.133  1.00  0.00     0.042 C 
BRANCH  23  24
ATOM     24  C   UNL A   1      35.397  30.096  27.605  1.00  0.00     0.118 C 
BRANCH  24  25
ATOM     25  N   UNL A   1      35.330  30.305  29.045  1.00  0.00    -0.352 N 
ATOM     26  C   UNL A   1      36.289  30.125  30.010  1.00  0.00     0.251 C 
ATOM     27  H   UNL A   1      34.460  30.624  29.379  1.00  0.00     0.163 HD
ATOM     28  O   UNL A   1      35.966  30.192  31.197  1.00  0.00    -0.269 OA
BRANCH  26  29
ATOM     29  C   UNL A   1      37.693  29.836  29.643  1.00  0.00     0.039 A 
ATOM     30  C   UNL A   1      38.615  29.568  30.658  1.00  0.00     0.014 A 
ATOM     31  C   UNL A   1      38.113  29.857  28.309  1.00  0.00     0.014 A 
ATOM     32  C   UNL A   1      39.940  29.260  30.333  1.00  0.00     0.010 A 
ATOM     33  C   UNL A   1      39.413  29.474  27.983  1.00  0.00     0.010 A 
ATOM     34  C   UNL A   1      40.343  29.176  28.990  1.00  0.00    -0.014 A 
BRANCH  34  35
ATOM     35  C   UNL A   1      41.729  28.783  28.622  1.00  0.00     0.031 A 
ATOM     36  C   UNL A   1      42.820  29.819  28.561  1.00  0.00     0.074 A 
ATOM     37  C   UNL A   1      41.993  27.505  28.281  1.00  0.00     0.049 A 
ATOM     38  N   UNL A   1      44.068  29.683  28.190  1.00  0.00    -0.248 NA
ATOM     39  C   UNL A   1      42.455  31.192  28.941  1.00  0.00     0.031 C 
ATOM     40  C   UNL A   1      41.013  26.417  28.257  1.00  0.00     0.029 A 
ATOM     41  N   UNL A   1      43.161  26.906  27.878  1.00  0.00    -0.354 N 
ATOM     42  C   UNL A   1      44.630  30.952  28.277  1.00  0.00     0.074 A 
ATOM     43  C   UNL A   1      43.575  31.854  28.685  1.00  0.00     0.031 C 
ATOM     44  C   UNL A   1      41.623  25.283  27.878  1.00  0.00     0.029 A 
ATOM     45  C   UNL A   1      43.025  25.567  27.591  1.00  0.00     0.049 A 
ATOM     46  H   UNL A   1      44.014  27.389  27.801  1.00  0.00     0.167 HD
ATOM     47  C   UNL A   1      45.914  31.328  28.058  1.00  0.00     0.037 A 
ATOM     48  C   UNL A   1      43.925  24.671  27.139  1.00  0.00     0.037 A 
ATOM     49  C   UNL A   1      46.965  30.422  27.674  1.00  0.00     0.049 A 
ATOM     50  C   UNL A   1      45.343  25.114  26.898  1.00  0.00     0.074 A 
ATOM     51  C   UNL A   1      48.309  30.694  27.483  1.00  0.00     0.029 A 
ATOM     52  N   UNL A   1      46.793  29.069  27.415  1.00  0.00    -0.354 N 
ATOM     53  N   UNL A   1      45.872  26.305  27.048  1.00  0.00    -0.248 NA
ATOM     54  C   UNL A   1      46.290  24.091  26.433  1.00  0.00     0.031 C 
ATOM     55  C   UNL A   1      48.938  29.519  27.062  1.00  0.00     0.029 A 
ATOM     56  C   UNL A   1      48.001  28.499  27.047  1.00  0.00     0.049 A 
ATOM     57  H   UNL A   1      45.938  28.586  27.483  1.00  0.00     0.167 HD
ATOM     58  C   UNL A   1      47.219  26.167  26.728  1.00  0.00     0.074 A 
ATOM     59  C   UNL A   1      47.425  24.775  26.386  1.00  0.00     0.031 C 
ATOM     60  C   UNL A   1      48.196  27.108  26.720  1.00  0.00     0.037 A 
BRANCH  47  61
ATOM     61  C   UNL A   1      46.255  32.784  28.230  1.00  0.00     0.058 A 
ATOM     62  C   UNL A   1      46.123  33.705  27.177  1.00  0.00     0.135 A 
ATOM     63  C   UNL A   1      46.683  33.276  29.475  1.00  0.00     0.135 A 
ATOM     64  F   UNL A   1      45.730  33.289  25.962  1.00  0.00    -0.206 F 
ATOM     65  C   UNL A   1      46.431  35.051  27.342  1.00  0.00     0.059 A 
ATOM     66  C   UNL A   1      46.968  34.625  29.671  1.00  0.00     0.059 A 
ATOM     67  F   UNL A   1      46.827  32.443  30.517  1.00  0.00    -0.206 F 
ATOM     68  C   UNL A   1      46.854  35.502  28.594  1.00  0.00     0.060 A 
BRANCH  68  69
ATOM     69  S   UNL A   1      47.244  37.253  28.791  1.00  0.00     0.124 S 
ATOM     70  O   UNL A   1      48.675  37.201  29.074  1.00  0.00    -0.237 OA
ATOM     71  O   UNL A   1      46.875  37.804  27.491  1.00  0.00    -0.237 OA
ATOM     72  O   UNL A   1      46.400  37.668  29.907  1.00  0.00    -0.744 OA
ENDBRANCH  68  69
ENDBRANCH  47  61
BRANCH  48  73
ATOM     73  C   UNL A   1      43.515  23.261  26.901  1.00  0.00     0.058 A 
ATOM     74  C   UNL A   1      43.330  22.371  27.970  1.00  0.00     0.135 A 
ATOM     75  C   UNL A   1      43.288  22.775  25.603  1.00  0.00     0.135 A 
ATOM     76  F   UNL A   1      43.540  22.784  29.230  1.00  0.00    -0.206 F 
ATOM     77  C   UNL A   1      42.953  21.048  27.763  1.00  0.00     0.059 A 
ATOM     78  C   UNL A   1      42.883  21.464  25.372  1.00  0.00     0.059 A 
ATOM     79  F   UNL A   1      43.434  23.588  24.547  1.00  0.00    -0.206 F 
ATOM     80  C   UNL A   1      42.729  20.605  26.459  1.00  0.00     0.060 A 
BRANCH  80  81
ATOM     81  S   UNL A   1      42.195  18.898  26.206  1.00  0.00     0.124 S 
ATOM     82  O   UNL A   1      40.863  19.086  25.642  1.00  0.00    -0.237 OA
ATOM     83  O   UNL A   1      43.211  18.392  25.288  1.00  0.00    -0.237 OA
ATOM     84  O   UNL A   1      42.237  18.330  27.550  1.00  0.00    -0.744 OA
ENDBRANCH  80  81
ENDBRANCH  48  73
BRANCH  60  85
ATOM     85  C   UNL A   1      49.591  26.660  26.377  1.00  0.00     0.058 A 
ATOM     86  C   UNL A   1      50.425  26.039  27.319  1.00  0.00     0.135 A 
ATOM     87  C   UNL A   1      50.077  26.804  25.066  1.00  0.00     0.135 A 
ATOM     88  F   UNL A   1      50.013  25.880  28.587  1.00  0.00    -0.206 F 
ATOM     89  C   UNL A   1      51.702  25.600  26.982  1.00  0.00     0.059 A 
ATOM     90  C   UNL A   1      51.338  26.346  24.700  1.00  0.00     0.059 A 
ATOM     91  F   UNL A   1      49.316  27.381  24.122  1.00  0.00    -0.206 F 
ATOM     92  C   UNL A   1      52.149  25.755  25.668  1.00  0.00     0.060 A 
BRANCH  92  93
ATOM     93  S   UNL A   1      53.793  25.150  25.234  1.00  0.00     0.124 S 
ATOM     94  O   UNL A   1      53.924  25.615  23.857  1.00  0.00    -0.237 OA
ATOM     95  O   UNL A   1      54.642  25.822  26.214  1.00  0.00    -0.237 OA
ATOM     96  O   UNL A   1      53.679  23.704  25.400  1.00  0.00    -0.744 OA
ENDBRANCH  92  93
ENDBRANCH  60  85
ENDBRANCH  34  35
ENDBRANCH  26  29
ENDBRANCH  24  25
ENDBRANCH  23  24
ENDBRANCH   1  23
TORSDOF 18
ENDMDL
MODEL 2
REMARK VINA RESULT:     -11.1      6.708     12.569
REMARK SMILES COCc1cc(SCC(=O)NCCCNC(=O)c2ccc(-c3c4nc(c(-c5c(F)cc(S(=O)(=O)[O-])cc5F)c5ccc([nH]5)c(-c5c(F)cc(S(=O)(=O)[O-])cc5F)c5nc(c(-c6c(F)cc(S(=O)(=O)[O-])cc6F)c6ccc3[nH]6)C=C5)C=C4)cc2)nc(-c2cccnc2)n1
REMARK SMILES IDX 12 1 11 2 9 3 10 4 8 6 7 7 6 8 4 9 5 10 92 11 85 12 84 13
REMARK SMILES IDX 3 14 2 15 1 16 86 17 87 18 91 19 88 20 90 21 89 22 13 23
REMARK SMILES IDX 14 24 15 25 16 26 17 28 18 29 19 30 83 31 20 32 82 33 21 34
REMARK SMILES IDX 22 35 23 36 76 37 24 38 81 39 75 40 77 41 25 42 80 43 74 44
REMARK SMILES IDX 73 45 26 47 60 48 39 49 59 50 40 51 43 52 58 53 78 54 41 55
REMARK SMILES IDX 42 56 57 58 79 59 44 60 27 61 28 62 37 63 29 64 30 65 36 66
REMARK SMILES IDX 38 67 31 68 32 69 33 70 34 71 35 72 61 73 62 74 71 75 63 76
REMARK SMILES IDX 64 77 70 78 72 79 65 80 66 81 67 82 68 83 69 84 45 85 46 86
REMARK SMILES IDX 55 87 47 88 48 89 54 90 56 91 49 92 50 93 51 94 52 95 53 96
REMARK H PARENT 11 5 15 27 77 46 43 57
REMARK Flexibility Score: inf
ROOT
ATOM      1  C   UNL A   1      35.937  23.964  25.684  1.00  0.00     0.117 C 
ENDROOT
BRANCH   1   2
ATOM      2  N   UNL A   1      35.066  23.235  24.781  1.00  0.00    -0.355 N 
ATOM      3  C   UNL A   1      33.799  23.518  24.377  1.00  0.00     0.230 C 
ATOM      4  O   UNL A   1      33.245  22.708  23.627  1.00  0.00    -0.274 OA
ATOM      5  H   UNL A   1      35.452  22.412  24.403  1.00  0.00     0.163 HD
BRANCH   3   6
ATOM      6  C   UNL A   1      33.112  24.813  24.759  1.00  0.00     0.176 C 
BRANCH   6   7
ATOM      7  S   UNL A   1      33.045  26.073  23.451  1.00  0.00    -0.096 SA
BRANCH   7   8
ATOM      8  C   UNL A   1      32.397  27.540  24.222  1.00  0.00     0.101 A 
ATOM      9  C   UNL A   1      32.240  29.234  25.841  1.00  0.00     0.071 A 
ATOM     10  C   UNL A   1      32.763  28.014  25.461  1.00  0.00     0.062 A 
ATOM     11  N   UNL A   1      31.359  29.906  25.073  1.00  0.00    -0.230 NA
ATOM     12  C   UNL A   1      30.964  29.313  23.937  1.00  0.00     0.162 A 
ATOM     13  N   UNL A   1      31.464  28.158  23.472  1.00  0.00    -0.222 NA
BRANCH   9  14
ATOM     14  C   UNL A   1      32.579  29.841  27.181  1.00  0.00     0.215 C 
BRANCH  14  15
ATOM     15  O   UNL A   1      33.966  30.179  27.291  1.00  0.00    -0.378 OA
ATOM     16  C   UNL A   1      34.176  31.416  27.969  1.00  0.00     0.195 C 
ENDBRANCH  14  15
ENDBRANCH   9  14
BRANCH  12  17
ATOM     17  C   UNL A   1      29.808  29.899  23.268  1.00  0.00     0.038 A 
ATOM     18  C   UNL A   1      29.079  30.959  23.826  1.00  0.00     0.015 A 
ATOM     19  C   UNL A   1      29.422  29.490  21.993  1.00  0.00     0.123 A 
ATOM     20  C   UNL A   1      28.041  31.554  23.111  1.00  0.00     0.021 A 
ATOM     21  N   UNL A   1      28.414  30.045  21.272  1.00  0.00    -0.264 NA
ATOM     22  C   UNL A   1      27.745  31.063  21.851  1.00  0.00     0.111 A 
ENDBRANCH  12  17
ENDBRANCH   7   8
ENDBRANCH   6   7
ENDBRANCH   3   6
ENDBRANCH   1   2
BRANCH   1  23
ATOM     23  C   UNL A   1      37.409  23.650  25.427  1.00  0.00     0.042 C 
BRANCH  23  24
ATOM     24  C   UNL A   1      38.350  24.073  26.554  1.00  0.00     0.118 C 
BRANCH  24  25
ATOM     25  N   UNL A   1      39.756  23.965  26.189  1.00  0.00    -0.352 N 
ATOM     26  C   UNL A   1      40.822  24.755  26.539  1.00  0.00     0.251 C 
ATOM     27  H   UNL A   1      39.977  23.207  25.600  1.00  0.00     0.163 HD
ATOM     28  O   UNL A   1      41.905  24.587  25.973  1.00  0.00    -0.269 OA
BRANCH  26  29
ATOM     29  C   UNL A   1      40.683  25.811  27.566  1.00  0.00     0.039 A 
ATOM     30  C   UNL A   1      39.706  25.667  28.554  1.00  0.00     0.014 A 
ATOM     31  C   UNL A   1      41.488  26.954  27.546  1.00  0.00     0.014 A 
ATOM     32  C   UNL A   1      39.578  26.635  29.555  1.00  0.00     0.010 A 
ATOM     33  C   UNL A   1      41.411  27.878  28.587  1.00  0.00     0.010 A 
ATOM     34  C   UNL A   1      40.453  27.732  29.601  1.00  0.00    -0.014 A 
BRANCH  34  35
ATOM     35  C   UNL A   1      40.377  28.736  30.695  1.00  0.00     0.031 A 
ATOM     36  C   UNL A   1      41.261  28.607  31.906  1.00  0.00     0.074 A 
ATOM     37  C   UNL A   1      39.467  29.730  30.628  1.00  0.00     0.049 A 
ATOM     38  N   UNL A   1      41.289  29.338  32.991  1.00  0.00    -0.248 NA
ATOM     39  C   UNL A   1      42.225  27.494  31.910  1.00  0.00     0.031 C 
ATOM     40  C   UNL A   1      38.522  29.937  29.529  1.00  0.00     0.029 A 
ATOM     41  N   UNL A   1      39.179  30.744  31.507  1.00  0.00    -0.354 N 
ATOM     42  C   UNL A   1      42.256  28.766  33.811  1.00  0.00     0.074 A 
ATOM     43  C   UNL A   1      42.755  27.597  33.120  1.00  0.00     0.031 C 
ATOM     44  C   UNL A   1      37.773  31.021  29.790  1.00  0.00     0.029 A 
ATOM     45  C   UNL A   1      38.152  31.561  31.092  1.00  0.00     0.049 A 
ATOM     46  H   UNL A   1      39.662  30.876  32.354  1.00  0.00     0.167 HD
ATOM     47  C   UNL A   1      42.703  29.189  35.018  1.00  0.00     0.037 A 
ATOM     48  C   UNL A   1      37.573  32.619  31.695  1.00  0.00     0.037 A 
ATOM     49  C   UNL A   1      42.216  30.366  35.690  1.00  0.00     0.049 A 
ATOM     50  C   UNL A   1      38.084  33.065  33.038  1.00  0.00     0.074 A 
ATOM     51  C   UNL A   1      42.644  30.910  36.889  1.00  0.00     0.029 A 
ATOM     52  N   UNL A   1      41.191  31.179  35.228  1.00  0.00    -0.354 N 
ATOM     53  N   UNL A   1      39.044  32.551  33.769  1.00  0.00    -0.248 NA
ATOM     54  C   UNL A   1      37.438  34.241  33.638  1.00  0.00     0.031 C 
ATOM     55  C   UNL A   1      41.846  32.022  37.175  1.00  0.00     0.029 A 
ATOM     56  C   UNL A   1      40.960  32.208  36.127  1.00  0.00     0.049 A 
ATOM     57  H   UNL A   1      40.702  31.045  34.384  1.00  0.00     0.167 HD
ATOM     58  C   UNL A   1      39.139  33.359  34.898  1.00  0.00     0.074 A 
ATOM     59  C   UNL A   1      38.144  34.402  34.748  1.00  0.00     0.031 C 
ATOM     60  C   UNL A   1      39.975  33.248  35.961  1.00  0.00     0.037 A 
BRANCH  47  61
ATOM     61  C   UNL A   1      43.773  28.373  35.693  1.00  0.00     0.058 A 
ATOM     62  C   UNL A   1      45.139  28.605  35.457  1.00  0.00     0.135 A 
ATOM     63  C   UNL A   1      43.434  27.373  36.619  1.00  0.00     0.135 A 
ATOM     64  F   UNL A   1      45.522  29.539  34.572  1.00  0.00    -0.206 F 
ATOM     65  C   UNL A   1      46.126  27.855  36.088  1.00  0.00     0.059 A 
ATOM     66  C   UNL A   1      44.405  26.631  37.286  1.00  0.00     0.059 A 
ATOM     67  F   UNL A   1      42.145  27.108  36.886  1.00  0.00    -0.206 F 
ATOM     68  C   UNL A   1      45.749  26.869  37.002  1.00  0.00     0.060 A 
BRANCH  68  69
ATOM     69  S   UNL A   1      47.043  25.910  37.816  1.00  0.00     0.124 S 
ATOM     70  O   UNL A   1      46.679  26.065  39.221  1.00  0.00    -0.237 OA
ATOM     71  O   UNL A   1      46.845  24.578  37.254  1.00  0.00    -0.237 OA
ATOM     72  O   UNL A   1      48.273  26.583  37.410  1.00  0.00    -0.744 OA
ENDBRANCH  68  69
ENDBRANCH  47  61
BRANCH  48  73
ATOM     73  C   UNL A   1      36.458  33.338  31.023  1.00  0.00     0.058 A 
ATOM     74  C   UNL A   1      36.691  34.148  29.901  1.00  0.00     0.135 A 
ATOM     75  C   UNL A   1      35.135  33.225  31.481  1.00  0.00     0.135 A 
ATOM     76  F   UNL A   1      37.938  34.295  29.428  1.00  0.00    -0.206 F 
ATOM     77  C   UNL A   1      35.659  34.832  29.267  1.00  0.00     0.059 A 
ATOM     78  C   UNL A   1      34.082  33.877  30.847  1.00  0.00     0.059 A 
ATOM     79  F   UNL A   1      34.855  32.451  32.540  1.00  0.00    -0.206 F 
ATOM     80  C   UNL A   1      34.356  34.687  29.746  1.00  0.00     0.060 A 
BRANCH  80  81
ATOM     81  S   UNL A   1      33.018  35.544  28.887  1.00  0.00     0.124 S 
ATOM     82  O   UNL A   1      32.229  36.053  30.003  1.00  0.00    -0.237 OA
ATOM     83  O   UNL A   1      33.744  36.543  28.110  1.00  0.00    -0.237 OA
ATOM     84  O   UNL A   1      32.391  34.485  28.102  1.00  0.00    -0.744 OA
ENDBRANCH  80  81
ENDBRANCH  48  73
BRANCH  60  85
ATOM     85  C   UNL A   1      39.889  34.306  37.027  1.00  0.00     0.058 A 
ATOM     86  C   UNL A   1      39.108  34.137  38.181  1.00  0.00     0.135 A 
ATOM     87  C   UNL A   1      40.646  35.485  36.916  1.00  0.00     0.135 A 
ATOM     88  F   UNL A   1      38.361  33.033  38.336  1.00  0.00    -0.206 F 
ATOM     89  C   UNL A   1      39.061  35.109  39.175  1.00  0.00     0.059 A 
ATOM     90  C   UNL A   1      40.637  36.456  37.912  1.00  0.00     0.059 A 
ATOM     91  F   UNL A   1      41.419  35.693  35.838  1.00  0.00    -0.206 F 
ATOM     92  C   UNL A   1      39.832  36.265  39.033  1.00  0.00     0.060 A 
BRANCH  92  93
ATOM     93  S   UNL A   1      39.789  37.502  40.346  1.00  0.00     0.124 S 
ATOM     94  O   UNL A   1      40.089  36.693  41.523  1.00  0.00    -0.237 OA
ATOM     95  O   UNL A   1      40.835  38.433  39.934  1.00  0.00    -0.237 OA
ATOM     96  O   UNL A   1      38.428  38.027  40.277  1.00  0.00    -0.744 OA
ENDBRANCH  92  93
ENDBRANCH  60  85
ENDBRANCH  34  35
ENDBRANCH  26  29
ENDBRANCH  24  25
ENDBRANCH  23  24
ENDBRANCH   1  23
TORSDOF 18
ENDMDL
MODEL 3
REMARK VINA RESULT:     -10.9      6.581     12.303
REMARK SMILES COCc1cc(SCC(=O)NCCCNC(=O)c2ccc(-c3c4nc(c(-c5c(F)cc(S(=O)(=O)[O-])cc5F)c5ccc([nH]5)c(-c5c(F)cc(S(=O)(=O)[O-])cc5F)c5nc(c(-c6c(F)cc(S(=O)(=O)[O-])cc6F)c6ccc3[nH]6)C=C5)C=C4)cc2)nc(-c2cccnc2)n1
REMARK SMILES IDX 12 1 11 2 9 3 10 4 8 6 7 7 6 8 4 9 5 10 92 11 85 12 84 13
REMARK SMILES IDX 3 14 2 15 1 16 86 17 87 18 91 19 88 20 90 21 89 22 13 23
REMARK SMILES IDX 14 24 15 25 16 26 17 28 18 29 19 30 83 31 20 32 82 33 21 34
REMARK SMILES IDX 22 35 23 36 76 37 24 38 81 39 75 40 77 41 25 42 80 43 74 44
REMARK SMILES IDX 73 45 26 47 60 48 39 49 59 50 40 51 43 52 58 53 78 54 41 55
REMARK SMILES IDX 42 56 57 58 79 59 44 60 27 61 28 62 37 63 29 64 30 65 36 66
REMARK SMILES IDX 38 67 31 68 32 69 33 70 34 71 35 72 61 73 62 74 71 75 63 76
REMARK SMILES IDX 64 77 70 78 72 79 65 80 66 81 67 82 68 83 69 84 45 85 46 86
REMARK SMILES IDX 55 87 47 88 48 89 54 90 56 91 49 92 50 93 51 94 52 95 53 96
REMARK H PARENT 11 5 15 27 77 46 43 57
REMARK Flexibility Score: inf
ROOT
ATOM      1  C   UNL A   1      35.901  23.854  25.621  1.00  0.00     0.117 C 
ENDROOT
BRANCH   1   2
ATOM      2  N   UNL A   1      35.208  22.598  25.404  1.00  0.00    -0.355 N 
ATOM      3  C   UNL A   1      33.885  22.356  25.209  1.00  0.00     0.230 C 
ATOM      4  O   UNL A   1      33.531  21.179  25.090  1.00  0.00    -0.274 OA
ATOM      5  H   UNL A   1      35.785  21.799  25.396  1.00  0.00     0.163 HD
BRANCH   3   6
ATOM      6  C   UNL A   1      32.884  23.483  25.060  1.00  0.00     0.176 C 
BRANCH   6   7
ATOM      7  S   UNL A   1      33.006  24.432  23.515  1.00  0.00    -0.096 SA
BRANCH   7   8
ATOM      8  C   UNL A   1      32.166  25.971  23.822  1.00  0.00     0.101 A 
ATOM      9  C   UNL A   1      30.469  27.579  23.609  1.00  0.00     0.071 A 
ATOM     10  C   UNL A   1      31.049  26.415  23.150  1.00  0.00     0.062 A 
ATOM     11  N   UNL A   1      30.997  28.293  24.623  1.00  0.00    -0.230 NA
ATOM     12  C   UNL A   1      32.153  27.853  25.140  1.00  0.00     0.162 A 
ATOM     13  N   UNL A   1      32.752  26.705  24.788  1.00  0.00    -0.222 NA
BRANCH   9  14
ATOM     14  C   UNL A   1      29.241  28.150  22.940  1.00  0.00     0.215 C 
BRANCH  14  15
ATOM     15  O   UNL A   1      29.556  29.226  22.048  1.00  0.00    -0.378 OA
ATOM     16  C   UNL A   1      28.418  30.020  21.724  1.00  0.00     0.195 C 
ENDBRANCH  14  15
ENDBRANCH   9  14
BRANCH  12  17
ATOM     17  C   UNL A   1      32.862  28.774  26.022  1.00  0.00     0.038 A 
ATOM     18  C   UNL A   1      34.051  28.418  26.674  1.00  0.00     0.015 A 
ATOM     19  C   UNL A   1      32.437  30.090  26.190  1.00  0.00     0.123 A 
ATOM     20  C   UNL A   1      34.748  29.359  27.431  1.00  0.00     0.021 A 
ATOM     21  N   UNL A   1      33.090  31.029  26.922  1.00  0.00    -0.264 NA
ATOM     22  C   UNL A   1      34.229  30.639  27.528  1.00  0.00     0.111 A 
ENDBRANCH  12  17
ENDBRANCH   7   8
ENDBRANCH   6   7
ENDBRANCH   3   6
ENDBRANCH   1   2
BRANCH   1  23
ATOM     23  C   UNL A   1      37.391  23.739  25.310  1.00  0.00     0.042 C 
BRANCH  23  24
ATOM     24  C   UNL A   1      38.309  24.170  26.454  1.00  0.00     0.118 C 
BRANCH  24  25
ATOM     25  N   UNL A   1      39.722  23.994  26.145  1.00  0.00    -0.352 N 
ATOM     26  C   UNL A   1      40.811  24.731  26.537  1.00  0.00     0.251 C 
ATOM     27  H   UNL A   1      39.928  23.226  25.564  1.00  0.00     0.163 HD
ATOM     28  O   UNL A   1      41.905  24.510  26.014  1.00  0.00    -0.269 OA
BRANCH  26  29
ATOM     29  C   UNL A   1      40.683  25.793  27.559  1.00  0.00     0.039 A 
ATOM     30  C   UNL A   1      39.700  25.667  28.545  1.00  0.00     0.014 A 
ATOM     31  C   UNL A   1      41.503  26.925  27.537  1.00  0.00     0.014 A 
ATOM     32  C   UNL A   1      39.582  26.641  29.541  1.00  0.00     0.010 A 
ATOM     33  C   UNL A   1      41.436  27.854  28.573  1.00  0.00     0.010 A 
ATOM     34  C   UNL A   1      40.472  27.726  29.584  1.00  0.00    -0.014 A 
BRANCH  34  35
ATOM     35  C   UNL A   1      40.406  28.736  30.674  1.00  0.00     0.031 A 
ATOM     36  C   UNL A   1      41.296  28.608  31.882  1.00  0.00     0.074 A 
ATOM     37  C   UNL A   1      39.501  29.734  30.606  1.00  0.00     0.049 A 
ATOM     38  N   UNL A   1      41.332  29.345  32.963  1.00  0.00    -0.248 NA
ATOM     39  C   UNL A   1      42.254  27.491  31.886  1.00  0.00     0.031 C 
ATOM     40  C   UNL A   1      38.552  29.941  29.510  1.00  0.00     0.029 A 
ATOM     41  N   UNL A   1      39.222  30.754  31.481  1.00  0.00    -0.354 N 
ATOM     42  C   UNL A   1      42.300  28.773  33.781  1.00  0.00     0.074 A 
ATOM     43  C   UNL A   1      42.790  27.597  33.094  1.00  0.00     0.031 C 
ATOM     44  C   UNL A   1      37.809  31.029  29.770  1.00  0.00     0.029 A 
ATOM     45  C   UNL A   1      38.197  31.574  31.067  1.00  0.00     0.049 A 
ATOM     46  H   UNL A   1      39.709  30.888  32.326  1.00  0.00     0.167 HD
ATOM     47  C   UNL A   1      42.755  29.199  34.984  1.00  0.00     0.037 A 
ATOM     48  C   UNL A   1      37.627  32.638  31.667  1.00  0.00     0.037 A 
ATOM     49  C   UNL A   1      42.278  30.382  35.652  1.00  0.00     0.049 A 
ATOM     50  C   UNL A   1      38.145  33.088  33.006  1.00  0.00     0.074 A 
ATOM     51  C   UNL A   1      42.714  30.930  36.846  1.00  0.00     0.029 A 
ATOM     52  N   UNL A   1      41.254  31.198  35.190  1.00  0.00    -0.354 N 
ATOM     53  N   UNL A   1      39.107  32.573  33.735  1.00  0.00    -0.248 NA
ATOM     54  C   UNL A   1      37.508  34.271  33.603  1.00  0.00     0.031 C 
ATOM     55  C   UNL A   1      41.922  32.047  37.131  1.00  0.00     0.029 A 
ATOM     56  C   UNL A   1      41.032  32.232  36.085  1.00  0.00     0.049 A 
ATOM     57  H   UNL A   1      40.760  31.062  34.350  1.00  0.00     0.167 HD
ATOM     58  C   UNL A   1      39.211  33.387  34.860  1.00  0.00     0.074 A 
ATOM     59  C   UNL A   1      38.221  34.433  34.709  1.00  0.00     0.031 C 
ATOM     60  C   UNL A   1      40.051  33.276  35.919  1.00  0.00     0.037 A 
BRANCH  47  61
ATOM     61  C   UNL A   1      43.825  28.382  35.658  1.00  0.00     0.058 A 
ATOM     62  C   UNL A   1      43.512  27.356  36.566  1.00  0.00     0.135 A 
ATOM     63  C   UNL A   1      45.181  28.597  35.362  1.00  0.00     0.135 A 
ATOM     64  F   UNL A   1      42.232  27.114  36.896  1.00  0.00    -0.206 F 
ATOM     65  C   UNL A   1      44.502  26.598  37.180  1.00  0.00     0.059 A 
ATOM     66  C   UNL A   1      46.189  27.830  35.941  1.00  0.00     0.059 A 
ATOM     67  F   UNL A   1      45.540  29.562  34.502  1.00  0.00    -0.206 F 
ATOM     68  C   UNL A   1      45.839  26.843  36.861  1.00  0.00     0.060 A 
BRANCH  68  69
ATOM     69  S   UNL A   1      47.112  25.845  37.663  1.00  0.00     0.124 S 
ATOM     70  O   UNL A   1      47.464  26.685  38.803  1.00  0.00    -0.237 OA
ATOM     71  O   UNL A   1      46.391  24.617  37.982  1.00  0.00    -0.237 OA
ATOM     72  O   UNL A   1      48.142  25.716  36.638  1.00  0.00    -0.744 OA
ENDBRANCH  68  69
ENDBRANCH  47  61
BRANCH  48  73
ATOM     73  C   UNL A   1      36.511  33.360  30.998  1.00  0.00     0.058 A 
ATOM     74  C   UNL A   1      35.197  33.266  31.480  1.00  0.00     0.135 A 
ATOM     75  C   UNL A   1      36.736  34.166  29.871  1.00  0.00     0.135 A 
ATOM     76  F   UNL A   1      34.928  32.503  32.550  1.00  0.00    -0.206 F 
ATOM     77  C   UNL A   1      34.143  33.930  30.860  1.00  0.00     0.059 A 
ATOM     78  C   UNL A   1      35.704  34.863  29.250  1.00  0.00     0.059 A 
ATOM     79  F   UNL A   1      37.977  34.303  29.379  1.00  0.00    -0.206 F 
ATOM     80  C   UNL A   1      34.407  34.729  29.747  1.00  0.00     0.060 A 
BRANCH  80  81
ATOM     81  S   UNL A   1      33.039  35.623  28.979  1.00  0.00     0.124 S 
ATOM     82  O   UNL A   1      33.744  36.658  28.231  1.00  0.00    -0.237 OA
ATOM     83  O   UNL A   1      32.402  34.581  28.181  1.00  0.00    -0.237 OA
ATOM     84  O   UNL A   1      32.260  36.091  30.122  1.00  0.00    -0.744 OA
ENDBRANCH  80  81
ENDBRANCH  48  73
BRANCH  60  85
ATOM     85  C   UNL A   1      39.976  34.340  36.980  1.00  0.00     0.058 A 
ATOM     86  C   UNL A   1      40.779  35.490  36.938  1.00  0.00     0.135 A 
ATOM     87  C   UNL A   1      39.042  34.231  38.025  1.00  0.00     0.135 A 
ATOM     88  F   UNL A   1      41.691  35.643  35.966  1.00  0.00    -0.206 F 
ATOM     89  C   UNL A   1      40.678  36.483  37.908  1.00  0.00     0.059 A 
ATOM     90  C   UNL A   1      38.903  35.225  38.988  1.00  0.00     0.059 A 
ATOM     91  F   UNL A   1      38.240  33.157  38.106  1.00  0.00    -0.206 F 
ATOM     92  C   UNL A   1      39.734  36.342  38.929  1.00  0.00     0.060 A 
BRANCH  92  93
ATOM     93  S   UNL A   1      39.589  37.653  40.161  1.00  0.00     0.124 S 
ATOM     94  O   UNL A   1      38.187  38.035  40.020  1.00  0.00    -0.237 OA
ATOM     95  O   UNL A   1      39.935  36.960  41.398  1.00  0.00    -0.237 OA
ATOM     96  O   UNL A   1      40.559  38.650  39.715  1.00  0.00    -0.744 OA
ENDBRANCH  92  93
ENDBRANCH  60  85
ENDBRANCH  34  35
ENDBRANCH  26  29
ENDBRANCH  24  25
ENDBRANCH  23  24
ENDBRANCH   1  23
TORSDOF 18
ENDMDL
