MODEL 1
REMARK VINA RESULT:     -11.0      0.000      0.000
REMARK SMILES CC[C@@](C)([NH2+]CC(=O)N[C@@H](C)c1ccc(F)cc1)C(=O)NCCCNC(=O)c1ccc(-c2c3nc(c(-c4c(F)cc(S(=O)(=O)[O-])cc4F)c4ccc([nH]4)c(-c4c(F)cc(S(=O)(=O)[O-])cc4F)c4nc(c(-c5c(F)cc(S(=O)(=O)[O-])cc5F)c5ccc2[nH]5)C=C4)C=C3)cc1
REMARK SMILES IDX 22 1 21 2 19 3 20 4 3 6 4 7 2 8 1 9 5 10 6 13 7 14 8 15 9 16
REMARK SMILES IDX 10 18 11 19 12 20 13 21 18 22 14 23 17 24 15 25 16 26 23 27
REMARK SMILES IDX 24 28 25 29 26 30 27 32 28 33 29 34 93 35 30 36 92 37 31 38
REMARK SMILES IDX 32 39 33 40 86 41 34 42 91 43 85 44 87 45 35 46 90 47 84 48
REMARK SMILES IDX 83 49 36 51 70 52 49 53 69 54 50 55 53 56 68 57 88 58 51 59
REMARK SMILES IDX 52 60 67 62 89 63 54 64 37 65 38 66 47 67 39 68 40 69 46 70
REMARK SMILES IDX 48 71 41 72 42 73 43 74 44 75 45 76 71 77 72 78 81 79 73 80
REMARK SMILES IDX 74 81 80 82 82 83 75 84 76 85 77 86 78 87 79 88 55 89 56 90
REMARK SMILES IDX 65 91 57 92 58 93 64 94 66 95 59 96 60 97 61 98 62 99 63 100
REMARK H PARENT 21 5 5 11 5 12 9 17 25 31 87 50 53 61
REMARK Flexibility Score: inf
ROOT
ATOM      1  C   UNL A   1      32.641  28.982  24.961  1.00  0.00     0.118 C 
ENDROOT
BRANCH   1   2
ATOM      2  N   UNL A   1      31.309  28.399  25.069  1.00  0.00    -0.351 N 
ATOM      3  C   UNL A   1      31.152  27.044  25.367  1.00  0.00     0.281 C 
ATOM      4  O   UNL A   1      30.798  26.746  26.510  1.00  0.00    -0.268 OA
ATOM      5  H   UNL A   1      30.515  28.964  24.931  1.00  0.00     0.163 HD
BRANCH   3   6
ATOM      6  C   UNL A   1      31.279  25.969  24.186  1.00  0.00     0.172 C 
ATOM      7  C   UNL A   1      31.106  26.288  22.695  1.00  0.00     0.090 C 
BRANCH   6   8
ATOM      8  C   UNL A   1      32.804  25.562  24.294  1.00  0.00     0.075 C 
ATOM      9  C   UNL A   1      33.567  25.596  22.943  1.00  0.00     0.011 C 
ENDBRANCH   6   8
BRANCH   6  10
ATOM     10  N   UNL A   1      30.342  24.896  24.526  1.00  0.00    -0.326 N 
ATOM     11  H   UNL A   1      29.731  24.796  23.717  1.00  0.00     0.347 HD
ATOM     12  H   UNL A   1      29.978  25.232  25.418  1.00  0.00     0.347 HD
BRANCH  10  13
ATOM     13  C   UNL A   1      30.755  23.524  24.889  1.00  0.00     0.362 C 
BRANCH  13  14
ATOM     14  C   UNL A   1      31.350  22.940  26.210  1.00  0.00     0.275 C 
ATOM     15  O   UNL A   1      30.894  23.466  27.249  1.00  0.00    -0.268 OA
ATOM     16  N   UNL A   1      32.235  21.965  26.524  1.00  0.00    -0.345 N 
ATOM     17  H   UNL A   1      32.147  21.716  27.473  1.00  0.00     0.164 HD
BRANCH  16  18
ATOM     18  C   UNL A   1      33.286  21.164  25.884  1.00  0.00     0.109 C 
ATOM     19  C   UNL A   1      32.829  20.705  24.486  1.00  0.00     0.036 C 
BRANCH  18  20
ATOM     20  C   UNL A   1      34.662  21.835  25.819  1.00  0.00    -0.026 A 
ATOM     21  C   UNL A   1      35.799  21.080  25.451  1.00  0.00     0.009 A 
ATOM     22  C   UNL A   1      34.868  23.174  26.196  1.00  0.00     0.009 A 
ATOM     23  C   UNL A   1      37.076  21.645  25.421  1.00  0.00     0.039 A 
ATOM     24  C   UNL A   1      36.152  23.734  26.194  1.00  0.00     0.039 A 
ATOM     25  C   UNL A   1      37.242  22.967  25.798  1.00  0.00     0.123 A 
ATOM     26  F   UNL A   1      38.469  23.505  25.789  1.00  0.00    -0.207 F 
ENDBRANCH  18  20
ENDBRANCH  16  18
ENDBRANCH  13  14
ENDBRANCH  10  13
ENDBRANCH   6  10
ENDBRANCH   3   6
ENDBRANCH   1   2
BRANCH   1  27
ATOM     27  C   UNL A   1      33.692  28.497  25.950  1.00  0.00     0.042 C 
BRANCH  27  28
ATOM     28  C   UNL A   1      33.337  28.810  27.403  1.00  0.00     0.118 C 
BRANCH  28  29
ATOM     29  N   UNL A   1      33.505  30.220  27.765  1.00  0.00    -0.352 N 
ATOM     30  C   UNL A   1      34.604  30.903  28.236  1.00  0.00     0.251 C 
ATOM     31  H   UNL A   1      32.697  30.772  27.654  1.00  0.00     0.163 HD
ATOM     32  O   UNL A   1      34.489  32.084  28.562  1.00  0.00    -0.269 OA
BRANCH  30  33
ATOM     33  C   UNL A   1      35.905  30.214  28.382  1.00  0.00     0.039 A 
ATOM     34  C   UNL A   1      36.799  30.192  27.308  1.00  0.00     0.014 A 
ATOM     35  C   UNL A   1      36.261  29.630  29.598  1.00  0.00     0.014 A 
ATOM     36  C   UNL A   1      38.092  29.694  27.495  1.00  0.00     0.010 A 
ATOM     37  C   UNL A   1      37.575  29.237  29.813  1.00  0.00     0.010 A 
ATOM     38  C   UNL A   1      38.511  29.277  28.769  1.00  0.00    -0.014 A 
BRANCH  38  39
ATOM     39  C   UNL A   1      39.920  28.904  29.057  1.00  0.00     0.031 A 
ATOM     40  C   UNL A   1      40.860  29.924  29.643  1.00  0.00     0.074 A 
ATOM     41  C   UNL A   1      40.378  27.690  28.689  1.00  0.00     0.049 A 
ATOM     42  N   UNL A   1      42.153  29.851  29.818  1.00  0.00    -0.248 NA
ATOM     43  C   UNL A   1      40.272  31.213  30.046  1.00  0.00     0.031 C 
ATOM     44  C   UNL A   1      39.577  26.636  28.061  1.00  0.00     0.029 A 
ATOM     45  N   UNL A   1      41.633  27.138  28.775  1.00  0.00    -0.354 N 
ATOM     46  C   UNL A   1      42.535  31.086  30.327  1.00  0.00     0.074 A 
ATOM     47  C   UNL A   1      41.349  31.911  30.377  1.00  0.00     0.031 C 
ATOM     48  C   UNL A   1      40.349  25.558  27.852  1.00  0.00     0.029 A 
ATOM     49  C   UNL A   1      41.710  25.856  28.282  1.00  0.00     0.049 A 
ATOM     50  H   UNL A   1      42.405  27.615  29.154  1.00  0.00     0.167 HD
ATOM     51  C   UNL A   1      43.759  31.485  30.744  1.00  0.00     0.037 A 
ATOM     52  C   UNL A   1      42.761  25.017  28.178  1.00  0.00     0.037 A 
ATOM     53  C   UNL A   1      44.922  30.639  30.736  1.00  0.00     0.049 A 
ATOM     54  C   UNL A   1      44.110  25.479  28.654  1.00  0.00     0.074 A 
ATOM     55  C   UNL A   1      46.195  30.925  31.195  1.00  0.00     0.029 A 
ATOM     56  N   UNL A   1      44.951  29.339  30.251  1.00  0.00    -0.354 N 
ATOM     57  N   UNL A   1      44.444  26.637  29.174  1.00  0.00    -0.248 NA
ATOM     58  C   UNL A   1      45.225  24.531  28.530  1.00  0.00     0.031 C 
ATOM     59  C   UNL A   1      47.003  29.809  30.957  1.00  0.00     0.029 A 
ATOM     60  C   UNL A   1      46.224  28.814  30.387  1.00  0.00     0.049 A 
ATOM     61  H   UNL A   1      44.180  28.861  29.868  1.00  0.00     0.167 HD
ATOM     62  C   UNL A   1      45.802  26.549  29.456  1.00  0.00     0.074 A 
ATOM     63  C   UNL A   1      46.227  25.223  29.058  1.00  0.00     0.031 C 
ATOM     64  C   UNL A   1      46.622  27.485  29.993  1.00  0.00     0.037 A 
BRANCH  51  65
ATOM     65  C   UNL A   1      43.899  32.886  31.273  1.00  0.00     0.058 A 
ATOM     66  C   UNL A   1      44.265  33.941  30.423  1.00  0.00     0.135 A 
ATOM     67  C   UNL A   1      43.719  33.176  32.635  1.00  0.00     0.135 A 
ATOM     68  F   UNL A   1      44.442  33.722  29.110  1.00  0.00    -0.206 F 
ATOM     69  C   UNL A   1      44.459  35.231  30.906  1.00  0.00     0.059 A 
ATOM     70  C   UNL A   1      43.881  34.464  33.137  1.00  0.00     0.059 A 
ATOM     71  F   UNL A   1      43.346  32.208  33.489  1.00  0.00    -0.206 F 
ATOM     72  C   UNL A   1      44.265  35.482  32.265  1.00  0.00     0.060 A 
BRANCH  72  73
ATOM     73  S   UNL A   1      44.487  37.168  32.872  1.00  0.00     0.124 S 
ATOM     74  O   UNL A   1      43.607  37.187  34.036  1.00  0.00    -0.237 OA
ATOM     75  O   UNL A   1      45.919  37.207  33.154  1.00  0.00    -0.237 OA
ATOM     76  O   UNL A   1      44.058  37.991  31.745  1.00  0.00    -0.744 OA
ENDBRANCH  72  73
ENDBRANCH  51  65
BRANCH  52  77
ATOM     77  C   UNL A   1      42.562  23.647  27.632  1.00  0.00     0.058 A 
ATOM     78  C   UNL A   1      42.305  22.551  28.469  1.00  0.00     0.135 A 
ATOM     79  C   UNL A   1      42.677  23.404  26.255  1.00  0.00     0.135 A 
ATOM     80  F   UNL A   1      42.197  22.726  29.795  1.00  0.00    -0.206 F 
ATOM     81  C   UNL A   1      42.197  21.259  27.964  1.00  0.00     0.059 A 
ATOM     82  C   UNL A   1      42.549  22.124  25.723  1.00  0.00     0.059 A 
ATOM     83  F   UNL A   1      42.910  24.423  25.413  1.00  0.00    -0.206 F 
ATOM     84  C   UNL A   1      42.328  21.055  26.590  1.00  0.00     0.060 A 
BRANCH  84  85
ATOM     85  S   UNL A   1      42.207  19.367  25.957  1.00  0.00     0.124 S 
ATOM     86  O   UNL A   1      43.068  19.434  24.781  1.00  0.00    -0.237 OA
ATOM     87  O   UNL A   1      42.718  18.583  27.076  1.00  0.00    -0.237 OA
ATOM     88  O   UNL A   1      40.781  19.210  25.685  1.00  0.00    -0.744 OA
ENDBRANCH  84  85
ENDBRANCH  52  77
BRANCH  64  89
ATOM     89  C   UNL A   1      48.062  27.117  30.204  1.00  0.00     0.058 A 
ATOM     90  C   UNL A   1      48.509  26.689  31.465  1.00  0.00     0.135 A 
ATOM     91  C   UNL A   1      49.018  27.302  29.193  1.00  0.00     0.135 A 
ATOM     92  F   UNL A   1      47.633  26.502  32.465  1.00  0.00    -0.206 F 
ATOM     93  C   UNL A   1      49.859  26.490  31.727  1.00  0.00     0.059 A 
ATOM     94  C   UNL A   1      50.372  27.086  29.427  1.00  0.00     0.059 A 
ATOM     95  F   UNL A   1      48.637  27.698  27.968  1.00  0.00    -0.206 F 
ATOM     96  C   UNL A   1      50.784  26.701  30.704  1.00  0.00     0.060 A 
BRANCH  96  97
ATOM     97  S   UNL A   1      52.537  26.469  31.070  1.00  0.00     0.124 S 
ATOM     98  O   UNL A   1      52.775  27.511  32.062  1.00  0.00    -0.237 OA
ATOM     99  O   UNL A   1      52.567  25.097  31.568  1.00  0.00    -0.237 OA
ATOM    100  O   UNL A   1      53.183  26.672  29.777  1.00  0.00    -0.744 OA
ENDBRANCH  96  97
ENDBRANCH  64  89
ENDBRANCH  38  39
ENDBRANCH  30  33
ENDBRANCH  28  29
ENDBRANCH  27  28
ENDBRANCH   1  27
TORSDOF 19
ENDMDL
MODEL 2
REMARK VINA RESULT:     -10.9      2.749      3.531
REMARK SMILES CC[C@@](C)([NH2+]CC(=O)N[C@@H](C)c1ccc(F)cc1)C(=O)NCCCNC(=O)c1ccc(-c2c3nc(c(-c4c(F)cc(S(=O)(=O)[O-])cc4F)c4ccc([nH]4)c(-c4c(F)cc(S(=O)(=O)[O-])cc4F)c4nc(c(-c5c(F)cc(S(=O)(=O)[O-])cc5F)c5ccc2[nH]5)C=C4)C=C3)cc1
REMARK SMILES IDX 22 1 21 2 19 3 20 4 3 6 4 7 2 8 1 9 5 10 6 13 7 14 8 15 9 16
REMARK SMILES IDX 10 18 11 19 12 20 13 21 18 22 14 23 17 24 15 25 16 26 23 27
REMARK SMILES IDX 24 28 25 29 26 30 27 32 28 33 29 34 93 35 30 36 92 37 31 38
REMARK SMILES IDX 32 39 33 40 86 41 34 42 91 43 85 44 87 45 35 46 90 47 84 48
REMARK SMILES IDX 83 49 36 51 70 52 49 53 69 54 50 55 53 56 68 57 88 58 51 59
REMARK SMILES IDX 52 60 67 62 89 63 54 64 37 65 38 66 47 67 39 68 40 69 46 70
REMARK SMILES IDX 48 71 41 72 42 73 43 74 44 75 45 76 71 77 72 78 81 79 73 80
REMARK SMILES IDX 74 81 80 82 82 83 75 84 76 85 77 86 78 87 79 88 55 89 56 90
REMARK SMILES IDX 65 91 57 92 58 93 64 94 66 95 59 96 60 97 61 98 62 99 63 100
REMARK H PARENT 21 5 5 11 5 12 9 17 25 31 87 50 53 61
REMARK Flexibility Score: inf
ROOT
ATOM      1  C   UNL A   1      33.088  29.575  26.444  1.00  0.00     0.118 C 
ENDROOT
BRANCH   1   2
ATOM      2  N   UNL A   1      32.697  29.667  25.042  1.00  0.00    -0.351 N 
ATOM      3  C   UNL A   1      31.461  29.177  24.619  1.00  0.00     0.281 C 
ATOM      4  O   UNL A   1      30.573  29.996  24.371  1.00  0.00    -0.268 OA
ATOM      5  H   UNL A   1      33.309  30.078  24.390  1.00  0.00     0.163 HD
BRANCH   3   6
ATOM      6  C   UNL A   1      31.307  27.610  24.323  1.00  0.00     0.172 C 
ATOM      7  C   UNL A   1      31.089  26.537  25.399  1.00  0.00     0.090 C 
BRANCH   6   8
ATOM      8  C   UNL A   1      29.954  27.578  23.503  1.00  0.00     0.075 C 
ATOM      9  C   UNL A   1      28.909  26.565  24.042  1.00  0.00     0.011 C 
ENDBRANCH   6   8
BRANCH   6  10
ATOM     10  N   UNL A   1      32.491  27.234  23.549  1.00  0.00    -0.326 N 
ATOM     11  H   UNL A   1      32.955  26.505  24.089  1.00  0.00     0.347 HD
ATOM     12  H   UNL A   1      32.932  28.145  23.414  1.00  0.00     0.347 HD
BRANCH  10  13
ATOM     13  C   UNL A   1      32.445  26.735  22.158  1.00  0.00     0.362 C 
BRANCH  13  14
ATOM     14  C   UNL A   1      32.910  25.383  21.531  1.00  0.00     0.275 C 
ATOM     15  O   UNL A   1      33.028  25.413  20.286  1.00  0.00    -0.268 OA
ATOM     16  N   UNL A   1      33.255  24.163  22.007  1.00  0.00    -0.345 N 
ATOM     17  H   UNL A   1      33.747  23.654  21.322  1.00  0.00     0.164 HD
BRANCH  16  18
ATOM     18  C   UNL A   1      33.121  23.366  23.233  1.00  0.00     0.109 C 
ATOM     19  C   UNL A   1      31.971  22.352  23.087  1.00  0.00     0.036 C 
BRANCH  18  20
ATOM     20  C   UNL A   1      34.406  22.674  23.698  1.00  0.00    -0.026 A 
ATOM     21  C   UNL A   1      34.338  21.603  24.620  1.00  0.00     0.009 A 
ATOM     22  C   UNL A   1      35.684  23.115  23.312  1.00  0.00     0.009 A 
ATOM     23  C   UNL A   1      35.489  20.975  25.100  1.00  0.00     0.039 A 
ATOM     24  C   UNL A   1      36.840  22.503  23.816  1.00  0.00     0.039 A 
ATOM     25  C   UNL A   1      36.732  21.435  24.697  1.00  0.00     0.123 A 
ATOM     26  F   UNL A   1      37.837  20.845  25.173  1.00  0.00    -0.207 F 
ENDBRANCH  18  20
ENDBRANCH  16  18
ENDBRANCH  13  14
ENDBRANCH  10  13
ENDBRANCH   6  10
ENDBRANCH   3   6
ENDBRANCH   1   2
BRANCH   1  27
ATOM     27  C   UNL A   1      34.241  28.638  26.781  1.00  0.00     0.042 C 
BRANCH  27  28
ATOM     28  C   UNL A   1      35.423  29.354  27.434  1.00  0.00     0.118 C 
BRANCH  28  29
ATOM     29  N   UNL A   1      35.189  29.739  28.828  1.00  0.00    -0.352 N 
ATOM     30  C   UNL A   1      36.073  29.966  29.859  1.00  0.00     0.251 C 
ATOM     31  H   UNL A   1      34.241  29.854  29.069  1.00  0.00     0.163 HD
ATOM     32  O   UNL A   1      35.640  30.196  30.988  1.00  0.00    -0.269 OA
BRANCH  30  33
ATOM     33  C   UNL A   1      37.532  29.898  29.621  1.00  0.00     0.039 A 
ATOM     34  C   UNL A   1      38.395  29.644  30.690  1.00  0.00     0.014 A 
ATOM     35  C   UNL A   1      38.042  30.039  28.331  1.00  0.00     0.014 A 
ATOM     36  C   UNL A   1      39.751  29.409  30.443  1.00  0.00     0.010 A 
ATOM     37  C   UNL A   1      39.364  29.700  28.073  1.00  0.00     0.010 A 
ATOM     38  C   UNL A   1      40.232  29.366  29.124  1.00  0.00    -0.014 A 
BRANCH  38  39
ATOM     39  C   UNL A   1      41.621  28.952  28.800  1.00  0.00     0.031 A 
ATOM     40  C   UNL A   1      42.725  29.976  28.795  1.00  0.00     0.074 A 
ATOM     41  C   UNL A   1      41.865  27.686  28.403  1.00  0.00     0.049 A 
ATOM     42  N   UNL A   1      43.962  29.854  28.389  1.00  0.00    -0.248 NA
ATOM     43  C   UNL A   1      42.381  31.326  29.272  1.00  0.00     0.031 C 
ATOM     44  C   UNL A   1      40.866  26.618  28.313  1.00  0.00     0.029 A 
ATOM     45  N   UNL A   1      43.027  27.083  27.987  1.00  0.00    -0.354 N 
ATOM     46  C   UNL A   1      44.534  31.112  28.538  1.00  0.00     0.074 A 
ATOM     47  C   UNL A   1      43.494  31.997  29.014  1.00  0.00     0.031 C 
ATOM     48  C   UNL A   1      41.463  25.487  27.905  1.00  0.00     0.029 A 
ATOM     49  C   UNL A   1      42.874  25.756  27.654  1.00  0.00     0.049 A 
ATOM     50  H   UNL A   1      43.888  27.555  27.932  1.00  0.00     0.167 HD
ATOM     51  C   UNL A   1      45.816  31.487  28.326  1.00  0.00     0.037 A 
ATOM     52  C   UNL A   1      43.768  24.858  27.191  1.00  0.00     0.037 A 
ATOM     53  C   UNL A   1      46.852  30.586  27.898  1.00  0.00     0.049 A 
ATOM     54  C   UNL A   1      45.189  25.296  26.969  1.00  0.00     0.074 A 
ATOM     55  C   UNL A   1      48.198  30.851  27.715  1.00  0.00     0.029 A 
ATOM     56  N   UNL A   1      46.660  29.246  27.597  1.00  0.00    -0.354 N 
ATOM     57  N   UNL A   1      45.721  26.481  27.158  1.00  0.00    -0.248 NA
ATOM     58  C   UNL A   1      46.131  24.285  26.471  1.00  0.00     0.031 C 
ATOM     59  C   UNL A   1      48.813  29.678  27.269  1.00  0.00     0.029 A 
ATOM     60  C   UNL A   1      47.860  28.672  27.214  1.00  0.00     0.049 A 
ATOM     61  H   UNL A   1      45.798  28.772  27.648  1.00  0.00     0.167 HD
ATOM     62  C   UNL A   1      47.063  26.352  26.820  1.00  0.00     0.074 A 
ATOM     63  C   UNL A   1      47.264  24.974  26.423  1.00  0.00     0.031 C 
ATOM     64  C   UNL A   1      48.039  27.293  26.833  1.00  0.00     0.037 A 
BRANCH  51  65
ATOM     65  C   UNL A   1      46.180  32.924  28.581  1.00  0.00     0.058 A 
ATOM     66  C   UNL A   1      46.170  33.863  27.538  1.00  0.00     0.135 A 
ATOM     67  C   UNL A   1      46.587  33.362  29.852  1.00  0.00     0.135 A 
ATOM     68  F   UNL A   1      45.780  33.502  26.305  1.00  0.00    -0.206 F 
ATOM     69  C   UNL A   1      46.561  35.182  27.743  1.00  0.00     0.059 A 
ATOM     70  C   UNL A   1      46.958  34.682  30.086  1.00  0.00     0.059 A 
ATOM     71  F   UNL A   1      46.592  32.510  30.890  1.00  0.00    -0.206 F 
ATOM     72  C   UNL A   1      46.955  35.582  29.021  1.00  0.00     0.060 A 
BRANCH  72  73
ATOM     73  S   UNL A   1      47.428  37.305  29.280  1.00  0.00     0.124 S 
ATOM     74  O   UNL A   1      47.716  37.326  30.710  1.00  0.00    -0.237 OA
ATOM     75  O   UNL A   1      48.581  37.442  28.395  1.00  0.00    -0.237 OA
ATOM     76  O   UNL A   1      46.241  38.046  28.865  1.00  0.00    -0.744 OA
ENDBRANCH  72  73
ENDBRANCH  51  65
BRANCH  52  77
ATOM     77  C   UNL A   1      43.344  23.454  26.943  1.00  0.00     0.058 A 
ATOM     78  C   UNL A   1      43.136  22.551  27.996  1.00  0.00     0.135 A 
ATOM     79  C   UNL A   1      43.187  22.977  25.632  1.00  0.00     0.135 A 
ATOM     80  F   UNL A   1      43.284  22.952  29.267  1.00  0.00    -0.206 F 
ATOM     81  C   UNL A   1      42.817  21.217  27.759  1.00  0.00     0.059 A 
ATOM     82  C   UNL A   1      42.844  21.653  25.371  1.00  0.00     0.059 A 
ATOM     83  F   UNL A   1      43.363  23.807  24.592  1.00  0.00    -0.206 F 
ATOM     84  C   UNL A   1      42.680  20.776  26.442  1.00  0.00     0.060 A 
BRANCH  84  85
ATOM     85  S   UNL A   1      42.286  19.036  26.156  1.00  0.00     0.124 S 
ATOM     86  O   UNL A   1      42.561  18.457  27.466  1.00  0.00    -0.237 OA
ATOM     87  O   UNL A   1      40.880  19.100  25.771  1.00  0.00    -0.237 OA
ATOM     88  O   UNL A   1      43.209  18.652  25.091  1.00  0.00    -0.744 OA
ENDBRANCH  84  85
ENDBRANCH  52  77
BRANCH  64  89
ATOM     89  C   UNL A   1      49.422  26.874  26.427  1.00  0.00     0.058 A 
ATOM     90  C   UNL A   1      49.833  26.985  25.088  1.00  0.00     0.135 A 
ATOM     91  C   UNL A   1      50.294  26.254  27.335  1.00  0.00     0.135 A 
ATOM     92  F   UNL A   1      49.033  27.567  24.181  1.00  0.00    -0.206 F 
ATOM     93  C   UNL A   1      51.047  26.466  24.657  1.00  0.00     0.059 A 
ATOM     94  C   UNL A   1      51.524  25.747  26.930  1.00  0.00     0.059 A 
ATOM     95  F   UNL A   1      49.949  26.136  28.627  1.00  0.00    -0.206 F 
ATOM     96  C   UNL A   1      51.882  25.838  25.584  1.00  0.00     0.060 A 
BRANCH  96  97
ATOM     97  S   UNL A   1      53.441  25.140  25.001  1.00  0.00     0.124 S 
ATOM     98  O   UNL A   1      53.452  25.559  23.604  1.00  0.00    -0.237 OA
ATOM     99  O   UNL A   1      54.414  25.795  25.869  1.00  0.00    -0.237 OA
ATOM    100  O   UNL A   1      53.276  23.707  25.226  1.00  0.00    -0.744 OA
ENDBRANCH  96  97
ENDBRANCH  64  89
ENDBRANCH  38  39
ENDBRANCH  30  33
ENDBRANCH  28  29
ENDBRANCH  27  28
ENDBRANCH   1  27
TORSDOF 19
ENDMDL
MODEL 3
REMARK VINA RESULT:     -10.7      1.271      2.027
REMARK SMILES CC[C@@](C)([NH2+]CC(=O)N[C@@H](C)c1ccc(F)cc1)C(=O)NCCCNC(=O)c1ccc(-c2c3nc(c(-c4c(F)cc(S(=O)(=O)[O-])cc4F)c4ccc([nH]4)c(-c4c(F)cc(S(=O)(=O)[O-])cc4F)c4nc(c(-c5c(F)cc(S(=O)(=O)[O-])cc5F)c5ccc2[nH]5)C=C4)C=C3)cc1
REMARK SMILES IDX 22 1 21 2 19 3 20 4 3 6 4 7 2 8 1 9 5 10 6 13 7 14 8 15 9 16
REMARK SMILES IDX 10 18 11 19 12 20 13 21 18 22 14 23 17 24 15 25 16 26 23 27
REMARK SMILES IDX 24 28 25 29 26 30 27 32 28 33 29 34 93 35 30 36 92 37 31 38
REMARK SMILES IDX 32 39 33 40 86 41 34 42 91 43 85 44 87 45 35 46 90 47 84 48
REMARK SMILES IDX 83 49 36 51 70 52 49 53 69 54 50 55 53 56 68 57 88 58 51 59
REMARK SMILES IDX 52 60 67 62 89 63 54 64 37 65 38 66 47 67 39 68 40 69 46 70
REMARK SMILES IDX 48 71 41 72 42 73 43 74 44 75 45 76 71 77 72 78 81 79 73 80
REMARK SMILES IDX 74 81 80 82 82 83 75 84 76 85 77 86 78 87 79 88 55 89 56 90
REMARK SMILES IDX 65 91 57 92 58 93 64 94 66 95 59 96 60 97 61 98 62 99 63 100
REMARK H PARENT 21 5 5 11 5 12 9 17 25 31 87 50 53 61
REMARK Flexibility Score: inf
ROOT
ATOM      1  C   UNL A   1      32.717  27.006  25.663  1.00  0.00     0.118 C 
ENDROOT
BRANCH   1   2
ATOM      2  N   UNL A   1      31.317  27.006  26.072  1.00  0.00    -0.351 N 
ATOM      3  C   UNL A   1      30.404  26.139  25.470  1.00  0.00     0.281 C 
ATOM      4  O   UNL A   1      30.042  25.151  26.113  1.00  0.00    -0.268 OA
ATOM      5  H   UNL A   1      31.014  27.622  26.777  1.00  0.00     0.163 HD
BRANCH   3   6
ATOM      6  C   UNL A   1      29.757  26.547  24.062  1.00  0.00     0.172 C 
ATOM      7  C   UNL A   1      28.249  26.618  23.785  1.00  0.00     0.090 C 
BRANCH   6   8
ATOM      8  C   UNL A   1      30.219  28.054  23.929  1.00  0.00     0.075 C 
ATOM      9  C   UNL A   1      29.241  28.950  23.123  1.00  0.00     0.011 C 
ENDBRANCH   6   8
BRANCH   6  10
ATOM     10  N   UNL A   1      30.352  25.644  23.076  1.00  0.00    -0.326 N 
ATOM     11  H   UNL A   1      29.634  25.496  22.368  1.00  0.00     0.347 HD
ATOM     12  H   UNL A   1      30.660  24.878  23.675  1.00  0.00     0.347 HD
BRANCH  10  13
ATOM     13  C   UNL A   1      31.595  25.936  22.332  1.00  0.00     0.362 C 
BRANCH  13  14
ATOM     14  C   UNL A   1      32.719  24.998  21.790  1.00  0.00     0.275 C 
ATOM     15  O   UNL A   1      33.153  25.321  20.662  1.00  0.00    -0.268 OA
ATOM     16  N   UNL A   1      33.381  23.911  22.255  1.00  0.00    -0.345 N 
ATOM     17  H   UNL A   1      34.204  23.764  21.735  1.00  0.00     0.164 HD
BRANCH  16  18
ATOM     18  C   UNL A   1      33.247  22.887  23.297  1.00  0.00     0.109 C 
ATOM     19  C   UNL A   1      32.353  21.735  22.802  1.00  0.00     0.036 C 
BRANCH  18  20
ATOM     20  C   UNL A   1      34.572  22.353  23.854  1.00  0.00    -0.026 A 
ATOM     21  C   UNL A   1      35.795  22.921  23.431  1.00  0.00     0.009 A 
ATOM     22  C   UNL A   1      34.637  21.247  24.719  1.00  0.00     0.009 A 
ATOM     23  C   UNL A   1      37.024  22.436  23.882  1.00  0.00     0.039 A 
ATOM     24  C   UNL A   1      35.870  20.741  25.150  1.00  0.00     0.039 A 
ATOM     25  C   UNL A   1      37.051  21.345  24.735  1.00  0.00     0.123 A 
ATOM     26  F   UNL A   1      38.230  20.866  25.153  1.00  0.00    -0.207 F 
ENDBRANCH  18  20
ENDBRANCH  16  18
ENDBRANCH  13  14
ENDBRANCH  10  13
ENDBRANCH   6  10
ENDBRANCH   3   6
ENDBRANCH   1   2
BRANCH   1  27
ATOM     27  C   UNL A   1      33.595  28.128  26.200  1.00  0.00     0.042 C 
BRANCH  27  28
ATOM     28  C   UNL A   1      33.149  28.634  27.572  1.00  0.00     0.118 C 
BRANCH  28  29
ATOM     29  N   UNL A   1      33.307  30.080  27.753  1.00  0.00    -0.352 N 
ATOM     30  C   UNL A   1      34.407  30.826  28.113  1.00  0.00     0.251 C 
ATOM     31  H   UNL A   1      32.490  30.605  27.591  1.00  0.00     0.163 HD
ATOM     32  O   UNL A   1      34.283  32.037  28.292  1.00  0.00    -0.269 OA
BRANCH  30  33
ATOM     33  C   UNL A   1      35.718  30.173  28.317  1.00  0.00     0.039 A 
ATOM     34  C   UNL A   1      36.643  30.139  27.269  1.00  0.00     0.014 A 
ATOM     35  C   UNL A   1      36.052  29.634  29.559  1.00  0.00     0.014 A 
ATOM     36  C   UNL A   1      37.942  29.679  27.508  1.00  0.00     0.010 A 
ATOM     37  C   UNL A   1      37.368  29.278  29.823  1.00  0.00     0.010 A 
ATOM     38  C   UNL A   1      38.333  29.310  28.805  1.00  0.00    -0.014 A 
BRANCH  38  39
ATOM     39  C   UNL A   1      39.741  28.979  29.144  1.00  0.00     0.031 A 
ATOM     40  C   UNL A   1      40.617  30.015  29.796  1.00  0.00     0.074 A 
ATOM     41  C   UNL A   1      40.258  27.792  28.765  1.00  0.00     0.049 A 
ATOM     42  N   UNL A   1      41.904  29.983  30.025  1.00  0.00    -0.248 NA
ATOM     43  C   UNL A   1      39.967  31.271  30.206  1.00  0.00     0.031 C 
ATOM     44  C   UNL A   1      39.523  26.728  28.076  1.00  0.00     0.029 A 
ATOM     45  N   UNL A   1      41.527  27.283  28.892  1.00  0.00    -0.354 N 
ATOM     46  C   UNL A   1      42.219  31.217  30.581  1.00  0.00     0.074 A 
ATOM     47  C   UNL A   1      41.003  31.997  30.601  1.00  0.00     0.031 C 
ATOM     48  C   UNL A   1      40.342  25.684  27.873  1.00  0.00     0.029 A 
ATOM     49  C   UNL A   1      41.672  26.018  28.369  1.00  0.00     0.049 A 
ATOM     50  H   UNL A   1      42.265  27.777  29.315  1.00  0.00     0.167 HD
ATOM     51  C   UNL A   1      43.409  31.648  31.061  1.00  0.00     0.037 A 
ATOM     52  C   UNL A   1      42.756  25.219  28.290  1.00  0.00     0.037 A 
ATOM     53  C   UNL A   1      44.601  30.843  31.081  1.00  0.00     0.049 A 
ATOM     54  C   UNL A   1      44.066  25.717  28.835  1.00  0.00     0.074 A 
ATOM     55  C   UNL A   1      45.842  31.162  31.602  1.00  0.00     0.029 A 
ATOM     56  N   UNL A   1      44.698  29.559  30.565  1.00  0.00    -0.354 N 
ATOM     57  N   UNL A   1      44.335  26.871  29.398  1.00  0.00    -0.248 NA
ATOM     58  C   UNL A   1      45.220  24.812  28.735  1.00  0.00     0.031 C 
ATOM     59  C   UNL A   1      46.699  30.082  31.370  1.00  0.00     0.029 A 
ATOM     60  C   UNL A   1      45.982  29.076  30.742  1.00  0.00     0.049 A 
ATOM     61  H   UNL A   1      43.962  29.064  30.137  1.00  0.00     0.167 HD
ATOM     62  C   UNL A   1      45.683  26.823  29.736  1.00  0.00     0.074 A 
ATOM     63  C   UNL A   1      46.172  25.525  29.323  1.00  0.00     0.031 C 
ATOM     64  C   UNL A   1      46.445  27.773  30.332  1.00  0.00     0.037 A 
BRANCH  51  65
ATOM     65  C   UNL A   1      43.475  33.037  31.631  1.00  0.00     0.058 A 
ATOM     66  C   UNL A   1      43.826  34.129  30.821  1.00  0.00     0.135 A 
ATOM     67  C   UNL A   1      43.240  33.282  32.994  1.00  0.00     0.135 A 
ATOM     68  F   UNL A   1      44.053  33.954  29.510  1.00  0.00    -0.206 F 
ATOM     69  C   UNL A   1      43.952  35.412  31.345  1.00  0.00     0.059 A 
ATOM     70  C   UNL A   1      43.334  34.561  33.534  1.00  0.00     0.059 A 
ATOM     71  F   UNL A   1      42.879  32.277  33.808  1.00  0.00    -0.206 F 
ATOM     72  C   UNL A   1      43.704  35.617  32.703  1.00  0.00     0.060 A 
BRANCH  72  73
ATOM     73  S   UNL A   1      43.838  37.294  33.361  1.00  0.00     0.124 S 
ATOM     74  O   UNL A   1      43.795  38.098  32.146  1.00  0.00    -0.237 OA
ATOM     75  O   UNL A   1      42.664  37.378  34.226  1.00  0.00    -0.237 OA
ATOM     76  O   UNL A   1      45.120  37.278  34.062  1.00  0.00    -0.744 OA
ENDBRANCH  72  73
ENDBRANCH  51  65
BRANCH  52  77
ATOM     77  C   UNL A   1      42.630  23.859  27.701  1.00  0.00     0.058 A 
ATOM     78  C   UNL A   1      42.428  22.726  28.502  1.00  0.00     0.135 A 
ATOM     79  C   UNL A   1      42.762  23.666  26.317  1.00  0.00     0.135 A 
ATOM     80  F   UNL A   1      42.307  22.854  29.832  1.00  0.00    -0.206 F 
ATOM     81  C   UNL A   1      42.390  21.446  27.957  1.00  0.00     0.059 A 
ATOM     82  C   UNL A   1      42.703  22.397  25.746  1.00  0.00     0.059 A 
ATOM     83  F   UNL A   1      42.944  24.721  25.508  1.00  0.00    -0.206 F 
ATOM     84  C   UNL A   1      42.535  21.292  26.578  1.00  0.00     0.060 A 
BRANCH  84  85
ATOM     85  S   UNL A   1      42.504  19.620  25.893  1.00  0.00     0.124 S 
ATOM     86  O   UNL A   1      42.899  18.825  27.050  1.00  0.00    -0.237 OA
ATOM     87  O   UNL A   1      41.113  19.487  25.475  1.00  0.00    -0.237 OA
ATOM     88  O   UNL A   1      43.480  19.681  24.808  1.00  0.00    -0.744 OA
ENDBRANCH  84  85
ENDBRANCH  52  77
BRANCH  64  89
ATOM     89  C   UNL A   1      47.887  27.450  30.595  1.00  0.00     0.058 A 
ATOM     90  C   UNL A   1      48.871  27.763  29.643  1.00  0.00     0.135 A 
ATOM     91  C   UNL A   1      48.277  26.727  31.733  1.00  0.00     0.135 A 
ATOM     92  F   UNL A   1      48.546  28.451  28.536  1.00  0.00    -0.206 F 
ATOM     93  C   UNL A   1      50.185  27.339  29.792  1.00  0.00     0.059 A 
ATOM     94  C   UNL A   1      49.593  26.313  31.914  1.00  0.00     0.059 A 
ATOM     95  F   UNL A   1      47.374  26.415  32.677  1.00  0.00    -0.206 F 
ATOM     96  C   UNL A   1      50.535  26.605  30.926  1.00  0.00     0.060 A 
BRANCH  96  97
ATOM     97  S   UNL A   1      52.240  26.035  31.089  1.00  0.00     0.124 S 
ATOM     98  O   UNL A   1      52.674  25.992  29.698  1.00  0.00    -0.237 OA
ATOM     99  O   UNL A   1      52.837  27.084  31.910  1.00  0.00    -0.237 OA
ATOM    100  O   UNL A   1      52.103  24.738  31.745  1.00  0.00    -0.744 OA
ENDBRANCH  96  97
ENDBRANCH  64  89
ENDBRANCH  38  39
ENDBRANCH  30  33
ENDBRANCH  28  29
ENDBRANCH  27  28
ENDBRANCH   1  27
TORSDOF 19
ENDMDL
