MODEL 1
REMARK VINA RESULT:     -13.1      0.000      0.000
REMARK SMILES Nn1c(S[C@@H](C(=O)NCCCNC(=O)c2ccc(-c3c4nc(c(-c5c(F)cc(S(=O)(=O)[O-])cc5F)c5ccc([nH]5)c(-c5c(F)cc(S(=O)(=O)[O-])cc5F)c5nc(c(-c6c(F)cc(S(=O)(=O)[O-])cc6F)c6ccc3[nH]6)C=C5)C=C4)cc2)c2ccccc2)nc2ccc(Br)cc2c1=O
REMARK SMILES IDX 10 1 9 2 8 3 6 4 7 5 5 7 4 8 3 9 2 10 95 11 87 12 94 13
REMARK SMILES IDX 96 14 88 15 93 16 89 17 91 18 90 19 92 20 1 21 81 24 82 25
REMARK SMILES IDX 86 26 83 27 85 28 84 29 11 30 12 31 13 32 14 34 15 35 16 36
REMARK SMILES IDX 80 37 17 38 79 39 18 40 19 41 20 42 73 43 21 44 78 45 72 46
REMARK SMILES IDX 74 47 22 48 77 49 71 50 70 51 23 53 57 54 36 55 56 56 37 57
REMARK SMILES IDX 40 58 55 59 75 60 38 61 39 62 54 64 76 65 41 66 24 67 25 68
REMARK SMILES IDX 34 69 26 70 27 71 33 72 35 73 28 74 29 75 30 76 31 77 32 78
REMARK SMILES IDX 58 79 59 80 68 81 60 82 61 83 67 84 69 85 62 86 63 87 64 88
REMARK SMILES IDX 65 89 66 90 42 91 43 92 52 93 44 94 45 95 51 96 53 97 46 98
REMARK SMILES IDX 47 99 48 100 49 101 50 102
REMARK H PARENT 8 6 1 22 1 23 12 33 74 52 40 63
REMARK Flexibility Score: inf
ROOT
ATOM      1  C   UNL A   1      34.189  28.680  26.721  1.00  0.00     0.042 C 
ENDROOT
BRANCH   1   2
ATOM      2  C   UNL A   1      33.131  29.457  25.936  1.00  0.00     0.117 C 
BRANCH   2   3
ATOM      3  N   UNL A   1      33.273  29.311  24.497  1.00  0.00    -0.355 N 
ATOM      4  C   UNL A   1      32.376  28.956  23.521  1.00  0.00     0.238 C 
ATOM      5  O   UNL A   1      32.877  28.837  22.397  1.00  0.00    -0.273 OA
ATOM      6  H   UNL A   1      34.177  29.500  24.160  1.00  0.00     0.163 HD
BRANCH   4   7
ATOM      7  C   UNL A   1      30.872  28.750  23.849  1.00  0.00     0.174 C 
BRANCH   7   8
ATOM      8  S   UNL A   1      30.400  27.039  23.489  1.00  0.00    -0.068 SA
BRANCH   8   9
ATOM      9  C   UNL A   1      31.365  25.841  24.315  1.00  0.00     0.191 A 
ATOM     10  N   UNL A   1      31.187  25.377  25.617  1.00  0.00    -0.202 N 
ATOM     11  C   UNL A   1      32.015  24.394  26.173  1.00  0.00     0.280 A 
ATOM     12  N   UNL A   1      32.309  25.383  23.550  1.00  0.00    -0.222 NA
ATOM     13  C   UNL A   1      33.092  23.888  25.316  1.00  0.00     0.069 A 
ATOM     14  O   UNL A   1      31.891  23.973  27.325  1.00  0.00    -0.267 OA
ATOM     15  C   UNL A   1      33.192  24.417  24.034  1.00  0.00     0.079 A 
ATOM     16  C   UNL A   1      33.996  22.931  25.788  1.00  0.00     0.031 A 
ATOM     17  C   UNL A   1      34.225  23.974  23.206  1.00  0.00     0.030 A 
ATOM     18  C   UNL A   1      35.023  22.506  24.951  1.00  0.00     0.018 A 
ATOM     19  C   UNL A   1      35.144  23.022  23.661  1.00  0.00     0.018 A 
ATOM     20  Br  UNL A   1      36.272  21.233  25.576  1.00  0.00    -0.051 Br
BRANCH  10  21
ATOM     21  N   UNL A   1      30.232  25.897  26.500  1.00  0.00    -0.334 N 
ATOM     22  H   UNL A   1      29.393  25.409  26.661  1.00  0.00     0.178 HD
ATOM     23  H   UNL A   1      30.400  26.751  26.960  1.00  0.00     0.178 HD
ENDBRANCH  10  21
ENDBRANCH   8   9
ENDBRANCH   7   8
BRANCH   7  24
ATOM     24  C   UNL A   1      29.839  29.809  23.431  1.00  0.00    -0.025 A 
ATOM     25  C   UNL A   1      28.962  29.559  22.352  1.00  0.00     0.005 A 
ATOM     26  C   UNL A   1      29.693  31.039  24.095  1.00  0.00     0.005 A 
ATOM     27  C   UNL A   1      28.074  30.532  21.888  1.00  0.00     0.000 A 
ATOM     28  C   UNL A   1      28.810  32.018  23.625  1.00  0.00     0.000 A 
ATOM     29  C   UNL A   1      28.014  31.771  22.513  1.00  0.00     0.000 A 
ENDBRANCH   7  24
ENDBRANCH   4   7
ENDBRANCH   2   3
ENDBRANCH   1   2
BRANCH   1  30
ATOM     30  C   UNL A   1      35.320  29.524  27.304  1.00  0.00     0.118 C 
BRANCH  30  31
ATOM     31  N   UNL A   1      35.217  29.720  28.742  1.00  0.00    -0.352 N 
ATOM     32  C   UNL A   1      36.203  29.737  29.704  1.00  0.00     0.251 C 
ATOM     33  H   UNL A   1      34.303  29.860  29.080  1.00  0.00     0.163 HD
ATOM     34  O   UNL A   1      35.889  29.795  30.890  1.00  0.00    -0.269 OA
BRANCH  32  35
ATOM     35  C   UNL A   1      37.630  29.646  29.319  1.00  0.00     0.039 A 
ATOM     36  C   UNL A   1      38.022  29.673  27.978  1.00  0.00     0.014 A 
ATOM     37  C   UNL A   1      38.592  29.514  30.324  1.00  0.00     0.014 A 
ATOM     38  C   UNL A   1      39.343  29.391  27.638  1.00  0.00     0.010 A 
ATOM     39  C   UNL A   1      39.932  29.304  29.982  1.00  0.00     0.010 A 
ATOM     40  C   UNL A   1      40.309  29.181  28.635  1.00  0.00    -0.014 A 
BRANCH  40  41
ATOM     41  C   UNL A   1      41.693  28.784  28.258  1.00  0.00     0.031 A 
ATOM     42  C   UNL A   1      42.813  29.793  28.306  1.00  0.00     0.074 A 
ATOM     43  C   UNL A   1      41.958  27.505  27.924  1.00  0.00     0.049 A 
ATOM     44  N   UNL A   1      44.074  29.643  27.989  1.00  0.00    -0.248 NA
ATOM     45  C   UNL A   1      42.472  31.148  28.770  1.00  0.00     0.031 C 
ATOM     46  C   UNL A   1      40.970  26.426  27.864  1.00  0.00     0.029 A 
ATOM     47  N   UNL A   1      43.140  26.893  27.593  1.00  0.00    -0.354 N 
ATOM     48  C   UNL A   1      44.672  30.882  28.197  1.00  0.00     0.074 A 
ATOM     49  C   UNL A   1      43.630  31.781  28.643  1.00  0.00     0.031 C 
ATOM     50  C   UNL A   1      41.593  25.277  27.559  1.00  0.00     0.029 A 
ATOM     51  C   UNL A   1      43.012  25.546  27.347  1.00  0.00     0.049 A 
ATOM     52  H   UNL A   1      43.998  27.371  27.536  1.00  0.00     0.167 HD
ATOM     53  C   UNL A   1      45.970  31.235  28.045  1.00  0.00     0.037 A 
ATOM     54  C   UNL A   1      43.929  24.631  26.979  1.00  0.00     0.037 A 
ATOM     55  C   UNL A   1      47.014  30.334  27.628  1.00  0.00     0.049 A 
ATOM     56  C   UNL A   1      45.356  25.059  26.775  1.00  0.00     0.074 A 
ATOM     57  C   UNL A   1      48.362  30.600  27.449  1.00  0.00     0.029 A 
ATOM     58  N   UNL A   1      46.831  28.992  27.334  1.00  0.00    -0.354 N 
ATOM     59  N   UNL A   1      45.893  26.242  26.944  1.00  0.00    -0.248 NA
ATOM     60  C   UNL A   1      46.297  24.028  26.314  1.00  0.00     0.031 C 
ATOM     61  C   UNL A   1      48.987  29.425  27.020  1.00  0.00     0.029 A 
ATOM     62  C   UNL A   1      48.038  28.418  26.966  1.00  0.00     0.049 A 
ATOM     63  H   UNL A   1      45.971  28.515  27.381  1.00  0.00     0.167 HD
ATOM     64  C   UNL A   1      47.236  26.099  26.616  1.00  0.00     0.074 A 
ATOM     65  C   UNL A   1      47.434  24.709  26.260  1.00  0.00     0.031 C 
ATOM     66  C   UNL A   1      48.216  27.036  26.601  1.00  0.00     0.037 A 
BRANCH  53  67
ATOM     67  C   UNL A   1      46.345  32.664  28.327  1.00  0.00     0.058 A 
ATOM     68  C   UNL A   1      46.774  33.072  29.600  1.00  0.00     0.135 A 
ATOM     69  C   UNL A   1      46.328  33.623  27.301  1.00  0.00     0.135 A 
ATOM     70  F   UNL A   1      46.791  32.200  30.620  1.00  0.00    -0.206 F 
ATOM     71  C   UNL A   1      47.161  34.385  29.849  1.00  0.00     0.059 A 
ATOM     72  C   UNL A   1      46.731  34.936  27.523  1.00  0.00     0.059 A 
ATOM     73  F   UNL A   1      45.924  33.284  26.067  1.00  0.00    -0.206 F 
ATOM     74  C   UNL A   1      47.137  35.311  28.803  1.00  0.00     0.060 A 
BRANCH  74  75
ATOM     75  S   UNL A   1      47.660  37.005  29.140  1.00  0.00     0.124 S 
ATOM     76  O   UNL A   1      48.123  36.898  30.520  1.00  0.00    -0.237 OA
ATOM     77  O   UNL A   1      48.701  37.216  28.138  1.00  0.00    -0.237 OA
ATOM     78  O   UNL A   1      46.441  37.784  28.945  1.00  0.00    -0.744 OA
ENDBRANCH  74  75
ENDBRANCH  53  67
BRANCH  54  79
ATOM     79  C   UNL A   1      43.521  23.218  26.770  1.00  0.00     0.058 A 
ATOM     80  C   UNL A   1      43.408  22.685  25.478  1.00  0.00     0.135 A 
ATOM     81  C   UNL A   1      43.257  22.369  27.856  1.00  0.00     0.135 A 
ATOM     82  F   UNL A   1      43.640  23.462  24.409  1.00  0.00    -0.206 F 
ATOM     83  C   UNL A   1      43.043  21.360  25.268  1.00  0.00     0.059 A 
ATOM     84  C   UNL A   1      42.913  21.035  27.672  1.00  0.00     0.059 A 
ATOM     85  F   UNL A   1      43.362  22.831  29.112  1.00  0.00    -0.206 F 
ATOM     86  C   UNL A   1      42.801  20.541  26.373  1.00  0.00     0.060 A 
BRANCH  86  87
ATOM     87  S   UNL A   1      42.390  18.805  26.092  1.00  0.00     0.124 S 
ATOM     88  O   UNL A   1      40.987  18.894  25.705  1.00  0.00    -0.237 OA
ATOM     89  O   UNL A   1      43.323  18.435  25.032  1.00  0.00    -0.237 OA
ATOM     90  O   UNL A   1      42.651  18.186  27.388  1.00  0.00    -0.744 OA
ENDBRANCH  86  87
ENDBRANCH  54  79
BRANCH  66  91
ATOM     91  C   UNL A   1      49.588  26.586  26.190  1.00  0.00     0.058 A 
ATOM     92  C   UNL A   1      50.058  26.781  24.882  1.00  0.00     0.135 A 
ATOM     93  C   UNL A   1      50.451  25.982  27.117  1.00  0.00     0.135 A 
ATOM     94  F   UNL A   1      49.267  27.349  23.958  1.00  0.00    -0.206 F 
ATOM     95  C   UNL A   1      51.330  26.370  24.499  1.00  0.00     0.059 A 
ATOM     96  C   UNL A   1      51.736  25.582  26.762  1.00  0.00     0.059 A 
ATOM     97  F   UNL A   1      50.053  25.781  28.383  1.00  0.00    -0.206 F 
ATOM     98  C   UNL A   1      52.161  25.767  25.447  1.00  0.00     0.060 A 
BRANCH  98  99
ATOM     99  S   UNL A   1      53.816  25.250  24.942  1.00  0.00     0.124 S 
ATOM    100  O   UNL A   1      53.662  23.801  24.875  1.00  0.00    -0.237 OA
ATOM    101  O   UNL A   1      53.980  25.930  23.661  1.00  0.00    -0.237 OA
ATOM    102  O   UNL A   1      54.669  25.742  26.020  1.00  0.00    -0.744 OA
ENDBRANCH  98  99
ENDBRANCH  66  91
ENDBRANCH  40  41
ENDBRANCH  32  35
ENDBRANCH  30  31
ENDBRANCH   1  30
TORSDOF 17
ENDMDL
MODEL 2
REMARK VINA RESULT:     -12.9      1.015      2.202
REMARK SMILES Nn1c(S[C@@H](C(=O)NCCCNC(=O)c2ccc(-c3c4nc(c(-c5c(F)cc(S(=O)(=O)[O-])cc5F)c5ccc([nH]5)c(-c5c(F)cc(S(=O)(=O)[O-])cc5F)c5nc(c(-c6c(F)cc(S(=O)(=O)[O-])cc6F)c6ccc3[nH]6)C=C5)C=C4)cc2)c2ccccc2)nc2ccc(Br)cc2c1=O
REMARK SMILES IDX 10 1 9 2 8 3 6 4 7 5 5 7 4 8 3 9 2 10 95 11 87 12 94 13
REMARK SMILES IDX 96 14 88 15 93 16 89 17 91 18 90 19 92 20 1 21 81 24 82 25
REMARK SMILES IDX 86 26 83 27 85 28 84 29 11 30 12 31 13 32 14 34 15 35 16 36
REMARK SMILES IDX 80 37 17 38 79 39 18 40 19 41 20 42 73 43 21 44 78 45 72 46
REMARK SMILES IDX 74 47 22 48 77 49 71 50 70 51 23 53 57 54 36 55 56 56 37 57
REMARK SMILES IDX 40 58 55 59 75 60 38 61 39 62 54 64 76 65 41 66 24 67 25 68
REMARK SMILES IDX 34 69 26 70 27 71 33 72 35 73 28 74 29 75 30 76 31 77 32 78
REMARK SMILES IDX 58 79 59 80 68 81 60 82 61 83 67 84 69 85 62 86 63 87 64 88
REMARK SMILES IDX 65 89 66 90 42 91 43 92 52 93 44 94 45 95 51 96 53 97 46 98
REMARK SMILES IDX 47 99 48 100 49 101 50 102
REMARK H PARENT 8 6 1 22 1 23 12 33 74 52 40 63
REMARK Flexibility Score: inf
ROOT
ATOM      1  C   UNL A   1      33.463  29.653  26.814  1.00  0.00     0.042 C 
ENDROOT
BRANCH   1   2
ATOM      2  C   UNL A   1      32.999  28.455  25.984  1.00  0.00     0.117 C 
BRANCH   2   3
ATOM      3  N   UNL A   1      33.129  28.673  24.553  1.00  0.00    -0.355 N 
ATOM      4  C   UNL A   1      32.196  28.747  23.550  1.00  0.00     0.238 C 
ATOM      5  O   UNL A   1      32.681  28.848  22.418  1.00  0.00    -0.273 OA
ATOM      6  H   UNL A   1      34.057  28.789  24.246  1.00  0.00     0.163 HD
BRANCH   4   7
ATOM      7  C   UNL A   1      30.676  28.720  23.865  1.00  0.00     0.174 C 
BRANCH   7   8
ATOM      8  S   UNL A   1      30.052  27.027  23.708  1.00  0.00    -0.068 SA
BRANCH   8   9
ATOM      9  C   UNL A   1      31.300  25.818  23.530  1.00  0.00     0.191 A 
ATOM     10  N   UNL A   1      31.944  25.450  22.351  1.00  0.00    -0.202 N 
ATOM     11  C   UNL A   1      32.949  24.475  22.329  1.00  0.00     0.280 A 
ATOM     12  N   UNL A   1      31.601  25.277  24.671  1.00  0.00    -0.222 NA
ATOM     13  C   UNL A   1      33.280  23.850  23.614  1.00  0.00     0.069 A 
ATOM     14  O   UNL A   1      33.527  24.119  21.300  1.00  0.00    -0.267 OA
ATOM     15  C   UNL A   1      32.577  24.281  24.734  1.00  0.00     0.079 A 
ATOM     16  C   UNL A   1      34.244  22.841  23.696  1.00  0.00     0.031 A 
ATOM     17  C   UNL A   1      32.851  23.684  25.966  1.00  0.00     0.030 A 
ATOM     18  C   UNL A   1      34.498  22.252  24.930  1.00  0.00     0.018 A 
ATOM     19  C   UNL A   1      33.808  22.669  26.068  1.00  0.00     0.018 A 
ATOM     20  Br  UNL A   1      35.779  20.869  25.060  1.00  0.00    -0.051 Br
BRANCH  10  21
ATOM     21  N   UNL A   1      31.598  25.953  21.090  1.00  0.00    -0.334 N 
ATOM     22  H   UNL A   1      30.726  25.727  20.692  1.00  0.00     0.178 HD
ATOM     23  H   UNL A   1      32.226  26.532  20.602  1.00  0.00     0.178 HD
ENDBRANCH  10  21
ENDBRANCH   8   9
ENDBRANCH   7   8
BRANCH   7  24
ATOM     24  C   UNL A   1      29.750  29.807  23.295  1.00  0.00    -0.025 A 
ATOM     25  C   UNL A   1      29.527  31.000  24.017  1.00  0.00     0.005 A 
ATOM     26  C   UNL A   1      29.112  29.692  22.048  1.00  0.00     0.005 A 
ATOM     27  C   UNL A   1      28.622  31.968  23.574  1.00  0.00     0.000 A 
ATOM     28  C   UNL A   1      28.199  30.657  21.607  1.00  0.00     0.000 A 
ATOM     29  C   UNL A   1      27.941  31.785  22.377  1.00  0.00     0.000 A 
ENDBRANCH   7  24
ENDBRANCH   4   7
ENDBRANCH   2   3
ENDBRANCH   1   2
BRANCH   1  30
ATOM     30  C   UNL A   1      34.796  29.469  27.536  1.00  0.00     0.118 C 
BRANCH  30  31
ATOM     31  N   UNL A   1      34.926  30.285  28.734  1.00  0.00    -0.352 N 
ATOM     32  C   UNL A   1      36.002  30.451  29.576  1.00  0.00     0.251 C 
ATOM     33  H   UNL A   1      34.121  30.795  28.980  1.00  0.00     0.163 HD
ATOM     34  O   UNL A   1      35.864  31.096  30.613  1.00  0.00    -0.269 OA
BRANCH  32  35
ATOM     35  C   UNL A   1      37.306  29.826  29.262  1.00  0.00     0.039 A 
ATOM     36  C   UNL A   1      38.057  29.180  30.248  1.00  0.00     0.014 A 
ATOM     37  C   UNL A   1      37.794  29.904  27.954  1.00  0.00     0.014 A 
ATOM     38  C   UNL A   1      39.360  28.774  29.970  1.00  0.00     0.010 A 
ATOM     39  C   UNL A   1      39.076  29.428  27.659  1.00  0.00     0.010 A 
ATOM     40  C   UNL A   1      39.892  28.913  28.678  1.00  0.00    -0.014 A 
BRANCH  40  41
ATOM     41  C   UNL A   1      41.317  28.566  28.420  1.00  0.00     0.031 A 
ATOM     42  C   UNL A   1      42.395  29.605  28.597  1.00  0.00     0.074 A 
ATOM     43  C   UNL A   1      41.651  27.305  28.079  1.00  0.00     0.049 A 
ATOM     44  N   UNL A   1      43.684  29.501  28.395  1.00  0.00    -0.248 NA
ATOM     45  C   UNL A   1      41.971  30.936  29.062  1.00  0.00     0.031 C 
ATOM     46  C   UNL A   1      40.707  26.201  27.901  1.00  0.00     0.029 A 
ATOM     47  N   UNL A   1      42.877  26.737  27.843  1.00  0.00    -0.354 N 
ATOM     48  C   UNL A   1      44.221  30.750  28.688  1.00  0.00     0.074 A 
ATOM     49  C   UNL A   1      43.115  31.606  29.059  1.00  0.00     0.031 C 
ATOM     50  C   UNL A   1      41.391  25.079  27.626  1.00  0.00     0.029 A 
ATOM     51  C   UNL A   1      42.814  25.394  27.552  1.00  0.00     0.049 A 
ATOM     52  H   UNL A   1      43.721  27.242  27.878  1.00  0.00     0.167 HD
ATOM     53  C   UNL A   1      45.517  31.145  28.666  1.00  0.00     0.037 A 
ATOM     54  C   UNL A   1      43.790  24.518  27.247  1.00  0.00     0.037 A 
ATOM     55  C   UNL A   1      46.622  30.286  28.324  1.00  0.00     0.049 A 
ATOM     56  C   UNL A   1      45.215  24.992  27.186  1.00  0.00     0.074 A 
ATOM     57  C   UNL A   1      47.971  30.596  28.278  1.00  0.00     0.029 A 
ATOM     58  N   UNL A   1      46.509  28.948  27.981  1.00  0.00    -0.354 N 
ATOM     59  N   UNL A   1      45.697  26.185  27.435  1.00  0.00    -0.248 NA
ATOM     60  C   UNL A   1      46.226  24.002  26.789  1.00  0.00     0.031 C 
ATOM     61  C   UNL A   1      48.670  29.452  27.878  1.00  0.00     0.029 A 
ATOM     62  C   UNL A   1      47.762  28.420  27.711  1.00  0.00     0.049 A 
ATOM     63  H   UNL A   1      45.664  28.446  27.935  1.00  0.00     0.167 HD
ATOM     64  C   UNL A   1      47.068  26.090  27.229  1.00  0.00     0.074 A 
ATOM     65  C   UNL A   1      47.341  24.717  26.857  1.00  0.00     0.031 C 
ATOM     66  C   UNL A   1      48.016  27.055  27.329  1.00  0.00     0.037 A 
BRANCH  53  67
ATOM     67  C   UNL A   1      45.819  32.575  29.018  1.00  0.00     0.058 A 
ATOM     68  C   UNL A   1      45.831  33.584  28.042  1.00  0.00     0.135 A 
ATOM     69  C   UNL A   1      46.047  32.950  30.352  1.00  0.00     0.135 A 
ATOM     70  F   UNL A   1      45.639  33.277  26.750  1.00  0.00    -0.206 F 
ATOM     71  C   UNL A   1      46.070  34.914  28.376  1.00  0.00     0.059 A 
ATOM     72  C   UNL A   1      46.267  34.276  30.711  1.00  0.00     0.059 A 
ATOM     73  F   UNL A   1      46.048  32.022  31.323  1.00  0.00    -0.206 F 
ATOM     74  C   UNL A   1      46.286  35.250  29.714  1.00  0.00     0.060 A 
BRANCH  74  75
ATOM     75  S   UNL A   1      46.576  36.983  30.131  1.00  0.00     0.124 S 
ATOM     76  O   UNL A   1      48.033  37.025  30.198  1.00  0.00    -0.237 OA
ATOM     77  O   UNL A   1      45.974  37.681  28.999  1.00  0.00    -0.237 OA
ATOM     78  O   UNL A   1      45.884  37.148  31.405  1.00  0.00    -0.744 OA
ENDBRANCH  74  75
ENDBRANCH  53  67
BRANCH  54  79
ATOM     79  C   UNL A   1      43.447  23.099  26.965  1.00  0.00     0.058 A 
ATOM     80  C   UNL A   1      43.017  22.246  27.991  1.00  0.00     0.135 A 
ATOM     81  C   UNL A   1      43.522  22.578  25.665  1.00  0.00     0.135 A 
ATOM     82  F   UNL A   1      42.941  22.697  29.252  1.00  0.00    -0.206 F 
ATOM     83  C   UNL A   1      42.678  20.920  27.738  1.00  0.00     0.059 A 
ATOM     84  C   UNL A   1      43.165  21.264  25.384  1.00  0.00     0.059 A 
ATOM     85  F   UNL A   1      43.917  23.361  24.648  1.00  0.00    -0.206 F 
ATOM     86  C   UNL A   1      42.751  20.441  26.430  1.00  0.00     0.060 A 
BRANCH  86  87
ATOM     87  S   UNL A   1      42.246  18.738  26.101  1.00  0.00     0.124 S 
ATOM     88  O   UNL A   1      42.520  18.098  27.382  1.00  0.00    -0.237 OA
ATOM     89  O   UNL A   1      40.838  18.896  25.754  1.00  0.00    -0.237 OA
ATOM     90  O   UNL A   1      43.113  18.340  24.996  1.00  0.00    -0.744 OA
ENDBRANCH  86  87
ENDBRANCH  54  79
BRANCH  66  91
ATOM     91  C   UNL A   1      49.433  26.656  27.035  1.00  0.00     0.058 A 
ATOM     92  C   UNL A   1      50.307  26.263  28.061  1.00  0.00     0.135 A 
ATOM     93  C   UNL A   1      49.914  26.637  25.717  1.00  0.00     0.135 A 
ATOM     94  F   UNL A   1      49.896  26.270  29.338  1.00  0.00    -0.206 F 
ATOM     95  C   UNL A   1      51.619  25.888  27.792  1.00  0.00     0.059 A 
ATOM     96  C   UNL A   1      51.215  26.244  25.422  1.00  0.00     0.059 A 
ATOM     97  F   UNL A   1      49.114  26.994  24.700  1.00  0.00    -0.206 F 
ATOM     98  C   UNL A   1      52.066  25.886  26.468  1.00  0.00     0.060 A 
BRANCH  98  99
ATOM     99  S   UNL A   1      53.766  25.383  26.130  1.00  0.00     0.124 S 
ATOM    100  O   UNL A   1      54.377  25.511  27.448  1.00  0.00    -0.237 OA
ATOM    101  O   UNL A   1      53.599  24.019  25.638  1.00  0.00    -0.237 OA
ATOM    102  O   UNL A   1      54.214  26.352  25.134  1.00  0.00    -0.744 OA
ENDBRANCH  98  99
ENDBRANCH  66  91
ENDBRANCH  40  41
ENDBRANCH  32  35
ENDBRANCH  30  31
ENDBRANCH   1  30
TORSDOF 17
ENDMDL
MODEL 3
REMARK VINA RESULT:     -12.6      2.768      8.924
REMARK SMILES Nn1c(S[C@@H](C(=O)NCCCNC(=O)c2ccc(-c3c4nc(c(-c5c(F)cc(S(=O)(=O)[O-])cc5F)c5ccc([nH]5)c(-c5c(F)cc(S(=O)(=O)[O-])cc5F)c5nc(c(-c6c(F)cc(S(=O)(=O)[O-])cc6F)c6ccc3[nH]6)C=C5)C=C4)cc2)c2ccccc2)nc2ccc(Br)cc2c1=O
REMARK SMILES IDX 10 1 9 2 8 3 6 4 7 5 5 7 4 8 3 9 2 10 95 11 87 12 94 13
REMARK SMILES IDX 96 14 88 15 93 16 89 17 91 18 90 19 92 20 1 21 81 24 82 25
REMARK SMILES IDX 86 26 83 27 85 28 84 29 11 30 12 31 13 32 14 34 15 35 16 36
REMARK SMILES IDX 80 37 17 38 79 39 18 40 19 41 20 42 73 43 21 44 78 45 72 46
REMARK SMILES IDX 74 47 22 48 77 49 71 50 70 51 23 53 57 54 36 55 56 56 37 57
REMARK SMILES IDX 40 58 55 59 75 60 38 61 39 62 54 64 76 65 41 66 24 67 25 68
REMARK SMILES IDX 34 69 26 70 27 71 33 72 35 73 28 74 29 75 30 76 31 77 32 78
REMARK SMILES IDX 58 79 59 80 68 81 60 82 61 83 67 84 69 85 62 86 63 87 64 88
REMARK SMILES IDX 65 89 66 90 42 91 43 92 52 93 44 94 45 95 51 96 53 97 46 98
REMARK SMILES IDX 47 99 48 100 49 101 50 102
REMARK H PARENT 8 6 1 22 1 23 12 33 74 52 40 63
REMARK Flexibility Score: inf
ROOT
ATOM      1  C   UNL A   1      38.163  21.366  25.005  1.00  0.00     0.042 C 
ENDROOT
BRANCH   1   2
ATOM      2  C   UNL A   1      36.853  20.577  25.001  1.00  0.00     0.117 C 
BRANCH   2   3
ATOM      3  N   UNL A   1      35.886  21.077  25.965  1.00  0.00    -0.355 N 
ATOM      4  C   UNL A   1      34.515  21.090  25.963  1.00  0.00     0.238 C 
ATOM      5  O   UNL A   1      34.017  21.695  26.919  1.00  0.00    -0.273 OA
ATOM      6  H   UNL A   1      36.290  21.482  26.766  1.00  0.00     0.163 HD
BRANCH   4   7
ATOM      7  C   UNL A   1      33.707  20.379  24.845  1.00  0.00     0.174 C 
BRANCH   7   8
ATOM      8  S   UNL A   1      32.177  21.293  24.523  1.00  0.00    -0.068 SA
BRANCH   8   9
ATOM      9  C   UNL A   1      32.402  23.011  24.306  1.00  0.00     0.191 A 
ATOM     10  N   UNL A   1      33.029  23.643  23.234  1.00  0.00    -0.202 N 
ATOM     11  C   UNL A   1      33.136  25.037  23.155  1.00  0.00     0.280 A 
ATOM     12  N   UNL A   1      31.883  23.685  25.287  1.00  0.00    -0.222 NA
ATOM     13  C   UNL A   1      32.565  25.799  24.270  1.00  0.00     0.069 A 
ATOM     14  O   UNL A   1      33.696  25.623  22.226  1.00  0.00    -0.267 OA
ATOM     15  C   UNL A   1      31.965  25.078  25.297  1.00  0.00     0.079 A 
ATOM     16  C   UNL A   1      32.651  27.194  24.306  1.00  0.00     0.031 A 
ATOM     17  C   UNL A   1      31.439  25.776  26.385  1.00  0.00     0.030 A 
ATOM     18  C   UNL A   1      32.127  27.873  25.401  1.00  0.00     0.018 A 
ATOM     19  C   UNL A   1      31.519  27.172  26.442  1.00  0.00     0.018 A 
ATOM     20  Br  UNL A   1      32.253  29.756  25.483  1.00  0.00    -0.051 Br
BRANCH  10  21
ATOM     21  N   UNL A   1      33.667  22.953  22.195  1.00  0.00    -0.334 N 
ATOM     22  H   UNL A   1      34.293  22.223  22.401  1.00  0.00     0.178 HD
ATOM     23  H   UNL A   1      33.490  23.200  21.258  1.00  0.00     0.178 HD
ENDBRANCH  10  21
ENDBRANCH   8   9
ENDBRANCH   7   8
BRANCH   7  24
ATOM     24  C   UNL A   1      33.557  18.849  24.855  1.00  0.00    -0.025 A 
ATOM     25  C   UNL A   1      34.509  18.038  24.198  1.00  0.00     0.005 A 
ATOM     26  C   UNL A   1      32.511  18.187  25.520  1.00  0.00     0.005 A 
ATOM     27  C   UNL A   1      34.356  16.652  24.110  1.00  0.00     0.000 A 
ATOM     28  C   UNL A   1      32.352  16.799  25.424  1.00  0.00     0.000 A 
ATOM     29  C   UNL A   1      33.264  16.035  24.705  1.00  0.00     0.000 A 
ENDBRANCH   7  24
ENDBRANCH   4   7
ENDBRANCH   2   3
ENDBRANCH   1   2
BRANCH   1  30
ATOM     30  C   UNL A   1      39.052  21.147  26.227  1.00  0.00     0.118 C 
BRANCH  30  31
ATOM     31  N   UNL A   1      39.919  19.983  26.114  1.00  0.00    -0.352 N 
ATOM     32  C   UNL A   1      41.293  19.902  26.117  1.00  0.00     0.251 C 
ATOM     33  H   UNL A   1      39.451  19.122  26.019  1.00  0.00     0.163 HD
ATOM     34  O   UNL A   1      41.836  18.825  25.883  1.00  0.00    -0.269 OA
BRANCH  32  35
ATOM     35  C   UNL A   1      42.116  21.109  26.359  1.00  0.00     0.039 A 
ATOM     36  C   UNL A   1      42.461  21.503  27.654  1.00  0.00     0.014 A 
ATOM     37  C   UNL A   1      42.537  21.869  25.264  1.00  0.00     0.014 A 
ATOM     38  C   UNL A   1      43.067  22.740  27.863  1.00  0.00     0.010 A 
ATOM     39  C   UNL A   1      43.211  23.077  25.472  1.00  0.00     0.010 A 
ATOM     40  C   UNL A   1      43.429  23.551  26.776  1.00  0.00    -0.014 A 
BRANCH  40  41
ATOM     41  C   UNL A   1      43.984  24.911  27.015  1.00  0.00     0.031 A 
ATOM     42  C   UNL A   1      43.103  26.005  27.564  1.00  0.00     0.074 A 
ATOM     43  C   UNL A   1      45.292  25.153  26.793  1.00  0.00     0.049 A 
ATOM     44  N   UNL A   1      43.397  27.256  27.813  1.00  0.00    -0.248 NA
ATOM     45  C   UNL A   1      41.709  25.648  27.873  1.00  0.00     0.031 C 
ATOM     46  C   UNL A   1      46.257  24.174  26.289  1.00  0.00     0.029 A 
ATOM     47  N   UNL A   1      46.038  26.288  26.983  1.00  0.00    -0.354 N 
ATOM     48  C   UNL A   1      42.227  27.838  28.289  1.00  0.00     0.074 A 
ATOM     49  C   UNL A   1      41.209  26.811  28.270  1.00  0.00     0.031 C 
ATOM     50  C   UNL A   1      47.475  24.739  26.249  1.00  0.00     0.029 A 
ATOM     51  C   UNL A   1      47.368  26.132  26.671  1.00  0.00     0.049 A 
ATOM     52  H   UNL A   1      45.657  27.134  27.311  1.00  0.00     0.167 HD
ATOM     53  C   UNL A   1      42.022  29.107  28.715  1.00  0.00     0.037 A 
ATOM     54  C   UNL A   1      48.385  27.013  26.706  1.00  0.00     0.037 A 
ATOM     55  C   UNL A   1      43.042  30.124  28.761  1.00  0.00     0.049 A 
ATOM     56  C   UNL A   1      48.121  28.427  27.142  1.00  0.00     0.074 A 
ATOM     57  C   UNL A   1      42.929  31.439  29.182  1.00  0.00     0.029 A 
ATOM     58  N   UNL A   1      44.362  29.940  28.382  1.00  0.00    -0.354 N 
ATOM     59  N   UNL A   1      47.000  28.966  27.556  1.00  0.00    -0.248 NA
ATOM     60  C   UNL A   1      49.259  29.356  27.101  1.00  0.00     0.031 C 
ATOM     61  C   UNL A   1      44.175  32.056  29.031  1.00  0.00     0.029 A 
ATOM     62  C   UNL A   1      45.073  31.118  28.550  1.00  0.00     0.049 A 
ATOM     63  H   UNL A   1      44.740  29.096  28.044  1.00  0.00     0.167 HD
ATOM     64  C   UNL A   1      47.297  30.295  27.830  1.00  0.00     0.074 A 
ATOM     65  C   UNL A   1      48.708  30.474  27.556  1.00  0.00     0.031 C 
ATOM     66  C   UNL A   1      46.474  31.283  28.260  1.00  0.00     0.037 A 
BRANCH  53  67
ATOM     67  C   UNL A   1      40.637  29.479  29.168  1.00  0.00     0.058 A 
ATOM     68  C   UNL A   1      40.343  29.703  30.522  1.00  0.00     0.135 A 
ATOM     69  C   UNL A   1      39.605  29.665  28.233  1.00  0.00     0.135 A 
ATOM     70  F   UNL A   1      41.288  29.520  31.458  1.00  0.00    -0.206 F 
ATOM     71  C   UNL A   1      39.071  30.087  30.935  1.00  0.00     0.059 A 
ATOM     72  C   UNL A   1      38.332  30.070  28.622  1.00  0.00     0.059 A 
ATOM     73  F   UNL A   1      39.834  29.461  26.926  1.00  0.00    -0.206 F 
ATOM     74  C   UNL A   1      38.072  30.270  29.977  1.00  0.00     0.060 A 
BRANCH  74  75
ATOM     75  S   UNL A   1      36.433  30.787  30.529  1.00  0.00     0.124 S 
ATOM     76  O   UNL A   1      36.664  32.192  30.851  1.00  0.00    -0.237 OA
ATOM     77  O   UNL A   1      35.612  30.535  29.349  1.00  0.00    -0.237 OA
ATOM     78  O   UNL A   1      36.167  29.918  31.671  1.00  0.00    -0.744 OA
ENDBRANCH  74  75
ENDBRANCH  53  67
BRANCH  54  79
ATOM     79  C   UNL A   1      49.750  26.582  26.306  1.00  0.00     0.058 A 
ATOM     80  C   UNL A   1      50.607  25.961  27.225  1.00  0.00     0.135 A 
ATOM     81  C   UNL A   1      50.214  26.764  24.994  1.00  0.00     0.135 A 
ATOM     82  F   UNL A   1      50.210  25.776  28.493  1.00  0.00    -0.206 F 
ATOM     83  C   UNL A   1      51.881  25.538  26.859  1.00  0.00     0.059 A 
ATOM     84  C   UNL A   1      51.474  26.329  24.599  1.00  0.00     0.059 A 
ATOM     85  F   UNL A   1      49.425  27.345  24.076  1.00  0.00    -0.206 F 
ATOM     86  C   UNL A   1      52.303  25.723  25.542  1.00  0.00     0.060 A 
BRANCH  86  87
ATOM     87  S   UNL A   1      53.934  25.113  25.060  1.00  0.00     0.124 S 
ATOM     88  O   UNL A   1      53.680  23.685  24.910  1.00  0.00    -0.237 OA
ATOM     89  O   UNL A   1      54.185  25.850  23.826  1.00  0.00    -0.237 OA
ATOM     90  O   UNL A   1      54.779  25.491  26.189  1.00  0.00    -0.744 OA
ENDBRANCH  86  87
ENDBRANCH  54  79
BRANCH  66  91
ATOM     91  C   UNL A   1      47.081  32.641  28.463  1.00  0.00     0.058 A 
ATOM     92  C   UNL A   1      47.656  33.006  29.691  1.00  0.00     0.135 A 
ATOM     93  C   UNL A   1      47.117  33.574  27.417  1.00  0.00     0.135 A 
ATOM     94  F   UNL A   1      47.642  32.150  30.725  1.00  0.00    -0.206 F 
ATOM     95  C   UNL A   1      48.224  34.261  29.881  1.00  0.00     0.059 A 
ATOM     96  C   UNL A   1      47.699  34.828  27.577  1.00  0.00     0.059 A 
ATOM     97  F   UNL A   1      46.589  33.270  26.220  1.00  0.00    -0.206 F 
ATOM     98  C   UNL A   1      48.237  35.168  28.818  1.00  0.00     0.060 A 
BRANCH  98  99
ATOM     99  S   UNL A   1      48.990  36.788  29.073  1.00  0.00     0.124 S 
ATOM    100  O   UNL A   1      48.172  37.630  28.207  1.00  0.00    -0.237 OA
ATOM    101  O   UNL A   1      48.815  36.995  30.507  1.00  0.00    -0.237 OA
ATOM    102  O   UNL A   1      50.370  36.594  28.638  1.00  0.00    -0.744 OA
ENDBRANCH  98  99
ENDBRANCH  66  91
ENDBRANCH  40  41
ENDBRANCH  32  35
ENDBRANCH  30  31
ENDBRANCH   1  30
TORSDOF 17
ENDMDL
