MODEL 1
REMARK VINA RESULT:     -13.7      0.000      0.000
REMARK SMILES Cc1c(Cl)cccc1NC(=O)C[C@](C)(C(=O)NCCCNC(=O)c1ccc(-c2c3nc(c(-c4c(F)cc(S(=O)(=O)[O-])cc4F)c4ccc([nH]4)c(-c4c(F)cc(S(=O)(=O)[O-])cc4F)c4nc(c(-c5c(F)cc(S(=O)(=O)[O-])cc5F)c5ccc2[nH]5)C=C4)C=C3)cc1)c1ccccc1
REMARK SMILES IDX 19 1 18 2 17 3 15 4 16 5 13 7 14 8 12 9 10 10 9 11 11 13
REMARK SMILES IDX 8 14 1 15 2 16 3 17 4 18 5 19 7 20 6 21 90 22 91 23 95 24
REMARK SMILES IDX 92 25 94 26 93 27 20 28 21 29 22 30 23 32 24 33 25 34 89 35
REMARK SMILES IDX 26 36 88 37 27 38 28 39 29 40 82 41 30 42 87 43 81 44 83 45
REMARK SMILES IDX 31 46 86 47 80 48 79 49 32 51 66 52 45 53 65 54 46 55 49 56
REMARK SMILES IDX 64 57 84 58 47 59 48 60 63 62 85 63 50 64 33 65 34 66 43 67
REMARK SMILES IDX 35 68 36 69 42 70 44 71 37 72 38 73 39 74 40 75 41 76 67 77
REMARK SMILES IDX 68 78 77 79 69 80 70 81 76 82 78 83 71 84 72 85 73 86 74 87
REMARK SMILES IDX 75 88 51 89 52 90 61 91 53 92 54 93 60 94 62 95 55 96 56 97
REMARK SMILES IDX 57 98 58 99 59 100
REMARK H PARENT 17 6 9 12 21 31 83 50 49 61
REMARK Flexibility Score: inf
ROOT
ATOM      1  C   UNL A   1      40.112  22.139  26.858  1.00  0.00     0.042 C 
ENDROOT
BRANCH   1   2
ATOM      2  C   UNL A   1      38.538  22.636  26.431  1.00  0.00     0.117 C 
BRANCH   2   3
ATOM      3  N   UNL A   1      37.520  22.764  24.609  1.00  0.00    -0.355 N 
ATOM      4  C   UNL A   1      36.380  23.080  23.792  1.00  0.00     0.230 C 
ATOM      5  O   UNL A   1      36.682  22.919  22.594  1.00  0.00    -0.274 OA
ATOM      6  H   UNL A   1      38.177  22.425  23.959  1.00  0.00     0.163 HD
BRANCH   4   7
ATOM      7  C   UNL A   1      34.858  23.492  24.184  1.00  0.00     0.080 C 
ATOM      8  C   UNL A   1      34.015  22.161  24.133  1.00  0.00     0.027 C 
BRANCH   7   9
ATOM      9  C   UNL A   1      34.654  24.293  25.521  1.00  0.00     0.121 C 
BRANCH   9  10
ATOM     10  C   UNL A   1      33.581  23.856  26.501  1.00  0.00     0.225 C 
ATOM     11  N   UNL A   1      32.402  24.534  26.594  1.00  0.00    -0.326 N 
ATOM     12  H   UNL A   1      31.871  24.435  27.417  1.00  0.00     0.169 HD
ATOM     13  O   UNL A   1      33.766  22.905  27.265  1.00  0.00    -0.275 OA
BRANCH  11  14
ATOM     14  C   UNL A   1      31.911  25.357  25.589  1.00  0.00     0.045 A 
ATOM     15  C   UNL A   1      33.452  27.626  26.440  1.00  0.00     0.048 C 
ATOM     16  C   UNL A   1      32.155  27.130  25.861  1.00  0.00    -0.009 A 
ATOM     17  C   UNL A   1      31.091  28.325  25.017  1.00  0.00     0.046 A 
ATOM     18  Cl  UNL A   1      31.403  30.012  25.123  1.00  0.00    -0.084 Cl
ATOM     19  C   UNL A   1      29.756  27.759  23.957  1.00  0.00     0.021 A 
ATOM     20  C   UNL A   1      30.633  24.776  24.408  1.00  0.00     0.026 A 
ATOM     21  C   UNL A   1      29.510  25.990  23.653  1.00  0.00     0.004 A 
ENDBRANCH  11  14
ENDBRANCH   9  10
ENDBRANCH   7   9
BRANCH   7  22
ATOM     22  C   UNL A   1      34.076  24.377  23.124  1.00  0.00    -0.032 A 
ATOM     23  C   UNL A   1      34.188  25.796  23.224  1.00  0.00     0.005 A 
ATOM     24  C   UNL A   1      33.276  23.886  22.090  1.00  0.00     0.005 A 
ATOM     25  C   UNL A   1      33.444  26.667  22.436  1.00  0.00     0.000 A 
ATOM     26  C   UNL A   1      32.534  24.765  21.284  1.00  0.00     0.000 A 
ATOM     27  C   UNL A   1      32.597  26.146  21.472  1.00  0.00     0.000 A 
ENDBRANCH   7  22
ENDBRANCH   4   7
ENDBRANCH   2   3
ENDBRANCH   1   2
BRANCH   1  28
ATOM     28  C   UNL A   1      40.994  23.344  27.128  1.00  0.00     0.118 C 
BRANCH  28  29
ATOM     29  N   UNL A   1      41.131  24.267  26.008  1.00  0.00    -0.352 N 
ATOM     30  C   UNL A   1      41.391  25.613  26.118  1.00  0.00     0.251 C 
ATOM     31  H   UNL A   1      41.029  23.897  25.101  1.00  0.00     0.163 HD
ATOM     32  O   UNL A   1      41.584  26.327  25.146  1.00  0.00    -0.269 OA
BRANCH  30  33
ATOM     33  C   UNL A   1      41.289  26.149  27.481  1.00  0.00     0.039 A 
ATOM     34  C   UNL A   1      42.205  27.146  27.817  1.00  0.00     0.014 A 
ATOM     35  C   UNL A   1      40.112  25.949  28.205  1.00  0.00     0.014 A 
ATOM     36  C   UNL A   1      41.916  27.984  28.882  1.00  0.00     0.010 A 
ATOM     37  C   UNL A   1      39.772  26.872  29.184  1.00  0.00     0.010 A 
ATOM     38  C   UNL A   1      40.687  27.873  29.552  1.00  0.00    -0.014 A 
BRANCH  38  39
ATOM     39  C   UNL A   1      40.412  28.744  30.714  1.00  0.00     0.031 A 
ATOM     40  C   UNL A   1      41.256  28.576  31.944  1.00  0.00     0.074 A 
ATOM     41  C   UNL A   1      39.460  29.695  30.637  1.00  0.00     0.049 A 
ATOM     42  N   UNL A   1      41.258  29.281  33.041  1.00  0.00    -0.248 NA
ATOM     43  C   UNL A   1      42.212  27.453  31.954  1.00  0.00     0.031 C 
ATOM     44  C   UNL A   1      38.559  29.905  29.499  1.00  0.00     0.029 A 
ATOM     45  N   UNL A   1      39.107  30.679  31.522  1.00  0.00    -0.354 N 
ATOM     46  C   UNL A   1      42.205  28.684  33.863  1.00  0.00     0.074 A 
ATOM     47  C   UNL A   1      42.697  27.514  33.182  1.00  0.00     0.031 C 
ATOM     48  C   UNL A   1      37.792  30.982  29.738  1.00  0.00     0.029 A 
ATOM     49  C   UNL A   1      38.119  31.515  31.056  1.00  0.00     0.049 A 
ATOM     50  H   UNL A   1      39.521  30.779  32.410  1.00  0.00     0.167 HD
ATOM     51  C   UNL A   1      42.655  29.101  35.066  1.00  0.00     0.037 A 
ATOM     52  C   UNL A   1      37.551  32.593  31.633  1.00  0.00     0.037 A 
ATOM     53  C   UNL A   1      42.171  30.285  35.718  1.00  0.00     0.049 A 
ATOM     54  C   UNL A   1      38.059  33.030  32.982  1.00  0.00     0.074 A 
ATOM     55  C   UNL A   1      42.581  30.834  36.917  1.00  0.00     0.029 A 
ATOM     56  N   UNL A   1      41.160  31.099  35.223  1.00  0.00    -0.354 N 
ATOM     57  N   UNL A   1      39.010  32.499  33.716  1.00  0.00    -0.248 NA
ATOM     58  C   UNL A   1      37.430  34.215  33.579  1.00  0.00     0.031 C 
ATOM     59  C   UNL A   1      41.768  31.939  37.184  1.00  0.00     0.029 A 
ATOM     60  C   UNL A   1      40.906  32.126  36.113  1.00  0.00     0.049 A 
ATOM     61  H   UNL A   1      40.693  30.964  34.367  1.00  0.00     0.167 HD
ATOM     62  C   UNL A   1      39.112  33.300  34.848  1.00  0.00     0.074 A 
ATOM     63  C   UNL A   1      38.140  34.363  34.690  1.00  0.00     0.031 C 
ATOM     64  C   UNL A   1      39.932  33.172  35.922  1.00  0.00     0.037 A 
BRANCH  51  65
ATOM     65  C   UNL A   1      43.703  28.267  35.748  1.00  0.00     0.058 A 
ATOM     66  C   UNL A   1      43.372  27.248  36.658  1.00  0.00     0.135 A 
ATOM     67  C   UNL A   1      45.062  28.481  35.474  1.00  0.00     0.135 A 
ATOM     68  F   UNL A   1      42.089  27.019  36.983  1.00  0.00    -0.206 F 
ATOM     69  C   UNL A   1      44.351  26.485  37.285  1.00  0.00     0.059 A 
ATOM     70  C   UNL A   1      46.057  27.706  36.061  1.00  0.00     0.059 A 
ATOM     71  F   UNL A   1      45.436  29.453  34.626  1.00  0.00    -0.206 F 
ATOM     72  C   UNL A   1      45.692  26.717  36.973  1.00  0.00     0.060 A 
BRANCH  72  73
ATOM     73  S   UNL A   1      46.947  25.694  37.766  1.00  0.00     0.124 S 
ATOM     74  O   UNL A   1      46.457  25.642  39.140  1.00  0.00    -0.237 OA
ATOM     75  O   UNL A   1      46.852  24.449  37.013  1.00  0.00    -0.237 OA
ATOM     76  O   UNL A   1      48.179  26.452  37.569  1.00  0.00    -0.744 OA
ENDBRANCH  72  73
ENDBRANCH  51  65
BRANCH  52  77
ATOM     77  C   UNL A   1      36.453  33.327  30.943  1.00  0.00     0.058 A 
ATOM     78  C   UNL A   1      36.700  34.154  29.835  1.00  0.00     0.135 A 
ATOM     79  C   UNL A   1      35.123  33.216  31.382  1.00  0.00     0.135 A 
ATOM     80  F   UNL A   1      37.952  34.301  29.374  1.00  0.00    -0.206 F 
ATOM     81  C   UNL A   1      35.678  34.859  29.205  1.00  0.00     0.059 A 
ATOM     82  C   UNL A   1      34.081  33.884  30.750  1.00  0.00     0.059 A 
ATOM     83  F   UNL A   1      34.824  32.426  32.427  1.00  0.00    -0.206 F 
ATOM     84  C   UNL A   1      34.369  34.714  29.669  1.00  0.00     0.060 A 
BRANCH  84  85
ATOM     85  S   UNL A   1      33.043  35.599  28.820  1.00  0.00     0.124 S 
ATOM     86  O   UNL A   1      33.787  36.626  28.102  1.00  0.00    -0.237 OA
ATOM     87  O   UNL A   1      32.450  34.547  28.001  1.00  0.00    -0.237 OA
ATOM     88  O   UNL A   1      32.204  36.078  29.915  1.00  0.00    -0.744 OA
ENDBRANCH  84  85
ENDBRANCH  52  77
BRANCH  64  89
ATOM     89  C   UNL A   1      39.838  34.225  36.991  1.00  0.00     0.058 A 
ATOM     90  C   UNL A   1      40.457  35.477  36.854  1.00  0.00     0.135 A 
ATOM     91  C   UNL A   1      39.065  33.995  38.141  1.00  0.00     0.135 A 
ATOM     92  F   UNL A   1      41.209  35.746  35.776  1.00  0.00    -0.206 F 
ATOM     93  C   UNL A   1      40.340  36.453  37.837  1.00  0.00     0.059 A 
ATOM     94  C   UNL A   1      38.900  34.972  39.116  1.00  0.00     0.059 A 
ATOM     95  F   UNL A   1      38.438  32.821  38.313  1.00  0.00    -0.206 F 
ATOM     96  C   UNL A   1      39.556  36.192  38.963  1.00  0.00     0.060 A 
BRANCH  96  97
ATOM     97  S   UNL A   1      39.392  37.479  40.215  1.00  0.00     0.124 S 
ATOM     98  O   UNL A   1      38.904  36.715  41.358  1.00  0.00    -0.237 OA
ATOM     99  O   UNL A   1      40.757  37.983  40.323  1.00  0.00    -0.237 OA
ATOM    100  O   UNL A   1      38.431  38.407  39.626  1.00  0.00    -0.744 OA
ENDBRANCH  96  97
ENDBRANCH  64  89
ENDBRANCH  38  39
ENDBRANCH  30  33
ENDBRANCH  28  29
ENDBRANCH   1  28
TORSDOF 17
ENDMDL
MODEL 2
REMARK VINA RESULT:     -13.3      2.705      8.745
REMARK SMILES Cc1c(Cl)cccc1NC(=O)C[C@](C)(C(=O)NCCCNC(=O)c1ccc(-c2c3nc(c(-c4c(F)cc(S(=O)(=O)[O-])cc4F)c4ccc([nH]4)c(-c4c(F)cc(S(=O)(=O)[O-])cc4F)c4nc(c(-c5c(F)cc(S(=O)(=O)[O-])cc5F)c5ccc2[nH]5)C=C4)C=C3)cc1)c1ccccc1
REMARK SMILES IDX 19 1 18 2 17 3 15 4 16 5 13 7 14 8 12 9 10 10 9 11 11 13
REMARK SMILES IDX 8 14 1 15 2 16 3 17 4 18 5 19 7 20 6 21 90 22 91 23 95 24
REMARK SMILES IDX 92 25 94 26 93 27 20 28 21 29 22 30 23 32 24 33 25 34 89 35
REMARK SMILES IDX 26 36 88 37 27 38 28 39 29 40 82 41 30 42 87 43 81 44 83 45
REMARK SMILES IDX 31 46 86 47 80 48 79 49 32 51 66 52 45 53 65 54 46 55 49 56
REMARK SMILES IDX 64 57 84 58 47 59 48 60 63 62 85 63 50 64 33 65 34 66 43 67
REMARK SMILES IDX 35 68 36 69 42 70 44 71 37 72 38 73 39 74 40 75 41 76 67 77
REMARK SMILES IDX 68 78 77 79 69 80 70 81 76 82 78 83 71 84 72 85 73 86 74 87
REMARK SMILES IDX 75 88 51 89 52 90 61 91 53 92 54 93 60 94 62 95 55 96 56 97
REMARK SMILES IDX 57 98 58 99 59 100
REMARK H PARENT 17 6 9 12 21 31 83 50 49 61
REMARK Flexibility Score: inf
ROOT
ATOM      1  C   UNL A   1      33.677  30.645  27.824  1.00  0.00     0.042 C 
ENDROOT
BRANCH   1   2
ATOM      2  C   UNL A   1      32.761  30.156  26.473  1.00  0.00     0.117 C 
BRANCH   2   3
ATOM      3  N   UNL A   1      33.266  29.629  24.513  1.00  0.00    -0.355 N 
ATOM      4  C   UNL A   1      33.235  28.765  23.365  1.00  0.00     0.230 C 
ATOM      5  O   UNL A   1      33.818  29.326  22.418  1.00  0.00    -0.274 OA
ATOM      6  H   UNL A   1      33.829  30.380  24.216  1.00  0.00     0.163 HD
BRANCH   4   7
ATOM      7  C   UNL A   1      32.674  27.251  23.174  1.00  0.00     0.080 C 
ATOM      8  C   UNL A   1      31.280  27.386  22.451  1.00  0.00     0.027 C 
BRANCH   7   9
ATOM      9  C   UNL A   1      33.628  26.218  22.473  1.00  0.00     0.121 C 
BRANCH   9  10
ATOM     10  C   UNL A   1      33.071  25.279  21.419  1.00  0.00     0.225 C 
ATOM     11  N   UNL A   1      32.978  23.940  21.654  1.00  0.00    -0.326 N 
ATOM     12  H   UNL A   1      32.914  23.334  20.882  1.00  0.00     0.169 HD
ATOM     13  O   UNL A   1      32.730  25.698  20.310  1.00  0.00    -0.275 OA
BRANCH  11  14
ATOM     14  C   UNL A   1      32.968  23.386  22.928  1.00  0.00     0.045 A 
ATOM     15  C   UNL A   1      35.833  23.323  23.123  1.00  0.00     0.048 C 
ATOM     16  C   UNL A   1      34.533  22.641  23.454  1.00  0.00    -0.009 A 
ATOM     17  C   UNL A   1      34.540  21.387  24.756  1.00  0.00     0.046 A 
ATOM     18  Cl  UNL A   1      36.019  20.786  25.393  1.00  0.00    -0.084 Cl
ATOM     19  C   UNL A   1      32.996  20.833  25.490  1.00  0.00     0.021 A 
ATOM     20  C   UNL A   1      31.403  22.917  23.763  1.00  0.00     0.026 A 
ATOM     21  C   UNL A   1      31.423  21.582  24.995  1.00  0.00     0.004 A 
ENDBRANCH  11  14
ENDBRANCH   9  10
ENDBRANCH   7   9
BRANCH   7  22
ATOM     22  C   UNL A   1      32.247  26.489  24.499  1.00  0.00    -0.032 A 
ATOM     23  C   UNL A   1      33.267  25.836  25.254  1.00  0.00     0.005 A 
ATOM     24  C   UNL A   1      30.946  26.396  24.998  1.00  0.00     0.005 A 
ATOM     25  C   UNL A   1      32.990  25.030  26.353  1.00  0.00     0.000 A 
ATOM     26  C   UNL A   1      30.667  25.593  26.116  1.00  0.00     0.000 A 
ATOM     27  C   UNL A   1      31.678  24.894  26.774  1.00  0.00     0.000 A 
ENDBRANCH   7  22
ENDBRANCH   4   7
ENDBRANCH   2   3
ENDBRANCH   1   2
BRANCH   1  28
ATOM     28  C   UNL A   1      34.224  32.045  27.616  1.00  0.00     0.118 C 
BRANCH  28  29
ATOM     29  N   UNL A   1      33.285  33.121  27.909  1.00  0.00    -0.352 N 
ATOM     30  C   UNL A   1      33.493  34.127  28.824  1.00  0.00     0.251 C 
ATOM     31  H   UNL A   1      32.435  33.128  27.413  1.00  0.00     0.163 HD
ATOM     32  O   UNL A   1      32.712  35.056  28.968  1.00  0.00    -0.269 OA
BRANCH  30  33
ATOM     33  C   UNL A   1      34.654  33.930  29.700  1.00  0.00     0.039 A 
ATOM     34  C   UNL A   1      34.501  32.986  30.717  1.00  0.00     0.014 A 
ATOM     35  C   UNL A   1      35.911  34.361  29.272  1.00  0.00     0.014 A 
ATOM     36  C   UNL A   1      35.636  32.438  31.292  1.00  0.00     0.010 A 
ATOM     37  C   UNL A   1      37.035  33.714  29.763  1.00  0.00     0.010 A 
ATOM     38  C   UNL A   1      36.907  32.774  30.799  1.00  0.00    -0.014 A 
BRANCH  38  39
ATOM     39  C   UNL A   1      38.110  32.215  31.453  1.00  0.00     0.031 A 
ATOM     40  C   UNL A   1      38.501  32.750  32.800  1.00  0.00     0.074 A 
ATOM     41  C   UNL A   1      38.795  31.215  30.866  1.00  0.00     0.049 A 
ATOM     42  N   UNL A   1      39.454  32.353  33.596  1.00  0.00    -0.248 NA
ATOM     43  C   UNL A   1      37.733  33.899  33.315  1.00  0.00     0.031 C 
ATOM     44  C   UNL A   1      38.518  30.658  29.537  1.00  0.00     0.029 A 
ATOM     45  N   UNL A   1      39.853  30.470  31.319  1.00  0.00    -0.354 N 
ATOM     46  C   UNL A   1      39.400  33.204  34.692  1.00  0.00     0.074 A 
ATOM     47  C   UNL A   1      38.382  34.189  34.428  1.00  0.00     0.031 C 
ATOM     48  C   UNL A   1      39.351  29.631  29.307  1.00  0.00     0.029 A 
ATOM     49  C   UNL A   1      40.245  29.478  30.451  1.00  0.00     0.049 A 
ATOM     50  H   UNL A   1      40.292  30.630  32.186  1.00  0.00     0.167 HD
ATOM     51  C   UNL A   1      40.110  33.142  35.839  1.00  0.00     0.037 A 
ATOM     52  C   UNL A   1      41.214  28.549  30.574  1.00  0.00     0.037 A 
ATOM     53  C   UNL A   1      41.101  32.136  36.095  1.00  0.00     0.049 A 
ATOM     54  C   UNL A   1      42.003  28.510  31.857  1.00  0.00     0.074 A 
ATOM     55  C   UNL A   1      41.854  31.943  37.237  1.00  0.00     0.029 A 
ATOM     56  N   UNL A   1      41.481  31.156  35.188  1.00  0.00    -0.354 N 
ATOM     57  N   UNL A   1      41.889  29.274  32.919  1.00  0.00    -0.248 NA
ATOM     58  C   UNL A   1      43.043  27.479  31.968  1.00  0.00     0.031 C 
ATOM     59  C   UNL A   1      42.742  30.892  36.993  1.00  0.00     0.029 A 
ATOM     60  C   UNL A   1      42.487  30.378  35.730  1.00  0.00     0.049 A 
ATOM     61  H   UNL A   1      41.094  31.034  34.291  1.00  0.00     0.167 HD
ATOM     62  C   UNL A   1      42.822  28.801  33.834  1.00  0.00     0.074 A 
ATOM     63  C   UNL A   1      43.477  27.670  33.207  1.00  0.00     0.031 C 
ATOM     64  C   UNL A   1      43.116  29.256  35.079  1.00  0.00     0.037 A 
BRANCH  51  65
ATOM     65  C   UNL A   1      39.846  34.192  36.882  1.00  0.00     0.058 A 
ATOM     66  C   UNL A   1      38.950  33.983  37.944  1.00  0.00     0.135 A 
ATOM     67  C   UNL A   1      40.516  35.424  36.825  1.00  0.00     0.135 A 
ATOM     68  F   UNL A   1      38.257  32.836  38.031  1.00  0.00    -0.206 F 
ATOM     69  C   UNL A   1      38.712  34.965  38.900  1.00  0.00     0.059 A 
ATOM     70  C   UNL A   1      40.321  36.407  37.791  1.00  0.00     0.059 A 
ATOM     71  F   UNL A   1      41.370  35.684  35.823  1.00  0.00    -0.206 F 
ATOM     72  C   UNL A   1      39.410  36.171  38.819  1.00  0.00     0.060 A 
BRANCH  72  73
ATOM     73  S   UNL A   1      39.118  37.418  40.088  1.00  0.00     0.124 S 
ATOM     74  O   UNL A   1      40.466  37.933  40.308  1.00  0.00    -0.237 OA
ATOM     75  O   UNL A   1      38.194  38.328  39.421  1.00  0.00    -0.237 OA
ATOM     76  O   UNL A   1      38.553  36.653  41.195  1.00  0.00    -0.744 OA
ENDBRANCH  72  73
ENDBRANCH  51  65
BRANCH  52  77
ATOM     77  C   UNL A   1      41.486  27.591  29.467  1.00  0.00     0.058 A 
ATOM     78  C   UNL A   1      40.622  26.519  29.189  1.00  0.00     0.135 A 
ATOM     79  C   UNL A   1      42.626  27.728  28.658  1.00  0.00     0.135 A 
ATOM     80  F   UNL A   1      39.519  26.337  29.932  1.00  0.00    -0.206 F 
ATOM     81  C   UNL A   1      40.888  25.609  28.170  1.00  0.00     0.059 A 
ATOM     82  C   UNL A   1      42.897  26.851  27.613  1.00  0.00     0.059 A 
ATOM     83  F   UNL A   1      43.480  28.743  28.866  1.00  0.00    -0.206 F 
ATOM     84  C   UNL A   1      42.029  25.786  27.384  1.00  0.00     0.060 A 
BRANCH  84  85
ATOM     85  S   UNL A   1      42.345  24.625  26.037  1.00  0.00     0.124 S 
ATOM     86  O   UNL A   1      42.254  25.495  24.871  1.00  0.00    -0.237 OA
ATOM     87  O   UNL A   1      43.680  24.134  26.366  1.00  0.00    -0.237 OA
ATOM     88  O   UNL A   1      41.272  23.646  26.178  1.00  0.00    -0.744 OA
ENDBRANCH  84  85
ENDBRANCH  52  77
BRANCH  64  89
ATOM     89  C   UNL A   1      44.163  28.510  35.857  1.00  0.00     0.058 A 
ATOM     90  C   UNL A   1      45.518  28.871  35.813  1.00  0.00     0.135 A 
ATOM     91  C   UNL A   1      43.790  27.455  36.708  1.00  0.00     0.135 A 
ATOM     92  F   UNL A   1      45.926  29.869  35.014  1.00  0.00    -0.206 F 
ATOM     93  C   UNL A   1      46.473  28.190  36.558  1.00  0.00     0.059 A 
ATOM     94  C   UNL A   1      44.722  26.789  37.494  1.00  0.00     0.059 A 
ATOM     95  F   UNL A   1      42.505  27.081  36.800  1.00  0.00    -0.206 F 
ATOM     96  C   UNL A   1      46.065  27.153  37.400  1.00  0.00     0.060 A 
BRANCH  96  97
ATOM     97  S   UNL A   1      47.312  26.299  38.382  1.00  0.00     0.124 S 
ATOM     98  O   UNL A   1      46.802  24.932  38.379  1.00  0.00    -0.237 OA
ATOM     99  O   UNL A   1      48.527  26.526  37.606  1.00  0.00    -0.237 OA
ATOM    100  O   UNL A   1      47.259  26.984  39.671  1.00  0.00    -0.744 OA
ENDBRANCH  96  97
ENDBRANCH  64  89
ENDBRANCH  38  39
ENDBRANCH  30  33
ENDBRANCH  28  29
ENDBRANCH   1  28
TORSDOF 17
ENDMDL
MODEL 3
REMARK VINA RESULT:     -13.3      6.233      8.579
REMARK SMILES Cc1c(Cl)cccc1NC(=O)C[C@](C)(C(=O)NCCCNC(=O)c1ccc(-c2c3nc(c(-c4c(F)cc(S(=O)(=O)[O-])cc4F)c4ccc([nH]4)c(-c4c(F)cc(S(=O)(=O)[O-])cc4F)c4nc(c(-c5c(F)cc(S(=O)(=O)[O-])cc5F)c5ccc2[nH]5)C=C4)C=C3)cc1)c1ccccc1
REMARK SMILES IDX 19 1 18 2 17 3 15 4 16 5 13 7 14 8 12 9 10 10 9 11 11 13
REMARK SMILES IDX 8 14 1 15 2 16 3 17 4 18 5 19 7 20 6 21 90 22 91 23 95 24
REMARK SMILES IDX 92 25 94 26 93 27 20 28 21 29 22 30 23 32 24 33 25 34 89 35
REMARK SMILES IDX 26 36 88 37 27 38 28 39 29 40 82 41 30 42 87 43 81 44 83 45
REMARK SMILES IDX 31 46 86 47 80 48 79 49 32 51 66 52 45 53 65 54 46 55 49 56
REMARK SMILES IDX 64 57 84 58 47 59 48 60 63 62 85 63 50 64 33 65 34 66 43 67
REMARK SMILES IDX 35 68 36 69 42 70 44 71 37 72 38 73 39 74 40 75 41 76 67 77
REMARK SMILES IDX 68 78 77 79 69 80 70 81 76 82 78 83 71 84 72 85 73 86 74 87
REMARK SMILES IDX 75 88 51 89 52 90 61 91 53 92 54 93 60 94 62 95 55 96 56 97
REMARK SMILES IDX 57 98 58 99 59 100
REMARK H PARENT 17 6 9 12 21 31 83 50 49 61
REMARK Flexibility Score: inf
ROOT
ATOM      1  C   UNL A   1      39.181  22.342  25.950  1.00  0.00     0.042 C 
ENDROOT
BRANCH   1   2
ATOM      2  C   UNL A   1      37.689  21.739  25.390  1.00  0.00     0.117 C 
BRANCH   2   3
ATOM      3  N   UNL A   1      35.761  21.707  26.198  1.00  0.00    -0.355 N 
ATOM      4  C   UNL A   1      34.349  21.445  26.145  1.00  0.00     0.230 C 
ATOM      5  O   UNL A   1      33.855  21.653  27.270  1.00  0.00    -0.274 OA
ATOM      6  H   UNL A   1      35.891  22.064  27.106  1.00  0.00     0.163 HD
BRANCH   4   7
ATOM      7  C   UNL A   1      33.376  21.039  24.908  1.00  0.00     0.080 C 
ATOM      8  C   UNL A   1      31.908  21.042  25.483  1.00  0.00     0.027 C 
BRANCH   7   9
ATOM      9  C   UNL A   1      33.514  21.875  23.584  1.00  0.00     0.121 C 
BRANCH   9  10
ATOM     10  C   UNL A   1      32.271  22.244  22.797  1.00  0.00     0.225 C 
ATOM     11  N   UNL A   1      31.681  23.463  22.953  1.00  0.00    -0.326 N 
ATOM     12  H   UNL A   1      30.739  23.562  22.684  1.00  0.00     0.169 HD
ATOM     13  O   UNL A   1      31.740  21.437  22.030  1.00  0.00    -0.275 OA
BRANCH  11  14
ATOM     14  C   UNL A   1      32.339  24.571  23.471  1.00  0.00     0.045 A 
ATOM     15  C   UNL A   1      31.133  24.304  26.064  1.00  0.00     0.048 C 
ATOM     16  C   UNL A   1      31.629  25.241  24.996  1.00  0.00    -0.009 A 
ATOM     17  C   UNL A   1      31.948  26.960  25.458  1.00  0.00     0.046 A 
ATOM     18  Cl  UNL A   1      31.431  27.575  26.977  1.00  0.00    -0.084 Cl
ATOM     19  C   UNL A   1      32.915  28.024  24.380  1.00  0.00     0.021 A 
ATOM     20  C   UNL A   1      33.432  25.614  22.432  1.00  0.00     0.026 A 
ATOM     21  C   UNL A   1      33.652  27.367  22.861  1.00  0.00     0.004 A 
ENDBRANCH  11  14
ENDBRANCH   9  10
ENDBRANCH   7   9
BRANCH   7  22
ATOM     22  C   UNL A   1      33.487  19.543  24.390  1.00  0.00    -0.032 A 
ATOM     23  C   UNL A   1      34.681  18.821  24.684  1.00  0.00     0.005 A 
ATOM     24  C   UNL A   1      32.510  18.863  23.660  1.00  0.00     0.005 A 
ATOM     25  C   UNL A   1      34.941  17.555  24.167  1.00  0.00     0.000 A 
ATOM     26  C   UNL A   1      32.766  17.580  23.149  1.00  0.00     0.000 A 
ATOM     27  C   UNL A   1      33.983  16.940  23.379  1.00  0.00     0.000 A 
ENDBRANCH   7  22
ENDBRANCH   4   7
ENDBRANCH   2   3
ENDBRANCH   1   2
BRANCH   1  28
ATOM     28  C   UNL A   1      39.850  21.336  26.868  1.00  0.00     0.118 C 
BRANCH  28  29
ATOM     29  N   UNL A   1      40.434  20.183  26.194  1.00  0.00    -0.352 N 
ATOM     30  C   UNL A   1      41.781  19.961  26.028  1.00  0.00     0.251 C 
ATOM     31  H   UNL A   1      39.815  19.510  25.829  1.00  0.00     0.163 HD
ATOM     32  O   UNL A   1      42.222  18.935  25.533  1.00  0.00    -0.269 OA
BRANCH  30  33
ATOM     33  C   UNL A   1      42.639  21.103  26.369  1.00  0.00     0.039 A 
ATOM     34  C   UNL A   1      42.819  22.055  25.365  1.00  0.00     0.014 A 
ATOM     35  C   UNL A   1      42.893  21.385  27.713  1.00  0.00     0.014 A 
ATOM     36  C   UNL A   1      43.232  23.329  25.722  1.00  0.00     0.010 A 
ATOM     37  C   UNL A   1      43.181  22.694  28.071  1.00  0.00     0.010 A 
ATOM     38  C   UNL A   1      43.386  23.665  27.076  1.00  0.00    -0.014 A 
BRANCH  38  39
ATOM     39  C   UNL A   1      43.870  25.014  27.439  1.00  0.00     0.031 A 
ATOM     40  C   UNL A   1      45.316  25.339  27.200  1.00  0.00     0.074 A 
ATOM     41  C   UNL A   1      43.011  25.934  27.921  1.00  0.00     0.049 A 
ATOM     42  N   UNL A   1      45.938  26.475  27.353  1.00  0.00    -0.248 NA
ATOM     43  C   UNL A   1      46.186  24.237  26.747  1.00  0.00     0.031 C 
ATOM     44  C   UNL A   1      41.597  25.698  28.229  1.00  0.00     0.029 A 
ATOM     45  N   UNL A   1      43.195  27.260  28.215  1.00  0.00    -0.354 N 
ATOM     46  C   UNL A   1      47.263  26.218  27.022  1.00  0.00     0.074 A 
ATOM     47  C   UNL A   1      47.377  24.809  26.743  1.00  0.00     0.031 C 
ATOM     48  C   UNL A   1      41.033  26.852  28.621  1.00  0.00     0.029 A 
ATOM     49  C   UNL A   1      42.049  27.900  28.628  1.00  0.00     0.049 A 
ATOM     50  H   UNL A   1      44.065  27.713  28.137  1.00  0.00     0.167 HD
ATOM     51  C   UNL A   1      48.287  27.092  26.920  1.00  0.00     0.037 A 
ATOM     52  C   UNL A   1      41.849  29.189  28.967  1.00  0.00     0.037 A 
ATOM     53  C   UNL A   1      48.148  28.497  27.177  1.00  0.00     0.049 A 
ATOM     54  C   UNL A   1      43.012  30.142  28.860  1.00  0.00     0.074 A 
ATOM     55  C   UNL A   1      49.103  29.489  27.064  1.00  0.00     0.029 A 
ATOM     56  N   UNL A   1      46.978  29.107  27.607  1.00  0.00    -0.354 N 
ATOM     57  N   UNL A   1      44.243  29.900  28.472  1.00  0.00    -0.248 NA
ATOM     58  C   UNL A   1      42.761  31.542  29.223  1.00  0.00     0.031 C 
ATOM     59  C   UNL A   1      48.530  30.688  27.497  1.00  0.00     0.029 A 
ATOM     60  C   UNL A   1      47.195  30.458  27.801  1.00  0.00     0.049 A 
ATOM     61  H   UNL A   1      46.120  28.646  27.754  1.00  0.00     0.167 HD
ATOM     62  C   UNL A   1      44.906  31.121  28.518  1.00  0.00     0.074 A 
ATOM     63  C   UNL A   1      43.931  32.102  28.952  1.00  0.00     0.031 C 
ATOM     64  C   UNL A   1      46.201  31.409  28.231  1.00  0.00     0.037 A 
BRANCH  51  65
ATOM     65  C   UNL A   1      49.634  26.548  26.531  1.00  0.00     0.058 A 
ATOM     66  C   UNL A   1      50.536  26.037  27.480  1.00  0.00     0.135 A 
ATOM     67  C   UNL A   1      50.021  26.524  25.183  1.00  0.00     0.135 A 
ATOM     68  F   UNL A   1      50.233  26.064  28.788  1.00  0.00    -0.206 F 
ATOM     69  C   UNL A   1      51.780  25.541  27.108  1.00  0.00     0.059 A 
ATOM     70  C   UNL A   1      51.245  25.999  24.783  1.00  0.00     0.059 A 
ATOM     71  F   UNL A   1      49.205  27.016  24.236  1.00  0.00    -0.206 F 
ATOM     72  C   UNL A   1      52.122  25.518  25.754  1.00  0.00     0.060 A 
BRANCH  72  73
ATOM     73  S   UNL A   1      53.724  24.835  25.285  1.00  0.00     0.124 S 
ATOM     74  O   UNL A   1      54.529  25.141  26.463  1.00  0.00    -0.237 OA
ATOM     75  O   UNL A   1      53.411  23.426  25.079  1.00  0.00    -0.237 OA
ATOM     76  O   UNL A   1      54.072  25.581  24.079  1.00  0.00    -0.744 OA
ENDBRANCH  72  73
ENDBRANCH  51  65
BRANCH  52  77
ATOM     77  C   UNL A   1      40.510  29.648  29.430  1.00  0.00     0.058 A 
ATOM     78  C   UNL A   1      39.439  29.819  28.538  1.00  0.00     0.135 A 
ATOM     79  C   UNL A   1      40.273  29.929  30.786  1.00  0.00     0.135 A 
ATOM     80  F   UNL A   1      39.609  29.569  27.231  1.00  0.00    -0.206 F 
ATOM     81  C   UNL A   1      38.194  30.272  28.967  1.00  0.00     0.059 A 
ATOM     82  C   UNL A   1      39.030  30.351  31.244  1.00  0.00     0.059 A 
ATOM     83  F   UNL A   1      41.255  29.769  31.688  1.00  0.00    -0.206 F 
ATOM     84  C   UNL A   1      37.998  30.532  30.325  1.00  0.00     0.060 A 
BRANCH  84  85
ATOM     85  S   UNL A   1      36.369  31.078  30.880  1.00  0.00     0.124 S 
ATOM     86  O   UNL A   1      35.627  31.112  29.625  1.00  0.00    -0.237 OA
ATOM     87  O   UNL A   1      35.996  30.023  31.816  1.00  0.00    -0.237 OA
ATOM     88  O   UNL A   1      36.639  32.378  31.487  1.00  0.00    -0.744 OA
ENDBRANCH  84  85
ENDBRANCH  52  77
BRANCH  64  89
ATOM     89  C   UNL A   1      46.628  32.846  28.341  1.00  0.00     0.058 A 
ATOM     90  C   UNL A   1      47.221  33.357  29.506  1.00  0.00     0.135 A 
ATOM     91  C   UNL A   1      46.497  33.707  27.237  1.00  0.00     0.135 A 
ATOM     92  F   UNL A   1      47.366  32.578  30.589  1.00  0.00    -0.206 F 
ATOM     93  C   UNL A   1      47.637  34.681  29.585  1.00  0.00     0.059 A 
ATOM     94  C   UNL A   1      46.945  35.021  27.281  1.00  0.00     0.059 A 
ATOM     95  F   UNL A   1      45.953  33.263  26.094  1.00  0.00    -0.206 F 
ATOM     96  C   UNL A   1      47.499  35.504  28.466  1.00  0.00     0.060 A 
BRANCH  96  97
ATOM     97  S   UNL A   1      48.070  37.211  28.576  1.00  0.00     0.124 S 
ATOM     98  O   UNL A   1      48.754  37.208  29.864  1.00  0.00    -0.237 OA
ATOM     99  O   UNL A   1      48.928  37.327  27.401  1.00  0.00    -0.237 OA
ATOM    100  O   UNL A   1      46.835  37.988  28.523  1.00  0.00    -0.744 OA
ENDBRANCH  96  97
ENDBRANCH  64  89
ENDBRANCH  38  39
ENDBRANCH  30  33
ENDBRANCH  28  29
ENDBRANCH   1  28
TORSDOF 17
ENDMDL
