MODEL 1
REMARK VINA RESULT:     -10.5      0.000      0.000
REMARK SMILES [NH3+]CCOCC(=O)N[C@H](C(=O)NCCCNC(=O)c1ccc(-c2c3nc(c(-c4c(F)cc(S(=O)(=O)[O-])cc4F)c4ccc([nH]4)c(-c4c(F)cc(S(=O)(=O)[O-])cc4F)c4nc(c(-c5c(F)cc(S(=O)(=O)[O-])cc5F)c5ccc2[nH]5)C=C4)C=C3)cc1)C1CCCCC1
REMARK SMILES IDX 10 1 11 2 12 3 9 5 8 6 6 7 7 8 5 10 4 11 3 12 2 13 1 14
REMARK SMILES IDX 85 18 86 19 90 20 87 21 89 22 88 23 13 24 14 25 15 26 16 27
REMARK SMILES IDX 17 28 18 30 19 31 20 32 84 33 21 34 83 35 22 36 23 37 24 38
REMARK SMILES IDX 77 39 25 40 82 41 76 42 78 43 26 44 81 45 75 46 74 47 27 49
REMARK SMILES IDX 61 50 40 51 60 52 41 53 44 54 59 55 79 56 42 57 43 58 58 60
REMARK SMILES IDX 80 61 45 62 28 63 29 64 38 65 30 66 31 67 37 68 39 69 32 70
REMARK SMILES IDX 33 71 34 72 35 73 36 74 62 75 63 76 72 77 64 78 65 79 71 80
REMARK SMILES IDX 73 81 66 82 67 83 68 84 69 85 70 86 46 87 47 88 56 89 48 90
REMARK SMILES IDX 49 91 55 92 57 93 50 94 51 95 52 96 53 97 54 98
REMARK H PARENT 12 4 8 9 1 15 1 16 1 17 16 29 78 48 44 59
REMARK Flexibility Score: inf
ROOT
ATOM      1  C   UNL A   1      31.733  24.895  25.297  1.00  0.00     0.242 C 
ATOM      2  O   UNL A   1      30.539  24.832  25.593  1.00  0.00    -0.273 OA
ATOM      3  N   UNL A   1      32.486  25.827  25.960  1.00  0.00    -0.354 N 
ATOM      4  H   UNL A   1      32.077  26.167  26.788  1.00  0.00     0.163 HD
ENDROOT
BRANCH   1   5
ATOM      5  C   UNL A   1      32.360  24.036  24.167  1.00  0.00     0.174 C 
BRANCH   5   6
ATOM      6  N   UNL A   1      33.065  24.871  23.168  1.00  0.00    -0.342 N 
ATOM      7  C   UNL A   1      32.745  25.760  22.196  1.00  0.00     0.246 C 
ATOM      8  O   UNL A   1      33.651  25.987  21.380  1.00  0.00    -0.272 OA
ATOM      9  H   UNL A   1      34.038  24.745  23.227  1.00  0.00     0.164 HD
BRANCH   7  10
ATOM     10  C   UNL A   1      31.426  26.540  22.087  1.00  0.00     0.260 C 
BRANCH  10  11
ATOM     11  O   UNL A   1      31.024  27.470  23.074  1.00  0.00    -0.366 OA
BRANCH  11  12
ATOM     12  C   UNL A   1      29.769  28.096  22.823  1.00  0.00     0.222 C 
BRANCH  12  13
ATOM     13  C   UNL A   1      29.813  29.627  22.614  1.00  0.00     0.287 C 
BRANCH  13  14
ATOM     14  N   UNL A   1      30.670  30.113  21.534  1.00  0.00    -0.356 N 
ATOM     15  H   UNL A   1      31.631  29.814  21.701  1.00  0.00     0.344 HD
ATOM     16  H   UNL A   1      30.632  31.132  21.502  1.00  0.00     0.344 HD
ATOM     17  H   UNL A   1      30.345  29.733  20.645  1.00  0.00     0.344 HD
ENDBRANCH  13  14
ENDBRANCH  12  13
ENDBRANCH  11  12
ENDBRANCH  10  11
ENDBRANCH   7  10
ENDBRANCH   5   6
BRANCH   5  18
ATOM     18  C   UNL A   1      32.968  22.637  24.521  1.00  0.00     0.021 C 
ATOM     19  C   UNL A   1      32.972  22.212  25.992  1.00  0.00     0.006 C 
ATOM     20  C   UNL A   1      32.285  21.523  23.686  1.00  0.00     0.006 C 
ATOM     21  C   UNL A   1      33.597  20.839  26.225  1.00  0.00     0.000 C 
ATOM     22  C   UNL A   1      32.857  20.127  23.948  1.00  0.00     0.000 C 
ATOM     23  C   UNL A   1      32.865  19.773  25.430  1.00  0.00     0.000 C 
ENDBRANCH   5  18
ENDBRANCH   1   5
BRANCH   3  24
ATOM     24  C   UNL A   1      33.790  26.401  25.650  1.00  0.00     0.117 C 
BRANCH  24  25
ATOM     25  C   UNL A   1      33.831  27.903  25.930  1.00  0.00     0.042 C 
BRANCH  25  26
ATOM     26  C   UNL A   1      33.418  28.302  27.345  1.00  0.00     0.118 C 
BRANCH  26  27
ATOM     27  N   UNL A   1      33.402  29.743  27.554  1.00  0.00    -0.352 N 
ATOM     28  C   UNL A   1      34.383  30.580  28.032  1.00  0.00     0.251 C 
ATOM     29  H   UNL A   1      32.557  30.188  27.316  1.00  0.00     0.163 HD
ATOM     30  O   UNL A   1      34.105  31.756  28.268  1.00  0.00    -0.269 OA
BRANCH  28  31
ATOM     31  C   UNL A   1      35.753  30.081  28.292  1.00  0.00     0.039 A 
ATOM     32  C   UNL A   1      36.687  30.104  27.250  1.00  0.00     0.014 A 
ATOM     33  C   UNL A   1      36.120  29.573  29.541  1.00  0.00     0.014 A 
ATOM     34  C   UNL A   1      38.001  29.690  27.484  1.00  0.00     0.010 A 
ATOM     35  C   UNL A   1      37.450  29.237  29.792  1.00  0.00     0.010 A 
ATOM     36  C   UNL A   1      38.407  29.293  28.768  1.00  0.00    -0.014 A 
BRANCH  36  37
ATOM     37  C   UNL A   1      39.827  28.949  29.059  1.00  0.00     0.031 A 
ATOM     38  C   UNL A   1      40.762  29.985  29.625  1.00  0.00     0.074 A 
ATOM     39  C   UNL A   1      40.293  27.721  28.747  1.00  0.00     0.049 A 
ATOM     40  N   UNL A   1      42.043  29.892  29.875  1.00  0.00    -0.248 NA
ATOM     41  C   UNL A   1      40.190  31.308  29.925  1.00  0.00     0.031 C 
ATOM     42  C   UNL A   1      39.502  26.644  28.146  1.00  0.00     0.029 A 
ATOM     43  N   UNL A   1      41.546  27.174  28.878  1.00  0.00    -0.354 N 
ATOM     44  C   UNL A   1      42.433  31.145  30.339  1.00  0.00     0.074 A 
ATOM     45  C   UNL A   1      41.263  31.993  30.295  1.00  0.00     0.031 C 
ATOM     46  C   UNL A   1      40.282  25.565  27.975  1.00  0.00     0.029 A 
ATOM     47  C   UNL A   1      41.638  25.882  28.412  1.00  0.00     0.049 A 
ATOM     48  H   UNL A   1      42.308  27.661  29.268  1.00  0.00     0.167 HD
ATOM     49  C   UNL A   1      43.651  31.544  30.777  1.00  0.00     0.037 A 
ATOM     50  C   UNL A   1      42.695  25.050  28.330  1.00  0.00     0.037 A 
ATOM     51  C   UNL A   1      44.805  30.684  30.849  1.00  0.00     0.049 A 
ATOM     52  C   UNL A   1      44.037  25.519  28.829  1.00  0.00     0.074 A 
ATOM     53  C   UNL A   1      46.059  30.973  31.358  1.00  0.00     0.029 A 
ATOM     54  N   UNL A   1      44.850  29.375  30.396  1.00  0.00    -0.354 N 
ATOM     55  N   UNL A   1      44.364  26.679  29.346  1.00  0.00    -0.248 NA
ATOM     56  C   UNL A   1      45.152  24.566  28.742  1.00  0.00     0.031 C 
ATOM     57  C   UNL A   1      46.881  29.860  31.155  1.00  0.00     0.029 A 
ATOM     58  C   UNL A   1      46.120  28.853  30.581  1.00  0.00     0.049 A 
ATOM     59  H   UNL A   1      44.092  28.886  29.999  1.00  0.00     0.167 HD
ATOM     60  C   UNL A   1      45.713  26.583  29.673  1.00  0.00     0.074 A 
ATOM     61  C   UNL A   1      46.136  25.247  29.310  1.00  0.00     0.031 C 
ATOM     62  C   UNL A   1      46.527  27.517  30.226  1.00  0.00     0.037 A 
BRANCH  49  63
ATOM     63  C   UNL A   1      43.812  32.976  31.214  1.00  0.00     0.058 A 
ATOM     64  C   UNL A   1      43.635  33.370  32.549  1.00  0.00     0.135 A 
ATOM     65  C   UNL A   1      44.218  33.956  30.293  1.00  0.00     0.135 A 
ATOM     66  F   UNL A   1      43.234  32.479  33.470  1.00  0.00    -0.206 F 
ATOM     67  C   UNL A   1      43.834  34.687  32.953  1.00  0.00     0.059 A 
ATOM     68  C   UNL A   1      44.452  35.273  30.679  1.00  0.00     0.059 A 
ATOM     69  F   UNL A   1      44.402  33.636  29.002  1.00  0.00    -0.206 F 
ATOM     70  C   UNL A   1      44.247  35.630  32.010  1.00  0.00     0.060 A 
BRANCH  70  71
ATOM     71  S   UNL A   1      44.526  37.328  32.557  1.00  0.00     0.124 S 
ATOM     72  O   UNL A   1      45.737  37.181  33.358  1.00  0.00    -0.237 OA
ATOM     73  O   UNL A   1      44.686  38.040  31.293  1.00  0.00    -0.237 OA
ATOM     74  O   UNL A   1      43.315  37.648  33.306  1.00  0.00    -0.744 OA
ENDBRANCH  70  71
ENDBRANCH  49  63
BRANCH  50  75
ATOM     75  C   UNL A   1      42.535  23.687  27.751  1.00  0.00     0.058 A 
ATOM     76  C   UNL A   1      42.354  22.566  28.575  1.00  0.00     0.135 A 
ATOM     77  C   UNL A   1      42.574  23.476  26.364  1.00  0.00     0.135 A 
ATOM     78  F   UNL A   1      42.316  22.711  29.908  1.00  0.00    -0.206 F 
ATOM     79  C   UNL A   1      42.247  21.282  28.047  1.00  0.00     0.059 A 
ATOM     80  C   UNL A   1      42.438  22.208  25.812  1.00  0.00     0.059 A 
ATOM     81  F   UNL A   1      42.726  24.516  25.529  1.00  0.00    -0.206 F 
ATOM     82  C   UNL A   1      42.291  21.113  26.663  1.00  0.00     0.060 A 
BRANCH  82  83
ATOM     83  S   UNL A   1      42.127  19.447  25.986  1.00  0.00     0.124 S 
ATOM     84  O   UNL A   1      42.962  19.532  24.793  1.00  0.00    -0.237 OA
ATOM     85  O   UNL A   1      42.646  18.622  27.072  1.00  0.00    -0.237 OA
ATOM     86  O   UNL A   1      40.692  19.323  25.745  1.00  0.00    -0.744 OA
ENDBRANCH  82  83
ENDBRANCH  50  75
BRANCH  62  87
ATOM     87  C   UNL A   1      47.950  27.118  30.515  1.00  0.00     0.058 A 
ATOM     88  C   UNL A   1      48.996  27.399  29.622  1.00  0.00     0.135 A 
ATOM     89  C   UNL A   1      48.276  26.492  31.729  1.00  0.00     0.135 A 
ATOM     90  F   UNL A   1      48.739  27.989  28.444  1.00  0.00    -0.206 F 
ATOM     91  C   UNL A   1      50.311  27.051  29.911  1.00  0.00     0.059 A 
ATOM     92  C   UNL A   1      49.590  26.164  32.054  1.00  0.00     0.059 A 
ATOM     93  F   UNL A   1      47.317  26.209  32.625  1.00  0.00    -0.206 F 
ATOM     94  C   UNL A   1      50.598  26.437  31.132  1.00  0.00     0.060 A 
BRANCH  94  95
ATOM     95  S   UNL A   1      52.315  26.022  31.508  1.00  0.00     0.124 S 
ATOM     96  O   UNL A   1      52.928  26.079  30.185  1.00  0.00    -0.237 OA
ATOM     97  O   UNL A   1      52.697  27.085  32.431  1.00  0.00    -0.237 OA
ATOM     98  O   UNL A   1      52.221  24.690  32.099  1.00  0.00    -0.744 OA
ENDBRANCH  94  95
ENDBRANCH  62  87
ENDBRANCH  36  37
ENDBRANCH  28  31
ENDBRANCH  26  27
ENDBRANCH  25  26
ENDBRANCH  24  25
ENDBRANCH   3  24
TORSDOF 20
ENDMDL
MODEL 2
REMARK VINA RESULT:     -10.3      4.983     10.454
REMARK SMILES [NH3+]CCOCC(=O)N[C@H](C(=O)NCCCNC(=O)c1ccc(-c2c3nc(c(-c4c(F)cc(S(=O)(=O)[O-])cc4F)c4ccc([nH]4)c(-c4c(F)cc(S(=O)(=O)[O-])cc4F)c4nc(c(-c5c(F)cc(S(=O)(=O)[O-])cc5F)c5ccc2[nH]5)C=C4)C=C3)cc1)C1CCCCC1
REMARK SMILES IDX 10 1 11 2 12 3 9 5 8 6 6 7 7 8 5 10 4 11 3 12 2 13 1 14
REMARK SMILES IDX 85 18 86 19 90 20 87 21 89 22 88 23 13 24 14 25 15 26 16 27
REMARK SMILES IDX 17 28 18 30 19 31 20 32 84 33 21 34 83 35 22 36 23 37 24 38
REMARK SMILES IDX 77 39 25 40 82 41 76 42 78 43 26 44 81 45 75 46 74 47 27 49
REMARK SMILES IDX 61 50 40 51 60 52 41 53 44 54 59 55 79 56 42 57 43 58 58 60
REMARK SMILES IDX 80 61 45 62 28 63 29 64 38 65 30 66 31 67 37 68 39 69 32 70
REMARK SMILES IDX 33 71 34 72 35 73 36 74 62 75 63 76 72 77 64 78 65 79 71 80
REMARK SMILES IDX 73 81 66 82 67 83 68 84 69 85 70 86 46 87 47 88 56 89 48 90
REMARK SMILES IDX 49 91 55 92 57 93 50 94 51 95 52 96 53 97 54 98
REMARK H PARENT 12 4 8 9 1 15 1 16 1 17 16 29 78 48 44 59
REMARK Flexibility Score: inf
ROOT
ATOM      1  C   UNL A   1      34.640  23.314  26.250  1.00  0.00     0.242 C 
ATOM      2  O   UNL A   1      33.854  22.686  26.960  1.00  0.00    -0.273 OA
ATOM      3  N   UNL A   1      35.952  22.926  26.285  1.00  0.00    -0.354 N 
ATOM      4  H   UNL A   1      36.101  22.026  26.656  1.00  0.00     0.163 HD
ENDROOT
BRANCH   1   5
ATOM      5  C   UNL A   1      34.207  24.549  25.415  1.00  0.00     0.174 C 
BRANCH   5   6
ATOM      6  N   UNL A   1      34.194  24.256  23.965  1.00  0.00    -0.342 N 
ATOM      7  C   UNL A   1      33.855  23.228  23.150  1.00  0.00     0.246 C 
ATOM      8  O   UNL A   1      34.308  23.305  21.998  1.00  0.00    -0.272 OA
ATOM      9  H   UNL A   1      34.524  25.024  23.446  1.00  0.00     0.164 HD
BRANCH   7  10
ATOM     10  C   UNL A   1      32.917  22.065  23.509  1.00  0.00     0.260 C 
BRANCH  10  11
ATOM     11  O   UNL A   1      33.402  20.861  24.072  1.00  0.00    -0.366 OA
BRANCH  11  12
ATOM     12  C   UNL A   1      32.423  19.835  24.209  1.00  0.00     0.222 C 
BRANCH  12  13
ATOM     13  C   UNL A   1      32.819  18.647  25.116  1.00  0.00     0.287 C 
BRANCH  13  14
ATOM     14  N   UNL A   1      32.864  18.912  26.553  1.00  0.00    -0.356 N 
ATOM     15  H   UNL A   1      33.618  19.568  26.755  1.00  0.00     0.344 HD
ATOM     16  H   UNL A   1      33.031  18.039  27.054  1.00  0.00     0.344 HD
ATOM     17  H   UNL A   1      31.975  19.311  26.853  1.00  0.00     0.344 HD
ENDBRANCH  13  14
ENDBRANCH  12  13
ENDBRANCH  11  12
ENDBRANCH  10  11
ENDBRANCH   7  10
ENDBRANCH   5   6
BRANCH   5  18
ATOM     18  C   UNL A   1      33.106  25.506  25.985  1.00  0.00     0.021 C 
ATOM     19  C   UNL A   1      33.469  26.983  26.169  1.00  0.00     0.006 C 
ATOM     20  C   UNL A   1      31.816  25.417  25.130  1.00  0.00     0.006 C 
ATOM     21  C   UNL A   1      32.327  27.821  26.739  1.00  0.00     0.000 C 
ATOM     22  C   UNL A   1      30.676  26.296  25.651  1.00  0.00     0.000 C 
ATOM     23  C   UNL A   1      31.104  27.746  25.844  1.00  0.00     0.000 C 
ENDBRANCH   5  18
ENDBRANCH   1   5
BRANCH   3  24
ATOM     24  C   UNL A   1      37.167  23.615  25.868  1.00  0.00     0.117 C 
BRANCH  24  25
ATOM     25  C   UNL A   1      38.415  22.768  26.113  1.00  0.00     0.042 C 
BRANCH  25  26
ATOM     26  C   UNL A   1      39.519  23.467  26.902  1.00  0.00     0.118 C 
BRANCH  26  27
ATOM     27  N   UNL A   1      40.621  23.922  26.065  1.00  0.00    -0.352 N 
ATOM     28  C   UNL A   1      41.430  25.028  26.188  1.00  0.00     0.251 C 
ATOM     29  H   UNL A   1      40.818  23.349  25.289  1.00  0.00     0.163 HD
ATOM     30  O   UNL A   1      42.211  25.303  25.278  1.00  0.00    -0.269 OA
BRANCH  28  31
ATOM     31  C   UNL A   1      41.352  25.902  27.380  1.00  0.00     0.039 A 
ATOM     32  C   UNL A   1      42.325  26.892  27.555  1.00  0.00     0.014 A 
ATOM     33  C   UNL A   1      40.344  25.745  28.336  1.00  0.00     0.014 A 
ATOM     34  C   UNL A   1      42.243  27.766  28.642  1.00  0.00     0.010 A 
ATOM     35  C   UNL A   1      40.220  26.668  29.374  1.00  0.00     0.010 A 
ATOM     36  C   UNL A   1      41.166  27.690  29.540  1.00  0.00    -0.014 A 
BRANCH  36  37
ATOM     37  C   UNL A   1      41.007  28.678  30.643  1.00  0.00     0.031 A 
ATOM     38  C   UNL A   1      41.851  28.574  31.887  1.00  0.00     0.074 A 
ATOM     39  C   UNL A   1      40.054  29.629  30.554  1.00  0.00     0.049 A 
ATOM     40  N   UNL A   1      41.805  29.296  32.978  1.00  0.00    -0.248 NA
ATOM     41  C   UNL A   1      42.859  27.502  31.923  1.00  0.00     0.031 C 
ATOM     42  C   UNL A   1      39.137  29.805  29.424  1.00  0.00     0.029 A 
ATOM     43  N   UNL A   1      39.685  30.619  31.432  1.00  0.00    -0.354 N 
ATOM     44  C   UNL A   1      42.758  28.755  33.834  1.00  0.00     0.074 A 
ATOM     45  C   UNL A   1      43.337  27.617  33.154  1.00  0.00     0.031 C 
ATOM     46  C   UNL A   1      38.325  30.844  29.671  1.00  0.00     0.029 A 
ATOM     47  C   UNL A   1      38.630  31.386  30.991  1.00  0.00     0.049 A 
ATOM     48  H   UNL A   1      40.133  30.766  32.297  1.00  0.00     0.167 HD
ATOM     49  C   UNL A   1      43.128  29.178  35.066  1.00  0.00     0.037 A 
ATOM     50  C   UNL A   1      37.971  32.400  31.587  1.00  0.00     0.037 A 
ATOM     51  C   UNL A   1      42.570  30.333  35.724  1.00  0.00     0.049 A 
ATOM     52  C   UNL A   1      38.407  32.853  32.956  1.00  0.00     0.074 A 
ATOM     53  C   UNL A   1      42.939  30.891  36.936  1.00  0.00     0.029 A 
ATOM     54  N   UNL A   1      41.525  31.100  35.233  1.00  0.00    -0.354 N 
ATOM     55  N   UNL A   1      39.370  32.383  33.712  1.00  0.00    -0.248 NA
ATOM     56  C   UNL A   1      37.674  33.979  33.551  1.00  0.00     0.031 C 
ATOM     57  C   UNL A   1      42.076  31.957  37.207  1.00  0.00     0.029 A 
ATOM     58  C   UNL A   1      41.213  32.106  36.134  1.00  0.00     0.049 A 
ATOM     59  H   UNL A   1      41.070  30.952  34.372  1.00  0.00     0.167 HD
ATOM     60  C   UNL A   1      39.377  33.174  34.855  1.00  0.00     0.074 A 
ATOM     61  C   UNL A   1      38.333  34.163  34.685  1.00  0.00     0.031 C 
ATOM     62  C   UNL A   1      40.178  33.092  35.947  1.00  0.00     0.037 A 
BRANCH  49  63
ATOM     63  C   UNL A   1      44.186  28.395  35.797  1.00  0.00     0.058 A 
ATOM     64  C   UNL A   1      45.553  28.677  35.653  1.00  0.00     0.135 A 
ATOM     65  C   UNL A   1      43.820  27.390  36.709  1.00  0.00     0.135 A 
ATOM     66  F   UNL A   1      45.962  29.618  34.785  1.00  0.00    -0.206 F 
ATOM     67  C   UNL A   1      46.521  27.980  36.369  1.00  0.00     0.059 A 
ATOM     68  C   UNL A   1      44.769  26.700  37.458  1.00  0.00     0.059 A 
ATOM     69  F   UNL A   1      42.527  27.077  36.887  1.00  0.00    -0.206 F 
ATOM     70  C   UNL A   1      46.118  26.996  37.274  1.00  0.00     0.060 A 
BRANCH  70  71
ATOM     71  S   UNL A   1      47.385  26.121  38.214  1.00  0.00     0.124 S 
ATOM     72  O   UNL A   1      48.535  26.224  37.322  1.00  0.00    -0.237 OA
ATOM     73  O   UNL A   1      47.463  26.909  39.440  1.00  0.00    -0.237 OA
ATOM     74  O   UNL A   1      46.831  24.780  38.368  1.00  0.00    -0.744 OA
ENDBRANCH  70  71
ENDBRANCH  49  63
BRANCH  50  75
ATOM     75  C   UNL A   1      36.826  33.058  30.898  1.00  0.00     0.058 A 
ATOM     76  C   UNL A   1      35.502  32.792  31.276  1.00  0.00     0.135 A 
ATOM     77  C   UNL A   1      37.034  33.955  29.838  1.00  0.00     0.135 A 
ATOM     78  F   UNL A   1      35.249  31.938  32.278  1.00  0.00    -0.206 F 
ATOM     79  C   UNL A   1      34.423  33.367  30.610  1.00  0.00     0.059 A 
ATOM     80  C   UNL A   1      35.974  34.566  29.178  1.00  0.00     0.059 A 
ATOM     81  F   UNL A   1      38.282  34.259  29.447  1.00  0.00    -0.206 F 
ATOM     82  C   UNL A   1      34.670  34.253  29.561  1.00  0.00     0.060 A 
BRANCH  82  83
ATOM     83  S   UNL A   1      33.265  35.014  28.718  1.00  0.00     0.124 S 
ATOM     84  O   UNL A   1      32.453  35.458  29.846  1.00  0.00    -0.237 OA
ATOM     85  O   UNL A   1      33.910  36.068  27.940  1.00  0.00    -0.237 OA
ATOM     86  O   UNL A   1      32.709  33.916  27.933  1.00  0.00    -0.744 OA
ENDBRANCH  82  83
ENDBRANCH  50  75
BRANCH  62  87
ATOM     87  C   UNL A   1      39.989  34.121  37.030  1.00  0.00     0.058 A 
ATOM     88  C   UNL A   1      40.555  35.403  36.942  1.00  0.00     0.135 A 
ATOM     89  C   UNL A   1      39.184  33.835  38.145  1.00  0.00     0.135 A 
ATOM     90  F   UNL A   1      41.338  35.727  35.902  1.00  0.00    -0.206 F 
ATOM     91  C   UNL A   1      40.351  36.356  37.935  1.00  0.00     0.059 A 
ATOM     92  C   UNL A   1      38.939  34.784  39.133  1.00  0.00     0.059 A 
ATOM     93  F   UNL A   1      38.609  32.629  38.274  1.00  0.00    -0.206 F 
ATOM     94  C   UNL A   1      39.538  36.038  39.025  1.00  0.00     0.060 A 
BRANCH  94  95
ATOM     95  S   UNL A   1      39.254  37.297  40.288  1.00  0.00     0.124 S 
ATOM     96  O   UNL A   1      38.484  36.552  41.278  1.00  0.00    -0.237 OA
ATOM     97  O   UNL A   1      40.613  37.656  40.681  1.00  0.00    -0.237 OA
ATOM     98  O   UNL A   1      38.519  38.336  39.574  1.00  0.00    -0.744 OA
ENDBRANCH  94  95
ENDBRANCH  62  87
ENDBRANCH  36  37
ENDBRANCH  28  31
ENDBRANCH  26  27
ENDBRANCH  25  26
ENDBRANCH  24  25
ENDBRANCH   3  24
TORSDOF 20
ENDMDL
MODEL 3
REMARK VINA RESULT:     -10.3      3.842      9.425
REMARK SMILES [NH3+]CCOCC(=O)N[C@H](C(=O)NCCCNC(=O)c1ccc(-c2c3nc(c(-c4c(F)cc(S(=O)(=O)[O-])cc4F)c4ccc([nH]4)c(-c4c(F)cc(S(=O)(=O)[O-])cc4F)c4nc(c(-c5c(F)cc(S(=O)(=O)[O-])cc5F)c5ccc2[nH]5)C=C4)C=C3)cc1)C1CCCCC1
REMARK SMILES IDX 10 1 11 2 12 3 9 5 8 6 6 7 7 8 5 10 4 11 3 12 2 13 1 14
REMARK SMILES IDX 85 18 86 19 90 20 87 21 89 22 88 23 13 24 14 25 15 26 16 27
REMARK SMILES IDX 17 28 18 30 19 31 20 32 84 33 21 34 83 35 22 36 23 37 24 38
REMARK SMILES IDX 77 39 25 40 82 41 76 42 78 43 26 44 81 45 75 46 74 47 27 49
REMARK SMILES IDX 61 50 40 51 60 52 41 53 44 54 59 55 79 56 42 57 43 58 58 60
REMARK SMILES IDX 80 61 45 62 28 63 29 64 38 65 30 66 31 67 37 68 39 69 32 70
REMARK SMILES IDX 33 71 34 72 35 73 36 74 62 75 63 76 72 77 64 78 65 79 71 80
REMARK SMILES IDX 73 81 66 82 67 83 68 84 69 85 70 86 46 87 47 88 56 89 48 90
REMARK SMILES IDX 49 91 55 92 57 93 50 94 51 95 52 96 53 97 54 98
REMARK H PARENT 12 4 8 9 1 15 1 16 1 17 16 29 78 48 44 59
REMARK Flexibility Score: inf
ROOT
ATOM      1  C   UNL A   1      34.577  21.693  26.052  1.00  0.00     0.242 C 
ATOM      2  O   UNL A   1      34.114  21.738  27.193  1.00  0.00    -0.273 OA
ATOM      3  N   UNL A   1      35.811  21.118  25.908  1.00  0.00    -0.354 N 
ATOM      4  H   UNL A   1      36.091  20.559  26.668  1.00  0.00     0.163 HD
ENDROOT
BRANCH   1   5
ATOM      5  C   UNL A   1      33.860  22.332  24.834  1.00  0.00     0.174 C 
BRANCH   5   6
ATOM      6  N   UNL A   1      33.057  21.340  24.084  1.00  0.00    -0.342 N 
ATOM      7  C   UNL A   1      32.719  20.031  24.194  1.00  0.00     0.246 C 
ATOM      8  O   UNL A   1      32.274  19.521  23.155  1.00  0.00    -0.272 OA
ATOM      9  H   UNL A   1      32.656  21.743  23.282  1.00  0.00     0.164 HD
BRANCH   7  10
ATOM     10  C   UNL A   1      32.765  19.193  25.480  1.00  0.00     0.260 C 
BRANCH  10  11
ATOM     11  O   UNL A   1      32.190  17.903  25.552  1.00  0.00    -0.366 OA
BRANCH  11  12
ATOM     12  C   UNL A   1      33.132  16.833  25.551  1.00  0.00     0.222 C 
BRANCH  12  13
ATOM     13  C   UNL A   1      33.356  16.137  24.190  1.00  0.00     0.287 C 
BRANCH  13  14
ATOM     14  N   UNL A   1      34.123  16.884  23.194  1.00  0.00    -0.356 N 
ATOM     15  H   UNL A   1      35.027  17.145  23.587  1.00  0.00     0.344 HD
ATOM     16  H   UNL A   1      33.610  17.726  22.932  1.00  0.00     0.344 HD
ATOM     17  H   UNL A   1      34.266  16.302  22.368  1.00  0.00     0.344 HD
ENDBRANCH  13  14
ENDBRANCH  12  13
ENDBRANCH  11  12
ENDBRANCH  10  11
ENDBRANCH   7  10
ENDBRANCH   5   6
BRANCH   5  18
ATOM     18  C   UNL A   1      33.302  23.790  24.956  1.00  0.00     0.021 C 
ATOM     19  C   UNL A   1      32.091  24.018  25.865  1.00  0.00     0.006 C 
ATOM     20  C   UNL A   1      34.429  24.767  25.382  1.00  0.00     0.006 C 
ATOM     21  C   UNL A   1      31.625  25.471  25.902  1.00  0.00     0.000 C 
ATOM     22  C   UNL A   1      33.969  26.224  25.484  1.00  0.00     0.000 C 
ATOM     23  C   UNL A   1      32.743  26.383  26.374  1.00  0.00     0.000 C 
ENDBRANCH   5  18
ENDBRANCH   1   5
BRANCH   3  24
ATOM     24  C   UNL A   1      36.781  21.191  24.822  1.00  0.00     0.117 C 
BRANCH  24  25
ATOM     25  C   UNL A   1      37.878  20.137  24.968  1.00  0.00     0.042 C 
BRANCH  25  26
ATOM     26  C   UNL A   1      39.087  20.580  25.788  1.00  0.00     0.118 C 
BRANCH  26  27
ATOM     27  N   UNL A   1      40.078  19.527  25.965  1.00  0.00    -0.352 N 
ATOM     28  C   UNL A   1      41.434  19.612  26.176  1.00  0.00     0.251 C 
ATOM     29  H   UNL A   1      39.720  18.610  25.927  1.00  0.00     0.163 HD
ATOM     30  O   UNL A   1      42.110  18.584  26.151  1.00  0.00    -0.269 OA
BRANCH  28  31
ATOM     31  C   UNL A   1      42.091  20.920  26.403  1.00  0.00     0.039 A 
ATOM     32  C   UNL A   1      42.422  21.708  25.296  1.00  0.00     0.014 A 
ATOM     33  C   UNL A   1      42.402  21.366  27.690  1.00  0.00     0.014 A 
ATOM     34  C   UNL A   1      42.992  22.970  25.485  1.00  0.00     0.010 A 
ATOM     35  C   UNL A   1      42.897  22.657  27.878  1.00  0.00     0.010 A 
ATOM     36  C   UNL A   1      43.197  23.475  26.779  1.00  0.00    -0.014 A 
BRANCH  36  37
ATOM     37  C   UNL A   1      43.706  24.857  26.999  1.00  0.00     0.031 A 
ATOM     38  C   UNL A   1      45.159  25.181  26.764  1.00  0.00     0.074 A 
ATOM     39  C   UNL A   1      42.874  25.806  27.477  1.00  0.00     0.049 A 
ATOM     40  N   UNL A   1      45.798  26.304  26.969  1.00  0.00    -0.248 NA
ATOM     41  C   UNL A   1      46.012  24.092  26.259  1.00  0.00     0.031 C 
ATOM     42  C   UNL A   1      41.458  25.608  27.794  1.00  0.00     0.029 A 
ATOM     43  N   UNL A   1      43.100  27.124  27.794  1.00  0.00    -0.354 N 
ATOM     44  C   UNL A   1      47.126  26.054  26.641  1.00  0.00     0.074 A 
ATOM     45  C   UNL A   1      47.210  24.660  26.264  1.00  0.00     0.031 C 
ATOM     46  C   UNL A   1      40.939  26.760  28.244  1.00  0.00     0.029 A 
ATOM     47  C   UNL A   1      41.991  27.771  28.291  1.00  0.00     0.049 A 
ATOM     48  H   UNL A   1      43.973  27.564  27.678  1.00  0.00     0.167 HD
ATOM     49  C   UNL A   1      48.174  26.911  26.638  1.00  0.00     0.037 A 
ATOM     50  C   UNL A   1      41.839  29.031  28.747  1.00  0.00     0.037 A 
ATOM     51  C   UNL A   1      48.076  28.307  26.982  1.00  0.00     0.049 A 
ATOM     52  C   UNL A   1      43.021  29.964  28.727  1.00  0.00     0.074 A 
ATOM     53  C   UNL A   1      49.064  29.275  26.927  1.00  0.00     0.029 A 
ATOM     54  N   UNL A   1      46.931  28.931  27.452  1.00  0.00    -0.354 N 
ATOM     55  N   UNL A   1      44.249  29.731  28.329  1.00  0.00    -0.248 NA
ATOM     56  C   UNL A   1      42.797  31.334  29.210  1.00  0.00     0.031 C 
ATOM     57  C   UNL A   1      48.533  30.470  27.422  1.00  0.00     0.029 A 
ATOM     58  C   UNL A   1      47.196  30.264  27.723  1.00  0.00     0.049 A 
ATOM     59  H   UNL A   1      46.057  28.493  27.575  1.00  0.00     0.167 HD
ATOM     60  C   UNL A   1      44.934  30.932  28.485  1.00  0.00     0.074 A 
ATOM     61  C   UNL A   1      43.980  31.893  28.999  1.00  0.00     0.031 C 
ATOM     62  C   UNL A   1      46.234  31.214  28.224  1.00  0.00     0.037 A 
BRANCH  49  63
ATOM     63  C   UNL A   1      49.527  26.375  26.252  1.00  0.00     0.058 A 
ATOM     64  C   UNL A   1      50.087  26.610  24.986  1.00  0.00     0.135 A 
ATOM     65  C   UNL A   1      50.304  25.673  27.188  1.00  0.00     0.135 A 
ATOM     66  F   UNL A   1      49.384  27.264  24.046  1.00  0.00    -0.206 F 
ATOM     67  C   UNL A   1      51.359  26.152  24.656  1.00  0.00     0.059 A 
ATOM     68  C   UNL A   1      51.591  25.231  26.890  1.00  0.00     0.059 A 
ATOM     69  F   UNL A   1      49.819  25.418  28.415  1.00  0.00    -0.206 F 
ATOM     70  C   UNL A   1      52.105  25.468  25.617  1.00  0.00     0.060 A 
BRANCH  70  71
ATOM     71  S   UNL A   1      53.763  24.905  25.179  1.00  0.00     0.124 S 
ATOM     72  O   UNL A   1      53.947  25.527  23.872  1.00  0.00    -0.237 OA
ATOM     73  O   UNL A   1      54.574  25.454  26.261  1.00  0.00    -0.237 OA
ATOM     74  O   UNL A   1      53.638  23.451  25.168  1.00  0.00    -0.744 OA
ENDBRANCH  70  71
ENDBRANCH  49  63
BRANCH  50  75
ATOM     75  C   UNL A   1      40.519  29.487  29.264  1.00  0.00     0.058 A 
ATOM     76  C   UNL A   1      40.293  29.640  30.640  1.00  0.00     0.135 A 
ATOM     77  C   UNL A   1      39.453  29.765  28.395  1.00  0.00     0.135 A 
ATOM     78  F   UNL A   1      41.277  29.382  31.515  1.00  0.00    -0.206 F 
ATOM     79  C   UNL A   1      39.051  30.023  31.138  1.00  0.00     0.059 A 
ATOM     80  C   UNL A   1      38.212  30.179  28.866  1.00  0.00     0.059 A 
ATOM     81  F   UNL A   1      39.620  29.652  27.067  1.00  0.00    -0.206 F 
ATOM     82  C   UNL A   1      38.016  30.290  30.242  1.00  0.00     0.060 A 
BRANCH  82  83
ATOM     83  S   UNL A   1      36.414  30.811  30.895  1.00  0.00     0.124 S 
ATOM     84  O   UNL A   1      35.636  30.967  29.671  1.00  0.00    -0.237 OA
ATOM     85  O   UNL A   1      36.048  29.681  31.745  1.00  0.00    -0.237 OA
ATOM     86  O   UNL A   1      36.728  32.046  31.607  1.00  0.00    -0.744 OA
ENDBRANCH  82  83
ENDBRANCH  50  75
BRANCH  62  87
ATOM     87  C   UNL A   1      46.699  32.629  28.448  1.00  0.00     0.058 A 
ATOM     88  C   UNL A   1      47.297  33.032  29.652  1.00  0.00     0.135 A 
ATOM     89  C   UNL A   1      46.592  33.579  27.420  1.00  0.00     0.135 A 
ATOM     90  F   UNL A   1      47.419  32.166  30.670  1.00  0.00    -0.206 F 
ATOM     91  C   UNL A   1      47.749  34.335  29.838  1.00  0.00     0.059 A 
ATOM     92  C   UNL A   1      47.066  34.879  27.572  1.00  0.00     0.059 A 
ATOM     93  F   UNL A   1      46.038  33.245  26.243  1.00  0.00    -0.206 F 
ATOM     94  C   UNL A   1      47.632  35.250  28.790  1.00  0.00     0.060 A 
BRANCH  94  95
ATOM     95  S   UNL A   1      48.253  36.928  29.034  1.00  0.00     0.124 S 
ATOM     96  O   UNL A   1      49.069  36.768  30.234  1.00  0.00    -0.237 OA
ATOM     97  O   UNL A   1      48.987  37.172  27.796  1.00  0.00    -0.237 OA
ATOM     98  O   UNL A   1      47.039  37.719  29.203  1.00  0.00    -0.744 OA
ENDBRANCH  94  95
ENDBRANCH  62  87
ENDBRANCH  36  37
ENDBRANCH  28  31
ENDBRANCH  26  27
ENDBRANCH  25  26
ENDBRANCH  24  25
ENDBRANCH   3  24
TORSDOF 20
ENDMDL
