MODEL 1
REMARK VINA RESULT:     -10.8      0.000      0.000
REMARK SMILES C=CCN(CC(=O)NCCCNC(=O)c1ccc(-c2c3nc(c(-c4c(F)cc(S(=O)(=O)[O-])cc4F)c4ccc([nH]4)c(-c4c(F)cc(S(=O)(=O)[O-])cc4F)c4nc(c(-c5c(F)cc(S(=O)(=O)[O-])cc5F)c5ccc2[nH]5)C=C4)C=C3)cc1)S(=O)(=O)Cc1cc(C)on1
REMARK SMILES IDX 9 1 8 2 6 3 7 4 5 6 4 7 3 8 2 9 1 10 81 11 82 12 83 13 84 14
REMARK SMILES IDX 85 15 86 16 90 17 87 18 89 19 88 20 10 21 11 22 12 23 13 24
REMARK SMILES IDX 14 26 15 27 16 28 80 29 17 30 79 31 18 32 19 33 20 34 73 35
REMARK SMILES IDX 21 36 78 37 72 38 74 39 22 40 77 41 71 42 70 43 23 45 57 46
REMARK SMILES IDX 36 47 56 48 37 49 40 50 55 51 75 52 38 53 39 54 54 56 76 57
REMARK SMILES IDX 41 58 24 59 25 60 34 61 26 62 27 63 33 64 35 65 28 66 29 67
REMARK SMILES IDX 30 68 31 69 32 70 58 71 59 72 68 73 60 74 61 75 67 76 69 77
REMARK SMILES IDX 62 78 63 79 64 80 65 81 66 82 42 83 43 84 52 85 44 86 45 87
REMARK SMILES IDX 51 88 53 89 46 90 47 91 48 92 49 93 50 94
REMARK H PARENT 8 5 12 25 74 44 40 55
REMARK Flexibility Score: inf
ROOT
ATOM      1  C   UNL A   1      37.982  23.730  26.102  1.00  0.00     0.117 C 
ENDROOT
BRANCH   1   2
ATOM      2  N   UNL A   1      37.422  23.501  24.781  1.00  0.00    -0.355 N 
ATOM      3  C   UNL A   1      36.124  23.330  24.393  1.00  0.00     0.235 C 
ATOM      4  O   UNL A   1      35.894  23.165  23.190  1.00  0.00    -0.274 OA
ATOM      5  H   UNL A   1      38.083  23.462  24.052  1.00  0.00     0.163 HD
BRANCH   3   6
ATOM      6  C   UNL A   1      34.978  23.402  25.394  1.00  0.00     0.202 C 
BRANCH   6   7
ATOM      7  N   UNL A   1      33.588  23.622  24.887  1.00  0.00    -0.188 NA
BRANCH   7   8
ATOM      8  C   UNL A   1      33.058  24.937  25.298  1.00  0.00     0.129 C 
BRANCH   8   9
ATOM      9  C   UNL A   1      34.044  26.041  25.439  1.00  0.00    -0.018 C 
ATOM     10  C   UNL A   1      33.758  27.254  25.936  1.00  0.00     0.005 C 
ENDBRANCH   8   9
ENDBRANCH   7   8
BRANCH   7  11
ATOM     11  S   UNL A   1      32.598  22.260  24.713  1.00  0.00     0.220 S 
ATOM     12  O   UNL A   1      31.316  22.581  25.301  1.00  0.00    -0.212 OA
ATOM     13  O   UNL A   1      32.649  21.773  23.347  1.00  0.00    -0.212 OA
BRANCH  11  14
ATOM     14  C   UNL A   1      33.405  20.995  25.712  1.00  0.00     0.214 C 
BRANCH  14  15
ATOM     15  C   UNL A   1      33.293  19.639  25.107  1.00  0.00     0.100 A 
ATOM     16  C   UNL A   1      34.277  18.915  24.386  1.00  0.00     0.073 A 
ATOM     17  N   UNL A   1      32.145  18.949  25.166  1.00  0.00    -0.084 NA
ATOM     18  C   UNL A   1      33.666  17.727  24.070  1.00  0.00     0.133 A 
ATOM     19  O   UNL A   1      32.393  17.739  24.548  1.00  0.00    -0.361 OA
ATOM     20  C   UNL A   1      34.084  16.505  23.359  1.00  0.00     0.091 C 
ENDBRANCH  14  15
ENDBRANCH  11  14
ENDBRANCH   7  11
ENDBRANCH   6   7
ENDBRANCH   3   6
ENDBRANCH   1   2
BRANCH   1  21
ATOM     21  C   UNL A   1      39.046  22.696  26.456  1.00  0.00     0.042 C 
BRANCH  21  22
ATOM     22  C   UNL A   1      40.331  23.281  27.017  1.00  0.00     0.118 C 
BRANCH  22  23
ATOM     23  N   UNL A   1      41.054  24.078  26.037  1.00  0.00    -0.352 N 
ATOM     24  C   UNL A   1      41.401  25.409  26.039  1.00  0.00     0.251 C 
ATOM     25  H   UNL A   1      41.343  23.581  25.239  1.00  0.00     0.163 HD
ATOM     26  O   UNL A   1      41.838  25.902  25.000  1.00  0.00    -0.269 OA
BRANCH  24  27
ATOM     27  C   UNL A   1      41.241  26.257  27.247  1.00  0.00     0.039 A 
ATOM     28  C   UNL A   1      42.126  27.323  27.441  1.00  0.00     0.014 A 
ATOM     29  C   UNL A   1      40.275  25.988  28.217  1.00  0.00     0.014 A 
ATOM     30  C   UNL A   1      42.007  28.138  28.572  1.00  0.00     0.010 A 
ATOM     31  C   UNL A   1      40.085  26.864  29.284  1.00  0.00     0.010 A 
ATOM     32  C   UNL A   1      40.964  27.935  29.491  1.00  0.00    -0.014 A 
BRANCH  32  33
ATOM     33  C   UNL A   1      40.805  28.803  30.689  1.00  0.00     0.031 A 
ATOM     34  C   UNL A   1      39.741  29.871  30.715  1.00  0.00     0.074 A 
ATOM     35  C   UNL A   1      41.640  28.662  31.737  1.00  0.00     0.049 A 
ATOM     36  N   UNL A   1      39.466  30.744  31.651  1.00  0.00    -0.248 NA
ATOM     37  C   UNL A   1      38.889  29.990  29.520  1.00  0.00     0.031 C 
ATOM     38  C   UNL A   1      42.736  27.694  31.819  1.00  0.00     0.029 A 
ATOM     39  N   UNL A   1      41.700  29.331  32.933  1.00  0.00    -0.354 N 
ATOM     40  C   UNL A   1      38.424  31.520  31.153  1.00  0.00     0.074 A 
ATOM     41  C   UNL A   1      38.165  31.060  29.806  1.00  0.00     0.031 C 
ATOM     42  C   UNL A   1      43.330  27.803  33.017  1.00  0.00     0.029 A 
ATOM     43  C   UNL A   1      42.692  28.878  33.771  1.00  0.00     0.049 A 
ATOM     44  H   UNL A   1      41.091  30.068  33.169  1.00  0.00     0.167 HD
ATOM     45  C   UNL A   1      37.724  32.504  31.768  1.00  0.00     0.037 A 
ATOM     46  C   UNL A   1      43.046  29.281  35.006  1.00  0.00     0.037 A 
ATOM     47  C   UNL A   1      37.982  32.951  33.113  1.00  0.00     0.049 A 
ATOM     48  C   UNL A   1      42.279  30.398  35.662  1.00  0.00     0.074 A 
ATOM     49  C   UNL A   1      37.308  33.910  33.846  1.00  0.00     0.029 A 
ATOM     50  N   UNL A   1      39.003  32.474  33.924  1.00  0.00    -0.354 N 
ATOM     51  N   UNL A   1      41.257  31.079  35.200  1.00  0.00    -0.248 NA
ATOM     52  C   UNL A   1      42.708  30.794  37.010  1.00  0.00     0.031 C 
ATOM     53  C   UNL A   1      37.956  34.053  35.079  1.00  0.00     0.029 A 
ATOM     54  C   UNL A   1      38.994  33.137  35.141  1.00  0.00     0.049 A 
ATOM     55  H   UNL A   1      39.641  31.767  33.672  1.00  0.00     0.167 HD
ATOM     56  C   UNL A   1      40.901  31.964  36.213  1.00  0.00     0.074 A 
ATOM     57  C   UNL A   1      41.812  31.722  37.314  1.00  0.00     0.031 C 
ATOM     58  C   UNL A   1      39.906  32.887  36.231  1.00  0.00     0.037 A 
BRANCH  45  59
ATOM     59  C   UNL A   1      36.620  33.163  30.981  1.00  0.00     0.058 A 
ATOM     60  C   UNL A   1      36.890  34.068  29.940  1.00  0.00     0.135 A 
ATOM     61  C   UNL A   1      35.273  32.897  31.275  1.00  0.00     0.135 A 
ATOM     62  F   UNL A   1      38.159  34.371  29.619  1.00  0.00    -0.206 F 
ATOM     63  C   UNL A   1      35.871  34.727  29.261  1.00  0.00     0.059 A 
ATOM     64  C   UNL A   1      34.235  33.517  30.584  1.00  0.00     0.059 A 
ATOM     65  F   UNL A   1      34.950  32.037  32.253  1.00  0.00    -0.206 F 
ATOM     66  C   UNL A   1      34.545  34.451  29.596  1.00  0.00     0.060 A 
BRANCH  66  67
ATOM     67  S   UNL A   1      33.234  35.342  28.732  1.00  0.00     0.124 S 
ATOM     68  O   UNL A   1      34.007  36.282  27.924  1.00  0.00    -0.237 OA
ATOM     69  O   UNL A   1      32.566  34.275  27.994  1.00  0.00    -0.237 OA
ATOM     70  O   UNL A   1      32.456  35.936  29.813  1.00  0.00    -0.744 OA
ENDBRANCH  66  67
ENDBRANCH  45  59
BRANCH  46  71
ATOM     71  C   UNL A   1      44.153  28.588  35.720  1.00  0.00     0.058 A 
ATOM     72  C   UNL A   1      45.482  29.007  35.561  1.00  0.00     0.135 A 
ATOM     73  C   UNL A   1      43.906  27.524  36.602  1.00  0.00     0.135 A 
ATOM     74  F   UNL A   1      45.772  30.013  34.723  1.00  0.00    -0.206 F 
ATOM     75  C   UNL A   1      46.527  28.396  36.247  1.00  0.00     0.059 A 
ATOM     76  C   UNL A   1      44.930  26.916  37.320  1.00  0.00     0.059 A 
ATOM     77  F   UNL A   1      42.649  27.094  36.800  1.00  0.00    -0.206 F 
ATOM     78  C   UNL A   1      46.239  27.356  37.133  1.00  0.00     0.060 A 
BRANCH  78  79
ATOM     79  S   UNL A   1      47.596  26.624  38.073  1.00  0.00     0.124 S 
ATOM     80  O   UNL A   1      46.876  25.803  39.040  1.00  0.00    -0.237 OA
ATOM     81  O   UNL A   1      48.326  25.899  37.038  1.00  0.00    -0.237 OA
ATOM     82  O   UNL A   1      48.289  27.784  38.623  1.00  0.00    -0.744 OA
ENDBRANCH  78  79
ENDBRANCH  46  71
BRANCH  58  83
ATOM     83  C   UNL A   1      39.720  33.682  37.496  1.00  0.00     0.058 A 
ATOM     84  C   UNL A   1      40.360  34.914  37.702  1.00  0.00     0.135 A 
ATOM     85  C   UNL A   1      38.846  33.225  38.497  1.00  0.00     0.135 A 
ATOM     86  F   UNL A   1      41.212  35.396  36.781  1.00  0.00    -0.206 F 
ATOM     87  C   UNL A   1      40.164  35.649  38.866  1.00  0.00     0.059 A 
ATOM     88  C   UNL A   1      38.609  33.959  39.653  1.00  0.00     0.059 A 
ATOM     89  F   UNL A   1      38.198  32.058  38.347  1.00  0.00    -0.206 F 
ATOM     90  C   UNL A   1      39.283  35.166  39.835  1.00  0.00     0.060 A 
BRANCH  90  91
ATOM     91  S   UNL A   1      39.013  36.146  41.326  1.00  0.00     0.124 S 
ATOM     92  O   UNL A   1      37.774  35.568  41.837  1.00  0.00    -0.237 OA
ATOM     93  O   UNL A   1      40.213  35.863  42.107  1.00  0.00    -0.237 OA
ATOM     94  O   UNL A   1      38.907  37.512  40.822  1.00  0.00    -0.744 OA
ENDBRANCH  90  91
ENDBRANCH  58  83
ENDBRANCH  32  33
ENDBRANCH  24  27
ENDBRANCH  22  23
ENDBRANCH  21  22
ENDBRANCH   1  21
TORSDOF 19
ENDMDL
MODEL 2
REMARK VINA RESULT:     -10.8      0.688      8.398
REMARK SMILES C=CCN(CC(=O)NCCCNC(=O)c1ccc(-c2c3nc(c(-c4c(F)cc(S(=O)(=O)[O-])cc4F)c4ccc([nH]4)c(-c4c(F)cc(S(=O)(=O)[O-])cc4F)c4nc(c(-c5c(F)cc(S(=O)(=O)[O-])cc5F)c5ccc2[nH]5)C=C4)C=C3)cc1)S(=O)(=O)Cc1cc(C)on1
REMARK SMILES IDX 9 1 8 2 6 3 7 4 5 6 4 7 3 8 2 9 1 10 81 11 82 12 83 13 84 14
REMARK SMILES IDX 85 15 86 16 90 17 87 18 89 19 88 20 10 21 11 22 12 23 13 24
REMARK SMILES IDX 14 26 15 27 16 28 80 29 17 30 79 31 18 32 19 33 20 34 73 35
REMARK SMILES IDX 21 36 78 37 72 38 74 39 22 40 77 41 71 42 70 43 23 45 57 46
REMARK SMILES IDX 36 47 56 48 37 49 40 50 55 51 75 52 38 53 39 54 54 56 76 57
REMARK SMILES IDX 41 58 24 59 25 60 34 61 26 62 27 63 33 64 35 65 28 66 29 67
REMARK SMILES IDX 30 68 31 69 32 70 58 71 59 72 68 73 60 74 61 75 67 76 69 77
REMARK SMILES IDX 62 78 63 79 64 80 65 81 66 82 42 83 43 84 52 85 44 86 45 87
REMARK SMILES IDX 51 88 53 89 46 90 47 91 48 92 49 93 50 94
REMARK H PARENT 8 5 12 25 74 44 40 55
REMARK Flexibility Score: inf
ROOT
ATOM      1  C   UNL A   1      38.078  23.142  26.071  1.00  0.00     0.117 C 
ENDROOT
BRANCH   1   2
ATOM      2  N   UNL A   1      37.639  23.231  24.689  1.00  0.00    -0.355 N 
ATOM      3  C   UNL A   1      36.426  22.947  24.129  1.00  0.00     0.235 C 
ATOM      4  O   UNL A   1      36.292  23.122  22.914  1.00  0.00    -0.274 OA
ATOM      5  H   UNL A   1      38.326  23.545  24.056  1.00  0.00     0.163 HD
BRANCH   3   6
ATOM      6  C   UNL A   1      35.246  22.490  24.977  1.00  0.00     0.202 C 
BRANCH   6   7
ATOM      7  N   UNL A   1      33.893  23.065  24.706  1.00  0.00    -0.188 NA
BRANCH   7   8
ATOM      8  C   UNL A   1      33.795  24.467  25.157  1.00  0.00     0.129 C 
BRANCH   8   9
ATOM      9  C   UNL A   1      33.340  25.463  24.152  1.00  0.00    -0.018 C 
ATOM     10  C   UNL A   1      33.706  25.458  22.861  1.00  0.00     0.005 C 
ENDBRANCH   8   9
ENDBRANCH   7   8
BRANCH   7  11
ATOM     11  S   UNL A   1      32.574  22.005  24.744  1.00  0.00     0.220 S 
ATOM     12  O   UNL A   1      31.463  22.722  25.331  1.00  0.00    -0.212 OA
ATOM     13  O   UNL A   1      32.403  21.367  23.452  1.00  0.00    -0.212 OA
BRANCH  11  14
ATOM     14  C   UNL A   1      33.091  20.695  25.870  1.00  0.00     0.214 C 
BRANCH  14  15
ATOM     15  C   UNL A   1      33.121  19.361  25.210  1.00  0.00     0.100 A 
ATOM     16  C   UNL A   1      34.148  18.800  24.409  1.00  0.00     0.073 A 
ATOM     17  N   UNL A   1      32.075  18.526  25.293  1.00  0.00    -0.084 NA
ATOM     18  C   UNL A   1      33.678  17.555  24.070  1.00  0.00     0.133 A 
ATOM     19  O   UNL A   1      32.442  17.383  24.609  1.00  0.00    -0.361 OA
ATOM     20  C   UNL A   1      34.210  16.426  23.285  1.00  0.00     0.091 C 
ENDBRANCH  14  15
ENDBRANCH  11  14
ENDBRANCH   7  11
ENDBRANCH   6   7
ENDBRANCH   3   6
ENDBRANCH   1   2
BRANCH   1  21
ATOM     21  C   UNL A   1      39.379  22.359  26.206  1.00  0.00     0.042 C 
BRANCH  21  22
ATOM     22  C   UNL A   1      40.493  23.107  26.920  1.00  0.00     0.118 C 
BRANCH  22  23
ATOM     23  N   UNL A   1      41.377  23.803  25.998  1.00  0.00    -0.352 N 
ATOM     24  C   UNL A   1      41.830  25.101  25.991  1.00  0.00     0.251 C 
ATOM     25  H   UNL A   1      41.705  23.252  25.251  1.00  0.00     0.163 HD
ATOM     26  O   UNL A   1      42.411  25.514  24.990  1.00  0.00    -0.269 OA
BRANCH  24  27
ATOM     27  C   UNL A   1      41.616  26.009  27.147  1.00  0.00     0.039 A 
ATOM     28  C   UNL A   1      42.352  27.197  27.213  1.00  0.00     0.014 A 
ATOM     29  C   UNL A   1      40.748  25.686  28.191  1.00  0.00     0.014 A 
ATOM     30  C   UNL A   1      42.179  28.071  28.292  1.00  0.00     0.010 A 
ATOM     31  C   UNL A   1      40.492  26.606  29.205  1.00  0.00     0.010 A 
ATOM     32  C   UNL A   1      41.223  27.799  29.284  1.00  0.00    -0.014 A 
BRANCH  32  33
ATOM     33  C   UNL A   1      41.006  28.726  30.428  1.00  0.00     0.031 A 
ATOM     34  C   UNL A   1      41.882  28.638  31.652  1.00  0.00     0.074 A 
ATOM     35  C   UNL A   1      39.997  29.618  30.388  1.00  0.00     0.049 A 
ATOM     36  N   UNL A   1      41.832  29.333  32.759  1.00  0.00    -0.248 NA
ATOM     37  C   UNL A   1      42.941  27.614  31.639  1.00  0.00     0.031 C 
ATOM     38  C   UNL A   1      39.054  29.777  29.279  1.00  0.00     0.029 A 
ATOM     39  N   UNL A   1      39.596  30.560  31.301  1.00  0.00    -0.354 N 
ATOM     40  C   UNL A   1      42.837  28.823  33.575  1.00  0.00     0.074 A 
ATOM     41  C   UNL A   1      43.434  27.715  32.863  1.00  0.00     0.031 C 
ATOM     42  C   UNL A   1      38.212  30.784  29.559  1.00  0.00     0.029 A 
ATOM     43  C   UNL A   1      38.523  31.313  30.884  1.00  0.00     0.049 A 
ATOM     44  H   UNL A   1      40.035  30.685  32.174  1.00  0.00     0.167 HD
ATOM     45  C   UNL A   1      43.250  29.256  34.791  1.00  0.00     0.037 A 
ATOM     46  C   UNL A   1      37.865  32.316  31.498  1.00  0.00     0.037 A 
ATOM     47  C   UNL A   1      42.656  30.366  35.491  1.00  0.00     0.049 A 
ATOM     48  C   UNL A   1      38.316  32.761  32.863  1.00  0.00     0.074 A 
ATOM     49  C   UNL A   1      43.021  30.913  36.708  1.00  0.00     0.029 A 
ATOM     50  N   UNL A   1      41.563  31.095  35.039  1.00  0.00    -0.354 N 
ATOM     51  N   UNL A   1      39.307  32.308  33.593  1.00  0.00    -0.248 NA
ATOM     52  C   UNL A   1      37.563  33.860  33.483  1.00  0.00     0.031 C 
ATOM     53  C   UNL A   1      42.117  31.935  37.018  1.00  0.00     0.029 A 
ATOM     54  C   UNL A   1      41.226  32.069  35.965  1.00  0.00     0.049 A 
ATOM     55  H   UNL A   1      41.097  30.942  34.186  1.00  0.00     0.167 HD
ATOM     56  C   UNL A   1      39.318  33.087  34.746  1.00  0.00     0.074 A 
ATOM     57  C   UNL A   1      38.238  34.045  34.609  1.00  0.00     0.031 C 
ATOM     58  C   UNL A   1      40.148  33.019  35.816  1.00  0.00     0.037 A 
BRANCH  45  59
ATOM     59  C   UNL A   1      44.391  28.515  35.438  1.00  0.00     0.058 A 
ATOM     60  C   UNL A   1      44.175  27.434  36.311  1.00  0.00     0.135 A 
ATOM     61  C   UNL A   1      45.722  28.893  35.193  1.00  0.00     0.135 A 
ATOM     62  F   UNL A   1      42.924  27.033  36.593  1.00  0.00    -0.206 F 
ATOM     63  C   UNL A   1      45.226  26.796  36.960  1.00  0.00     0.059 A 
ATOM     64  C   UNL A   1      46.793  28.244  35.803  1.00  0.00     0.059 A 
ATOM     65  F   UNL A   1      45.994  29.912  34.364  1.00  0.00    -0.206 F 
ATOM     66  C   UNL A   1      46.532  27.213  36.705  1.00  0.00     0.060 A 
BRANCH  66  67
ATOM     67  S   UNL A   1      47.884  26.400  37.583  1.00  0.00     0.124 S 
ATOM     68  O   UNL A   1      49.017  26.698  36.710  1.00  0.00    -0.237 OA
ATOM     69  O   UNL A   1      47.879  27.089  38.870  1.00  0.00    -0.237 OA
ATOM     70  O   UNL A   1      47.474  25.001  37.622  1.00  0.00    -0.744 OA
ENDBRANCH  66  67
ENDBRANCH  45  59
BRANCH  46  71
ATOM     71  C   UNL A   1      36.740  32.996  30.800  1.00  0.00     0.058 A 
ATOM     72  C   UNL A   1      35.409  32.672  31.101  1.00  0.00     0.135 A 
ATOM     73  C   UNL A   1      36.967  34.007  29.853  1.00  0.00     0.135 A 
ATOM     74  F   UNL A   1      35.139  31.707  31.992  1.00  0.00    -0.206 F 
ATOM     75  C   UNL A   1      34.343  33.322  30.487  1.00  0.00     0.059 A 
ATOM     76  C   UNL A   1      35.919  34.690  29.246  1.00  0.00     0.059 A 
ATOM     77  F   UNL A   1      38.223  34.365  29.540  1.00  0.00    -0.206 F 
ATOM     78  C   UNL A   1      34.609  34.338  29.567  1.00  0.00     0.060 A 
BRANCH  78  79
ATOM     79  S   UNL A   1      33.216  35.225  28.836  1.00  0.00     0.124 S 
ATOM     80  O   UNL A   1      32.443  35.588  30.018  1.00  0.00    -0.237 OA
ATOM     81  O   UNL A   1      33.884  36.325  28.147  1.00  0.00    -0.237 OA
ATOM     82  O   UNL A   1      32.603  34.228  27.963  1.00  0.00    -0.744 OA
ENDBRANCH  78  79
ENDBRANCH  46  71
BRANCH  58  83
ATOM     83  C   UNL A   1      39.954  34.033  36.912  1.00  0.00     0.058 A 
ATOM     84  C   UNL A   1      40.527  35.313  36.851  1.00  0.00     0.135 A 
ATOM     85  C   UNL A   1      39.141  33.733  38.018  1.00  0.00     0.135 A 
ATOM     86  F   UNL A   1      41.318  35.652  35.820  1.00  0.00    -0.206 F 
ATOM     87  C   UNL A   1      40.323  36.249  37.860  1.00  0.00     0.059 A 
ATOM     88  C   UNL A   1      38.897  34.665  39.021  1.00  0.00     0.059 A 
ATOM     89  F   UNL A   1      38.559  32.527  38.122  1.00  0.00    -0.206 F 
ATOM     90  C   UNL A   1      39.504  35.917  38.940  1.00  0.00     0.060 A 
BRANCH  90  91
ATOM     91  S   UNL A   1      39.222  37.152  40.226  1.00  0.00     0.124 S 
ATOM     92  O   UNL A   1      40.588  37.494  40.610  1.00  0.00    -0.237 OA
ATOM     93  O   UNL A   1      38.489  38.189  39.506  1.00  0.00    -0.237 OA
ATOM     94  O   UNL A   1      38.450  36.429  41.230  1.00  0.00    -0.744 OA
ENDBRANCH  90  91
ENDBRANCH  58  83
ENDBRANCH  32  33
ENDBRANCH  24  27
ENDBRANCH  22  23
ENDBRANCH  21  22
ENDBRANCH   1  21
TORSDOF 19
ENDMDL
MODEL 3
REMARK VINA RESULT:     -10.6      3.203      8.785
REMARK SMILES C=CCN(CC(=O)NCCCNC(=O)c1ccc(-c2c3nc(c(-c4c(F)cc(S(=O)(=O)[O-])cc4F)c4ccc([nH]4)c(-c4c(F)cc(S(=O)(=O)[O-])cc4F)c4nc(c(-c5c(F)cc(S(=O)(=O)[O-])cc5F)c5ccc2[nH]5)C=C4)C=C3)cc1)S(=O)(=O)Cc1cc(C)on1
REMARK SMILES IDX 9 1 8 2 6 3 7 4 5 6 4 7 3 8 2 9 1 10 81 11 82 12 83 13 84 14
REMARK SMILES IDX 85 15 86 16 90 17 87 18 89 19 88 20 10 21 11 22 12 23 13 24
REMARK SMILES IDX 14 26 15 27 16 28 80 29 17 30 79 31 18 32 19 33 20 34 73 35
REMARK SMILES IDX 21 36 78 37 72 38 74 39 22 40 77 41 71 42 70 43 23 45 57 46
REMARK SMILES IDX 36 47 56 48 37 49 40 50 55 51 75 52 38 53 39 54 54 56 76 57
REMARK SMILES IDX 41 58 24 59 25 60 34 61 26 62 27 63 33 64 35 65 28 66 29 67
REMARK SMILES IDX 30 68 31 69 32 70 58 71 59 72 68 73 60 74 61 75 67 76 69 77
REMARK SMILES IDX 62 78 63 79 64 80 65 81 66 82 42 83 43 84 52 85 44 86 45 87
REMARK SMILES IDX 51 88 53 89 46 90 47 91 48 92 49 93 50 94
REMARK H PARENT 8 5 12 25 74 44 40 55
REMARK Flexibility Score: inf
ROOT
ATOM      1  C   UNL A   1      31.985  27.055  26.007  1.00  0.00     0.117 C 
ENDROOT
BRANCH   1   2
ATOM      2  N   UNL A   1      31.409  25.954  26.761  1.00  0.00    -0.355 N 
ATOM      3  C   UNL A   1      31.138  24.671  26.378  1.00  0.00     0.235 C 
ATOM      4  O   UNL A   1      30.657  23.904  27.218  1.00  0.00    -0.274 OA
ATOM      5  H   UNL A   1      31.178  26.167  27.694  1.00  0.00     0.163 HD
BRANCH   3   6
ATOM      6  C   UNL A   1      31.474  24.170  24.979  1.00  0.00     0.202 C 
BRANCH   6   7
ATOM      7  N   UNL A   1      32.732  23.389  24.774  1.00  0.00    -0.188 NA
BRANCH   7   8
ATOM      8  C   UNL A   1      32.734  22.139  25.557  1.00  0.00     0.129 C 
BRANCH   8   9
ATOM      9  C   UNL A   1      32.084  20.957  24.932  1.00  0.00    -0.018 C 
ATOM     10  C   UNL A   1      32.712  20.080  24.135  1.00  0.00     0.005 C 
ENDBRANCH   8   9
ENDBRANCH   7   8
BRANCH   7  11
ATOM     11  S   UNL A   1      34.147  24.262  24.457  1.00  0.00     0.220 S 
ATOM     12  O   UNL A   1      33.782  25.389  23.626  1.00  0.00    -0.212 OA
ATOM     13  O   UNL A   1      34.880  24.496  25.687  1.00  0.00    -0.212 OA
BRANCH  11  14
ATOM     14  C   UNL A   1      35.163  23.126  23.494  1.00  0.00     0.214 C 
BRANCH  14  15
ATOM     15  C   UNL A   1      36.218  22.472  24.317  1.00  0.00     0.100 A 
ATOM     16  C   UNL A   1      37.453  23.015  24.755  1.00  0.00     0.073 A 
ATOM     17  N   UNL A   1      36.095  21.196  24.711  1.00  0.00    -0.084 NA
ATOM     18  C   UNL A   1      38.032  22.007  25.486  1.00  0.00     0.133 A 
ATOM     19  O   UNL A   1      37.214  20.921  25.472  1.00  0.00    -0.361 OA
ATOM     20  C   UNL A   1      39.288  21.868  26.243  1.00  0.00     0.091 C 
ENDBRANCH  14  15
ENDBRANCH  11  14
ENDBRANCH   7  11
ENDBRANCH   6   7
ENDBRANCH   3   6
ENDBRANCH   1   2
BRANCH   1  21
ATOM     21  C   UNL A   1      33.355  27.456  26.543  1.00  0.00     0.042 C 
BRANCH  21  22
ATOM     22  C   UNL A   1      34.046  28.551  25.748  1.00  0.00     0.118 C 
BRANCH  22  23
ATOM     23  N   UNL A   1      33.717  29.883  26.234  1.00  0.00    -0.352 N 
ATOM     24  C   UNL A   1      34.265  30.633  27.248  1.00  0.00     0.251 C 
ATOM     25  H   UNL A   1      32.977  30.321  25.756  1.00  0.00     0.163 HD
ATOM     26  O   UNL A   1      33.681  31.655  27.603  1.00  0.00    -0.269 OA
BRANCH  24  27
ATOM     27  C   UNL A   1      35.521  30.227  27.928  1.00  0.00     0.039 A 
ATOM     28  C   UNL A   1      36.739  30.440  27.272  1.00  0.00     0.014 A 
ATOM     29  C   UNL A   1      35.519  29.593  29.171  1.00  0.00     0.014 A 
ATOM     30  C   UNL A   1      37.941  30.064  27.882  1.00  0.00     0.010 A 
ATOM     31  C   UNL A   1      36.718  29.322  29.826  1.00  0.00     0.010 A 
ATOM     32  C   UNL A   1      37.945  29.529  29.181  1.00  0.00    -0.014 A 
BRANCH  32  33
ATOM     33  C   UNL A   1      39.212  29.143  29.858  1.00  0.00     0.031 A 
ATOM     34  C   UNL A   1      39.653  29.862  31.107  1.00  0.00     0.074 A 
ATOM     35  C   UNL A   1      39.988  28.177  29.330  1.00  0.00     0.049 A 
ATOM     36  N   UNL A   1      40.736  29.693  31.822  1.00  0.00    -0.248 NA
ATOM     37  C   UNL A   1      38.771  30.931  31.605  1.00  0.00     0.031 C 
ATOM     38  C   UNL A   1      39.694  27.433  28.104  1.00  0.00     0.029 A 
ATOM     39  N   UNL A   1      41.184  27.653  29.755  1.00  0.00    -0.354 N 
ATOM     40  C   UNL A   1      40.671  30.638  32.841  1.00  0.00     0.074 A 
ATOM     41  C   UNL A   1      39.480  31.424  32.609  1.00  0.00     0.031 C 
ATOM     42  C   UNL A   1      40.658  26.522  27.900  1.00  0.00     0.029 A 
ATOM     43  C   UNL A   1      41.663  26.645  28.952  1.00  0.00     0.049 A 
ATOM     44  H   UNL A   1      41.653  27.970  30.561  1.00  0.00     0.167 HD
ATOM     45  C   UNL A   1      41.508  30.819  33.892  1.00  0.00     0.037 A 
ATOM     46  C   UNL A   1      42.784  25.905  29.051  1.00  0.00     0.037 A 
ATOM     47  C   UNL A   1      42.690  30.027  34.121  1.00  0.00     0.049 A 
ATOM     48  C   UNL A   1      43.719  26.141  30.207  1.00  0.00     0.074 A 
ATOM     49  C   UNL A   1      43.584  30.098  35.173  1.00  0.00     0.029 A 
ATOM     50  N   UNL A   1      43.147  29.023  33.276  1.00  0.00    -0.354 N 
ATOM     51  N   UNL A   1      43.611  26.998  31.194  1.00  0.00    -0.248 NA
ATOM     52  C   UNL A   1      44.924  25.303  30.265  1.00  0.00     0.031 C 
ATOM     53  C   UNL A   1      44.611  29.177  34.937  1.00  0.00     0.029 A 
ATOM     54  C   UNL A   1      44.324  28.485  33.771  1.00  0.00     0.049 A 
ATOM     55  H   UNL A   1      42.699  28.736  32.448  1.00  0.00     0.167 HD
ATOM     56  C   UNL A   1      44.718  26.782  32.009  1.00  0.00     0.074 A 
ATOM     57  C   UNL A   1      45.476  25.706  31.401  1.00  0.00     0.031 C 
ATOM     58  C   UNL A   1      45.070  27.412  33.157  1.00  0.00     0.037 A 
BRANCH  45  59
ATOM     59  C   UNL A   1      41.173  31.922  34.862  1.00  0.00     0.058 A 
ATOM     60  C   UNL A   1      40.299  31.718  35.944  1.00  0.00     0.135 A 
ATOM     61  C   UNL A   1      41.723  33.205  34.706  1.00  0.00     0.135 A 
ATOM     62  F   UNL A   1      39.733  30.516  36.138  1.00  0.00    -0.206 F 
ATOM     63  C   UNL A   1      39.937  32.755  36.797  1.00  0.00     0.059 A 
ATOM     64  C   UNL A   1      41.404  34.249  35.571  1.00  0.00     0.059 A 
ATOM     65  F   UNL A   1      42.570  33.461  33.698  1.00  0.00    -0.206 F 
ATOM     66  C   UNL A   1      40.490  34.020  36.598  1.00  0.00     0.060 A 
BRANCH  66  67
ATOM     67  S   UNL A   1      39.982  35.365  37.690  1.00  0.00     0.124 S 
ATOM     68  O   UNL A   1      38.747  34.828  38.256  1.00  0.00    -0.237 OA
ATOM     69  O   UNL A   1      41.110  35.461  38.612  1.00  0.00    -0.237 OA
ATOM     70  O   UNL A   1      39.817  36.497  36.785  1.00  0.00    -0.744 OA
ENDBRANCH  66  67
ENDBRANCH  45  59
BRANCH  46  71
ATOM     71  C   UNL A   1      43.054  24.838  28.050  1.00  0.00     0.058 A 
ATOM     72  C   UNL A   1      43.766  25.120  26.875  1.00  0.00     0.135 A 
ATOM     73  C   UNL A   1      42.646  23.511  28.262  1.00  0.00     0.135 A 
ATOM     74  F   UNL A   1      44.170  26.374  26.621  1.00  0.00    -0.206 F 
ATOM     75  C   UNL A   1      44.061  24.129  25.944  1.00  0.00     0.059 A 
ATOM     76  C   UNL A   1      42.952  22.498  27.360  1.00  0.00     0.059 A 
ATOM     77  F   UNL A   1      41.974  23.185  29.378  1.00  0.00    -0.206 F 
ATOM     78  C   UNL A   1      43.658  22.818  26.201  1.00  0.00     0.060 A 
BRANCH  78  79
ATOM     79  S   UNL A   1      44.114  21.529  25.021  1.00  0.00     0.124 S 
ATOM     80  O   UNL A   1      43.097  20.516  25.281  1.00  0.00    -0.237 OA
ATOM     81  O   UNL A   1      44.004  22.231  23.746  1.00  0.00    -0.237 OA
ATOM     82  O   UNL A   1      45.473  21.175  25.417  1.00  0.00    -0.744 OA
ENDBRANCH  78  79
ENDBRANCH  46  71
BRANCH  58  83
ATOM     83  C   UNL A   1      46.311  26.931  33.861  1.00  0.00     0.058 A 
ATOM     84  C   UNL A   1      46.272  25.907  34.820  1.00  0.00     0.135 A 
ATOM     85  C   UNL A   1      47.565  27.472  33.534  1.00  0.00     0.135 A 
ATOM     86  F   UNL A   1      45.099  25.358  35.177  1.00  0.00    -0.206 F 
ATOM     87  C   UNL A   1      47.429  25.456  35.450  1.00  0.00     0.059 A 
ATOM     88  C   UNL A   1      48.737  27.014  34.126  1.00  0.00     0.059 A 
ATOM     89  F   UNL A   1      47.663  28.447  32.615  1.00  0.00    -0.206 F 
ATOM     90  C   UNL A   1      48.657  26.014  35.093  1.00  0.00     0.060 A 
BRANCH  90  91
ATOM     91  S   UNL A   1      50.153  25.397  35.894  1.00  0.00     0.124 S 
ATOM     92  O   UNL A   1      49.769  24.027  36.218  1.00  0.00    -0.237 OA
ATOM     93  O   UNL A   1      51.152  25.541  34.840  1.00  0.00    -0.237 OA
ATOM     94  O   UNL A   1      50.322  26.289  37.036  1.00  0.00    -0.744 OA
ENDBRANCH  90  91
ENDBRANCH  58  83
ENDBRANCH  32  33
ENDBRANCH  24  27
ENDBRANCH  22  23
ENDBRANCH  21  22
ENDBRANCH   1  21
TORSDOF 19
ENDMDL
