MODEL 1
REMARK VINA RESULT:     -11.5      0.000      0.000
REMARK SMILES O=C(NCCCNC(=O)[C@@]1([NH2+]C2CC2)CCC[C@H]1CCn1ccnc1)c1ccc(-c2c3nc(c(-c4c(F)cc(S(=O)(=O)[O-])cc4F)c4ccc([nH]4)c(-c4c(F)cc(S(=O)(=O)[O-])cc4F)c4nc(c(-c5c(F)cc(S(=O)(=O)[O-])cc5F)c5ccc2[nH]5)C=C4)C=C3)cc1
REMARK SMILES IDX 5 1 4 2 3 3 1 4 2 5 26 7 27 8 91 9 28 10 90 11 29 12 30 13
REMARK SMILES IDX 31 14 84 15 32 16 89 17 83 18 85 19 33 20 88 21 82 22 81 23
REMARK SMILES IDX 34 25 68 26 47 27 67 28 48 29 51 30 66 31 86 32 49 33 50 34
REMARK SMILES IDX 65 36 87 37 52 38 35 39 36 40 45 41 37 42 38 43 44 44 46 45
REMARK SMILES IDX 39 46 40 47 41 48 42 49 43 50 69 51 70 52 79 53 71 54 72 55
REMARK SMILES IDX 78 56 80 57 73 58 74 59 75 60 76 61 77 62 53 63 54 64 63 65
REMARK SMILES IDX 55 66 56 67 62 68 64 69 57 70 58 71 59 72 60 73 61 74 6 75
REMARK SMILES IDX 7 76 8 77 9 79 10 80 15 81 18 82 16 83 17 84 11 85 12 88
REMARK SMILES IDX 13 89 14 90 19 91 20 92 21 93 22 94 25 95 23 96 24 97
REMARK H PARENT 3 6 85 24 51 35 7 78 11 86 11 87
REMARK Flexibility Score: inf
ROOT
ATOM      1  C   UNL A   1      38.607  23.106  26.167  1.00  0.00     0.042 C 
ENDROOT
BRANCH   1   2
ATOM      2  C   UNL A   1      39.841  22.168  26.561  1.00  0.00     0.118 C 
BRANCH   2   3
ATOM      3  N   UNL A   1      41.088  22.072  25.798  1.00  0.00    -0.352 N 
ATOM      4  O   UNL A   1      43.050  22.668  24.849  1.00  0.00    -0.269 OA
ATOM      5  C   UNL A   1      42.127  22.945  25.576  1.00  0.00     0.251 C 
ATOM      6  H   UNL A   1      41.206  21.202  25.353  1.00  0.00     0.163 HD
BRANCH   5   7
ATOM      7  C   UNL A   1      42.082  24.224  26.273  1.00  0.00     0.039 A 
ATOM      8  C   UNL A   1      42.663  24.297  27.534  1.00  0.00     0.014 A 
ATOM      9  C   UNL A   1      41.429  25.305  25.681  1.00  0.00     0.014 A 
ATOM     10  C   UNL A   1      42.420  25.408  28.299  1.00  0.00     0.010 A 
ATOM     11  C   UNL A   1      41.260  26.462  26.425  1.00  0.00     0.010 A 
ATOM     12  C   UNL A   1      41.716  26.486  27.744  1.00  0.00    -0.014 A 
BRANCH  12  13
ATOM     13  C   UNL A   1      41.679  27.677  28.579  1.00  0.00     0.031 A 
ATOM     14  C   UNL A   1      42.778  28.641  28.284  1.00  0.00     0.074 A 
ATOM     15  C   UNL A   1      40.735  27.958  29.489  1.00  0.00     0.049 A 
ATOM     16  N   UNL A   1      43.763  28.989  29.044  1.00  0.00    -0.248 NA
ATOM     17  C   UNL A   1      42.870  29.140  26.903  1.00  0.00     0.031 C 
ATOM     18  C   UNL A   1      39.444  27.308  29.702  1.00  0.00     0.029 A 
ATOM     19  N   UNL A   1      40.716  28.999  30.363  1.00  0.00    -0.354 N 
ATOM     20  C   UNL A   1      44.513  29.896  28.298  1.00  0.00     0.074 A 
ATOM     21  C   UNL A   1      44.007  29.835  26.951  1.00  0.00     0.031 C 
ATOM     22  C   UNL A   1      38.677  28.112  30.471  1.00  0.00     0.029 A 
ATOM     23  C   UNL A   1      39.468  29.257  30.900  1.00  0.00     0.049 A 
ATOM     24  H   UNL A   1      41.517  29.521  30.593  1.00  0.00     0.167 HD
ATOM     25  C   UNL A   1      45.382  30.771  28.871  1.00  0.00     0.037 A 
ATOM     26  C   UNL A   1      39.104  30.390  31.547  1.00  0.00     0.037 A 
ATOM     27  C   UNL A   1      45.722  30.395  30.215  1.00  0.00     0.049 A 
ATOM     28  C   UNL A   1      40.346  31.059  32.025  1.00  0.00     0.074 A 
ATOM     29  C   UNL A   1      46.347  29.306  30.791  1.00  0.00     0.029 A 
ATOM     30  N   UNL A   1      45.110  31.063  31.247  1.00  0.00    -0.354 N 
ATOM     31  N   UNL A   1      41.127  30.582  32.956  1.00  0.00    -0.248 NA
ATOM     32  C   UNL A   1      40.949  32.078  31.177  1.00  0.00     0.031 C 
ATOM     33  C   UNL A   1      45.692  29.119  32.042  1.00  0.00     0.029 A 
ATOM     34  C   UNL A   1      44.724  30.117  32.161  1.00  0.00     0.049 A 
ATOM     35  H   UNL A   1      44.975  32.036  31.316  1.00  0.00     0.167 HD
ATOM     36  C   UNL A   1      42.413  30.931  32.564  1.00  0.00     0.074 A 
ATOM     37  C   UNL A   1      42.231  31.936  31.523  1.00  0.00     0.031 C 
ATOM     38  C   UNL A   1      43.497  30.182  32.925  1.00  0.00     0.037 A 
BRANCH  25  39
ATOM     39  C   UNL A   1      45.664  32.146  28.323  1.00  0.00     0.058 A 
ATOM     40  C   UNL A   1      46.995  32.548  28.093  1.00  0.00     0.135 A 
ATOM     41  C   UNL A   1      44.695  33.175  28.285  1.00  0.00     0.135 A 
ATOM     42  F   UNL A   1      47.994  31.652  28.119  1.00  0.00    -0.206 F 
ATOM     43  C   UNL A   1      47.345  33.887  27.915  1.00  0.00     0.059 A 
ATOM     44  C   UNL A   1      45.016  34.504  28.050  1.00  0.00     0.059 A 
ATOM     45  F   UNL A   1      43.408  32.952  28.579  1.00  0.00    -0.206 F 
ATOM     46  C   UNL A   1      46.348  34.859  27.918  1.00  0.00     0.060 A 
BRANCH  46  47
ATOM     47  S   UNL A   1      46.803  36.598  27.832  1.00  0.00     0.124 S 
ATOM     48  O   UNL A   1      45.918  37.074  26.774  1.00  0.00    -0.237 OA
ATOM     49  O   UNL A   1      46.497  37.063  29.180  1.00  0.00    -0.237 OA
ATOM     50  O   UNL A   1      48.224  36.556  27.496  1.00  0.00    -0.744 OA
ENDBRANCH  46  47
ENDBRANCH  25  39
BRANCH  26  51
ATOM     51  C   UNL A   1      37.796  31.086  31.453  1.00  0.00     0.058 A 
ATOM     52  C   UNL A   1      36.934  31.156  32.559  1.00  0.00     0.135 A 
ATOM     53  C   UNL A   1      37.479  31.920  30.360  1.00  0.00     0.135 A 
ATOM     54  F   UNL A   1      37.180  30.421  33.654  1.00  0.00    -0.206 F 
ATOM     55  C   UNL A   1      35.842  32.030  32.595  1.00  0.00     0.059 A 
ATOM     56  C   UNL A   1      36.388  32.783  30.365  1.00  0.00     0.059 A 
ATOM     57  F   UNL A   1      38.276  31.993  29.283  1.00  0.00    -0.206 F 
ATOM     58  C   UNL A   1      35.588  32.853  31.497  1.00  0.00     0.060 A 
BRANCH  58  59
ATOM     59  S   UNL A   1      34.286  34.101  31.604  1.00  0.00     0.124 S 
ATOM     60  O   UNL A   1      33.715  34.054  30.262  1.00  0.00    -0.237 OA
ATOM     61  O   UNL A   1      33.446  33.576  32.674  1.00  0.00    -0.237 OA
ATOM     62  O   UNL A   1      35.015  35.323  31.930  1.00  0.00    -0.744 OA
ENDBRANCH  58  59
ENDBRANCH  26  51
BRANCH  38  63
ATOM     63  C   UNL A   1      43.328  29.159  34.016  1.00  0.00     0.058 A 
ATOM     64  C   UNL A   1      43.474  29.439  35.385  1.00  0.00     0.135 A 
ATOM     65  C   UNL A   1      42.836  27.891  33.668  1.00  0.00     0.135 A 
ATOM     66  F   UNL A   1      43.828  30.660  35.806  1.00  0.00    -0.206 F 
ATOM     67  C   UNL A   1      43.185  28.485  36.363  1.00  0.00     0.059 A 
ATOM     68  C   UNL A   1      42.510  26.936  34.628  1.00  0.00     0.059 A 
ATOM     69  F   UNL A   1      42.612  27.586  32.378  1.00  0.00    -0.206 F 
ATOM     70  C   UNL A   1      42.698  27.238  35.975  1.00  0.00     0.060 A 
BRANCH  70  71
ATOM     71  S   UNL A   1      42.221  26.050  37.248  1.00  0.00     0.124 S 
ATOM     72  O   UNL A   1      42.487  24.774  36.594  1.00  0.00    -0.237 OA
ATOM     73  O   UNL A   1      43.114  26.393  38.354  1.00  0.00    -0.237 OA
ATOM     74  O   UNL A   1      40.811  26.351  37.486  1.00  0.00    -0.744 OA
ENDBRANCH  70  71
ENDBRANCH  38  63
ENDBRANCH  12  13
ENDBRANCH   5   7
ENDBRANCH   2   3
ENDBRANCH   1   2
BRANCH   1  75
ATOM     75  C   UNL A   1      37.028  22.949  25.750  1.00  0.00     0.118 C 
BRANCH  75  76
ATOM     76  N   UNL A   1      35.791  22.474  26.530  1.00  0.00    -0.351 N 
ATOM     77  C   UNL A   1      34.432  22.132  26.494  1.00  0.00     0.281 C 
ATOM     78  H   UNL A   1      36.081  22.358  27.463  1.00  0.00     0.163 HD
ATOM     79  O   UNL A   1      33.953  21.817  27.595  1.00  0.00    -0.268 OA
BRANCH  77  80
ATOM     80  C   UNL A   1      33.504  22.087  25.188  1.00  0.00     0.178 C 
ATOM     81  C   UNL A   1      33.675  22.121  23.622  1.00  0.00     0.079 C 
ATOM     82  C   UNL A   1      33.243  20.587  25.185  1.00  0.00     0.062 C 
ATOM     83  C   UNL A   1      32.434  21.361  23.086  1.00  0.00     0.008 C 
ATOM     84  C   UNL A   1      32.179  20.301  24.129  1.00  0.00     0.011 C 
BRANCH  80  85
ATOM     85  N   UNL A   1      32.557  23.215  25.402  1.00  0.00    -0.331 N 
ATOM     86  H   UNL A   1      32.294  23.227  26.387  1.00  0.00     0.347 HD
ATOM     87  H   UNL A   1      31.767  23.050  24.777  1.00  0.00     0.347 HD
BRANCH  85  88
ATOM     88  C   UNL A   1      33.109  24.588  25.042  1.00  0.00     0.183 C 
ATOM     89  C   UNL A   1      32.295  25.868  24.911  1.00  0.00     0.071 C 
ATOM     90  C   UNL A   1      33.211  25.690  26.082  1.00  0.00     0.071 C 
ENDBRANCH  85  88
ENDBRANCH  80  85
BRANCH  82  91
ATOM     91  C   UNL A   1      34.645  19.839  24.873  1.00  0.00     0.032 C 
BRANCH  91  92
ATOM     92  C   UNL A   1      34.916  18.212  24.515  1.00  0.00     0.123 C 
BRANCH  92  93
ATOM     93  N   UNL A   1      34.310  16.922  24.920  1.00  0.00    -0.337 N 
ATOM     94  C   UNL A   1      32.957  16.774  25.203  1.00  0.00     0.107 A 
ATOM     95  C   UNL A   1      34.802  15.656  25.131  1.00  0.00     0.199 A 
ATOM     96  C   UNL A   1      32.726  15.427  25.380  1.00  0.00     0.130 A 
ATOM     97  N   UNL A   1      33.888  14.741  25.349  1.00  0.00    -0.245 NA
ENDBRANCH  92  93
ENDBRANCH  91  92
ENDBRANCH  82  91
ENDBRANCH  77  80
ENDBRANCH  75  76
ENDBRANCH   1  75
TORSDOF 18
ENDMDL
MODEL 2
REMARK VINA RESULT:     -11.5      3.495     10.031
REMARK SMILES O=C(NCCCNC(=O)[C@@]1([NH2+]C2CC2)CCC[C@H]1CCn1ccnc1)c1ccc(-c2c3nc(c(-c4c(F)cc(S(=O)(=O)[O-])cc4F)c4ccc([nH]4)c(-c4c(F)cc(S(=O)(=O)[O-])cc4F)c4nc(c(-c5c(F)cc(S(=O)(=O)[O-])cc5F)c5ccc2[nH]5)C=C4)C=C3)cc1
REMARK SMILES IDX 5 1 4 2 3 3 1 4 2 5 26 7 27 8 91 9 28 10 90 11 29 12 30 13
REMARK SMILES IDX 31 14 84 15 32 16 89 17 83 18 85 19 33 20 88 21 82 22 81 23
REMARK SMILES IDX 34 25 68 26 47 27 67 28 48 29 51 30 66 31 86 32 49 33 50 34
REMARK SMILES IDX 65 36 87 37 52 38 35 39 36 40 45 41 37 42 38 43 44 44 46 45
REMARK SMILES IDX 39 46 40 47 41 48 42 49 43 50 69 51 70 52 79 53 71 54 72 55
REMARK SMILES IDX 78 56 80 57 73 58 74 59 75 60 76 61 77 62 53 63 54 64 63 65
REMARK SMILES IDX 55 66 56 67 62 68 64 69 57 70 58 71 59 72 60 73 61 74 6 75
REMARK SMILES IDX 7 76 8 77 9 79 10 80 15 81 18 82 16 83 17 84 11 85 12 88
REMARK SMILES IDX 13 89 14 90 19 91 20 92 21 93 22 94 25 95 23 96 24 97
REMARK H PARENT 3 6 85 24 51 35 7 78 11 86 11 87
REMARK Flexibility Score: inf
ROOT
ATOM      1  C   UNL A   1      33.418  28.876  27.067  1.00  0.00     0.042 C 
ENDROOT
BRANCH   1   2
ATOM      2  C   UNL A   1      34.360  30.160  27.203  1.00  0.00     0.118 C 
BRANCH   2   3
ATOM      3  N   UNL A   1      34.200  31.202  28.221  1.00  0.00    -0.352 N 
ATOM      4  O   UNL A   1      34.611  32.476  30.042  1.00  0.00    -0.269 OA
ATOM      5  C   UNL A   1      34.975  31.613  29.281  1.00  0.00     0.251 C 
ATOM      6  H   UNL A   1      33.365  31.715  28.126  1.00  0.00     0.163 HD
BRANCH   5   7
ATOM      7  C   UNL A   1      36.274  30.973  29.442  1.00  0.00     0.039 A 
ATOM      8  C   UNL A   1      37.405  31.698  29.084  1.00  0.00     0.014 A 
ATOM      9  C   UNL A   1      36.337  29.657  29.903  1.00  0.00     0.014 A 
ATOM     10  C   UNL A   1      38.601  31.036  28.997  1.00  0.00     0.010 A 
ATOM     11  C   UNL A   1      37.566  29.016  29.899  1.00  0.00     0.010 A 
ATOM     12  C   UNL A   1      38.679  29.696  29.402  1.00  0.00    -0.014 A 
BRANCH  12  13
ATOM     13  C   UNL A   1      40.028  29.155  29.443  1.00  0.00     0.031 A 
ATOM     14  C   UNL A   1      40.583  29.051  30.823  1.00  0.00     0.074 A 
ATOM     15  C   UNL A   1      40.722  28.715  28.382  1.00  0.00     0.049 A 
ATOM     16  N   UNL A   1      41.577  29.698  31.337  1.00  0.00    -0.248 NA
ATOM     17  C   UNL A   1      39.816  28.250  31.789  1.00  0.00     0.031 C 
ATOM     18  C   UNL A   1      40.250  28.451  27.024  1.00  0.00     0.029 A 
ATOM     19  N   UNL A   1      42.017  28.304  28.355  1.00  0.00    -0.354 N 
ATOM     20  C   UNL A   1      41.676  29.253  32.654  1.00  0.00     0.074 A 
ATOM     21  C   UNL A   1      40.487  28.484  32.917  1.00  0.00     0.031 C 
ATOM     22  C   UNL A   1      41.177  27.705  26.383  1.00  0.00     0.029 A 
ATOM     23  C   UNL A   1      42.344  27.554  27.241  1.00  0.00     0.049 A 
ATOM     24  H   UNL A   1      42.662  28.518  29.066  1.00  0.00     0.167 HD
ATOM     25  C   UNL A   1      42.813  29.391  33.388  1.00  0.00     0.037 A 
ATOM     26  C   UNL A   1      43.448  26.782  27.103  1.00  0.00     0.037 A 
ATOM     27  C   UNL A   1      43.709  30.360  32.820  1.00  0.00     0.049 A 
ATOM     28  C   UNL A   1      44.461  27.259  28.084  1.00  0.00     0.074 A 
ATOM     29  C   UNL A   1      43.640  31.716  32.564  1.00  0.00     0.029 A 
ATOM     30  N   UNL A   1      44.792  29.901  32.111  1.00  0.00    -0.354 N 
ATOM     31  N   UNL A   1      45.061  28.417  28.020  1.00  0.00    -0.248 NA
ATOM     32  C   UNL A   1      44.518  26.607  29.386  1.00  0.00     0.031 C 
ATOM     33  C   UNL A   1      44.379  31.906  31.361  1.00  0.00     0.029 A 
ATOM     34  C   UNL A   1      44.872  30.660  30.972  1.00  0.00     0.049 A 
ATOM     35  H   UNL A   1      45.394  29.167  32.371  1.00  0.00     0.167 HD
ATOM     36  C   UNL A   1      45.213  28.821  29.339  1.00  0.00     0.074 A 
ATOM     37  C   UNL A   1      44.957  27.624  30.133  1.00  0.00     0.031 C 
ATOM     38  C   UNL A   1      45.267  30.142  29.680  1.00  0.00     0.037 A 
BRANCH  25  39
ATOM     39  C   UNL A   1      43.252  28.407  34.440  1.00  0.00     0.058 A 
ATOM     40  C   UNL A   1      43.561  28.859  35.738  1.00  0.00     0.135 A 
ATOM     41  C   UNL A   1      43.650  27.084  34.139  1.00  0.00     0.135 A 
ATOM     42  F   UNL A   1      43.238  30.105  36.122  1.00  0.00    -0.206 F 
ATOM     43  C   UNL A   1      44.281  28.080  36.644  1.00  0.00     0.059 A 
ATOM     44  C   UNL A   1      44.315  26.272  35.047  1.00  0.00     0.059 A 
ATOM     45  F   UNL A   1      43.506  26.557  32.916  1.00  0.00    -0.206 F 
ATOM     46  C   UNL A   1      44.672  26.795  36.278  1.00  0.00     0.060 A 
BRANCH  46  47
ATOM     47  S   UNL A   1      45.721  25.838  37.384  1.00  0.00     0.124 S 
ATOM     48  O   UNL A   1      45.010  24.565  37.423  1.00  0.00    -0.237 OA
ATOM     49  O   UNL A   1      46.996  25.837  36.674  1.00  0.00    -0.237 OA
ATOM     50  O   UNL A   1      45.699  26.614  38.621  1.00  0.00    -0.744 OA
ENDBRANCH  46  47
ENDBRANCH  25  39
BRANCH  26  51
ATOM     51  C   UNL A   1      43.529  25.458  26.436  1.00  0.00     0.058 A 
ATOM     52  C   UNL A   1      44.403  25.244  25.358  1.00  0.00     0.135 A 
ATOM     53  C   UNL A   1      42.947  24.307  27.007  1.00  0.00     0.135 A 
ATOM     54  F   UNL A   1      45.026  26.280  24.778  1.00  0.00    -0.206 F 
ATOM     55  C   UNL A   1      44.712  23.960  24.897  1.00  0.00     0.059 A 
ATOM     56  C   UNL A   1      43.223  23.021  26.552  1.00  0.00     0.059 A 
ATOM     57  F   UNL A   1      42.159  24.386  28.089  1.00  0.00    -0.206 F 
ATOM     58  C   UNL A   1      44.128  22.852  25.513  1.00  0.00     0.060 A 
BRANCH  58  59
ATOM     59  S   UNL A   1      44.650  21.191  25.036  1.00  0.00     0.124 S 
ATOM     60  O   UNL A   1      43.659  20.359  25.710  1.00  0.00    -0.237 OA
ATOM     61  O   UNL A   1      44.555  21.246  23.581  1.00  0.00    -0.237 OA
ATOM     62  O   UNL A   1      46.008  21.097  25.565  1.00  0.00    -0.744 OA
ENDBRANCH  58  59
ENDBRANCH  26  51
BRANCH  38  63
ATOM     63  C   UNL A   1      45.482  31.154  28.586  1.00  0.00     0.058 A 
ATOM     64  C   UNL A   1      44.443  31.738  27.842  1.00  0.00     0.135 A 
ATOM     65  C   UNL A   1      46.774  31.671  28.402  1.00  0.00     0.135 A 
ATOM     66  F   UNL A   1      43.166  31.381  28.039  1.00  0.00    -0.206 F 
ATOM     67  C   UNL A   1      44.685  32.762  26.924  1.00  0.00     0.059 A 
ATOM     68  C   UNL A   1      47.032  32.715  27.517  1.00  0.00     0.059 A 
ATOM     69  F   UNL A   1      47.798  31.200  29.133  1.00  0.00    -0.206 F 
ATOM     70  C   UNL A   1      45.982  33.248  26.773  1.00  0.00     0.060 A 
BRANCH  70  71
ATOM     71  S   UNL A   1      46.269  34.646  25.667  1.00  0.00     0.124 S 
ATOM     72  O   UNL A   1      45.375  34.347  24.554  1.00  0.00    -0.237 OA
ATOM     73  O   UNL A   1      45.891  35.790  26.494  1.00  0.00    -0.237 OA
ATOM     74  O   UNL A   1      47.696  34.556  25.365  1.00  0.00    -0.744 OA
ENDBRANCH  70  71
ENDBRANCH  38  63
ENDBRANCH  12  13
ENDBRANCH   5   7
ENDBRANCH   2   3
ENDBRANCH   1   2
BRANCH   1  75
ATOM     75  C   UNL A   1      31.884  28.430  27.443  1.00  0.00     0.118 C 
BRANCH  75  76
ATOM     76  N   UNL A   1      31.005  27.253  26.991  1.00  0.00    -0.351 N 
ATOM     77  C   UNL A   1      30.667  26.358  25.966  1.00  0.00     0.281 C 
ATOM     78  H   UNL A   1      30.427  27.029  27.755  1.00  0.00     0.163 HD
ATOM     79  O   UNL A   1      29.751  25.571  26.253  1.00  0.00    -0.268 OA
BRANCH  77  80
ATOM     80  C   UNL A   1      31.370  26.259  24.529  1.00  0.00     0.178 C 
ATOM     81  C   UNL A   1      31.172  25.480  23.173  1.00  0.00     0.079 C 
ATOM     82  C   UNL A   1      30.797  27.542  23.942  1.00  0.00     0.062 C 
ATOM     83  C   UNL A   1      31.796  26.412  22.103  1.00  0.00     0.008 C 
ATOM     84  C   UNL A   1      31.498  27.801  22.612  1.00  0.00     0.011 C 
BRANCH  80  85
ATOM     85  N   UNL A   1      32.779  25.913  24.860  1.00  0.00    -0.331 N 
ATOM     86  H   UNL A   1      33.154  26.647  25.460  1.00  0.00     0.347 HD
ATOM     87  H   UNL A   1      33.272  25.832  23.970  1.00  0.00     0.347 HD
BRANCH  85  88
ATOM     88  C   UNL A   1      32.958  24.581  25.574  1.00  0.00     0.183 C 
ATOM     89  C   UNL A   1      33.530  23.310  24.958  1.00  0.00     0.071 C 
ATOM     90  C   UNL A   1      34.337  24.076  25.961  1.00  0.00     0.071 C 
ENDBRANCH  85  88
ENDBRANCH  80  85
BRANCH  82  91
ATOM     91  C   UNL A   1      29.198  27.340  23.773  1.00  0.00     0.032 C 
BRANCH  91  92
ATOM     92  C   UNL A   1      28.050  28.440  23.206  1.00  0.00     0.123 C 
BRANCH  92  93
ATOM     93  N   UNL A   1      28.054  29.870  22.816  1.00  0.00    -0.337 N 
ATOM     94  C   UNL A   1      28.249  30.301  21.509  1.00  0.00     0.107 A 
ATOM     95  C   UNL A   1      27.906  31.051  23.504  1.00  0.00     0.199 A 
ATOM     96  C   UNL A   1      28.027  31.660  21.494  1.00  0.00     0.130 A 
ATOM     97  N   UNL A   1      27.830  32.120  22.749  1.00  0.00    -0.245 NA
ENDBRANCH  92  93
ENDBRANCH  91  92
ENDBRANCH  82  91
ENDBRANCH  77  80
ENDBRANCH  75  76
ENDBRANCH   1  75
TORSDOF 18
ENDMDL
MODEL 3
REMARK VINA RESULT:     -11.4      1.920      3.833
REMARK SMILES O=C(NCCCNC(=O)[C@@]1([NH2+]C2CC2)CCC[C@H]1CCn1ccnc1)c1ccc(-c2c3nc(c(-c4c(F)cc(S(=O)(=O)[O-])cc4F)c4ccc([nH]4)c(-c4c(F)cc(S(=O)(=O)[O-])cc4F)c4nc(c(-c5c(F)cc(S(=O)(=O)[O-])cc5F)c5ccc2[nH]5)C=C4)C=C3)cc1
REMARK SMILES IDX 5 1 4 2 3 3 1 4 2 5 26 7 27 8 91 9 28 10 90 11 29 12 30 13
REMARK SMILES IDX 31 14 84 15 32 16 89 17 83 18 85 19 33 20 88 21 82 22 81 23
REMARK SMILES IDX 34 25 68 26 47 27 67 28 48 29 51 30 66 31 86 32 49 33 50 34
REMARK SMILES IDX 65 36 87 37 52 38 35 39 36 40 45 41 37 42 38 43 44 44 46 45
REMARK SMILES IDX 39 46 40 47 41 48 42 49 43 50 69 51 70 52 79 53 71 54 72 55
REMARK SMILES IDX 78 56 80 57 73 58 74 59 75 60 76 61 77 62 53 63 54 64 63 65
REMARK SMILES IDX 55 66 56 67 62 68 64 69 57 70 58 71 59 72 60 73 61 74 6 75
REMARK SMILES IDX 7 76 8 77 9 79 10 80 15 81 18 82 16 83 17 84 11 85 12 88
REMARK SMILES IDX 13 89 14 90 19 91 20 92 21 93 22 94 25 95 23 96 24 97
REMARK H PARENT 3 6 85 24 51 35 7 78 11 86 11 87
REMARK Flexibility Score: inf
ROOT
ATOM      1  C   UNL A   1      39.037  20.682  25.616  1.00  0.00     0.042 C 
ENDROOT
BRANCH   1   2
ATOM      2  C   UNL A   1      40.336  20.196  26.411  1.00  0.00     0.118 C 
BRANCH   2   3
ATOM      3  N   UNL A   1      41.679  20.109  25.832  1.00  0.00    -0.352 N 
ATOM      4  O   UNL A   1      43.754  20.715  25.174  1.00  0.00    -0.269 OA
ATOM      5  C   UNL A   1      42.737  20.985  25.766  1.00  0.00     0.251 C 
ATOM      6  H   UNL A   1      41.862  19.242  25.402  1.00  0.00     0.163 HD
BRANCH   5   7
ATOM      7  C   UNL A   1      42.589  22.259  26.459  1.00  0.00     0.039 A 
ATOM      8  C   UNL A   1      41.845  23.255  25.836  1.00  0.00     0.014 A 
ATOM      9  C   UNL A   1      43.225  22.448  27.686  1.00  0.00     0.014 A 
ATOM     10  C   UNL A   1      41.898  24.523  26.351  1.00  0.00     0.010 A 
ATOM     11  C   UNL A   1      43.203  23.713  28.251  1.00  0.00     0.010 A 
ATOM     12  C   UNL A   1      42.579  24.751  27.556  1.00  0.00    -0.014 A 
BRANCH  12  13
ATOM     13  C   UNL A   1      42.413  26.089  28.100  1.00  0.00     0.031 A 
ATOM     14  C   UNL A   1      43.520  27.019  27.735  1.00  0.00     0.074 A 
ATOM     15  C   UNL A   1      41.355  26.514  28.807  1.00  0.00     0.049 A 
ATOM     16  N   UNL A   1      44.394  27.568  28.513  1.00  0.00    -0.248 NA
ATOM     17  C   UNL A   1      43.778  27.215  26.301  1.00  0.00     0.031 C 
ATOM     18  C   UNL A   1      40.062  25.864  29.001  1.00  0.00     0.029 A 
ATOM     19  N   UNL A   1      41.205  27.715  29.425  1.00  0.00    -0.354 N 
ATOM     20  C   UNL A   1      45.215  28.328  27.683  1.00  0.00     0.074 A 
ATOM     21  C   UNL A   1      44.885  27.957  26.331  1.00  0.00     0.031 C 
ATOM     22  C   UNL A   1      39.187  26.777  29.479  1.00  0.00     0.029 A 
ATOM     23  C   UNL A   1      39.894  28.023  29.739  1.00  0.00     0.049 A 
ATOM     24  H   UNL A   1      41.959  28.312  29.629  1.00  0.00     0.167 HD
ATOM     25  C   UNL A   1      45.986  29.346  28.151  1.00  0.00     0.037 A 
ATOM     26  C   UNL A   1      39.428  29.250  30.075  1.00  0.00     0.037 A 
ATOM     27  C   UNL A   1      46.160  29.282  29.575  1.00  0.00     0.049 A 
ATOM     28  C   UNL A   1      40.585  30.063  30.541  1.00  0.00     0.074 A 
ATOM     29  C   UNL A   1      46.729  28.373  30.446  1.00  0.00     0.029 A 
ATOM     30  N   UNL A   1      45.409  30.126  30.356  1.00  0.00    -0.354 N 
ATOM     31  N   UNL A   1      41.252  29.834  31.640  1.00  0.00    -0.248 NA
ATOM     32  C   UNL A   1      41.271  30.905  29.569  1.00  0.00     0.031 C 
ATOM     33  C   UNL A   1      45.923  28.426  31.620  1.00  0.00     0.029 A 
ATOM     34  C   UNL A   1      44.929  29.381  31.402  1.00  0.00     0.049 A 
ATOM     35  H   UNL A   1      45.246  31.084  30.195  1.00  0.00     0.167 HD
ATOM     36  C   UNL A   1      42.569  30.151  31.338  1.00  0.00     0.074 A 
ATOM     37  C   UNL A   1      42.501  30.901  30.088  1.00  0.00     0.031 C 
ATOM     38  C   UNL A   1      43.614  29.550  31.981  1.00  0.00     0.037 A 
BRANCH  25  39
ATOM     39  C   UNL A   1      46.308  30.583  27.354  1.00  0.00     0.058 A 
ATOM     40  C   UNL A   1      47.645  31.009  27.231  1.00  0.00     0.135 A 
ATOM     41  C   UNL A   1      45.326  31.517  26.949  1.00  0.00     0.135 A 
ATOM     42  F   UNL A   1      48.655  30.204  27.598  1.00  0.00    -0.206 F 
ATOM     43  C   UNL A   1      47.979  32.296  26.809  1.00  0.00     0.059 A 
ATOM     44  C   UNL A   1      45.640  32.780  26.470  1.00  0.00     0.059 A 
ATOM     45  F   UNL A   1      44.016  31.283  27.101  1.00  0.00    -0.206 F 
ATOM     46  C   UNL A   1      46.965  33.181  26.452  1.00  0.00     0.060 A 
BRANCH  46  47
ATOM     47  S   UNL A   1      47.377  34.885  26.043  1.00  0.00     0.124 S 
ATOM     48  O   UNL A   1      47.918  35.361  27.311  1.00  0.00    -0.237 OA
ATOM     49  O   UNL A   1      48.340  34.716  24.960  1.00  0.00    -0.237 OA
ATOM     50  O   UNL A   1      46.091  35.454  25.649  1.00  0.00    -0.744 OA
ENDBRANCH  46  47
ENDBRANCH  25  39
BRANCH  26  51
ATOM     51  C   UNL A   1      38.129  29.847  29.676  1.00  0.00     0.058 A 
ATOM     52  C   UNL A   1      37.266  30.406  30.632  1.00  0.00     0.135 A 
ATOM     53  C   UNL A   1      37.823  30.118  28.326  1.00  0.00     0.135 A 
ATOM     54  F   UNL A   1      37.502  30.227  31.941  1.00  0.00    -0.206 F 
ATOM     55  C   UNL A   1      36.185  31.218  30.273  1.00  0.00     0.059 A 
ATOM     56  C   UNL A   1      36.743  30.907  27.943  1.00  0.00     0.059 A 
ATOM     57  F   UNL A   1      38.622  29.701  27.332  1.00  0.00    -0.206 F 
ATOM     58  C   UNL A   1      35.942  31.476  28.924  1.00  0.00     0.060 A 
BRANCH  58  59
ATOM     59  S   UNL A   1      34.656  32.657  28.461  1.00  0.00     0.124 S 
ATOM     60  O   UNL A   1      33.650  31.786  27.864  1.00  0.00    -0.237 OA
ATOM     61  O   UNL A   1      34.307  33.249  29.747  1.00  0.00    -0.237 OA
ATOM     62  O   UNL A   1      35.338  33.553  27.531  1.00  0.00    -0.744 OA
ENDBRANCH  58  59
ENDBRANCH  26  51
BRANCH  38  63
ATOM     63  C   UNL A   1      43.328  28.776  33.240  1.00  0.00     0.058 A 
ATOM     64  C   UNL A   1      43.232  29.359  34.515  1.00  0.00     0.135 A 
ATOM     65  C   UNL A   1      42.974  27.422  33.124  1.00  0.00     0.135 A 
ATOM     66  F   UNL A   1      43.441  30.671  34.692  1.00  0.00    -0.206 F 
ATOM     67  C   UNL A   1      42.842  28.618  35.632  1.00  0.00     0.059 A 
ATOM     68  C   UNL A   1      42.552  26.673  34.219  1.00  0.00     0.059 A 
ATOM     69  F   UNL A   1      42.982  26.825  31.920  1.00  0.00    -0.206 F 
ATOM     70  C   UNL A   1      42.498  27.276  35.473  1.00  0.00     0.060 A 
BRANCH  70  71
ATOM     71  S   UNL A   1      41.890  26.354  36.901  1.00  0.00     0.124 S 
ATOM     72  O   UNL A   1      41.678  25.024  36.341  1.00  0.00    -0.237 OA
ATOM     73  O   UNL A   1      42.994  26.474  37.851  1.00  0.00    -0.237 OA
ATOM     74  O   UNL A   1      40.676  27.075  37.281  1.00  0.00    -0.744 OA
ENDBRANCH  70  71
ENDBRANCH  38  63
ENDBRANCH  12  13
ENDBRANCH   5   7
ENDBRANCH   2   3
ENDBRANCH   1   2
BRANCH   1  75
ATOM     75  C   UNL A   1      37.945  21.907  25.675  1.00  0.00     0.118 C 
BRANCH  75  76
ATOM     76  N   UNL A   1      36.663  22.193  24.876  1.00  0.00    -0.351 N 
ATOM     77  C   UNL A   1      35.263  22.272  24.879  1.00  0.00     0.281 C 
ATOM     78  H   UNL A   1      36.951  22.420  23.963  1.00  0.00     0.163 HD
ATOM     79  O   UNL A   1      34.763  22.562  23.781  1.00  0.00    -0.268 OA
BRANCH  77  80
ATOM     80  C   UNL A   1      34.309  22.059  26.149  1.00  0.00     0.178 C 
ATOM     81  C   UNL A   1      34.268  22.464  27.672  1.00  0.00     0.079 C 
ATOM     82  C   UNL A   1      33.262  23.101  25.784  1.00  0.00     0.062 C 
ATOM     83  C   UNL A   1      32.758  22.475  28.023  1.00  0.00     0.008 C 
ATOM     84  C   UNL A   1      32.093  22.949  26.753  1.00  0.00     0.011 C 
BRANCH  80  85
ATOM     85  N   UNL A   1      34.184  20.578  26.238  1.00  0.00    -0.331 N 
ATOM     86  H   UNL A   1      33.783  20.348  27.147  1.00  0.00     0.347 HD
ATOM     87  H   UNL A   1      35.123  20.202  26.107  1.00  0.00     0.347 HD
BRANCH  85  88
ATOM     88  C   UNL A   1      33.313  19.945  25.162  1.00  0.00     0.183 C 
ATOM     89  C   UNL A   1      33.723  18.804  24.241  1.00  0.00     0.071 C 
ATOM     90  C   UNL A   1      32.736  18.551  25.338  1.00  0.00     0.071 C 
ENDBRANCH  85  88
ENDBRANCH  80  85
BRANCH  82  91
ATOM     91  C   UNL A   1      33.960  24.560  25.876  1.00  0.00     0.032 C 
BRANCH  91  92
ATOM     92  C   UNL A   1      33.443  26.021  25.208  1.00  0.00     0.123 C 
BRANCH  92  93
ATOM     93  N   UNL A   1      33.510  26.659  23.871  1.00  0.00    -0.337 N 
ATOM     94  C   UNL A   1      33.859  27.992  23.682  1.00  0.00     0.107 A 
ATOM     95  C   UNL A   1      33.275  26.224  22.589  1.00  0.00     0.199 A 
ATOM     96  C   UNL A   1      33.976  28.190  22.324  1.00  0.00     0.130 A 
ATOM     97  N   UNL A   1      33.592  27.084  21.651  1.00  0.00    -0.245 NA
ENDBRANCH  92  93
ENDBRANCH  91  92
ENDBRANCH  82  91
ENDBRANCH  77  80
ENDBRANCH  75  76
ENDBRANCH   1  75
TORSDOF 18
ENDMDL
