MODEL 1
REMARK VINA RESULT:     -13.9      0.000      0.000
REMARK SMILES O=C(NCCCNC(=O)c1cc(-c2ccccc2)nc(Nc2nc3ccccc3s2)n1)c1ccc(-c2c3nc(c(-c4c(F)cc(S(=O)(=O)[O-])cc4F)c4ccc([nH]4)c(-c4c(F)cc(S(=O)(=O)[O-])cc4F)c4nc(c(-c5c(F)cc(S(=O)(=O)[O-])cc5F)c5ccc2[nH]5)C=C4)C=C3)cc1
REMARK SMILES IDX 4 1 3 2 1 3 2 4 32 6 33 7 97 8 34 9 96 10 35 11 36 12 37 13
REMARK SMILES IDX 90 14 38 15 95 16 89 17 91 18 39 19 94 20 88 21 87 22 40 24
REMARK SMILES IDX 74 25 53 26 73 27 54 28 57 29 72 30 92 31 55 32 56 33 71 35
REMARK SMILES IDX 93 36 58 37 41 38 42 39 51 40 43 41 44 42 50 43 52 44 45 45
REMARK SMILES IDX 46 46 47 47 48 48 49 49 75 50 76 51 85 52 77 53 78 54 84 55
REMARK SMILES IDX 86 56 79 57 80 58 81 59 82 60 83 61 59 62 60 63 69 64 61 65
REMARK SMILES IDX 62 66 68 67 70 68 63 69 64 70 65 71 66 72 67 73 5 74 6 75
REMARK SMILES IDX 7 76 8 77 9 79 10 80 11 81 31 82 12 83 20 84 19 85 13 86
REMARK SMILES IDX 14 87 18 88 15 89 17 90 16 91 21 92 22 94 23 95 30 96 24 97
REMARK SMILES IDX 29 98 25 99 28 100 26 101 27 102
REMARK H PARENT 3 5 91 23 57 34 7 78 21 93
REMARK Flexibility Score: inf
ROOT
ATOM      1  C   UNL A   1      39.736  23.371  27.083  1.00  0.00     0.118 C 
ENDROOT
BRANCH   1   2
ATOM      2  N   UNL A   1      40.551  24.108  26.123  1.00  0.00    -0.352 N 
ATOM      3  O   UNL A   1      41.475  25.880  25.096  1.00  0.00    -0.269 OA
ATOM      4  C   UNL A   1      40.947  25.427  26.103  1.00  0.00     0.251 C 
ATOM      5  H   UNL A   1      40.872  23.572  25.361  1.00  0.00     0.163 HD
BRANCH   4   6
ATOM      6  C   UNL A   1      40.717  26.292  27.281  1.00  0.00     0.039 A 
ATOM      7  C   UNL A   1      41.431  27.476  27.442  1.00  0.00     0.014 A 
ATOM      8  C   UNL A   1      39.757  25.926  28.232  1.00  0.00     0.014 A 
ATOM      9  C   UNL A   1      41.337  28.184  28.631  1.00  0.00     0.010 A 
ATOM     10  C   UNL A   1      39.570  26.713  29.375  1.00  0.00     0.010 A 
ATOM     11  C   UNL A   1      40.387  27.829  29.603  1.00  0.00    -0.014 A 
BRANCH  11  12
ATOM     12  C   UNL A   1      40.246  28.703  30.797  1.00  0.00     0.031 A 
ATOM     13  C   UNL A   1      41.176  28.589  31.973  1.00  0.00     0.074 A 
ATOM     14  C   UNL A   1      39.306  29.670  30.765  1.00  0.00     0.049 A 
ATOM     15  N   UNL A   1      41.236  29.339  33.045  1.00  0.00    -0.248 NA
ATOM     16  C   UNL A   1      42.157  27.493  31.956  1.00  0.00     0.031 C 
ATOM     17  C   UNL A   1      38.327  29.855  29.688  1.00  0.00     0.029 A 
ATOM     18  N   UNL A   1      39.042  30.701  31.628  1.00  0.00    -0.354 N 
ATOM     19  C   UNL A   1      42.250  28.804  33.833  1.00  0.00     0.074 A 
ATOM     20  C   UNL A   1      42.757  27.644  33.130  1.00  0.00     0.031 C 
ATOM     21  C   UNL A   1      37.623  30.971  29.917  1.00  0.00     0.029 A 
ATOM     22  C   UNL A   1      38.050  31.545  31.186  1.00  0.00     0.049 A 
ATOM     23  H   UNL A   1      39.518  30.827  32.481  1.00  0.00     0.167 HD
ATOM     24  C   UNL A   1      42.719  29.248  35.024  1.00  0.00     0.037 A 
ATOM     25  C   UNL A   1      37.529  32.653  31.743  1.00  0.00     0.037 A 
ATOM     26  C   UNL A   1      42.213  30.412  35.709  1.00  0.00     0.049 A 
ATOM     27  C   UNL A   1      38.082  33.132  33.053  1.00  0.00     0.074 A 
ATOM     28  C   UNL A   1      42.620  30.944  36.921  1.00  0.00     0.029 A 
ATOM     29  N   UNL A   1      41.195  31.230  35.239  1.00  0.00    -0.354 N 
ATOM     30  N   UNL A   1      39.045  32.613  33.776  1.00  0.00    -0.248 NA
ATOM     31  C   UNL A   1      37.477  34.341  33.623  1.00  0.00     0.031 C 
ATOM     32  C   UNL A   1      41.830  32.065  37.198  1.00  0.00     0.029 A 
ATOM     33  C   UNL A   1      40.957  32.257  36.140  1.00  0.00     0.049 A 
ATOM     34  H   UNL A   1      40.713  31.101  34.392  1.00  0.00     0.167 HD
ATOM     35  C   UNL A   1      39.160  33.432  34.892  1.00  0.00     0.074 A 
ATOM     36  C   UNL A   1      38.195  34.500  34.727  1.00  0.00     0.031 C 
ATOM     37  C   UNL A   1      39.982  33.303  35.963  1.00  0.00     0.037 A 
BRANCH  24  38
ATOM     38  C   UNL A   1      43.836  28.476  35.670  1.00  0.00     0.058 A 
ATOM     39  C   UNL A   1      45.183  28.780  35.417  1.00  0.00     0.135 A 
ATOM     40  C   UNL A   1      43.561  27.457  36.597  1.00  0.00     0.135 A 
ATOM     41  F   UNL A   1      45.504  29.733  34.528  1.00  0.00    -0.206 F 
ATOM     42  C   UNL A   1      46.217  28.092  36.046  1.00  0.00     0.059 A 
ATOM     43  C   UNL A   1      44.578  26.770  37.255  1.00  0.00     0.059 A 
ATOM     44  F   UNL A   1      42.291  27.122  36.876  1.00  0.00    -0.206 F 
ATOM     45  C   UNL A   1      45.904  27.089  36.965  1.00  0.00     0.060 A 
BRANCH  45  46
ATOM     46  S   UNL A   1      47.256  26.218  37.786  1.00  0.00     0.124 S 
ATOM     47  O   UNL A   1      46.751  24.848  37.805  1.00  0.00    -0.237 OA
ATOM     48  O   UNL A   1      48.380  26.464  36.887  1.00  0.00    -0.237 OA
ATOM     49  O   UNL A   1      47.344  26.871  39.088  1.00  0.00    -0.744 OA
ENDBRANCH  45  46
ENDBRANCH  24  38
BRANCH  25  50
ATOM     50  C   UNL A   1      36.414  33.364  31.066  1.00  0.00     0.058 A 
ATOM     51  C   UNL A   1      35.108  33.330  31.574  1.00  0.00     0.135 A 
ATOM     52  C   UNL A   1      36.645  34.118  29.904  1.00  0.00     0.135 A 
ATOM     53  F   UNL A   1      34.837  32.624  32.683  1.00  0.00    -0.206 F 
ATOM     54  C   UNL A   1      34.065  34.002  30.946  1.00  0.00     0.059 A 
ATOM     55  C   UNL A   1      35.625  34.822  29.275  1.00  0.00     0.059 A 
ATOM     56  F   UNL A   1      37.882  34.200  29.390  1.00  0.00    -0.206 F 
ATOM     57  C   UNL A   1      34.335  34.746  29.795  1.00  0.00     0.060 A 
BRANCH  57  58
ATOM     58  S   UNL A   1      32.989  35.653  29.005  1.00  0.00     0.124 S 
ATOM     59  O   UNL A   1      33.717  36.694  28.291  1.00  0.00    -0.237 OA
ATOM     60  O   UNL A   1      32.364  34.626  28.177  1.00  0.00    -0.237 OA
ATOM     61  O   UNL A   1      32.184  36.106  30.137  1.00  0.00    -0.744 OA
ENDBRANCH  57  58
ENDBRANCH  25  50
BRANCH  37  62
ATOM     62  C   UNL A   1      39.865  34.354  37.030  1.00  0.00     0.058 A 
ATOM     63  C   UNL A   1      39.057  34.161  38.161  1.00  0.00     0.135 A 
ATOM     64  C   UNL A   1      40.570  35.563  36.922  1.00  0.00     0.135 A 
ATOM     65  F   UNL A   1      38.358  33.024  38.307  1.00  0.00    -0.206 F 
ATOM     66  C   UNL A   1      38.919  35.148  39.131  1.00  0.00     0.059 A 
ATOM     67  C   UNL A   1      40.468  36.553  37.894  1.00  0.00     0.059 A 
ATOM     68  F   UNL A   1      41.363  35.792  35.864  1.00  0.00    -0.206 F 
ATOM     69  C   UNL A   1      39.625  36.344  38.985  1.00  0.00     0.060 A 
BRANCH  69  70
ATOM     70  S   UNL A   1      39.439  37.620  40.248  1.00  0.00     0.124 S 
ATOM     71  O   UNL A   1      38.493  38.529  39.608  1.00  0.00    -0.237 OA
ATOM     72  O   UNL A   1      38.922  36.865  41.385  1.00  0.00    -0.237 OA
ATOM     73  O   UNL A   1      40.795  38.135  40.411  1.00  0.00    -0.744 OA
ENDBRANCH  69  70
ENDBRANCH  37  62
ENDBRANCH  11  12
ENDBRANCH   4   6
ENDBRANCH   1   2
BRANCH   1  74
ATOM     74  C   UNL A   1      38.512  22.730  26.448  1.00  0.00     0.042 C 
BRANCH  74  75
ATOM     75  C   UNL A   1      37.552  23.735  25.835  1.00  0.00     0.118 C 
BRANCH  75  76
ATOM     76  N   UNL A   1      37.332  23.508  24.412  1.00  0.00    -0.351 N 
ATOM     77  C   UNL A   1      36.152  23.378  23.715  1.00  0.00     0.270 C 
ATOM     78  H   UNL A   1      38.150  23.437  23.869  1.00  0.00     0.163 HD
ATOM     79  O   UNL A   1      36.177  23.090  22.522  1.00  0.00    -0.268 OA
BRANCH  77  80
ATOM     80  C   UNL A   1      34.866  23.635  24.407  1.00  0.00     0.134 A 
ATOM     81  C   UNL A   1      34.473  24.919  24.650  1.00  0.00     0.063 A 
ATOM     82  N   UNL A   1      34.172  22.561  24.792  1.00  0.00    -0.207 NA
ATOM     83  C   UNL A   1      33.362  25.049  25.448  1.00  0.00     0.077 A 
ATOM     84  C   UNL A   1      33.056  22.759  25.499  1.00  0.00     0.230 A 
ATOM     85  N   UNL A   1      32.634  23.985  25.865  1.00  0.00    -0.213 NA
BRANCH  83  86
ATOM     86  C   UNL A   1      33.020  26.375  25.981  1.00  0.00     0.000 A 
ATOM     87  C   UNL A   1      31.757  26.611  26.549  1.00  0.00     0.010 A 
ATOM     88  C   UNL A   1      33.991  27.388  26.082  1.00  0.00     0.010 A 
ATOM     89  C   UNL A   1      31.491  27.802  27.230  1.00  0.00     0.001 A 
ATOM     90  C   UNL A   1      33.725  28.577  26.760  1.00  0.00     0.001 A 
ATOM     91  C   UNL A   1      32.477  28.780  27.343  1.00  0.00     0.000 A 
ENDBRANCH  83  86
BRANCH  84  92
ATOM     92  N   UNL A   1      32.234  21.678  25.808  1.00  0.00    -0.300 N 
ATOM     93  H   UNL A   1      31.486  21.821  26.432  1.00  0.00     0.172 HD
BRANCH  92  94
ATOM     94  C   UNL A   1      32.415  20.444  25.291  1.00  0.00     0.190 A 
ATOM     95  N   UNL A   1      32.586  19.347  25.992  1.00  0.00    -0.220 NA
ATOM     96  S   UNL A   1      32.468  20.199  23.582  1.00  0.00    -0.097 S 
ATOM     97  C   UNL A   1      32.993  18.305  25.193  1.00  0.00     0.084 A 
ATOM     98  C   UNL A   1      33.024  18.583  23.827  1.00  0.00     0.056 A 
ATOM     99  C   UNL A   1      33.392  17.033  25.645  1.00  0.00     0.030 A 
ATOM    100  C   UNL A   1      33.462  17.629  22.893  1.00  0.00     0.021 A 
ATOM    101  C   UNL A   1      33.843  16.081  24.728  1.00  0.00     0.002 A 
ATOM    102  C   UNL A   1      33.881  16.380  23.370  1.00  0.00     0.002 A 
ENDBRANCH  92  94
ENDBRANCH  84  92
ENDBRANCH  77  80
ENDBRANCH  75  76
ENDBRANCH  74  75
ENDBRANCH   1  74
TORSDOF 16
ENDMDL
MODEL 2
REMARK VINA RESULT:     -13.7      6.552     11.773
REMARK SMILES O=C(NCCCNC(=O)c1cc(-c2ccccc2)nc(Nc2nc3ccccc3s2)n1)c1ccc(-c2c3nc(c(-c4c(F)cc(S(=O)(=O)[O-])cc4F)c4ccc([nH]4)c(-c4c(F)cc(S(=O)(=O)[O-])cc4F)c4nc(c(-c5c(F)cc(S(=O)(=O)[O-])cc5F)c5ccc2[nH]5)C=C4)C=C3)cc1
REMARK SMILES IDX 4 1 3 2 1 3 2 4 32 6 33 7 97 8 34 9 96 10 35 11 36 12 37 13
REMARK SMILES IDX 90 14 38 15 95 16 89 17 91 18 39 19 94 20 88 21 87 22 40 24
REMARK SMILES IDX 74 25 53 26 73 27 54 28 57 29 72 30 92 31 55 32 56 33 71 35
REMARK SMILES IDX 93 36 58 37 41 38 42 39 51 40 43 41 44 42 50 43 52 44 45 45
REMARK SMILES IDX 46 46 47 47 48 48 49 49 75 50 76 51 85 52 77 53 78 54 84 55
REMARK SMILES IDX 86 56 79 57 80 58 81 59 82 60 83 61 59 62 60 63 69 64 61 65
REMARK SMILES IDX 62 66 68 67 70 68 63 69 64 70 65 71 66 72 67 73 5 74 6 75
REMARK SMILES IDX 7 76 8 77 9 79 10 80 11 81 31 82 12 83 20 84 19 85 13 86
REMARK SMILES IDX 14 87 18 88 15 89 17 90 16 91 21 92 22 94 23 95 30 96 24 97
REMARK SMILES IDX 29 98 25 99 28 100 26 101 27 102
REMARK H PARENT 3 5 91 23 57 34 7 78 21 93
REMARK Flexibility Score: inf
ROOT
ATOM      1  C   UNL A   1      35.222  29.195  27.614  1.00  0.00     0.118 C 
ENDROOT
BRANCH   1   2
ATOM      2  N   UNL A   1      35.218  29.746  28.965  1.00  0.00    -0.352 N 
ATOM      3  O   UNL A   1      35.966  30.205  31.033  1.00  0.00    -0.269 OA
ATOM      4  C   UNL A   1      36.235  29.887  29.882  1.00  0.00     0.251 C 
ATOM      5  H   UNL A   1      34.340  30.072  29.272  1.00  0.00     0.163 HD
BRANCH   4   6
ATOM      6  C   UNL A   1      37.638  29.637  29.484  1.00  0.00     0.039 A 
ATOM      7  C   UNL A   1      38.048  29.835  28.168  1.00  0.00     0.014 A 
ATOM      8  C   UNL A   1      38.566  29.218  30.444  1.00  0.00     0.014 A 
ATOM      9  C   UNL A   1      39.313  29.430  27.770  1.00  0.00     0.010 A 
ATOM     10  C   UNL A   1      39.882  28.930  30.065  1.00  0.00     0.010 A 
ATOM     11  C   UNL A   1      40.257  28.996  28.715  1.00  0.00    -0.014 A 
BRANCH  11  12
ATOM     12  C   UNL A   1      41.635  28.699  28.245  1.00  0.00     0.031 A 
ATOM     13  C   UNL A   1      42.718  29.742  28.263  1.00  0.00     0.074 A 
ATOM     14  C   UNL A   1      41.919  27.433  27.876  1.00  0.00     0.049 A 
ATOM     15  N   UNL A   1      43.988  29.611  27.971  1.00  0.00    -0.248 NA
ATOM     16  C   UNL A   1      42.333  31.110  28.646  1.00  0.00     0.031 C 
ATOM     17  C   UNL A   1      40.939  26.344  27.790  1.00  0.00     0.029 A 
ATOM     18  N   UNL A   1      43.106  26.832  27.549  1.00  0.00    -0.354 N 
ATOM     19  C   UNL A   1      44.551  30.873  28.125  1.00  0.00     0.074 A 
ATOM     20  C   UNL A   1      43.478  31.767  28.506  1.00  0.00     0.031 C 
ATOM     21  C   UNL A   1      41.574  25.199  27.507  1.00  0.00     0.029 A 
ATOM     22  C   UNL A   1      42.992  25.480  27.325  1.00  0.00     0.049 A 
ATOM     23  H   UNL A   1      43.959  27.321  27.481  1.00  0.00     0.167 HD
ATOM     24  C   UNL A   1      45.845  31.246  27.974  1.00  0.00     0.037 A 
ATOM     25  C   UNL A   1      43.922  24.564  26.997  1.00  0.00     0.037 A 
ATOM     26  C   UNL A   1      46.909  30.344  27.606  1.00  0.00     0.049 A 
ATOM     27  C   UNL A   1      45.350  25.002  26.856  1.00  0.00     0.074 A 
ATOM     28  C   UNL A   1      48.253  30.623  27.427  1.00  0.00     0.029 A 
ATOM     29  N   UNL A   1      46.752  28.985  27.369  1.00  0.00    -0.354 N 
ATOM     30  N   UNL A   1      45.860  26.200  27.013  1.00  0.00    -0.248 NA
ATOM     31  C   UNL A   1      46.325  23.969  26.493  1.00  0.00     0.031 C 
ATOM     32  C   UNL A   1      48.903  29.441  27.053  1.00  0.00     0.029 A 
ATOM     33  C   UNL A   1      47.972  28.415  27.039  1.00  0.00     0.049 A 
ATOM     34  H   UNL A   1      45.899  28.497  27.428  1.00  0.00     0.167 HD
ATOM     35  C   UNL A   1      47.219  26.066  26.762  1.00  0.00     0.074 A 
ATOM     36  C   UNL A   1      47.455  24.664  26.483  1.00  0.00     0.031 C 
ATOM     37  C   UNL A   1      48.183  27.020  26.752  1.00  0.00     0.037 A 
BRANCH  24  38
ATOM     38  C   UNL A   1      46.191  32.691  28.204  1.00  0.00     0.058 A 
ATOM     39  C   UNL A   1      46.619  33.155  29.459  1.00  0.00     0.135 A 
ATOM     40  C   UNL A   1      46.149  33.615  27.147  1.00  0.00     0.135 A 
ATOM     41  F   UNL A   1      46.662  32.319  30.508  1.00  0.00    -0.206 F 
ATOM     42  C   UNL A   1      46.978  34.484  29.661  1.00  0.00     0.059 A 
ATOM     43  C   UNL A   1      46.524  34.946  27.320  1.00  0.00     0.059 A 
ATOM     44  F   UNL A   1      45.746  33.228  25.926  1.00  0.00    -0.206 F 
ATOM     45  C   UNL A   1      46.929  35.372  28.585  1.00  0.00     0.060 A 
BRANCH  45  46
ATOM     46  S   UNL A   1      47.413  37.090  28.860  1.00  0.00     0.124 S 
ATOM     47  O   UNL A   1      48.088  36.999  30.153  1.00  0.00    -0.237 OA
ATOM     48  O   UNL A   1      48.277  37.360  27.715  1.00  0.00    -0.237 OA
ATOM     49  O   UNL A   1      46.142  37.807  28.866  1.00  0.00    -0.744 OA
ENDBRANCH  45  46
ENDBRANCH  24  38
BRANCH  25  50
ATOM     50  C   UNL A   1      43.517  23.153  26.766  1.00  0.00     0.058 A 
ATOM     51  C   UNL A   1      43.494  22.601  25.477  1.00  0.00     0.135 A 
ATOM     52  C   UNL A   1      43.170  22.321  27.842  1.00  0.00     0.135 A 
ATOM     53  F   UNL A   1      43.818  23.357  24.417  1.00  0.00    -0.206 F 
ATOM     54  C   UNL A   1      43.123  21.278  25.260  1.00  0.00     0.059 A 
ATOM     55  C   UNL A   1      42.825  20.988  27.653  1.00  0.00     0.059 A 
ATOM     56  F   UNL A   1      43.198  22.796  29.097  1.00  0.00    -0.206 F 
ATOM     57  C   UNL A   1      42.790  20.479  26.357  1.00  0.00     0.060 A 
BRANCH  57  58
ATOM     58  S   UNL A   1      42.352  18.751  26.076  1.00  0.00     0.124 S 
ATOM     59  O   UNL A   1      40.948  18.863  25.701  1.00  0.00    -0.237 OA
ATOM     60  O   UNL A   1      43.271  18.364  25.010  1.00  0.00    -0.237 OA
ATOM     61  O   UNL A   1      42.612  18.128  27.371  1.00  0.00    -0.744 OA
ENDBRANCH  57  58
ENDBRANCH  25  50
BRANCH  37  62
ATOM     62  C   UNL A   1      49.577  26.563  26.430  1.00  0.00     0.058 A 
ATOM     63  C   UNL A   1      50.103  26.676  25.133  1.00  0.00     0.135 A 
ATOM     64  C   UNL A   1      50.396  26.010  27.427  1.00  0.00     0.135 A 
ATOM     65  F   UNL A   1      49.357  27.192  24.144  1.00  0.00    -0.206 F 
ATOM     66  C   UNL A   1      51.381  26.220  24.826  1.00  0.00     0.059 A 
ATOM     67  C   UNL A   1      51.686  25.571  27.148  1.00  0.00     0.059 A 
ATOM     68  F   UNL A   1      49.943  25.889  28.684  1.00  0.00    -0.206 F 
ATOM     69  C   UNL A   1      52.163  25.663  25.841  1.00  0.00     0.060 A 
BRANCH  69  70
ATOM     70  S   UNL A   1      53.818  25.072  25.433  1.00  0.00     0.124 S 
ATOM     71  O   UNL A   1      53.624  23.626  25.444  1.00  0.00    -0.237 OA
ATOM     72  O   UNL A   1      54.052  25.670  24.121  1.00  0.00    -0.237 OA
ATOM     73  O   UNL A   1      54.644  25.605  26.512  1.00  0.00    -0.744 OA
ENDBRANCH  69  70
ENDBRANCH  37  62
ENDBRANCH  11  12
ENDBRANCH   4   6
ENDBRANCH   1   2
BRANCH   1  74
ATOM     74  C   UNL A   1      33.822  29.014  27.047  1.00  0.00     0.042 C 
BRANCH  74  75
ATOM     75  C   UNL A   1      33.574  27.627  26.479  1.00  0.00     0.118 C 
BRANCH  75  76
ATOM     76  N   UNL A   1      33.449  27.626  25.028  1.00  0.00    -0.351 N 
ATOM     77  C   UNL A   1      33.675  26.610  24.127  1.00  0.00     0.270 C 
ATOM     78  H   UNL A   1      33.161  28.480  24.632  1.00  0.00     0.163 HD
ATOM     79  O   UNL A   1      33.610  26.837  22.922  1.00  0.00    -0.268 OA
BRANCH  77  80
ATOM     80  C   UNL A   1      33.950  25.242  24.627  1.00  0.00     0.134 A 
ATOM     81  C   UNL A   1      35.212  24.908  25.025  1.00  0.00     0.063 A 
ATOM     82  N   UNL A   1      32.924  24.387  24.619  1.00  0.00    -0.207 NA
ATOM     83  C   UNL A   1      35.404  23.576  25.302  1.00  0.00     0.077 A 
ATOM     84  C   UNL A   1      33.162  23.122  24.976  1.00  0.00     0.230 A 
ATOM     85  N   UNL A   1      34.391  22.676  25.300  1.00  0.00    -0.213 NA
BRANCH  83  86
ATOM     86  C   UNL A   1      36.775  23.076  25.480  1.00  0.00     0.000 A 
ATOM     87  C   UNL A   1      37.721  23.830  26.193  1.00  0.00     0.010 A 
ATOM     88  C   UNL A   1      37.127  21.772  25.085  1.00  0.00     0.010 A 
ATOM     89  C   UNL A   1      38.961  23.282  26.535  1.00  0.00     0.001 A 
ATOM     90  C   UNL A   1      38.365  21.227  25.424  1.00  0.00     0.001 A 
ATOM     91  C   UNL A   1      39.278  21.979  26.158  1.00  0.00     0.000 A 
ENDBRANCH  83  86
BRANCH  84  92
ATOM     92  N   UNL A   1      32.099  22.231  25.109  1.00  0.00    -0.300 N 
ATOM     93  H   UNL A   1      31.236  22.576  25.432  1.00  0.00     0.172 HD
BRANCH  92  94
ATOM     94  C   UNL A   1      32.198  20.917  24.815  1.00  0.00     0.190 A 
ATOM     95  N   UNL A   1      32.213  19.943  25.695  1.00  0.00    -0.220 NA
ATOM     96  S   UNL A   1      32.350  20.385  23.179  1.00  0.00    -0.097 S 
ATOM     97  C   UNL A   1      32.575  18.752  25.112  1.00  0.00     0.084 A 
ATOM     98  C   UNL A   1      32.730  18.793  23.728  1.00  0.00     0.056 A 
ATOM     99  C   UNL A   1      32.818  17.546  25.797  1.00  0.00     0.030 A 
ATOM    100  C   UNL A   1      33.141  17.662  23.001  1.00  0.00     0.021 A 
ATOM    101  C   UNL A   1      33.240  16.420  25.087  1.00  0.00     0.002 A 
ATOM    102  C   UNL A   1      33.404  16.481  23.707  1.00  0.00     0.002 A 
ENDBRANCH  92  94
ENDBRANCH  84  92
ENDBRANCH  77  80
ENDBRANCH  75  76
ENDBRANCH  74  75
ENDBRANCH   1  74
TORSDOF 16
ENDMDL
MODEL 3
REMARK VINA RESULT:     -13.7      1.010      4.072
REMARK SMILES O=C(NCCCNC(=O)c1cc(-c2ccccc2)nc(Nc2nc3ccccc3s2)n1)c1ccc(-c2c3nc(c(-c4c(F)cc(S(=O)(=O)[O-])cc4F)c4ccc([nH]4)c(-c4c(F)cc(S(=O)(=O)[O-])cc4F)c4nc(c(-c5c(F)cc(S(=O)(=O)[O-])cc5F)c5ccc2[nH]5)C=C4)C=C3)cc1
REMARK SMILES IDX 4 1 3 2 1 3 2 4 32 6 33 7 97 8 34 9 96 10 35 11 36 12 37 13
REMARK SMILES IDX 90 14 38 15 95 16 89 17 91 18 39 19 94 20 88 21 87 22 40 24
REMARK SMILES IDX 74 25 53 26 73 27 54 28 57 29 72 30 92 31 55 32 56 33 71 35
REMARK SMILES IDX 93 36 58 37 41 38 42 39 51 40 43 41 44 42 50 43 52 44 45 45
REMARK SMILES IDX 46 46 47 47 48 48 49 49 75 50 76 51 85 52 77 53 78 54 84 55
REMARK SMILES IDX 86 56 79 57 80 58 81 59 82 60 83 61 59 62 60 63 69 64 61 65
REMARK SMILES IDX 62 66 68 67 70 68 63 69 64 70 65 71 66 72 67 73 5 74 6 75
REMARK SMILES IDX 7 76 8 77 9 79 10 80 11 81 31 82 12 83 20 84 19 85 13 86
REMARK SMILES IDX 14 87 18 88 15 89 17 90 16 91 21 92 22 94 23 95 30 96 24 97
REMARK SMILES IDX 29 98 25 99 28 100 26 101 27 102
REMARK H PARENT 3 5 91 23 57 34 7 78 21 93
REMARK Flexibility Score: inf
ROOT
ATOM      1  C   UNL A   1      40.062  23.308  27.113  1.00  0.00     0.118 C 
ENDROOT
BRANCH   1   2
ATOM      2  N   UNL A   1      40.813  24.079  26.127  1.00  0.00    -0.352 N 
ATOM      3  O   UNL A   1      41.614  25.889  25.064  1.00  0.00    -0.269 OA
ATOM      4  C   UNL A   1      41.134  25.417  26.086  1.00  0.00     0.251 C 
ATOM      5  H   UNL A   1      41.146  23.553  25.363  1.00  0.00     0.163 HD
BRANCH   4   6
ATOM      6  C   UNL A   1      40.884  26.280  27.262  1.00  0.00     0.039 A 
ATOM      7  C   UNL A   1      41.629  27.439  27.463  1.00  0.00     0.014 A 
ATOM      8  C   UNL A   1      39.874  25.938  28.169  1.00  0.00     0.014 A 
ATOM      9  C   UNL A   1      41.508  28.140  28.654  1.00  0.00     0.010 A 
ATOM     10  C   UNL A   1      39.665  26.721  29.311  1.00  0.00     0.010 A 
ATOM     11  C   UNL A   1      40.508  27.809  29.583  1.00  0.00    -0.014 A 
BRANCH  11  12
ATOM     12  C   UNL A   1      40.345  28.677  30.778  1.00  0.00     0.031 A 
ATOM     13  C   UNL A   1      41.266  28.572  31.961  1.00  0.00     0.074 A 
ATOM     14  C   UNL A   1      39.394  29.633  30.740  1.00  0.00     0.049 A 
ATOM     15  N   UNL A   1      41.307  29.318  33.036  1.00  0.00    -0.248 NA
ATOM     16  C   UNL A   1      42.260  27.487  31.950  1.00  0.00     0.031 C 
ATOM     17  C   UNL A   1      38.422  29.809  29.654  1.00  0.00     0.029 A 
ATOM     18  N   UNL A   1      39.110  30.659  31.603  1.00  0.00    -0.354 N 
ATOM     19  C   UNL A   1      42.320  28.793  33.831  1.00  0.00     0.074 A 
ATOM     20  C   UNL A   1      42.848  27.642  33.130  1.00  0.00     0.031 C 
ATOM     21  C   UNL A   1      37.703  30.916  29.880  1.00  0.00     0.029 A 
ATOM     22  C   UNL A   1      38.112  31.492  31.155  1.00  0.00     0.049 A 
ATOM     23  H   UNL A   1      39.576  30.787  32.461  1.00  0.00     0.167 HD
ATOM     24  C   UNL A   1      42.773  29.239  35.028  1.00  0.00     0.037 A 
ATOM     25  C   UNL A   1      37.573  32.592  31.711  1.00  0.00     0.037 A 
ATOM     26  C   UNL A   1      42.248  30.395  35.712  1.00  0.00     0.049 A 
ATOM     27  C   UNL A   1      38.108  33.073  33.026  1.00  0.00     0.074 A 
ATOM     28  C   UNL A   1      42.638  30.929  36.929  1.00  0.00     0.029 A 
ATOM     29  N   UNL A   1      41.224  31.203  35.235  1.00  0.00    -0.354 N 
ATOM     30  N   UNL A   1      39.071  32.564  33.757  1.00  0.00    -0.248 NA
ATOM     31  C   UNL A   1      37.484  34.274  33.595  1.00  0.00     0.031 C 
ATOM     32  C   UNL A   1      41.831  32.040  37.202  1.00  0.00     0.029 A 
ATOM     33  C   UNL A   1      40.965  32.224  36.137  1.00  0.00     0.049 A 
ATOM     34  H   UNL A   1      40.751  31.070  34.383  1.00  0.00     0.167 HD
ATOM     35  C   UNL A   1      39.166  33.381  34.876  1.00  0.00     0.074 A 
ATOM     36  C   UNL A   1      38.190  34.438  34.705  1.00  0.00     0.031 C 
ATOM     37  C   UNL A   1      39.980  33.259  35.954  1.00  0.00     0.037 A 
BRANCH  24  38
ATOM     38  C   UNL A   1      43.894  28.479  35.682  1.00  0.00     0.058 A 
ATOM     39  C   UNL A   1      43.644  27.437  36.590  1.00  0.00     0.135 A 
ATOM     40  C   UNL A   1      45.233  28.755  35.358  1.00  0.00     0.135 A 
ATOM     41  F   UNL A   1      42.385  27.141  36.948  1.00  0.00    -0.206 F 
ATOM     42  C   UNL A   1      44.681  26.706  37.164  1.00  0.00     0.059 A 
ATOM     43  C   UNL A   1      46.285  28.023  35.903  1.00  0.00     0.059 A 
ATOM     44  F   UNL A   1      45.530  29.741  34.498  1.00  0.00    -0.206 F 
ATOM     45  C   UNL A   1      45.998  27.005  36.813  1.00  0.00     0.060 A 
BRANCH  45  46
ATOM     46  S   UNL A   1      47.330  26.037  37.554  1.00  0.00     0.124 S 
ATOM     47  O   UNL A   1      48.223  27.089  38.034  1.00  0.00    -0.237 OA
ATOM     48  O   UNL A   1      46.631  25.281  38.588  1.00  0.00    -0.237 OA
ATOM     49  O   UNL A   1      47.839  25.245  36.438  1.00  0.00    -0.744 OA
ENDBRANCH  45  46
ENDBRANCH  24  38
BRANCH  25  50
ATOM     50  C   UNL A   1      36.455  33.292  31.025  1.00  0.00     0.058 A 
ATOM     51  C   UNL A   1      35.142  33.223  31.510  1.00  0.00     0.135 A 
ATOM     52  C   UNL A   1      36.691  34.068  29.880  1.00  0.00     0.135 A 
ATOM     53  F   UNL A   1      34.866  32.494  32.602  1.00  0.00    -0.206 F 
ATOM     54  C   UNL A   1      34.096  33.884  30.874  1.00  0.00     0.059 A 
ATOM     55  C   UNL A   1      35.668  34.763  29.244  1.00  0.00     0.059 A 
ATOM     56  F   UNL A   1      37.935  34.184  29.389  1.00  0.00    -0.206 F 
ATOM     57  C   UNL A   1      34.371  34.652  29.740  1.00  0.00     0.060 A 
BRANCH  57  58
ATOM     58  S   UNL A   1      33.020  35.545  28.941  1.00  0.00     0.124 S 
ATOM     59  O   UNL A   1      33.738  36.627  28.278  1.00  0.00    -0.237 OA
ATOM     60  O   UNL A   1      32.447  34.526  28.067  1.00  0.00    -0.237 OA
ATOM     61  O   UNL A   1      32.174  35.942  30.064  1.00  0.00    -0.744 OA
ENDBRANCH  57  58
ENDBRANCH  25  50
BRANCH  37  62
ATOM     62  C   UNL A   1      39.841  34.305  37.023  1.00  0.00     0.058 A 
ATOM     63  C   UNL A   1      39.038  34.093  38.154  1.00  0.00     0.135 A 
ATOM     64  C   UNL A   1      40.519  35.529  36.917  1.00  0.00     0.135 A 
ATOM     65  F   UNL A   1      38.364  32.941  38.298  1.00  0.00    -0.206 F 
ATOM     66  C   UNL A   1      38.879  35.075  39.126  1.00  0.00     0.059 A 
ATOM     67  C   UNL A   1      40.396  36.516  37.890  1.00  0.00     0.059 A 
ATOM     68  F   UNL A   1      41.307  35.778  35.858  1.00  0.00    -0.206 F 
ATOM     69  C   UNL A   1      39.559  36.286  38.981  1.00  0.00     0.060 A 
BRANCH  69  70
ATOM     70  S   UNL A   1      39.345  37.556  40.246  1.00  0.00     0.124 S 
ATOM     71  O   UNL A   1      38.333  38.411  39.635  1.00  0.00    -0.237 OA
ATOM     72  O   UNL A   1      38.906  36.779  41.401  1.00  0.00    -0.237 OA
ATOM     73  O   UNL A   1      40.677  38.142  40.365  1.00  0.00    -0.744 OA
ENDBRANCH  69  70
ENDBRANCH  37  62
ENDBRANCH  11  12
ENDBRANCH   4   6
ENDBRANCH   1   2
BRANCH   1  74
ATOM     74  C   UNL A   1      38.964  22.462  26.487  1.00  0.00     0.042 C 
BRANCH  74  75
ATOM     75  C   UNL A   1      37.743  23.265  26.073  1.00  0.00     0.118 C 
BRANCH  75  76
ATOM     76  N   UNL A   1      37.593  23.355  24.626  1.00  0.00    -0.351 N 
ATOM     77  C   UNL A   1      36.601  22.855  23.813  1.00  0.00     0.270 C 
ATOM     78  H   UNL A   1      38.308  23.847  24.161  1.00  0.00     0.163 HD
ATOM     79  O   UNL A   1      36.706  22.953  22.593  1.00  0.00    -0.268 OA
BRANCH  77  80
ATOM     80  C   UNL A   1      35.396  22.246  24.425  1.00  0.00     0.134 A 
ATOM     81  C   UNL A   1      35.343  20.896  24.613  1.00  0.00     0.063 A 
ATOM     82  N   UNL A   1      34.395  23.077  24.726  1.00  0.00    -0.207 NA
ATOM     83  C   UNL A   1      34.123  20.410  25.019  1.00  0.00     0.077 A 
ATOM     84  C   UNL A   1      33.262  22.547  25.192  1.00  0.00     0.230 A 
ATOM     85  N   UNL A   1      33.082  21.219  25.329  1.00  0.00    -0.213 NA
BRANCH  83  86
ATOM     86  C   UNL A   1      33.891  18.959  24.994  1.00  0.00     0.000 A 
ATOM     87  C   UNL A   1      32.726  18.414  25.558  1.00  0.00     0.010 A 
ATOM     88  C   UNL A   1      34.740  18.102  24.270  1.00  0.00     0.010 A 
ATOM     89  C   UNL A   1      32.402  17.067  25.369  1.00  0.00     0.001 A 
ATOM     90  C   UNL A   1      34.419  16.757  24.083  1.00  0.00     0.001 A 
ATOM     91  C   UNL A   1      33.244  16.243  24.624  1.00  0.00     0.000 A 
ENDBRANCH  83  86
BRANCH  84  92
ATOM     92  N   UNL A   1      32.243  23.383  25.642  1.00  0.00    -0.300 N 
ATOM     93  H   UNL A   1      31.601  23.029  26.300  1.00  0.00     0.172 HD
BRANCH  92  94
ATOM     94  C   UNL A   1      32.094  24.657  25.219  1.00  0.00     0.190 A 
ATOM     95  N   UNL A   1      32.476  25.724  25.881  1.00  0.00    -0.220 NA
ATOM     96  S   UNL A   1      31.326  25.004  23.712  1.00  0.00    -0.097 S 
ATOM     97  C   UNL A   1      31.966  26.868  25.315  1.00  0.00     0.084 A 
ATOM     98  C   UNL A   1      31.269  26.680  24.123  1.00  0.00     0.056 A 
ATOM     99  C   UNL A   1      32.071  28.165  25.853  1.00  0.00     0.030 A 
ATOM    100  C   UNL A   1      30.653  27.752  23.455  1.00  0.00     0.021 A 
ATOM    101  C   UNL A   1      31.451  29.236  25.206  1.00  0.00     0.002 A 
ATOM    102  C   UNL A   1      30.748  29.029  24.024  1.00  0.00     0.002 A 
ENDBRANCH  92  94
ENDBRANCH  84  92
ENDBRANCH  77  80
ENDBRANCH  75  76
ENDBRANCH  74  75
ENDBRANCH   1  74
TORSDOF 16
ENDMDL
