MODEL 1
REMARK VINA RESULT:     -11.6      0.000      0.000
REMARK SMILES C[C@@H]1SCCC[C@@]1(CC(=O)NCCCNC(=O)c1ccc(-c2c3nc(c(-c4c(F)cc(S(=O)(=O)[O-])cc4F)c4ccc([nH]4)c(-c4c(F)cc(S(=O)(=O)[O-])cc4F)c4nc(c(-c5c(F)cc(S(=O)(=O)[O-])cc5F)c5ccc2[nH]5)C=C4)C=C3)cc1)[NH+]1CCCC1
REMARK SMILES IDX 13 1 12 2 11 3 9 4 10 5 8 7 7 8 1 9 2 10 3 11 4 12 6 13 5 14
REMARK SMILES IDX 84 15 85 16 88 17 86 19 87 20 14 21 15 22 16 23 17 25 18 26
REMARK SMILES IDX 19 27 83 28 20 29 82 30 21 31 22 32 23 33 76 34 24 35 81 36
REMARK SMILES IDX 75 37 77 38 25 39 80 40 74 41 73 42 26 44 60 45 39 46 59 47
REMARK SMILES IDX 40 48 43 49 58 50 78 51 41 52 42 53 57 55 79 56 44 57 27 58
REMARK SMILES IDX 28 59 37 60 29 61 30 62 36 63 38 64 31 65 32 66 33 67 34 68
REMARK SMILES IDX 35 69 61 70 62 71 71 72 63 73 64 74 70 75 72 76 65 77 66 78
REMARK SMILES IDX 67 79 68 80 69 81 45 82 46 83 55 84 47 85 48 86 54 87 56 88
REMARK SMILES IDX 49 89 50 90 51 91 52 92 53 93
REMARK H PARENT 11 6 84 18 15 24 77 43 43 54
REMARK Flexibility Score: inf
ROOT
ATOM      1  C   UNL A   1      39.307  22.386  26.501  1.00  0.00     0.042 C 
ENDROOT
BRANCH   1   2
ATOM      2  C   UNL A   1      38.207  23.301  25.985  1.00  0.00     0.117 C 
BRANCH   2   3
ATOM      3  N   UNL A   1      37.668  22.879  24.712  1.00  0.00    -0.356 N 
ATOM      4  C   UNL A   1      36.560  23.319  24.065  1.00  0.00     0.226 C 
ATOM      5  O   UNL A   1      36.504  23.087  22.852  1.00  0.00    -0.275 OA
ATOM      6  H   UNL A   1      38.176  22.172  24.250  1.00  0.00     0.163 HD
BRANCH   4   7
ATOM      7  C   UNL A   1      35.452  24.125  24.745  1.00  0.00     0.169 C 
BRANCH   7   8
ATOM      8  C   UNL A   1      34.050  23.445  25.073  1.00  0.00     0.118 C 
ATOM      9  C   UNL A   1      32.998  25.893  25.063  1.00  0.00     0.026 C 
ATOM     10  C   UNL A   1      32.877  24.426  24.580  1.00  0.00     0.105 C 
ATOM     11  S   UNL A   1      31.168  23.960  25.090  1.00  0.00    -0.152 SA
ATOM     12  C   UNL A   1      31.423  23.805  26.874  1.00  0.00     0.070 C 
ATOM     13  C   UNL A   1      33.943  23.334  26.643  1.00  0.00     0.071 C 
ATOM     14  C   UNL A   1      32.595  22.902  27.228  1.00  0.00     0.017 C 
BRANCH   8  15
ATOM     15  N   UNL A   1      34.080  22.065  24.471  1.00  0.00    -0.329 N 
ATOM     16  C   UNL A   1      33.032  21.576  23.571  1.00  0.00     0.262 C 
ATOM     17  C   UNL A   1      34.489  20.932  25.324  1.00  0.00     0.262 C 
ATOM     18  H   UNL A   1      34.841  22.372  23.867  1.00  0.00     0.348 HD
ATOM     19  C   UNL A   1      32.550  20.256  24.151  1.00  0.00     0.067 C 
ATOM     20  C   UNL A   1      33.791  19.693  24.787  1.00  0.00     0.067 C 
ENDBRANCH   8  15
ENDBRANCH   7   8
ENDBRANCH   4   7
ENDBRANCH   2   3
ENDBRANCH   1   2
BRANCH   1  21
ATOM     21  C   UNL A   1      40.484  23.123  27.123  1.00  0.00     0.118 C 
BRANCH  21  22
ATOM     22  N   UNL A   1      41.305  23.789  26.120  1.00  0.00    -0.352 N 
ATOM     23  C   UNL A   1      41.698  25.100  26.016  1.00  0.00     0.251 C 
ATOM     24  H   UNL A   1      41.632  23.203  25.400  1.00  0.00     0.163 HD
ATOM     25  O   UNL A   1      42.208  25.484  24.966  1.00  0.00    -0.269 OA
BRANCH  23  26
ATOM     26  C   UNL A   1      41.506  26.054  27.136  1.00  0.00     0.039 A 
ATOM     27  C   UNL A   1      40.463  25.827  28.039  1.00  0.00     0.014 A 
ATOM     28  C   UNL A   1      42.302  27.194  27.274  1.00  0.00     0.014 A 
ATOM     29  C   UNL A   1      40.252  26.708  29.102  1.00  0.00     0.010 A 
ATOM     30  C   UNL A   1      42.145  28.027  28.380  1.00  0.00     0.010 A 
ATOM     31  C   UNL A   1      41.110  27.802  29.299  1.00  0.00    -0.014 A 
BRANCH  31  32
ATOM     32  C   UNL A   1      40.933  28.727  30.449  1.00  0.00     0.031 A 
ATOM     33  C   UNL A   1      41.775  28.563  31.688  1.00  0.00     0.074 A 
ATOM     34  C   UNL A   1      39.974  29.673  30.401  1.00  0.00     0.049 A 
ATOM     35  N   UNL A   1      41.715  29.215  32.820  1.00  0.00    -0.248 NA
ATOM     36  C   UNL A   1      42.800  27.507  31.660  1.00  0.00     0.031 C 
ATOM     37  C   UNL A   1      39.061  29.897  29.279  1.00  0.00     0.029 A 
ATOM     38  N   UNL A   1      39.596  30.615  31.326  1.00  0.00    -0.354 N 
ATOM     39  C   UNL A   1      42.676  28.639  33.643  1.00  0.00     0.074 A 
ATOM     40  C   UNL A   1      43.273  27.553  32.897  1.00  0.00     0.031 C 
ATOM     41  C   UNL A   1      38.243  30.920  29.572  1.00  0.00     0.029 A 
ATOM     42  C   UNL A   1      38.545  31.402  30.915  1.00  0.00     0.049 A 
ATOM     43  H   UNL A   1      40.036  30.717  32.201  1.00  0.00     0.167 HD
ATOM     44  C   UNL A   1      43.043  28.997  34.897  1.00  0.00     0.037 A 
ATOM     45  C   UNL A   1      37.892  32.392  31.554  1.00  0.00     0.037 A 
ATOM     46  C   UNL A   1      42.468  30.103  35.618  1.00  0.00     0.049 A 
ATOM     47  C   UNL A   1      38.329  32.781  32.940  1.00  0.00     0.074 A 
ATOM     48  C   UNL A   1      42.816  30.589  36.867  1.00  0.00     0.029 A 
ATOM     49  N   UNL A   1      41.429  30.897  35.155  1.00  0.00    -0.354 N 
ATOM     50  N   UNL A   1      39.283  32.265  33.678  1.00  0.00    -0.248 NA
ATOM     51  C   UNL A   1      37.607  33.890  33.579  1.00  0.00     0.031 C 
ATOM     52  C   UNL A   1      41.960  31.652  37.174  1.00  0.00     0.029 A 
ATOM     53  C   UNL A   1      41.111  31.858  36.100  1.00  0.00     0.049 A 
ATOM     54  H   UNL A   1      40.984  30.791  34.283  1.00  0.00     0.167 HD
ATOM     55  C   UNL A   1      39.291  33.002  34.857  1.00  0.00     0.074 A 
ATOM     56  C   UNL A   1      38.258  34.007  34.728  1.00  0.00     0.031 C 
ATOM     57  C   UNL A   1      40.083  32.858  35.949  1.00  0.00     0.037 A 
BRANCH  44  58
ATOM     58  C   UNL A   1      44.123  28.194  35.568  1.00  0.00     0.058 A 
ATOM     59  C   UNL A   1      45.479  28.543  35.459  1.00  0.00     0.135 A 
ATOM     60  C   UNL A   1      43.798  27.087  36.370  1.00  0.00     0.135 A 
ATOM     61  F   UNL A   1      45.849  29.583  34.692  1.00  0.00    -0.206 F 
ATOM     62  C   UNL A   1      46.475  27.814  36.098  1.00  0.00     0.059 A 
ATOM     63  C   UNL A   1      44.776  26.358  37.042  1.00  0.00     0.059 A 
ATOM     64  F   UNL A   1      42.519  26.707  36.511  1.00  0.00    -0.206 F 
ATOM     65  C   UNL A   1      46.113  26.722  36.889  1.00  0.00     0.060 A 
BRANCH  65  66
ATOM     66  S   UNL A   1      47.417  25.795  37.726  1.00  0.00     0.124 S 
ATOM     67  O   UNL A   1      47.786  24.824  36.702  1.00  0.00    -0.237 OA
ATOM     68  O   UNL A   1      48.407  26.830  38.004  1.00  0.00    -0.237 OA
ATOM     69  O   UNL A   1      46.744  25.244  38.899  1.00  0.00    -0.744 OA
ENDBRANCH  65  66
ENDBRANCH  44  58
BRANCH  45  70
ATOM     70  C   UNL A   1      36.768  33.096  30.882  1.00  0.00     0.058 A 
ATOM     71  C   UNL A   1      37.008  34.035  29.868  1.00  0.00     0.135 A 
ATOM     72  C   UNL A   1      35.433  32.839  31.230  1.00  0.00     0.135 A 
ATOM     73  F   UNL A   1      38.267  34.320  29.503  1.00  0.00    -0.206 F 
ATOM     74  C   UNL A   1      35.967  34.710  29.237  1.00  0.00     0.059 A 
ATOM     75  C   UNL A   1      34.374  33.481  30.596  1.00  0.00     0.059 A 
ATOM     76  F   UNL A   1      35.148  31.935  32.181  1.00  0.00    -0.206 F 
ATOM     77  C   UNL A   1      34.652  34.424  29.608  1.00  0.00     0.060 A 
BRANCH  77  78
ATOM     78  S   UNL A   1      33.306  35.272  28.752  1.00  0.00     0.124 S 
ATOM     79  O   UNL A   1      32.750  34.196  27.941  1.00  0.00    -0.237 OA
ATOM     80  O   UNL A   1      32.476  35.731  29.862  1.00  0.00    -0.237 OA
ATOM     81  O   UNL A   1      33.992  36.330  28.016  1.00  0.00    -0.744 OA
ENDBRANCH  77  78
ENDBRANCH  45  70
BRANCH  57  82
ATOM     82  C   UNL A   1      39.885  33.830  37.077  1.00  0.00     0.058 A 
ATOM     83  C   UNL A   1      40.555  35.063  37.113  1.00  0.00     0.135 A 
ATOM     84  C   UNL A   1      38.975  33.546  38.108  1.00  0.00     0.135 A 
ATOM     85  F   UNL A   1      41.440  35.380  36.155  1.00  0.00    -0.206 F 
ATOM     86  C   UNL A   1      40.346  35.972  38.145  1.00  0.00     0.059 A 
ATOM     87  C   UNL A   1      38.730  34.452  39.135  1.00  0.00     0.059 A 
ATOM     88  F   UNL A   1      38.301  32.386  38.114  1.00  0.00    -0.206 F 
ATOM     89  C   UNL A   1      39.431  35.658  39.152  1.00  0.00     0.060 A 
BRANCH  89  90
ATOM     90  S   UNL A   1      39.143  36.859  40.468  1.00  0.00     0.124 S 
ATOM     91  O   UNL A   1      38.342  36.080  41.406  1.00  0.00    -0.237 OA
ATOM     92  O   UNL A   1      40.499  37.176  40.905  1.00  0.00    -0.237 OA
ATOM     93  O   UNL A   1      38.440  37.943  39.791  1.00  0.00    -0.744 OA
ENDBRANCH  89  90
ENDBRANCH  57  82
ENDBRANCH  31  32
ENDBRANCH  23  26
ENDBRANCH  21  22
ENDBRANCH   1  21
TORSDOF 15
ENDMDL
MODEL 2
REMARK VINA RESULT:     -11.6      6.563     12.148
REMARK SMILES C[C@@H]1SCCC[C@@]1(CC(=O)NCCCNC(=O)c1ccc(-c2c3nc(c(-c4c(F)cc(S(=O)(=O)[O-])cc4F)c4ccc([nH]4)c(-c4c(F)cc(S(=O)(=O)[O-])cc4F)c4nc(c(-c5c(F)cc(S(=O)(=O)[O-])cc5F)c5ccc2[nH]5)C=C4)C=C3)cc1)[NH+]1CCCC1
REMARK SMILES IDX 13 1 12 2 11 3 9 4 10 5 8 7 7 8 1 9 2 10 3 11 4 12 6 13 5 14
REMARK SMILES IDX 84 15 85 16 88 17 86 19 87 20 14 21 15 22 16 23 17 25 18 26
REMARK SMILES IDX 19 27 83 28 20 29 82 30 21 31 22 32 23 33 76 34 24 35 81 36
REMARK SMILES IDX 75 37 77 38 25 39 80 40 74 41 73 42 26 44 60 45 39 46 59 47
REMARK SMILES IDX 40 48 43 49 58 50 78 51 41 52 42 53 57 55 79 56 44 57 27 58
REMARK SMILES IDX 28 59 37 60 29 61 30 62 36 63 38 64 31 65 32 66 33 67 34 68
REMARK SMILES IDX 35 69 61 70 62 71 71 72 63 73 64 74 70 75 72 76 65 77 66 78
REMARK SMILES IDX 67 79 68 80 69 81 45 82 46 83 55 84 47 85 48 86 54 87 56 88
REMARK SMILES IDX 49 89 50 90 51 91 52 92 53 93
REMARK H PARENT 11 6 84 18 15 24 77 43 43 54
REMARK Flexibility Score: inf
ROOT
ATOM      1  C   UNL A   1      34.165  31.516  27.896  1.00  0.00     0.042 C 
ENDROOT
BRANCH   1   2
ATOM      2  C   UNL A   1      33.845  30.316  27.017  1.00  0.00     0.117 C 
BRANCH   2   3
ATOM      3  N   UNL A   1      32.617  29.653  27.389  1.00  0.00    -0.356 N 
ATOM      4  C   UNL A   1      32.316  28.330  27.358  1.00  0.00     0.226 C 
ATOM      5  O   UNL A   1      31.363  27.966  28.056  1.00  0.00    -0.275 OA
ATOM      6  H   UNL A   1      31.896  30.243  27.709  1.00  0.00     0.163 HD
BRANCH   4   7
ATOM      7  C   UNL A   1      33.131  27.300  26.573  1.00  0.00     0.169 C 
BRANCH   7   8
ATOM      8  C   UNL A   1      32.607  26.764  25.167  1.00  0.00     0.118 C 
ATOM      9  C   UNL A   1      34.291  24.719  25.457  1.00  0.00     0.026 C 
ATOM     10  C   UNL A   1      32.855  25.179  25.099  1.00  0.00     0.105 C 
ATOM     11  S   UNL A   1      32.561  24.386  23.461  1.00  0.00    -0.152 SA
ATOM     12  C   UNL A   1      33.616  25.434  22.431  1.00  0.00     0.070 C 
ATOM     13  C   UNL A   1      33.503  27.430  24.053  1.00  0.00     0.071 C 
ATOM     14  C   UNL A   1      33.339  26.918  22.618  1.00  0.00     0.017 C 
BRANCH   8  15
ATOM     15  N   UNL A   1      31.185  27.237  25.019  1.00  0.00    -0.329 N 
ATOM     16  C   UNL A   1      30.051  26.311  24.949  1.00  0.00     0.262 C 
ATOM     17  C   UNL A   1      30.903  28.346  24.087  1.00  0.00     0.262 C 
ATOM     18  H   UNL A   1      31.218  27.560  25.986  1.00  0.00     0.348 HD
ATOM     19  C   UNL A   1      29.277  26.676  23.692  1.00  0.00     0.067 C 
ATOM     20  C   UNL A   1      29.479  28.162  23.590  1.00  0.00     0.067 C 
ENDBRANCH   8  15
ENDBRANCH   7   8
ENDBRANCH   4   7
ENDBRANCH   2   3
ENDBRANCH   1   2
BRANCH   1  21
ATOM     21  C   UNL A   1      35.545  31.465  28.535  1.00  0.00     0.118 C 
BRANCH  21  22
ATOM     22  N   UNL A   1      35.473  31.276  29.978  1.00  0.00    -0.352 N 
ATOM     23  C   UNL A   1      36.330  30.633  30.838  1.00  0.00     0.251 C 
ATOM     24  H   UNL A   1      34.682  31.675  30.407  1.00  0.00     0.163 HD
ATOM     25  O   UNL A   1      35.957  30.408  31.987  1.00  0.00    -0.269 OA
BRANCH  23  26
ATOM     26  C   UNL A   1      37.679  30.200  30.401  1.00  0.00     0.039 A 
ATOM     27  C   UNL A   1      37.959  30.158  29.031  1.00  0.00     0.014 A 
ATOM     28  C   UNL A   1      38.649  29.783  31.316  1.00  0.00     0.014 A 
ATOM     29  C   UNL A   1      39.220  29.750  28.586  1.00  0.00     0.010 A 
ATOM     30  C   UNL A   1      39.930  29.456  30.877  1.00  0.00     0.010 A 
ATOM     31  C   UNL A   1      40.226  29.422  29.507  1.00  0.00    -0.014 A 
BRANCH  31  32
ATOM     32  C   UNL A   1      41.588  29.030  29.058  1.00  0.00     0.031 A 
ATOM     33  C   UNL A   1      42.686  30.058  28.987  1.00  0.00     0.074 A 
ATOM     34  C   UNL A   1      41.818  27.764  28.657  1.00  0.00     0.049 A 
ATOM     35  N   UNL A   1      43.912  29.930  28.548  1.00  0.00    -0.248 NA
ATOM     36  C   UNL A   1      42.356  31.418  29.443  1.00  0.00     0.031 C 
ATOM     37  C   UNL A   1      40.822  26.690  28.630  1.00  0.00     0.029 A 
ATOM     38  N   UNL A   1      42.958  27.167  28.179  1.00  0.00    -0.354 N 
ATOM     39  C   UNL A   1      44.489  31.189  28.655  1.00  0.00     0.074 A 
ATOM     40  C   UNL A   1      43.466  32.081  29.157  1.00  0.00     0.031 C 
ATOM     41  C   UNL A   1      41.398  25.564  28.180  1.00  0.00     0.029 A 
ATOM     42  C   UNL A   1      42.792  25.842  27.850  1.00  0.00     0.049 A 
ATOM     43  H   UNL A   1      43.814  27.643  28.082  1.00  0.00     0.167 HD
ATOM     44  C   UNL A   1      45.762  31.565  28.382  1.00  0.00     0.037 A 
ATOM     45  C   UNL A   1      43.661  24.954  27.330  1.00  0.00     0.037 A 
ATOM     46  C   UNL A   1      46.784  30.663  27.917  1.00  0.00     0.049 A 
ATOM     47  C   UNL A   1      45.074  25.391  27.050  1.00  0.00     0.074 A 
ATOM     48  C   UNL A   1      48.120  30.930  27.674  1.00  0.00     0.029 A 
ATOM     49  N   UNL A   1      46.585  29.321  27.626  1.00  0.00    -0.354 N 
ATOM     50  N   UNL A   1      45.618  26.573  27.218  1.00  0.00    -0.248 NA
ATOM     51  C   UNL A   1      45.991  24.375  26.516  1.00  0.00     0.031 C 
ATOM     52  C   UNL A   1      48.720  29.758  27.200  1.00  0.00     0.029 A 
ATOM     53  C   UNL A   1      47.769  28.750  27.191  1.00  0.00     0.049 A 
ATOM     54  H   UNL A   1      45.727  28.846  27.717  1.00  0.00     0.167 HD
ATOM     55  C   UNL A   1      46.947  26.435  26.834  1.00  0.00     0.074 A 
ATOM     56  C   UNL A   1      47.127  25.054  26.439  1.00  0.00     0.031 C 
ATOM     57  C   UNL A   1      47.931  27.370  26.810  1.00  0.00     0.037 A 
BRANCH  44  58
ATOM     58  C   UNL A   1      46.128  33.010  28.588  1.00  0.00     0.058 A 
ATOM     59  C   UNL A   1      46.736  33.454  29.773  1.00  0.00     0.135 A 
ATOM     60  C   UNL A   1      45.910  33.954  27.572  1.00  0.00     0.135 A 
ATOM     61  F   UNL A   1      46.954  32.597  30.784  1.00  0.00    -0.206 F 
ATOM     62  C   UNL A   1      47.095  34.786  29.954  1.00  0.00     0.059 A 
ATOM     63  C   UNL A   1      46.285  35.288  27.720  1.00  0.00     0.059 A 
ATOM     64  F   UNL A   1      45.332  33.586  26.418  1.00  0.00    -0.206 F 
ATOM     65  C   UNL A   1      46.866  35.696  28.920  1.00  0.00     0.060 A 
BRANCH  65  66
ATOM     66  S   UNL A   1      47.352  37.417  29.164  1.00  0.00     0.124 S 
ATOM     67  O   UNL A   1      48.219  37.641  28.011  1.00  0.00    -0.237 OA
ATOM     68  O   UNL A   1      46.069  38.111  29.136  1.00  0.00    -0.237 OA
ATOM     69  O   UNL A   1      48.025  37.401  30.460  1.00  0.00    -0.744 OA
ENDBRANCH  65  66
ENDBRANCH  44  58
BRANCH  45  70
ATOM     70  C   UNL A   1      43.225  23.558  27.057  1.00  0.00     0.058 A 
ATOM     71  C   UNL A   1      42.980  23.122  25.746  1.00  0.00     0.135 A 
ATOM     72  C   UNL A   1      43.054  22.630  28.095  1.00  0.00     0.135 A 
ATOM     73  F   UNL A   1      43.124  23.973  24.719  1.00  0.00    -0.206 F 
ATOM     74  C   UNL A   1      42.561  21.823  25.475  1.00  0.00     0.059 A 
ATOM     75  C   UNL A   1      42.662  21.319  27.848  1.00  0.00     0.059 A 
ATOM     76  F   UNL A   1      43.294  22.992  29.365  1.00  0.00    -0.206 F 
ATOM     77  C   UNL A   1      42.406  20.928  26.535  1.00  0.00     0.060 A 
BRANCH  77  78
ATOM     78  S   UNL A   1      41.905  19.231  26.169  1.00  0.00     0.124 S 
ATOM     79  O   UNL A   1      42.738  18.922  25.014  1.00  0.00    -0.237 OA
ATOM     80  O   UNL A   1      42.244  18.536  27.408  1.00  0.00    -0.237 OA
ATOM     81  O   UNL A   1      40.475  19.355  25.903  1.00  0.00    -0.744 OA
ENDBRANCH  77  78
ENDBRANCH  45  70
BRANCH  57  82
ATOM     82  C   UNL A   1      49.296  26.922  26.372  1.00  0.00     0.058 A 
ATOM     83  C   UNL A   1      50.181  26.285  27.256  1.00  0.00     0.135 A 
ATOM     84  C   UNL A   1      49.704  27.087  25.039  1.00  0.00     0.135 A 
ATOM     85  F   UNL A   1      49.842  26.109  28.542  1.00  0.00    -0.206 F 
ATOM     86  C   UNL A   1      51.433  25.847  26.838  1.00  0.00     0.059 A 
ATOM     87  C   UNL A   1      50.940  26.632  24.593  1.00  0.00     0.059 A 
ATOM     88  F   UNL A   1      48.890  27.680  24.151  1.00  0.00    -0.206 F 
ATOM     89  C   UNL A   1      51.804  26.025  25.503  1.00  0.00     0.060 A 
BRANCH  89  90
ATOM     90  S   UNL A   1      53.418  25.421  24.964  1.00  0.00     0.124 S 
ATOM     91  O   UNL A   1      53.359  24.022  25.374  1.00  0.00    -0.237 OA
ATOM     92  O   UNL A   1      53.377  25.662  23.525  1.00  0.00    -0.237 OA
ATOM     93  O   UNL A   1      54.358  26.255  25.706  1.00  0.00    -0.744 OA
ENDBRANCH  89  90
ENDBRANCH  57  82
ENDBRANCH  31  32
ENDBRANCH  23  26
ENDBRANCH  21  22
ENDBRANCH   1  21
TORSDOF 15
ENDMDL
MODEL 3
REMARK VINA RESULT:     -11.5      0.695      1.999
REMARK SMILES C[C@@H]1SCCC[C@@]1(CC(=O)NCCCNC(=O)c1ccc(-c2c3nc(c(-c4c(F)cc(S(=O)(=O)[O-])cc4F)c4ccc([nH]4)c(-c4c(F)cc(S(=O)(=O)[O-])cc4F)c4nc(c(-c5c(F)cc(S(=O)(=O)[O-])cc5F)c5ccc2[nH]5)C=C4)C=C3)cc1)[NH+]1CCCC1
REMARK SMILES IDX 13 1 12 2 11 3 9 4 10 5 8 7 7 8 1 9 2 10 3 11 4 12 6 13 5 14
REMARK SMILES IDX 84 15 85 16 88 17 86 19 87 20 14 21 15 22 16 23 17 25 18 26
REMARK SMILES IDX 19 27 83 28 20 29 82 30 21 31 22 32 23 33 76 34 24 35 81 36
REMARK SMILES IDX 75 37 77 38 25 39 80 40 74 41 73 42 26 44 60 45 39 46 59 47
REMARK SMILES IDX 40 48 43 49 58 50 78 51 41 52 42 53 57 55 79 56 44 57 27 58
REMARK SMILES IDX 28 59 37 60 29 61 30 62 36 63 38 64 31 65 32 66 33 67 34 68
REMARK SMILES IDX 35 69 61 70 62 71 71 72 63 73 64 74 70 75 72 76 65 77 66 78
REMARK SMILES IDX 67 79 68 80 69 81 45 82 46 83 55 84 47 85 48 86 54 87 56 88
REMARK SMILES IDX 49 89 50 90 51 91 52 92 53 93
REMARK H PARENT 11 6 84 18 15 24 77 43 43 54
REMARK Flexibility Score: inf
ROOT
ATOM      1  C   UNL A   1      39.245  22.164  26.500  1.00  0.00     0.042 C 
ENDROOT
BRANCH   1   2
ATOM      2  C   UNL A   1      37.982  22.881  26.046  1.00  0.00     0.117 C 
BRANCH   2   3
ATOM      3  N   UNL A   1      37.789  22.837  24.615  1.00  0.00    -0.356 N 
ATOM      4  C   UNL A   1      36.658  22.570  23.913  1.00  0.00     0.226 C 
ATOM      5  O   UNL A   1      36.640  22.948  22.736  1.00  0.00    -0.275 OA
ATOM      6  H   UNL A   1      38.588  23.029  24.072  1.00  0.00     0.163 HD
BRANCH   4   7
ATOM      7  C   UNL A   1      35.425  21.905  24.526  1.00  0.00     0.169 C 
BRANCH   7   8
ATOM      8  C   UNL A   1      34.065  22.721  24.681  1.00  0.00     0.118 C 
ATOM      9  C   UNL A   1      34.090  22.039  27.256  1.00  0.00     0.026 C 
ATOM     10  C   UNL A   1      33.909  23.171  26.214  1.00  0.00     0.105 C 
ATOM     11  S   UNL A   1      32.284  23.908  26.677  1.00  0.00    -0.152 SA
ATOM     12  C   UNL A   1      31.186  22.598  26.083  1.00  0.00     0.070 C 
ATOM     13  C   UNL A   1      32.886  21.724  24.359  1.00  0.00     0.071 C 
ATOM     14  C   UNL A   1      31.460  22.207  24.638  1.00  0.00     0.017 C 
BRANCH   8  15
ATOM     15  N   UNL A   1      34.093  23.818  23.649  1.00  0.00    -0.329 N 
ATOM     16  C   UNL A   1      34.044  25.238  24.008  1.00  0.00     0.262 C 
ATOM     17  C   UNL A   1      33.295  23.649  22.418  1.00  0.00     0.262 C 
ATOM     18  H   UNL A   1      35.078  23.608  23.488  1.00  0.00     0.348 HD
ATOM     19  C   UNL A   1      32.901  25.843  23.208  1.00  0.00     0.067 C 
ATOM     20  C   UNL A   1      32.917  25.040  21.937  1.00  0.00     0.067 C 
ENDBRANCH   8  15
ENDBRANCH   7   8
ENDBRANCH   4   7
ENDBRANCH   2   3
ENDBRANCH   1   2
BRANCH   1  21
ATOM     21  C   UNL A   1      40.281  23.079  27.136  1.00  0.00     0.118 C 
BRANCH  21  22
ATOM     22  N   UNL A   1      41.152  23.696  26.143  1.00  0.00    -0.352 N 
ATOM     23  C   UNL A   1      41.600  24.989  26.030  1.00  0.00     0.251 C 
ATOM     24  H   UNL A   1      41.470  23.086  25.439  1.00  0.00     0.163 HD
ATOM     25  O   UNL A   1      42.149  25.336  24.987  1.00  0.00    -0.269 OA
BRANCH  23  26
ATOM     26  C   UNL A   1      41.422  25.966  27.132  1.00  0.00     0.039 A 
ATOM     27  C   UNL A   1      40.399  25.751  28.060  1.00  0.00     0.014 A 
ATOM     28  C   UNL A   1      42.211  27.115  27.228  1.00  0.00     0.014 A 
ATOM     29  C   UNL A   1      40.202  26.655  29.107  1.00  0.00     0.010 A 
ATOM     30  C   UNL A   1      42.069  27.972  28.318  1.00  0.00     0.010 A 
ATOM     31  C   UNL A   1      41.054  27.759  29.262  1.00  0.00    -0.014 A 
BRANCH  31  32
ATOM     32  C   UNL A   1      40.892  28.709  30.395  1.00  0.00     0.031 A 
ATOM     33  C   UNL A   1      41.750  28.572  31.625  1.00  0.00     0.074 A 
ATOM     34  C   UNL A   1      39.932  29.653  30.339  1.00  0.00     0.049 A 
ATOM     35  N   UNL A   1      41.706  29.249  32.743  1.00  0.00    -0.248 NA
ATOM     36  C   UNL A   1      42.776  27.516  31.606  1.00  0.00     0.031 C 
ATOM     37  C   UNL A   1      39.004  29.853  29.224  1.00  0.00     0.029 A 
ATOM     38  N   UNL A   1      39.566  30.615  31.249  1.00  0.00    -0.354 N 
ATOM     39  C   UNL A   1      42.678  28.691  33.565  1.00  0.00     0.074 A 
ATOM     40  C   UNL A   1      43.265  27.588  32.835  1.00  0.00     0.031 C 
ATOM     41  C   UNL A   1      38.189  30.882  29.506  1.00  0.00     0.029 A 
ATOM     42  C   UNL A   1      38.509  31.393  30.835  1.00  0.00     0.049 A 
ATOM     43  H   UNL A   1      40.018  30.736  32.115  1.00  0.00     0.167 HD
ATOM     44  C   UNL A   1      43.062  29.076  34.806  1.00  0.00     0.037 A 
ATOM     45  C   UNL A   1      37.864  32.396  31.461  1.00  0.00     0.037 A 
ATOM     46  C   UNL A   1      42.496  30.197  35.511  1.00  0.00     0.049 A 
ATOM     47  C   UNL A   1      38.320  32.815  32.833  1.00  0.00     0.074 A 
ATOM     48  C   UNL A   1      42.860  30.710  36.744  1.00  0.00     0.029 A 
ATOM     49  N   UNL A   1      41.450  30.980  35.045  1.00  0.00    -0.354 N 
ATOM     50  N   UNL A   1      39.284  32.315  33.569  1.00  0.00    -0.248 NA
ATOM     51  C   UNL A   1      37.606  33.938  33.456  1.00  0.00     0.031 C 
ATOM     52  C   UNL A   1      42.008  31.779  37.040  1.00  0.00     0.029 A 
ATOM     53  C   UNL A   1      41.144  31.961  35.973  1.00  0.00     0.049 A 
ATOM     54  H   UNL A   1      40.994  30.856  34.182  1.00  0.00     0.167 HD
ATOM     55  C   UNL A   1      39.308  33.077  34.731  1.00  0.00     0.074 A 
ATOM     56  C   UNL A   1      38.272  34.080  34.594  1.00  0.00     0.031 C 
ATOM     57  C   UNL A   1      40.114  32.957  35.815  1.00  0.00     0.037 A 
BRANCH  44  58
ATOM     58  C   UNL A   1      44.151  28.287  35.480  1.00  0.00     0.058 A 
ATOM     59  C   UNL A   1      43.862  27.203  36.324  1.00  0.00     0.135 A 
ATOM     60  C   UNL A   1      45.503  28.588  35.244  1.00  0.00     0.135 A 
ATOM     61  F   UNL A   1      42.587  26.880  36.598  1.00  0.00    -0.206 F 
ATOM     62  C   UNL A   1      44.871  26.460  36.929  1.00  0.00     0.059 A 
ATOM     63  C   UNL A   1      46.530  27.842  35.817  1.00  0.00     0.059 A 
ATOM     64  F   UNL A   1      45.838  29.614  34.446  1.00  0.00    -0.206 F 
ATOM     65  C   UNL A   1      46.203  26.787  36.668  1.00  0.00     0.060 A 
BRANCH  65  66
ATOM     66  S   UNL A   1      47.500  25.802  37.448  1.00  0.00     0.124 S 
ATOM     67  O   UNL A   1      46.714  24.869  38.249  1.00  0.00    -0.237 OA
ATOM     68  O   UNL A   1      48.188  25.226  36.298  1.00  0.00    -0.237 OA
ATOM     69  O   UNL A   1      48.266  26.787  38.205  1.00  0.00    -0.744 OA
ENDBRANCH  65  66
ENDBRANCH  44  58
BRANCH  45  70
ATOM     70  C   UNL A   1      36.730  33.085  30.789  1.00  0.00     0.058 A 
ATOM     71  C   UNL A   1      35.407  32.861  31.196  1.00  0.00     0.135 A 
ATOM     72  C   UNL A   1      36.945  33.987  29.736  1.00  0.00     0.135 A 
ATOM     73  F   UNL A   1      35.149  32.003  32.194  1.00  0.00    -0.206 F 
ATOM     74  C   UNL A   1      34.334  33.489  30.570  1.00  0.00     0.059 A 
ATOM     75  C   UNL A   1      35.892  34.648  29.111  1.00  0.00     0.059 A 
ATOM     76  F   UNL A   1      38.194  34.251  29.321  1.00  0.00    -0.206 F 
ATOM     77  C   UNL A   1      34.589  34.383  29.528  1.00  0.00     0.060 A 
BRANCH  77  78
ATOM     78  S   UNL A   1      33.193  35.228  28.751  1.00  0.00     0.124 S 
ATOM     79  O   UNL A   1      32.454  35.703  29.914  1.00  0.00    -0.237 OA
ATOM     80  O   UNL A   1      33.860  36.253  27.954  1.00  0.00    -0.237 OA
ATOM     81  O   UNL A   1      32.548  34.169  27.980  1.00  0.00    -0.744 OA
ENDBRANCH  77  78
ENDBRANCH  45  70
BRANCH  57  82
ATOM     82  C   UNL A   1      39.931  33.954  36.925  1.00  0.00     0.058 A 
ATOM     83  C   UNL A   1      40.548  35.214  36.892  1.00  0.00     0.135 A 
ATOM     84  C   UNL A   1      39.086  33.662  38.008  1.00  0.00     0.135 A 
ATOM     85  F   UNL A   1      41.369  35.539  35.882  1.00  0.00    -0.206 F 
ATOM     86  C   UNL A   1      40.351  36.144  37.908  1.00  0.00     0.059 A 
ATOM     87  C   UNL A   1      38.854  34.588  39.021  1.00  0.00     0.059 A 
ATOM     88  F   UNL A   1      38.464  32.476  38.080  1.00  0.00    -0.206 F 
ATOM     89  C   UNL A   1      39.502  35.821  38.969  1.00  0.00     0.060 A 
BRANCH  89  90
ATOM     90  S   UNL A   1      39.228  37.049  40.264  1.00  0.00     0.124 S 
ATOM     91  O   UNL A   1      38.514  38.090  39.534  1.00  0.00    -0.237 OA
ATOM     92  O   UNL A   1      38.438  36.303  41.239  1.00  0.00    -0.237 OA
ATOM     93  O   UNL A   1      40.579  37.395  40.695  1.00  0.00    -0.744 OA
ENDBRANCH  89  90
ENDBRANCH  57  82
ENDBRANCH  31  32
ENDBRANCH  23  26
ENDBRANCH  21  22
ENDBRANCH   1  21
TORSDOF 15
ENDMDL
