MODEL 1
REMARK VINA RESULT:     -12.9      0.000      0.000
REMARK SMILES Cc1nn(Cc2ccc(Cl)cc2Cl)c(C)c1NC(=O)c1c(C(=O)NCCCNC(=O)c2ccc(-c3c4nc(c(-c5c(F)cc(S(=O)(=O)[O-])cc5F)c5ccc([nH]5)c(-c5c(F)cc(S(=O)(=O)[O-])cc5F)c5nc(c(-c6c(F)cc(S(=O)(=O)[O-])cc6F)c6ccc3[nH]6)C=C5)C=C4)cc2)cnn1C
REMARK SMILES IDX 25 1 24 2 22 3 23 4 21 6 20 7 99 8 97 9 98 10 100 11 18 12
REMARK SMILES IDX 17 13 19 15 16 16 1 17 2 18 3 19 4 20 14 21 15 22 5 23 6 24
REMARK SMILES IDX 7 25 12 26 8 27 11 28 13 29 9 30 10 31 26 32 27 33 28 34
REMARK SMILES IDX 29 35 30 37 31 38 32 39 96 40 33 41 95 42 34 43 35 44 36 45
REMARK SMILES IDX 89 46 37 47 94 48 88 49 90 50 38 51 93 52 87 53 86 54 39 56
REMARK SMILES IDX 73 57 52 58 72 59 53 60 56 61 71 62 91 63 54 64 55 65 70 67
REMARK SMILES IDX 92 68 57 69 40 70 41 71 50 72 42 73 43 74 49 75 51 76 44 77
REMARK SMILES IDX 45 78 46 79 47 80 48 81 74 82 75 83 84 84 76 85 77 86 83 87
REMARK SMILES IDX 85 88 78 89 79 90 80 91 81 92 82 93 58 94 59 95 68 96 60 97
REMARK SMILES IDX 61 98 67 99 69 100 62 101 63 102 64 103 65 104 66 105
REMARK H PARENT 24 5 17 14 28 36 90 55 56 66
REMARK Flexibility Score: inf
ROOT
ATOM      1  C   UNL A   1      37.392  22.746  25.207  1.00  0.00     0.118 C 
ENDROOT
BRANCH   1   2
ATOM      2  N   UNL A   1      36.252  23.031  26.075  1.00  0.00    -0.352 N 
ATOM      3  C   UNL A   1      35.113  22.324  26.403  1.00  0.00     0.255 C 
ATOM      4  O   UNL A   1      34.508  22.694  27.410  1.00  0.00    -0.269 OA
ATOM      5  H   UNL A   1      36.310  23.908  26.518  1.00  0.00     0.163 HD
BRANCH   3   6
ATOM      6  C   UNL A   1      34.610  21.229  25.585  1.00  0.00     0.090 A 
ATOM      7  C   UNL A   1      33.296  21.089  25.112  1.00  0.00     0.138 A 
ATOM      8  N   UNL A   1      33.297  19.939  24.357  1.00  0.00    -0.262 N 
ATOM      9  C   UNL A   1      35.241  20.044  25.140  1.00  0.00     0.149 A 
ATOM     10  N   UNL A   1      34.474  19.293  24.354  1.00  0.00    -0.180 NA
ATOM     11  C   UNL A   1      32.256  19.437  23.489  1.00  0.00     0.174 C 
BRANCH   7  12
ATOM     12  C   UNL A   1      32.083  21.845  25.346  1.00  0.00     0.274 C 
ATOM     13  N   UNL A   1      31.932  23.163  24.990  1.00  0.00    -0.317 N 
ATOM     14  H   UNL A   1      31.098  23.569  25.320  1.00  0.00     0.170 HD
ATOM     15  O   UNL A   1      31.111  21.304  25.882  1.00  0.00    -0.267 OA
BRANCH  13  16
ATOM     16  C   UNL A   1      32.722  24.026  24.262  1.00  0.00     0.085 A 
ATOM     17  C   UNL A   1      32.931  22.641  22.040  1.00  0.00     0.071 C 
ATOM     18  C   UNL A   1      33.117  23.836  22.904  1.00  0.00     0.083 A 
ATOM     19  N   UNL A   1      33.713  24.929  22.413  1.00  0.00    -0.175 NA
ATOM     20  N   UNL A   1      33.742  25.775  23.457  1.00  0.00    -0.263 N 
ATOM     21  C   UNL A   1      33.386  25.174  24.642  1.00  0.00     0.060 A 
ATOM     22  C   UNL A   1      33.761  25.744  25.954  1.00  0.00     0.069 C 
BRANCH  20  23
ATOM     23  C   UNL A   1      33.873  27.206  23.206  1.00  0.00     0.181 C 
BRANCH  23  24
ATOM     24  C   UNL A   1      32.580  27.962  23.337  1.00  0.00    -0.008 A 
ATOM     25  C   UNL A   1      31.554  27.676  22.417  1.00  0.00     0.009 A 
ATOM     26  C   UNL A   1      32.331  28.921  24.333  1.00  0.00     0.047 A 
ATOM     27  C   UNL A   1      30.332  28.346  22.476  1.00  0.00     0.021 A 
ATOM     28  C   UNL A   1      31.118  29.610  24.375  1.00  0.00     0.041 A 
ATOM     29  Cl  UNL A   1      33.457  29.294  25.590  1.00  0.00    -0.084 Cl
ATOM     30  C   UNL A   1      30.126  29.320  23.446  1.00  0.00     0.042 A 
ATOM     31  Cl  UNL A   1      28.635  30.174  23.511  1.00  0.00    -0.084 Cl
ENDBRANCH  23  24
ENDBRANCH  20  23
ENDBRANCH  13  16
ENDBRANCH   7  12
ENDBRANCH   3   6
ENDBRANCH   1   2
BRANCH   1  32
ATOM     32  C   UNL A   1      38.394  21.705  25.710  1.00  0.00     0.042 C 
BRANCH  32  33
ATOM     33  C   UNL A   1      39.554  22.274  26.500  1.00  0.00     0.118 C 
BRANCH  33  34
ATOM     34  N   UNL A   1      40.856  21.913  25.943  1.00  0.00    -0.352 N 
ATOM     35  C   UNL A   1      41.905  22.759  25.641  1.00  0.00     0.251 C 
ATOM     36  H   UNL A   1      41.003  20.957  25.762  1.00  0.00     0.163 HD
ATOM     37  O   UNL A   1      42.783  22.399  24.855  1.00  0.00    -0.269 OA
BRANCH  35  38
ATOM     38  C   UNL A   1      41.959  24.094  26.265  1.00  0.00     0.039 A 
ATOM     39  C   UNL A   1      41.377  25.212  25.659  1.00  0.00     0.014 A 
ATOM     40  C   UNL A   1      42.607  24.217  27.491  1.00  0.00     0.014 A 
ATOM     41  C   UNL A   1      41.409  26.431  26.331  1.00  0.00     0.010 A 
ATOM     42  C   UNL A   1      42.476  25.362  28.229  1.00  0.00     0.010 A 
ATOM     43  C   UNL A   1      41.950  26.493  27.626  1.00  0.00    -0.014 A 
BRANCH  43  44
ATOM     44  C   UNL A   1      41.872  27.713  28.419  1.00  0.00     0.031 A 
ATOM     45  C   UNL A   1      42.993  28.656  28.176  1.00  0.00     0.074 A 
ATOM     46  C   UNL A   1      40.779  28.059  29.136  1.00  0.00     0.049 A 
ATOM     47  N   UNL A   1      43.951  28.951  28.989  1.00  0.00    -0.248 NA
ATOM     48  C   UNL A   1      43.183  29.193  26.816  1.00  0.00     0.031 C 
ATOM     49  C   UNL A   1      39.489  27.364  29.224  1.00  0.00     0.029 A 
ATOM     50  N   UNL A   1      40.546  29.188  29.858  1.00  0.00    -0.354 N 
ATOM     51  C   UNL A   1      44.706  29.921  28.342  1.00  0.00     0.074 A 
ATOM     52  C   UNL A   1      44.334  29.856  26.953  1.00  0.00     0.031 C 
ATOM     53  C   UNL A   1      38.555  28.199  29.730  1.00  0.00     0.029 A 
ATOM     54  C   UNL A   1      39.206  29.425  30.151  1.00  0.00     0.049 A 
ATOM     55  H   UNL A   1      41.268  29.790  30.150  1.00  0.00     0.167 HD
ATOM     56  C   UNL A   1      45.355  30.885  29.052  1.00  0.00     0.037 A 
ATOM     57  C   UNL A   1      38.671  30.563  30.668  1.00  0.00     0.037 A 
ATOM     58  C   UNL A   1      45.461  30.521  30.446  1.00  0.00     0.049 A 
ATOM     59  C   UNL A   1      39.787  31.292  31.334  1.00  0.00     0.074 A 
ATOM     60  C   UNL A   1      45.950  29.413  31.116  1.00  0.00     0.029 A 
ATOM     61  N   UNL A   1      44.641  31.161  31.346  1.00  0.00    -0.354 N 
ATOM     62  N   UNL A   1      40.404  30.846  32.397  1.00  0.00    -0.248 NA
ATOM     63  C   UNL A   1      40.543  32.244  30.533  1.00  0.00     0.031 C 
ATOM     64  C   UNL A   1      45.005  29.167  32.155  1.00  0.00     0.029 A 
ATOM     65  C   UNL A   1      44.059  30.192  32.125  1.00  0.00     0.049 A 
ATOM     66  H   UNL A   1      44.497  32.133  31.417  1.00  0.00     0.167 HD
ATOM     67  C   UNL A   1      41.748  31.094  32.157  1.00  0.00     0.074 A 
ATOM     68  C   UNL A   1      41.764  32.026  31.029  1.00  0.00     0.031 C 
ATOM     69  C   UNL A   1      42.728  30.300  32.684  1.00  0.00     0.037 A 
BRANCH  56  70
ATOM     70  C   UNL A   1      45.534  32.306  28.575  1.00  0.00     0.058 A 
ATOM     71  C   UNL A   1      46.812  32.895  28.631  1.00  0.00     0.135 A 
ATOM     72  C   UNL A   1      44.463  33.197  28.330  1.00  0.00     0.135 A 
ATOM     73  F   UNL A   1      47.899  32.145  28.875  1.00  0.00    -0.206 F 
ATOM     74  C   UNL A   1      47.006  34.272  28.523  1.00  0.00     0.059 A 
ATOM     75  C   UNL A   1      44.641  34.564  28.161  1.00  0.00     0.059 A 
ATOM     76  F   UNL A   1      43.183  32.807  28.342  1.00  0.00    -0.206 F 
ATOM     77  C   UNL A   1      45.909  35.099  28.299  1.00  0.00     0.060 A 
BRANCH  77  78
ATOM     78  S   UNL A   1      46.141  36.883  28.245  1.00  0.00     0.124 S 
ATOM     79  O   UNL A   1      46.109  37.134  26.809  1.00  0.00    -0.237 OA
ATOM     80  O   UNL A   1      44.989  37.358  29.006  1.00  0.00    -0.237 OA
ATOM     81  O   UNL A   1      47.435  37.071  28.893  1.00  0.00    -0.744 OA
ENDBRANCH  77  78
ENDBRANCH  56  70
BRANCH  57  82
ATOM     82  C   UNL A   1      37.368  31.205  30.323  1.00  0.00     0.058 A 
ATOM     83  C   UNL A   1      36.609  31.892  31.290  1.00  0.00     0.135 A 
ATOM     84  C   UNL A   1      36.967  31.397  28.984  1.00  0.00     0.135 A 
ATOM     85  F   UNL A   1      36.920  31.785  32.591  1.00  0.00    -0.206 F 
ATOM     86  C   UNL A   1      35.561  32.760  30.948  1.00  0.00     0.059 A 
ATOM     87  C   UNL A   1      35.920  32.244  28.620  1.00  0.00     0.059 A 
ATOM     88  F   UNL A   1      37.640  30.838  27.968  1.00  0.00    -0.206 F 
ATOM     89  C   UNL A   1      35.239  32.948  29.604  1.00  0.00     0.060 A 
BRANCH  89  90
ATOM     90  S   UNL A   1      34.023  34.203  29.136  1.00  0.00     0.124 S 
ATOM     91  O   UNL A   1      34.872  35.279  28.637  1.00  0.00    -0.237 OA
ATOM     92  O   UNL A   1      33.226  33.503  28.134  1.00  0.00    -0.237 OA
ATOM     93  O   UNL A   1      33.329  34.489  30.390  1.00  0.00    -0.744 OA
ENDBRANCH  89  90
ENDBRANCH  57  82
BRANCH  69  94
ATOM     94  C   UNL A   1      42.368  29.312  33.768  1.00  0.00     0.058 A 
ATOM     95  C   UNL A   1      41.740  28.071  33.555  1.00  0.00     0.135 A 
ATOM     96  C   UNL A   1      42.834  29.571  35.067  1.00  0.00     0.135 A 
ATOM     97  F   UNL A   1      41.365  27.688  32.327  1.00  0.00    -0.206 F 
ATOM     98  C   UNL A   1      41.538  27.158  34.593  1.00  0.00     0.059 A 
ATOM     99  C   UNL A   1      42.676  28.661  36.109  1.00  0.00     0.059 A 
ATOM    100  F   UNL A   1      43.500  30.708  35.329  1.00  0.00    -0.206 F 
ATOM    101  C   UNL A   1      42.010  27.463  35.870  1.00  0.00     0.060 A 
BRANCH 101 102
ATOM    102  S   UNL A   1      41.799  26.261  37.201  1.00  0.00     0.124 S 
ATOM    103  O   UNL A   1      41.940  24.993  36.494  1.00  0.00    -0.237 OA
ATOM    104  O   UNL A   1      42.886  26.603  38.114  1.00  0.00    -0.237 OA
ATOM    105  O   UNL A   1      40.459  26.546  37.709  1.00  0.00    -0.744 OA
ENDBRANCH 101 102
ENDBRANCH  69  94
ENDBRANCH  43  44
ENDBRANCH  35  38
ENDBRANCH  33  34
ENDBRANCH  32  33
ENDBRANCH   1  32
TORSDOF 17
ENDMDL
MODEL 2
REMARK VINA RESULT:     -12.9      3.073      9.151
REMARK SMILES Cc1nn(Cc2ccc(Cl)cc2Cl)c(C)c1NC(=O)c1c(C(=O)NCCCNC(=O)c2ccc(-c3c4nc(c(-c5c(F)cc(S(=O)(=O)[O-])cc5F)c5ccc([nH]5)c(-c5c(F)cc(S(=O)(=O)[O-])cc5F)c5nc(c(-c6c(F)cc(S(=O)(=O)[O-])cc6F)c6ccc3[nH]6)C=C5)C=C4)cc2)cnn1C
REMARK SMILES IDX 25 1 24 2 22 3 23 4 21 6 20 7 99 8 97 9 98 10 100 11 18 12
REMARK SMILES IDX 17 13 19 15 16 16 1 17 2 18 3 19 4 20 14 21 15 22 5 23 6 24
REMARK SMILES IDX 7 25 12 26 8 27 11 28 13 29 9 30 10 31 26 32 27 33 28 34
REMARK SMILES IDX 29 35 30 37 31 38 32 39 96 40 33 41 95 42 34 43 35 44 36 45
REMARK SMILES IDX 89 46 37 47 94 48 88 49 90 50 38 51 93 52 87 53 86 54 39 56
REMARK SMILES IDX 73 57 52 58 72 59 53 60 56 61 71 62 91 63 54 64 55 65 70 67
REMARK SMILES IDX 92 68 57 69 40 70 41 71 50 72 42 73 43 74 49 75 51 76 44 77
REMARK SMILES IDX 45 78 46 79 47 80 48 81 74 82 75 83 84 84 76 85 77 86 83 87
REMARK SMILES IDX 85 88 78 89 79 90 80 91 81 92 82 93 58 94 59 95 68 96 60 97
REMARK SMILES IDX 61 98 67 99 69 100 62 101 63 102 64 103 65 104 66 105
REMARK H PARENT 24 5 17 14 28 36 90 55 56 66
REMARK Flexibility Score: inf
ROOT
ATOM      1  C   UNL A   1      32.645  27.010  26.469  1.00  0.00     0.118 C 
ENDROOT
BRANCH   1   2
ATOM      2  N   UNL A   1      31.277  26.506  26.553  1.00  0.00    -0.352 N 
ATOM      3  C   UNL A   1      30.637  25.412  26.004  1.00  0.00     0.255 C 
ATOM      4  O   UNL A   1      29.572  25.081  26.525  1.00  0.00    -0.269 OA
ATOM      5  H   UNL A   1      30.692  27.058  27.119  1.00  0.00     0.163 HD
BRANCH   3   6
ATOM      6  C   UNL A   1      31.155  24.708  24.839  1.00  0.00     0.090 A 
ATOM      7  C   UNL A   1      31.282  23.316  24.705  1.00  0.00     0.138 A 
ATOM      8  N   UNL A   1      31.770  23.112  23.435  1.00  0.00    -0.262 N 
ATOM      9  C   UNL A   1      31.712  25.200  23.636  1.00  0.00     0.149 A 
ATOM     10  N   UNL A   1      32.032  24.246  22.765  1.00  0.00    -0.180 NA
ATOM     11  C   UNL A   1      31.904  21.864  22.718  1.00  0.00     0.174 C 
BRANCH   7  12
ATOM     12  C   UNL A   1      31.071  22.219  25.625  1.00  0.00     0.274 C 
ATOM     13  N   UNL A   1      32.050  21.319  25.969  1.00  0.00    -0.317 N 
ATOM     14  H   UNL A   1      31.723  20.565  26.510  1.00  0.00     0.170 HD
ATOM     15  O   UNL A   1      29.967  22.060  26.156  1.00  0.00    -0.267 OA
BRANCH  13  16
ATOM     16  C   UNL A   1      33.402  21.268  25.701  1.00  0.00     0.085 A 
ATOM     17  C   UNL A   1      33.546  18.845  24.698  1.00  0.00     0.071 C 
ATOM     18  C   UNL A   1      34.076  20.186  25.060  1.00  0.00     0.083 A 
ATOM     19  N   UNL A   1      35.340  20.507  24.764  1.00  0.00    -0.175 NA
ATOM     20  N   UNL A   1      35.480  21.749  25.258  1.00  0.00    -0.263 N 
ATOM     21  C   UNL A   1      34.419  22.134  26.045  1.00  0.00     0.060 A 
ATOM     22  C   UNL A   1      34.533  23.228  27.034  1.00  0.00     0.069 C 
BRANCH  20  23
ATOM     23  C   UNL A   1      36.534  22.608  24.729  1.00  0.00     0.181 C 
BRANCH  23  24
ATOM     24  C   UNL A   1      37.767  22.648  25.589  1.00  0.00    -0.008 A 
ATOM     25  C   UNL A   1      38.036  23.833  26.298  1.00  0.00     0.009 A 
ATOM     26  C   UNL A   1      38.654  21.568  25.737  1.00  0.00     0.047 A 
ATOM     27  C   UNL A   1      39.167  23.942  27.108  1.00  0.00     0.021 A 
ATOM     28  C   UNL A   1      39.799  21.687  26.525  1.00  0.00     0.041 A 
ATOM     29  Cl  UNL A   1      38.392  20.022  25.012  1.00  0.00    -0.084 Cl
ATOM     30  C   UNL A   1      40.051  22.873  27.205  1.00  0.00     0.042 A 
ATOM     31  Cl  UNL A   1      41.464  23.004  28.175  1.00  0.00    -0.084 Cl
ENDBRANCH  23  24
ENDBRANCH  20  23
ENDBRANCH  13  16
ENDBRANCH   7  12
ENDBRANCH   3   6
ENDBRANCH   1   2
BRANCH   1  32
ATOM     32  C   UNL A   1      32.811  28.527  26.359  1.00  0.00     0.042 C 
BRANCH  32  33
ATOM     33  C   UNL A   1      33.725  29.141  27.400  1.00  0.00     0.118 C 
BRANCH  33  34
ATOM     34  N   UNL A   1      33.827  30.594  27.284  1.00  0.00    -0.352 N 
ATOM     35  C   UNL A   1      34.788  31.416  27.839  1.00  0.00     0.251 C 
ATOM     36  H   UNL A   1      33.131  31.039  26.749  1.00  0.00     0.163 HD
ATOM     37  O   UNL A   1      34.567  32.620  27.978  1.00  0.00    -0.269 OA
BRANCH  35  38
ATOM     38  C   UNL A   1      36.075  30.836  28.265  1.00  0.00     0.039 A 
ATOM     39  C   UNL A   1      36.359  29.477  28.100  1.00  0.00     0.014 A 
ATOM     40  C   UNL A   1      37.017  31.686  28.838  1.00  0.00     0.014 A 
ATOM     41  C   UNL A   1      37.617  29.006  28.466  1.00  0.00     0.010 A 
ATOM     42  C   UNL A   1      38.306  31.264  29.022  1.00  0.00     0.010 A 
ATOM     43  C   UNL A   1      38.592  29.912  28.914  1.00  0.00    -0.014 A 
BRANCH  43  44
ATOM     44  C   UNL A   1      39.962  29.484  29.168  1.00  0.00     0.031 A 
ATOM     45  C   UNL A   1      40.224  29.131  30.586  1.00  0.00     0.074 A 
ATOM     46  C   UNL A   1      40.847  29.216  28.181  1.00  0.00     0.049 A 
ATOM     47  N   UNL A   1      40.951  29.785  31.428  1.00  0.00    -0.248 NA
ATOM     48  C   UNL A   1      39.448  28.037  31.197  1.00  0.00     0.031 C 
ATOM     49  C   UNL A   1      40.627  29.236  26.730  1.00  0.00     0.029 A 
ATOM     50  N   UNL A   1      42.120  28.749  28.272  1.00  0.00    -0.354 N 
ATOM     51  C   UNL A   1      40.946  29.030  32.594  1.00  0.00     0.074 A 
ATOM     52  C   UNL A   1      39.840  28.115  32.472  1.00  0.00     0.031 C 
ATOM     53  C   UNL A   1      41.622  28.565  26.110  1.00  0.00     0.029 A 
ATOM     54  C   UNL A   1      42.628  28.210  27.092  1.00  0.00     0.049 A 
ATOM     55  H   UNL A   1      42.642  28.786  29.106  1.00  0.00     0.167 HD
ATOM     56  C   UNL A   1      42.024  29.027  33.427  1.00  0.00     0.037 A 
ATOM     57  C   UNL A   1      43.774  27.493  26.948  1.00  0.00     0.037 A 
ATOM     58  C   UNL A   1      42.900  30.140  33.144  1.00  0.00     0.049 A 
ATOM     59  C   UNL A   1      44.630  27.821  28.123  1.00  0.00     0.074 A 
ATOM     60  C   UNL A   1      42.718  31.509  33.053  1.00  0.00     0.029 A 
ATOM     61  N   UNL A   1      44.080  29.882  32.485  1.00  0.00    -0.354 N 
ATOM     62  N   UNL A   1      45.145  29.004  28.331  1.00  0.00    -0.248 NA
ATOM     63  C   UNL A   1      44.491  26.987  29.310  1.00  0.00     0.031 C 
ATOM     64  C   UNL A   1      43.489  31.906  31.921  1.00  0.00     0.029 A 
ATOM     65  C   UNL A   1      44.174  30.784  31.454  1.00  0.00     0.049 A 
ATOM     66  H   UNL A   1      44.734  29.181  32.710  1.00  0.00     0.167 HD
ATOM     67  C   UNL A   1      44.970  29.232  29.689  1.00  0.00     0.074 A 
ATOM     68  C   UNL A   1      44.633  27.924  30.252  1.00  0.00     0.031 C 
ATOM     69  C   UNL A   1      44.814  30.496  30.188  1.00  0.00     0.037 A 
BRANCH  56  70
ATOM     70  C   UNL A   1      42.480  27.820  34.209  1.00  0.00     0.058 A 
ATOM     71  C   UNL A   1      42.546  27.896  35.615  1.00  0.00     0.135 A 
ATOM     72  C   UNL A   1      43.116  26.697  33.631  1.00  0.00     0.135 A 
ATOM     73  F   UNL A   1      41.990  28.929  36.269  1.00  0.00    -0.206 F 
ATOM     74  C   UNL A   1      43.249  26.967  36.382  1.00  0.00     0.059 A 
ATOM     75  C   UNL A   1      43.772  25.730  34.380  1.00  0.00     0.059 A 
ATOM     76  F   UNL A   1      43.222  26.533  32.307  1.00  0.00    -0.206 F 
ATOM     77  C   UNL A   1      43.869  25.892  35.751  1.00  0.00     0.060 A 
BRANCH  77  78
ATOM     78  S   UNL A   1      44.849  24.739  36.723  1.00  0.00     0.124 S 
ATOM     79  O   UNL A   1      44.553  23.476  36.057  1.00  0.00    -0.237 OA
ATOM     80  O   UNL A   1      46.199  25.262  36.537  1.00  0.00    -0.237 OA
ATOM     81  O   UNL A   1      44.304  24.889  38.069  1.00  0.00    -0.744 OA
ENDBRANCH  77  78
ENDBRANCH  56  70
BRANCH  57  82
ATOM     82  C   UNL A   1      44.015  26.314  26.066  1.00  0.00     0.058 A 
ATOM     83  C   UNL A   1      45.309  25.982  25.619  1.00  0.00     0.135 A 
ATOM     84  C   UNL A   1      43.028  25.326  25.862  1.00  0.00     0.135 A 
ATOM     85  F   UNL A   1      46.320  26.849  25.780  1.00  0.00    -0.206 F 
ATOM     86  C   UNL A   1      45.616  24.731  25.063  1.00  0.00     0.059 A 
ATOM     87  C   UNL A   1      43.306  24.080  25.301  1.00  0.00     0.059 A 
ATOM     88  F   UNL A   1      41.769  25.501  26.289  1.00  0.00    -0.206 F 
ATOM     89  C   UNL A   1      44.610  23.775  24.930  1.00  0.00     0.060 A 
BRANCH  89  90
ATOM     90  S   UNL A   1      45.025  22.097  24.396  1.00  0.00     0.124 S 
ATOM     91  O   UNL A   1      46.476  22.080  24.545  1.00  0.00    -0.237 OA
ATOM     92  O   UNL A   1      44.277  21.277  25.343  1.00  0.00    -0.237 OA
ATOM     93  O   UNL A   1      44.540  22.049  23.018  1.00  0.00    -0.744 OA
ENDBRANCH  89  90
ENDBRANCH  57  82
BRANCH  69  94
ATOM     94  C   UNL A   1      45.118  31.679  29.299  1.00  0.00     0.058 A 
ATOM     95  C   UNL A   1      46.406  32.180  29.034  1.00  0.00     0.135 A 
ATOM     96  C   UNL A   1      44.060  32.224  28.555  1.00  0.00     0.135 A 
ATOM     97  F   UNL A   1      47.489  31.644  29.611  1.00  0.00    -0.206 F 
ATOM     98  C   UNL A   1      46.622  33.209  28.113  1.00  0.00     0.059 A 
ATOM     99  C   UNL A   1      44.256  33.224  27.607  1.00  0.00     0.059 A 
ATOM    100  F   UNL A   1      42.813  31.749  28.710  1.00  0.00    -0.206 F 
ATOM    101  C   UNL A   1      45.538  33.726  27.403  1.00  0.00     0.060 A 
BRANCH 101 102
ATOM    102  S   UNL A   1      45.822  35.017  26.173  1.00  0.00     0.124 S 
ATOM    103  O   UNL A   1      44.653  35.871  26.351  1.00  0.00    -0.237 OA
ATOM    104  O   UNL A   1      47.096  35.587  26.598  1.00  0.00    -0.237 OA
ATOM    105  O   UNL A   1      45.869  34.281  24.910  1.00  0.00    -0.744 OA
ENDBRANCH 101 102
ENDBRANCH  69  94
ENDBRANCH  43  44
ENDBRANCH  35  38
ENDBRANCH  33  34
ENDBRANCH  32  33
ENDBRANCH   1  32
TORSDOF 17
ENDMDL
MODEL 3
REMARK VINA RESULT:     -12.7      1.364      2.143
REMARK SMILES Cc1nn(Cc2ccc(Cl)cc2Cl)c(C)c1NC(=O)c1c(C(=O)NCCCNC(=O)c2ccc(-c3c4nc(c(-c5c(F)cc(S(=O)(=O)[O-])cc5F)c5ccc([nH]5)c(-c5c(F)cc(S(=O)(=O)[O-])cc5F)c5nc(c(-c6c(F)cc(S(=O)(=O)[O-])cc6F)c6ccc3[nH]6)C=C5)C=C4)cc2)cnn1C
REMARK SMILES IDX 25 1 24 2 22 3 23 4 21 6 20 7 99 8 97 9 98 10 100 11 18 12
REMARK SMILES IDX 17 13 19 15 16 16 1 17 2 18 3 19 4 20 14 21 15 22 5 23 6 24
REMARK SMILES IDX 7 25 12 26 8 27 11 28 13 29 9 30 10 31 26 32 27 33 28 34
REMARK SMILES IDX 29 35 30 37 31 38 32 39 96 40 33 41 95 42 34 43 35 44 36 45
REMARK SMILES IDX 89 46 37 47 94 48 88 49 90 50 38 51 93 52 87 53 86 54 39 56
REMARK SMILES IDX 73 57 52 58 72 59 53 60 56 61 71 62 91 63 54 64 55 65 70 67
REMARK SMILES IDX 92 68 57 69 40 70 41 71 50 72 42 73 43 74 49 75 51 76 44 77
REMARK SMILES IDX 45 78 46 79 47 80 48 81 74 82 75 83 84 84 76 85 77 86 83 87
REMARK SMILES IDX 85 88 78 89 79 90 80 91 81 92 82 93 58 94 59 95 68 96 60 97
REMARK SMILES IDX 61 98 67 99 69 100 62 101 63 102 64 103 65 104 66 105
REMARK H PARENT 24 5 17 14 28 36 90 55 56 66
REMARK Flexibility Score: inf
ROOT
ATOM      1  C   UNL A   1      38.308  21.294  25.119  1.00  0.00     0.118 C 
ENDROOT
BRANCH   1   2
ATOM      2  N   UNL A   1      37.080  20.505  25.184  1.00  0.00    -0.352 N 
ATOM      3  C   UNL A   1      35.741  20.840  25.216  1.00  0.00     0.255 C 
ATOM      4  O   UNL A   1      34.944  19.942  24.940  1.00  0.00    -0.269 OA
ATOM      5  H   UNL A   1      37.242  19.534  25.208  1.00  0.00     0.163 HD
BRANCH   3   6
ATOM      6  C   UNL A   1      35.277  22.165  25.603  1.00  0.00     0.090 A 
ATOM      7  C   UNL A   1      35.029  23.238  24.733  1.00  0.00     0.138 A 
ATOM      8  N   UNL A   1      34.571  24.260  25.531  1.00  0.00    -0.262 N 
ATOM      9  C   UNL A   1      35.043  22.724  26.880  1.00  0.00     0.149 A 
ATOM     10  N   UNL A   1      34.564  23.965  26.841  1.00  0.00    -0.180 NA
ATOM     11  C   UNL A   1      33.991  25.521  25.127  1.00  0.00     0.174 C 
BRANCH   7  12
ATOM     12  C   UNL A   1      35.236  23.417  23.311  1.00  0.00     0.274 C 
ATOM     13  N   UNL A   1      34.213  23.595  22.412  1.00  0.00    -0.317 N 
ATOM     14  H   UNL A   1      34.505  23.584  21.472  1.00  0.00     0.170 HD
ATOM     15  O   UNL A   1      36.382  23.426  22.850  1.00  0.00    -0.267 OA
BRANCH  13  16
ATOM     16  C   UNL A   1      32.857  23.785  22.572  1.00  0.00     0.085 A 
ATOM     17  C   UNL A   1      32.197  21.405  23.466  1.00  0.00     0.071 C 
ATOM     18  C   UNL A   1      31.949  22.828  23.116  1.00  0.00     0.083 A 
ATOM     19  N   UNL A   1      30.742  23.366  23.325  1.00  0.00    -0.175 NA
ATOM     20  N   UNL A   1      30.870  24.625  22.871  1.00  0.00    -0.263 N 
ATOM     21  C   UNL A   1      32.044  24.829  22.184  1.00  0.00     0.060 A 
ATOM     22  C   UNL A   1      32.212  25.949  21.232  1.00  0.00     0.069 C 
BRANCH  20  23
ATOM     23  C   UNL A   1      29.946  25.648  23.350  1.00  0.00     0.181 C 
BRANCH  23  24
ATOM     24  C   UNL A   1      30.536  26.547  24.401  1.00  0.00    -0.008 A 
ATOM     25  C   UNL A   1      30.942  27.837  24.012  1.00  0.00     0.009 A 
ATOM     26  C   UNL A   1      30.689  26.180  25.749  1.00  0.00     0.047 A 
ATOM     27  C   UNL A   1      31.504  28.720  24.935  1.00  0.00     0.021 A 
ATOM     28  C   UNL A   1      31.277  27.053  26.665  1.00  0.00     0.041 A 
ATOM     29  Cl  UNL A   1      30.138  24.672  26.387  1.00  0.00    -0.084 Cl
ATOM     30  C   UNL A   1      31.683  28.317  26.254  1.00  0.00     0.042 A 
ATOM     31  Cl  UNL A   1      32.403  29.384  27.394  1.00  0.00    -0.084 Cl
ENDBRANCH  23  24
ENDBRANCH  20  23
ENDBRANCH  13  16
ENDBRANCH   7  12
ENDBRANCH   3   6
ENDBRANCH   1   2
BRANCH   1  32
ATOM     32  C   UNL A   1      39.342  21.044  26.218  1.00  0.00     0.042 C 
BRANCH  32  33
ATOM     33  C   UNL A   1      40.311  22.186  26.446  1.00  0.00     0.118 C 
BRANCH  33  34
ATOM     34  N   UNL A   1      41.587  21.998  25.760  1.00  0.00    -0.352 N 
ATOM     35  C   UNL A   1      42.496  22.972  25.393  1.00  0.00     0.251 C 
ATOM     36  H   UNL A   1      41.828  21.071  25.533  1.00  0.00     0.163 HD
ATOM     37  O   UNL A   1      43.332  22.738  24.518  1.00  0.00    -0.269 OA
BRANCH  35  38
ATOM     38  C   UNL A   1      42.451  24.288  26.055  1.00  0.00     0.039 A 
ATOM     39  C   UNL A   1      41.726  25.356  25.518  1.00  0.00     0.014 A 
ATOM     40  C   UNL A   1      43.153  24.444  27.247  1.00  0.00     0.014 A 
ATOM     41  C   UNL A   1      41.673  26.554  26.226  1.00  0.00     0.010 A 
ATOM     42  C   UNL A   1      42.951  25.550  28.028  1.00  0.00     0.010 A 
ATOM     43  C   UNL A   1      42.279  26.637  27.490  1.00  0.00    -0.014 A 
BRANCH  43  44
ATOM     44  C   UNL A   1      42.125  27.822  28.326  1.00  0.00     0.031 A 
ATOM     45  C   UNL A   1      43.219  28.812  28.165  1.00  0.00     0.074 A 
ATOM     46  C   UNL A   1      40.992  28.101  29.009  1.00  0.00     0.049 A 
ATOM     47  N   UNL A   1      44.133  29.109  29.027  1.00  0.00    -0.248 NA
ATOM     48  C   UNL A   1      43.444  29.408  26.835  1.00  0.00     0.031 C 
ATOM     49  C   UNL A   1      39.726  27.358  29.018  1.00  0.00     0.029 A 
ATOM     50  N   UNL A   1      40.690  29.191  29.763  1.00  0.00    -0.354 N 
ATOM     51  C   UNL A   1      44.877  30.130  28.449  1.00  0.00     0.074 A 
ATOM     52  C   UNL A   1      44.563  30.106  27.044  1.00  0.00     0.031 C 
ATOM     53  C   UNL A   1      38.743  28.139  29.516  1.00  0.00     0.029 A 
ATOM     54  C   UNL A   1      39.330  29.370  30.010  1.00  0.00     0.049 A 
ATOM     55  H   UNL A   1      41.377  29.807  30.107  1.00  0.00     0.167 HD
ATOM     56  C   UNL A   1      45.461  31.087  29.221  1.00  0.00     0.037 A 
ATOM     57  C   UNL A   1      38.734  30.467  30.546  1.00  0.00     0.037 A 
ATOM     58  C   UNL A   1      45.525  30.672  30.603  1.00  0.00     0.049 A 
ATOM     59  C   UNL A   1      39.795  31.207  31.285  1.00  0.00     0.074 A 
ATOM     60  C   UNL A   1      46.027  29.557  31.250  1.00  0.00     0.029 A 
ATOM     61  N   UNL A   1      44.646  31.248  31.492  1.00  0.00    -0.354 N 
ATOM     62  N   UNL A   1      40.385  30.742  32.355  1.00  0.00    -0.248 NA
ATOM     63  C   UNL A   1      40.547  32.217  30.552  1.00  0.00     0.031 C 
ATOM     64  C   UNL A   1      45.051  29.237  32.240  1.00  0.00     0.029 A 
ATOM     65  C   UNL A   1      44.070  30.229  32.209  1.00  0.00     0.049 A 
ATOM     66  H   UNL A   1      44.464  32.210  31.594  1.00  0.00     0.167 HD
ATOM     67  C   UNL A   1      41.727  31.047  32.180  1.00  0.00     0.074 A 
ATOM     68  C   UNL A   1      41.755  32.023  31.090  1.00  0.00     0.031 C 
ATOM     69  C   UNL A   1      42.715  30.268  32.716  1.00  0.00     0.037 A 
BRANCH  56  70
ATOM     70  C   UNL A   1      45.606  32.531  28.805  1.00  0.00     0.058 A 
ATOM     71  C   UNL A   1      46.853  33.169  28.957  1.00  0.00     0.135 A 
ATOM     72  C   UNL A   1      44.515  33.387  28.530  1.00  0.00     0.135 A 
ATOM     73  F   UNL A   1      47.955  32.455  29.237  1.00  0.00    -0.206 F 
ATOM     74  C   UNL A   1      46.994  34.556  28.909  1.00  0.00     0.059 A 
ATOM     75  C   UNL A   1      44.643  34.766  28.421  1.00  0.00     0.059 A 
ATOM     76  F   UNL A   1      43.253  32.945  28.454  1.00  0.00    -0.206 F 
ATOM     77  C   UNL A   1      45.878  35.346  28.651  1.00  0.00     0.060 A 
BRANCH  77  78
ATOM     78  S   UNL A   1      46.036  37.138  28.674  1.00  0.00     0.124 S 
ATOM     79  O   UNL A   1      47.036  37.352  27.634  1.00  0.00    -0.237 OA
ATOM     80  O   UNL A   1      44.677  37.563  28.356  1.00  0.00    -0.237 OA
ATOM     81  O   UNL A   1      46.472  37.417  30.039  1.00  0.00    -0.744 OA
ENDBRANCH  77  78
ENDBRANCH  56  70
BRANCH  57  82
ATOM     82  C   UNL A   1      37.423  31.075  30.172  1.00  0.00     0.058 A 
ATOM     83  C   UNL A   1      36.590  31.674  31.137  1.00  0.00     0.135 A 
ATOM     84  C   UNL A   1      37.079  31.329  28.828  1.00  0.00     0.135 A 
ATOM     85  F   UNL A   1      36.842  31.504  32.444  1.00  0.00    -0.206 F 
ATOM     86  C   UNL A   1      35.523  32.518  30.791  1.00  0.00     0.059 A 
ATOM     87  C   UNL A   1      36.017  32.154  28.459  1.00  0.00     0.059 A 
ATOM     88  F   UNL A   1      37.824  30.857  27.818  1.00  0.00    -0.206 F 
ATOM     89  C   UNL A   1      35.259  32.771  29.446  1.00  0.00     0.060 A 
BRANCH  89  90
ATOM     90  S   UNL A   1      34.015  34.003  28.988  1.00  0.00     0.124 S 
ATOM     91  O   UNL A   1      33.171  33.253  28.064  1.00  0.00    -0.237 OA
ATOM     92  O   UNL A   1      33.415  34.330  30.277  1.00  0.00    -0.237 OA
ATOM     93  O   UNL A   1      34.803  35.074  28.382  1.00  0.00    -0.744 OA
ENDBRANCH  89  90
ENDBRANCH  57  82
BRANCH  69  94
ATOM     94  C   UNL A   1      42.349  29.226  33.747  1.00  0.00     0.058 A 
ATOM     95  C   UNL A   1      41.862  27.938  33.457  1.00  0.00     0.135 A 
ATOM     96  C   UNL A   1      42.663  29.497  35.088  1.00  0.00     0.135 A 
ATOM     97  F   UNL A   1      41.642  27.550  32.193  1.00  0.00    -0.206 F 
ATOM     98  C   UNL A   1      41.650  26.986  34.458  1.00  0.00     0.059 A 
ATOM     99  C   UNL A   1      42.494  28.552  36.097  1.00  0.00     0.059 A 
ATOM    100  F   UNL A   1      43.193  30.683  35.429  1.00  0.00    -0.206 F 
ATOM    101  C   UNL A   1      41.969  27.303  35.778  1.00  0.00     0.060 A 
BRANCH 101 102
ATOM    102  S   UNL A   1      41.748  26.057  37.065  1.00  0.00     0.124 S 
ATOM    103  O   UNL A   1      40.383  26.316  37.510  1.00  0.00    -0.237 OA
ATOM    104  O   UNL A   1      41.952  24.808  36.338  1.00  0.00    -0.237 OA
ATOM    105  O   UNL A   1      42.792  26.379  38.036  1.00  0.00    -0.744 OA
ENDBRANCH 101 102
ENDBRANCH  69  94
ENDBRANCH  43  44
ENDBRANCH  35  38
ENDBRANCH  33  34
ENDBRANCH  32  33
ENDBRANCH   1  32
TORSDOF 17
ENDMDL
