MODEL 1
REMARK VINA RESULT:     -12.4      0.000      0.000
REMARK SMILES CCc1c(C(=O)NCCCNC(=O)c2ccc(-c3c4nc(c(-c5c(F)cc(S(=O)(=O)[O-])cc5F)c5ccc([nH]5)c(-c5c(F)cc(S(=O)(=O)[O-])cc5F)c5nc(c(-c6c(F)cc(S(=O)(=O)[O-])cc6F)c6ccc3[nH]6)C=C5)C=C4)cc2)nnn1-c1ccc(OC)cc1
REMARK SMILES IDX 9 1 8 2 7 3 5 4 6 5 4 7 3 8 82 9 80 10 81 11 2 12 1 13 83 14
REMARK SMILES IDX 84 15 90 16 85 17 89 18 86 19 87 20 88 21 10 22 11 23 12 24
REMARK SMILES IDX 13 26 14 27 15 28 79 29 16 30 78 31 17 32 18 33 19 34 72 35
REMARK SMILES IDX 20 36 77 37 71 38 73 39 21 40 76 41 70 42 69 43 22 45 56 46
REMARK SMILES IDX 35 47 55 48 36 49 39 50 54 51 74 52 37 53 38 54 53 56 75 57
REMARK SMILES IDX 40 58 23 59 24 60 33 61 25 62 26 63 32 64 34 65 27 66 28 67
REMARK SMILES IDX 29 68 30 69 31 70 57 71 58 72 67 73 59 74 60 75 66 76 68 77
REMARK SMILES IDX 61 78 62 79 63 80 64 81 65 82 41 83 42 84 51 85 43 86 44 87
REMARK SMILES IDX 50 88 52 89 45 90 46 91 47 92 48 93 49 94
REMARK H PARENT 7 6 11 25 73 44 39 55
REMARK Flexibility Score: inf
ROOT
ATOM      1  C   UNL A   1      37.022  23.330  25.409  1.00  0.00     0.042 C 
ENDROOT
BRANCH   1   2
ATOM      2  C   UNL A   1      35.731  24.058  25.800  1.00  0.00     0.118 C 
BRANCH   2   3
ATOM      3  N   UNL A   1      34.676  23.185  26.261  1.00  0.00    -0.351 N 
ATOM      4  C   UNL A   1      33.307  23.180  26.238  1.00  0.00     0.273 C 
ATOM      5  O   UNL A   1      32.823  22.089  26.560  1.00  0.00    -0.267 OA
ATOM      6  H   UNL A   1      35.034  22.385  26.708  1.00  0.00     0.163 HD
BRANCH   4   7
ATOM      7  C   UNL A   1      32.412  24.304  25.920  1.00  0.00     0.174 A 
ATOM      8  C   UNL A   1      32.266  25.261  24.911  1.00  0.00     0.077 A 
ATOM      9  N   UNL A   1      31.213  26.059  25.356  1.00  0.00    -0.217 N 
ATOM     10  N   UNL A   1      31.465  24.591  26.896  1.00  0.00    -0.124 NA
ATOM     11  N   UNL A   1      30.830  25.702  26.588  1.00  0.00    -0.061 NA
BRANCH   8  12
ATOM     12  C   UNL A   1      33.067  25.662  23.722  1.00  0.00     0.055 C 
ATOM     13  C   UNL A   1      32.750  24.910  22.440  1.00  0.00     0.011 C 
ENDBRANCH   8  12
BRANCH   9  14
ATOM     14  C   UNL A   1      30.654  27.196  24.735  1.00  0.00     0.067 A 
ATOM     15  C   UNL A   1      31.145  28.464  25.051  1.00  0.00     0.032 A 
ATOM     16  C   UNL A   1      29.662  27.046  23.763  1.00  0.00     0.032 A 
ATOM     17  C   UNL A   1      30.708  29.565  24.310  1.00  0.00     0.048 A 
ATOM     18  C   UNL A   1      29.223  28.151  23.037  1.00  0.00     0.048 A 
ATOM     19  C   UNL A   1      29.763  29.411  23.290  1.00  0.00     0.119 A 
BRANCH  19  20
ATOM     20  O   UNL A   1      29.445  30.559  22.616  1.00  0.00    -0.497 OA
ATOM     21  C   UNL A   1      28.901  31.618  23.395  1.00  0.00     0.278 C 
ENDBRANCH  19  20
ENDBRANCH   9  14
ENDBRANCH   4   7
ENDBRANCH   2   3
ENDBRANCH   1   2
BRANCH   1  22
ATOM     22  C   UNL A   1      38.202  23.730  26.277  1.00  0.00     0.118 C 
BRANCH  22  23
ATOM     23  N   UNL A   1      39.270  22.718  26.283  1.00  0.00    -0.352 N 
ATOM     24  C   UNL A   1      40.643  22.924  26.255  1.00  0.00     0.251 C 
ATOM     25  H   UNL A   1      38.976  21.779  26.311  1.00  0.00     0.163 HD
ATOM     26  O   UNL A   1      41.418  22.031  25.971  1.00  0.00    -0.269 OA
BRANCH  24  27
ATOM     27  C   UNL A   1      41.114  24.280  26.583  1.00  0.00     0.039 A 
ATOM     28  C   UNL A   1      40.726  25.395  25.833  1.00  0.00     0.014 A 
ATOM     29  C   UNL A   1      41.749  24.413  27.807  1.00  0.00     0.014 A 
ATOM     30  C   UNL A   1      40.866  26.664  26.399  1.00  0.00     0.010 A 
ATOM     31  C   UNL A   1      41.674  25.627  28.433  1.00  0.00     0.010 A 
ATOM     32  C   UNL A   1      41.303  26.773  27.725  1.00  0.00    -0.014 A 
BRANCH  32  33
ATOM     33  C   UNL A   1      41.332  28.050  28.443  1.00  0.00     0.031 A 
ATOM     34  C   UNL A   1      42.455  28.996  28.140  1.00  0.00     0.074 A 
ATOM     35  C   UNL A   1      40.231  28.485  29.098  1.00  0.00     0.049 A 
ATOM     36  N   UNL A   1      43.314  29.524  28.953  1.00  0.00    -0.248 NA
ATOM     37  C   UNL A   1      42.682  29.369  26.733  1.00  0.00     0.031 C 
ATOM     38  C   UNL A   1      38.911  27.833  29.201  1.00  0.00     0.029 A 
ATOM     39  N   UNL A   1      40.008  29.685  29.690  1.00  0.00    -0.354 N 
ATOM     40  C   UNL A   1      44.077  30.427  28.203  1.00  0.00     0.074 A 
ATOM     41  C   UNL A   1      43.736  30.183  26.826  1.00  0.00     0.031 C 
ATOM     42  C   UNL A   1      37.983  28.741  29.558  1.00  0.00     0.029 A 
ATOM     43  C   UNL A   1      38.671  29.956  29.940  1.00  0.00     0.049 A 
ATOM     44  H   UNL A   1      40.733  30.310  29.922  1.00  0.00     0.167 HD
ATOM     45  C   UNL A   1      44.803  31.431  28.781  1.00  0.00     0.037 A 
ATOM     46  C   UNL A   1      38.148  31.098  30.433  1.00  0.00     0.037 A 
ATOM     47  C   UNL A   1      44.914  31.236  30.203  1.00  0.00     0.049 A 
ATOM     48  C   UNL A   1      39.253  31.817  31.108  1.00  0.00     0.074 A 
ATOM     49  C   UNL A   1      45.524  30.311  31.023  1.00  0.00     0.029 A 
ATOM     50  N   UNL A   1      44.027  31.922  30.994  1.00  0.00    -0.354 N 
ATOM     51  N   UNL A   1      39.888  31.361  32.155  1.00  0.00    -0.248 NA
ATOM     52  C   UNL A   1      39.935  32.875  30.381  1.00  0.00     0.031 C 
ATOM     53  C   UNL A   1      44.660  30.186  32.150  1.00  0.00     0.029 A 
ATOM     54  C   UNL A   1      43.592  31.069  31.975  1.00  0.00     0.049 A 
ATOM     55  H   UNL A   1      43.750  32.860  30.876  1.00  0.00     0.167 HD
ATOM     56  C   UNL A   1      41.199  31.780  31.990  1.00  0.00     0.074 A 
ATOM     57  C   UNL A   1      41.136  32.814  30.962  1.00  0.00     0.031 C 
ATOM     58  C   UNL A   1      42.241  31.062  32.504  1.00  0.00     0.037 A 
BRANCH  45  59
ATOM     59  C   UNL A   1      45.161  32.763  28.147  1.00  0.00     0.058 A 
ATOM     60  C   UNL A   1      46.513  33.063  27.858  1.00  0.00     0.135 A 
ATOM     61  C   UNL A   1      44.276  33.859  28.064  1.00  0.00     0.135 A 
ATOM     62  F   UNL A   1      47.452  32.103  27.904  1.00  0.00    -0.206 F 
ATOM     63  C   UNL A   1      46.960  34.359  27.585  1.00  0.00     0.059 A 
ATOM     64  C   UNL A   1      44.691  35.150  27.740  1.00  0.00     0.059 A 
ATOM     65  F   UNL A   1      42.982  33.753  28.389  1.00  0.00    -0.206 F 
ATOM     66  C   UNL A   1      46.041  35.401  27.550  1.00  0.00     0.060 A 
BRANCH  66  67
ATOM     67  S   UNL A   1      46.624  37.093  27.328  1.00  0.00     0.124 S 
ATOM     68  O   UNL A   1      47.375  37.305  28.560  1.00  0.00    -0.237 OA
ATOM     69  O   UNL A   1      47.415  36.991  26.106  1.00  0.00    -0.237 OA
ATOM     70  O   UNL A   1      45.388  37.860  27.203  1.00  0.00    -0.744 OA
ENDBRANCH  66  67
ENDBRANCH  45  59
BRANCH  46  71
ATOM     71  C   UNL A   1      36.841  31.707  30.106  1.00  0.00     0.058 A 
ATOM     72  C   UNL A   1      36.055  32.312  31.096  1.00  0.00     0.135 A 
ATOM     73  C   UNL A   1      36.461  31.939  28.766  1.00  0.00     0.135 A 
ATOM     74  F   UNL A   1      36.361  32.148  32.391  1.00  0.00    -0.206 F 
ATOM     75  C   UNL A   1      34.980  33.146  30.779  1.00  0.00     0.059 A 
ATOM     76  C   UNL A   1      35.389  32.762  28.426  1.00  0.00     0.059 A 
ATOM     77  F   UNL A   1      37.182  31.440  27.750  1.00  0.00    -0.206 F 
ATOM     78  C   UNL A   1      34.670  33.385  29.439  1.00  0.00     0.060 A 
BRANCH  78  79
ATOM     79  S   UNL A   1      33.407  34.614  29.036  1.00  0.00     0.124 S 
ATOM     80  O   UNL A   1      32.814  34.876  30.342  1.00  0.00    -0.237 OA
ATOM     81  O   UNL A   1      34.206  35.696  28.469  1.00  0.00    -0.237 OA
ATOM     82  O   UNL A   1      32.546  33.916  28.085  1.00  0.00    -0.744 OA
ENDBRANCH  78  79
ENDBRANCH  46  71
BRANCH  58  83
ATOM     83  C   UNL A   1      41.937  29.995  33.529  1.00  0.00     0.058 A 
ATOM     84  C   UNL A   1      41.661  28.654  33.213  1.00  0.00     0.135 A 
ATOM     85  C   UNL A   1      42.124  30.304  34.884  1.00  0.00     0.135 A 
ATOM     86  F   UNL A   1      41.563  28.254  31.940  1.00  0.00    -0.206 F 
ATOM     87  C   UNL A   1      41.562  27.668  34.194  1.00  0.00     0.059 A 
ATOM     88  C   UNL A   1      42.059  29.331  35.879  1.00  0.00     0.059 A 
ATOM     89  F   UNL A   1      42.450  31.555  35.247  1.00  0.00    -0.206 F 
ATOM     90  C   UNL A   1      41.775  28.013  35.527  1.00  0.00     0.060 A 
BRANCH  90  91
ATOM     91  S   UNL A   1      41.783  26.711  36.779  1.00  0.00     0.124 S 
ATOM     92  O   UNL A   1      40.511  26.931  37.460  1.00  0.00    -0.237 OA
ATOM     93  O   UNL A   1      41.870  25.495  35.977  1.00  0.00    -0.237 OA
ATOM     94  O   UNL A   1      42.974  27.009  37.571  1.00  0.00    -0.744 OA
ENDBRANCH  90  91
ENDBRANCH  58  83
ENDBRANCH  32  33
ENDBRANCH  24  27
ENDBRANCH  22  23
ENDBRANCH   1  22
TORSDOF 16
ENDMDL
MODEL 2
REMARK VINA RESULT:     -12.3      1.282      1.889
REMARK SMILES CCc1c(C(=O)NCCCNC(=O)c2ccc(-c3c4nc(c(-c5c(F)cc(S(=O)(=O)[O-])cc5F)c5ccc([nH]5)c(-c5c(F)cc(S(=O)(=O)[O-])cc5F)c5nc(c(-c6c(F)cc(S(=O)(=O)[O-])cc6F)c6ccc3[nH]6)C=C5)C=C4)cc2)nnn1-c1ccc(OC)cc1
REMARK SMILES IDX 9 1 8 2 7 3 5 4 6 5 4 7 3 8 82 9 80 10 81 11 2 12 1 13 83 14
REMARK SMILES IDX 84 15 90 16 85 17 89 18 86 19 87 20 88 21 10 22 11 23 12 24
REMARK SMILES IDX 13 26 14 27 15 28 79 29 16 30 78 31 17 32 18 33 19 34 72 35
REMARK SMILES IDX 20 36 77 37 71 38 73 39 21 40 76 41 70 42 69 43 22 45 56 46
REMARK SMILES IDX 35 47 55 48 36 49 39 50 54 51 74 52 37 53 38 54 53 56 75 57
REMARK SMILES IDX 40 58 23 59 24 60 33 61 25 62 26 63 32 64 34 65 27 66 28 67
REMARK SMILES IDX 29 68 30 69 31 70 57 71 58 72 67 73 59 74 60 75 66 76 68 77
REMARK SMILES IDX 61 78 62 79 63 80 64 81 65 82 41 83 42 84 51 85 43 86 44 87
REMARK SMILES IDX 50 88 52 89 45 90 46 91 47 92 48 93 49 94
REMARK H PARENT 7 6 11 25 73 44 39 55
REMARK Flexibility Score: inf
ROOT
ATOM      1  C   UNL A   1      36.965  22.237  24.601  1.00  0.00     0.042 C 
ENDROOT
BRANCH   1   2
ATOM      2  C   UNL A   1      35.461  22.510  24.710  1.00  0.00     0.118 C 
BRANCH   2   3
ATOM      3  N   UNL A   1      34.958  22.524  26.063  1.00  0.00    -0.351 N 
ATOM      4  C   UNL A   1      33.890  23.070  26.723  1.00  0.00     0.273 C 
ATOM      5  O   UNL A   1      33.741  22.613  27.862  1.00  0.00    -0.267 OA
ATOM      6  H   UNL A   1      35.533  22.005  26.671  1.00  0.00     0.163 HD
BRANCH   4   7
ATOM      7  C   UNL A   1      32.978  24.118  26.240  1.00  0.00     0.174 A 
ATOM      8  C   UNL A   1      32.970  25.115  25.259  1.00  0.00     0.077 A 
ATOM      9  N   UNL A   1      31.762  25.779  25.466  1.00  0.00    -0.217 N 
ATOM     10  N   UNL A   1      31.804  24.253  26.970  1.00  0.00    -0.124 NA
ATOM     11  N   UNL A   1      31.142  25.315  26.558  1.00  0.00    -0.061 NA
BRANCH   8  12
ATOM     12  C   UNL A   1      33.979  25.661  24.310  1.00  0.00     0.055 C 
ATOM     13  C   UNL A   1      33.748  25.320  22.847  1.00  0.00     0.011 C 
ENDBRANCH   8  12
BRANCH   9  14
ATOM     14  C   UNL A   1      31.245  26.892  24.770  1.00  0.00     0.067 A 
ATOM     15  C   UNL A   1      30.288  26.698  23.773  1.00  0.00     0.032 A 
ATOM     16  C   UNL A   1      31.641  28.183  25.125  1.00  0.00     0.032 A 
ATOM     17  C   UNL A   1      29.658  27.810  23.210  1.00  0.00     0.048 A 
ATOM     18  C   UNL A   1      31.016  29.288  24.550  1.00  0.00     0.048 A 
ATOM     19  C   UNL A   1      30.004  29.107  23.609  1.00  0.00     0.119 A 
BRANCH  19  20
ATOM     20  O   UNL A   1      29.289  30.108  23.010  1.00  0.00    -0.497 OA
ATOM     21  C   UNL A   1      28.036  29.739  22.447  1.00  0.00     0.278 C 
ENDBRANCH  19  20
ENDBRANCH   9  14
ENDBRANCH   4   7
ENDBRANCH   2   3
ENDBRANCH   1   2
BRANCH   1  22
ATOM     22  C   UNL A   1      37.775  23.016  25.622  1.00  0.00     0.118 C 
BRANCH  22  23
ATOM     23  N   UNL A   1      38.568  22.143  26.502  1.00  0.00    -0.352 N 
ATOM     24  C   UNL A   1      39.740  22.450  27.179  1.00  0.00     0.251 C 
ATOM     25  H   UNL A   1      38.224  21.229  26.627  1.00  0.00     0.163 HD
ATOM     26  O   UNL A   1      40.460  21.584  27.637  1.00  0.00    -0.269 OA
BRANCH  24  27
ATOM     27  C   UNL A   1      40.071  23.879  27.313  1.00  0.00     0.039 A 
ATOM     28  C   UNL A   1      39.082  24.867  27.301  1.00  0.00     0.014 A 
ATOM     29  C   UNL A   1      41.373  24.157  27.698  1.00  0.00     0.014 A 
ATOM     30  C   UNL A   1      39.391  26.128  27.816  1.00  0.00     0.010 A 
ATOM     31  C   UNL A   1      41.595  25.312  28.397  1.00  0.00     0.010 A 
ATOM     32  C   UNL A   1      40.643  26.334  28.407  1.00  0.00    -0.014 A 
BRANCH  32  33
ATOM     33  C   UNL A   1      40.991  27.575  29.105  1.00  0.00     0.031 A 
ATOM     34  C   UNL A   1      42.104  28.406  28.539  1.00  0.00     0.074 A 
ATOM     35  C   UNL A   1      40.141  28.102  30.017  1.00  0.00     0.049 A 
ATOM     36  N   UNL A   1      43.190  28.810  29.117  1.00  0.00    -0.248 NA
ATOM     37  C   UNL A   1      42.018  28.801  27.123  1.00  0.00     0.031 C 
ATOM     38  C   UNL A   1      38.823  27.591  30.438  1.00  0.00     0.029 A 
ATOM     39  N   UNL A   1      40.207  29.298  30.654  1.00  0.00    -0.354 N 
ATOM     40  C   UNL A   1      43.842  29.652  28.208  1.00  0.00     0.074 A 
ATOM     41  C   UNL A   1      43.147  29.494  26.958  1.00  0.00     0.031 C 
ATOM     42  C   UNL A   1      38.119  28.581  31.022  1.00  0.00     0.029 A 
ATOM     43  C   UNL A   1      39.012  29.700  31.230  1.00  0.00     0.049 A 
ATOM     44  H   UNL A   1      41.032  29.833  30.703  1.00  0.00     0.167 HD
ATOM     45  C   UNL A   1      44.796  30.551  28.596  1.00  0.00     0.037 A 
ATOM     46  C   UNL A   1      38.758  30.874  31.846  1.00  0.00     0.037 A 
ATOM     47  C   UNL A   1      45.231  30.296  29.944  1.00  0.00     0.049 A 
ATOM     48  C   UNL A   1      40.068  31.447  32.231  1.00  0.00     0.074 A 
ATOM     49  C   UNL A   1      45.916  29.282  30.579  1.00  0.00     0.029 A 
ATOM     50  N   UNL A   1      44.648  31.044  30.936  1.00  0.00    -0.354 N 
ATOM     51  N   UNL A   1      40.886  30.889  33.084  1.00  0.00    -0.248 NA
ATOM     52  C   UNL A   1      40.664  32.451  31.365  1.00  0.00     0.031 C 
ATOM     53  C   UNL A   1      45.347  29.211  31.885  1.00  0.00     0.029 A 
ATOM     54  C   UNL A   1      44.374  30.209  31.987  1.00  0.00     0.049 A 
ATOM     55  H   UNL A   1      44.458  32.010  30.897  1.00  0.00     0.167 HD
ATOM     56  C   UNL A   1      42.155  31.171  32.602  1.00  0.00     0.074 A 
ATOM     57  C   UNL A   1      41.957  32.241  31.630  1.00  0.00     0.031 C 
ATOM     58  C   UNL A   1      43.204  30.327  32.835  1.00  0.00     0.037 A 
BRANCH  45  59
ATOM     59  C   UNL A   1      45.134  31.859  27.902  1.00  0.00     0.058 A 
ATOM     60  C   UNL A   1      46.406  32.030  27.306  1.00  0.00     0.135 A 
ATOM     61  C   UNL A   1      44.373  33.041  28.035  1.00  0.00     0.135 A 
ATOM     62  F   UNL A   1      47.224  30.979  27.126  1.00  0.00    -0.206 F 
ATOM     63  C   UNL A   1      46.910  33.282  26.944  1.00  0.00     0.059 A 
ATOM     64  C   UNL A   1      44.835  34.292  27.630  1.00  0.00     0.059 A 
ATOM     65  F   UNL A   1      43.186  33.055  28.653  1.00  0.00    -0.206 F 
ATOM     66  C   UNL A   1      46.123  34.412  27.130  1.00  0.00     0.060 A 
BRANCH  66  67
ATOM     67  S   UNL A   1      46.812  36.043  26.788  1.00  0.00     0.124 S 
ATOM     68  O   UNL A   1      47.381  35.844  25.460  1.00  0.00    -0.237 OA
ATOM     69  O   UNL A   1      45.632  36.898  26.857  1.00  0.00    -0.237 OA
ATOM     70  O   UNL A   1      47.777  36.232  27.867  1.00  0.00    -0.744 OA
ENDBRANCH  66  67
ENDBRANCH  45  59
BRANCH  46  71
ATOM     71  C   UNL A   1      37.488  31.631  31.859  1.00  0.00     0.058 A 
ATOM     72  C   UNL A   1      36.810  31.891  33.058  1.00  0.00     0.135 A 
ATOM     73  C   UNL A   1      37.052  32.340  30.719  1.00  0.00     0.135 A 
ATOM     74  F   UNL A   1      37.175  31.264  34.186  1.00  0.00    -0.206 F 
ATOM     75  C   UNL A   1      35.790  32.841  33.139  1.00  0.00     0.059 A 
ATOM     76  C   UNL A   1      36.031  33.288  30.774  1.00  0.00     0.059 A 
ATOM     77  F   UNL A   1      37.671  32.191  29.537  1.00  0.00    -0.206 F 
ATOM     78  C   UNL A   1      35.424  33.553  31.996  1.00  0.00     0.060 A 
BRANCH  78  79
ATOM     79  S   UNL A   1      34.243  34.913  32.148  1.00  0.00     0.124 S 
ATOM     80  O   UNL A   1      33.159  34.288  32.896  1.00  0.00    -0.237 OA
ATOM     81  O   UNL A   1      35.023  35.913  32.872  1.00  0.00    -0.237 OA
ATOM     82  O   UNL A   1      33.935  35.252  30.762  1.00  0.00    -0.744 OA
ENDBRANCH  78  79
ENDBRANCH  46  71
BRANCH  58  83
ATOM     83  C   UNL A   1      43.043  29.264  33.895  1.00  0.00     0.058 A 
ATOM     84  C   UNL A   1      43.146  29.505  35.276  1.00  0.00     0.135 A 
ATOM     85  C   UNL A   1      42.575  28.001  33.503  1.00  0.00     0.135 A 
ATOM     86  F   UNL A   1      43.492  30.711  35.739  1.00  0.00    -0.206 F 
ATOM     87  C   UNL A   1      42.815  28.536  36.223  1.00  0.00     0.059 A 
ATOM     88  C   UNL A   1      42.210  27.028  34.431  1.00  0.00     0.059 A 
ATOM     89  F   UNL A   1      42.396  27.728  32.201  1.00  0.00    -0.206 F 
ATOM     90  C   UNL A   1      42.336  27.302  35.792  1.00  0.00     0.060 A 
BRANCH  90  91
ATOM     91  S   UNL A   1      41.778  26.100  37.020  1.00  0.00     0.124 S 
ATOM     92  O   UNL A   1      42.839  26.165  38.019  1.00  0.00    -0.237 OA
ATOM     93  O   UNL A   1      40.486  26.640  37.433  1.00  0.00    -0.237 OA
ATOM     94  O   UNL A   1      41.706  24.851  36.265  1.00  0.00    -0.744 OA
ENDBRANCH  90  91
ENDBRANCH  58  83
ENDBRANCH  32  33
ENDBRANCH  24  27
ENDBRANCH  22  23
ENDBRANCH   1  22
TORSDOF 16
ENDMDL
MODEL 3
REMARK VINA RESULT:     -12.1      3.128      9.573
REMARK SMILES CCc1c(C(=O)NCCCNC(=O)c2ccc(-c3c4nc(c(-c5c(F)cc(S(=O)(=O)[O-])cc5F)c5ccc([nH]5)c(-c5c(F)cc(S(=O)(=O)[O-])cc5F)c5nc(c(-c6c(F)cc(S(=O)(=O)[O-])cc6F)c6ccc3[nH]6)C=C5)C=C4)cc2)nnn1-c1ccc(OC)cc1
REMARK SMILES IDX 9 1 8 2 7 3 5 4 6 5 4 7 3 8 82 9 80 10 81 11 2 12 1 13 83 14
REMARK SMILES IDX 84 15 90 16 85 17 89 18 86 19 87 20 88 21 10 22 11 23 12 24
REMARK SMILES IDX 13 26 14 27 15 28 79 29 16 30 78 31 17 32 18 33 19 34 72 35
REMARK SMILES IDX 20 36 77 37 71 38 73 39 21 40 76 41 70 42 69 43 22 45 56 46
REMARK SMILES IDX 35 47 55 48 36 49 39 50 54 51 74 52 37 53 38 54 53 56 75 57
REMARK SMILES IDX 40 58 23 59 24 60 33 61 25 62 26 63 32 64 34 65 27 66 28 67
REMARK SMILES IDX 29 68 30 69 31 70 57 71 58 72 67 73 59 74 60 75 66 76 68 77
REMARK SMILES IDX 61 78 62 79 63 80 64 81 65 82 41 83 42 84 51 85 43 86 44 87
REMARK SMILES IDX 50 88 52 89 45 90 46 91 47 92 48 93 49 94
REMARK H PARENT 7 6 11 25 73 44 39 55
REMARK Flexibility Score: inf
ROOT
ATOM      1  C   UNL A   1      32.401  29.126  27.185  1.00  0.00     0.042 C 
ENDROOT
BRANCH   1   2
ATOM      2  C   UNL A   1      32.046  27.640  27.309  1.00  0.00     0.118 C 
BRANCH   2   3
ATOM      3  N   UNL A   1      31.061  27.185  26.355  1.00  0.00    -0.351 N 
ATOM      4  C   UNL A   1      30.655  25.984  25.840  1.00  0.00     0.273 C 
ATOM      5  O   UNL A   1      29.597  26.063  25.205  1.00  0.00    -0.267 OA
ATOM      6  H   UNL A   1      30.547  27.934  25.977  1.00  0.00     0.163 HD
BRANCH   4   7
ATOM      7  C   UNL A   1      31.345  24.688  25.936  1.00  0.00     0.174 A 
ATOM      8  C   UNL A   1      31.928  23.756  25.072  1.00  0.00     0.077 A 
ATOM      9  N   UNL A   1      32.315  22.714  25.914  1.00  0.00    -0.217 N 
ATOM     10  N   UNL A   1      31.402  24.150  27.216  1.00  0.00    -0.124 NA
ATOM     11  N   UNL A   1      31.890  22.928  27.165  1.00  0.00    -0.061 NA
BRANCH   8  12
ATOM     12  C   UNL A   1      32.001  23.598  23.593  1.00  0.00     0.055 C 
ATOM     13  C   UNL A   1      33.289  24.085  22.949  1.00  0.00     0.011 C 
ENDBRANCH   8  12
BRANCH   9  14
ATOM     14  C   UNL A   1      32.936  21.495  25.569  1.00  0.00     0.067 A 
ATOM     15  C   UNL A   1      32.151  20.387  25.249  1.00  0.00     0.032 A 
ATOM     16  C   UNL A   1      34.329  21.420  25.486  1.00  0.00     0.032 A 
ATOM     17  C   UNL A   1      32.769  19.240  24.745  1.00  0.00     0.048 A 
ATOM     18  C   UNL A   1      34.938  20.268  24.994  1.00  0.00     0.048 A 
ATOM     19  C   UNL A   1      34.159  19.182  24.597  1.00  0.00     0.119 A 
BRANCH  19  20
ATOM     20  O   UNL A   1      34.637  18.018  24.060  1.00  0.00    -0.497 OA
ATOM     21  C   UNL A   1      33.684  17.185  23.410  1.00  0.00     0.278 C 
ENDBRANCH  19  20
ENDBRANCH   9  14
ENDBRANCH   4   7
ENDBRANCH   2   3
ENDBRANCH   1   2
BRANCH   1  22
ATOM     22  C   UNL A   1      33.900  29.369  27.186  1.00  0.00     0.118 C 
BRANCH  22  23
ATOM     23  N   UNL A   1      34.245  30.784  26.974  1.00  0.00    -0.352 N 
ATOM     24  C   UNL A   1      35.259  31.515  27.576  1.00  0.00     0.251 C 
ATOM     25  H   UNL A   1      33.689  31.271  26.324  1.00  0.00     0.163 HD
ATOM     26  O   UNL A   1      35.273  32.731  27.550  1.00  0.00    -0.269 OA
BRANCH  24  27
ATOM     27  C   UNL A   1      36.317  30.746  28.253  1.00  0.00     0.039 A 
ATOM     28  C   UNL A   1      36.584  29.414  27.922  1.00  0.00     0.014 A 
ATOM     29  C   UNL A   1      37.181  31.486  29.044  1.00  0.00     0.014 A 
ATOM     30  C   UNL A   1      37.814  28.867  28.291  1.00  0.00     0.010 A 
ATOM     31  C   UNL A   1      38.457  31.016  29.202  1.00  0.00     0.010 A 
ATOM     32  C   UNL A   1      38.771  29.690  28.896  1.00  0.00    -0.014 A 
BRANCH  32  33
ATOM     33  C   UNL A   1      40.137  29.239  29.176  1.00  0.00     0.031 A 
ATOM     34  C   UNL A   1      40.558  29.131  30.611  1.00  0.00     0.074 A 
ATOM     35  C   UNL A   1      40.866  28.641  28.204  1.00  0.00     0.049 A 
ATOM     36  N   UNL A   1      41.561  29.693  31.207  1.00  0.00    -0.248 NA
ATOM     37  C   UNL A   1      39.720  28.327  31.517  1.00  0.00     0.031 C 
ATOM     38  C   UNL A   1      40.468  28.345  26.815  1.00  0.00     0.029 A 
ATOM     39  N   UNL A   1      42.074  28.030  28.297  1.00  0.00    -0.354 N 
ATOM     40  C   UNL A   1      41.593  29.184  32.511  1.00  0.00     0.074 A 
ATOM     41  C   UNL A   1      40.360  28.462  32.681  1.00  0.00     0.031 C 
ATOM     42  C   UNL A   1      41.276  27.395  26.305  1.00  0.00     0.029 A 
ATOM     43  C   UNL A   1      42.374  27.201  27.227  1.00  0.00     0.049 A 
ATOM     44  H   UNL A   1      42.684  28.164  29.058  1.00  0.00     0.167 HD
ATOM     45  C   UNL A   1      42.711  29.245  33.295  1.00  0.00     0.037 A 
ATOM     46  C   UNL A   1      43.454  26.403  27.091  1.00  0.00     0.037 A 
ATOM     47  C   UNL A   1      43.688  30.139  32.734  1.00  0.00     0.049 A 
ATOM     48  C   UNL A   1      44.484  26.917  28.023  1.00  0.00     0.074 A 
ATOM     49  C   UNL A   1      43.763  31.497  32.507  1.00  0.00     0.029 A 
ATOM     50  N   UNL A   1      44.691  29.571  31.988  1.00  0.00    -0.354 N 
ATOM     51  N   UNL A   1      45.033  28.099  27.926  1.00  0.00    -0.248 NA
ATOM     52  C   UNL A   1      44.628  26.271  29.317  1.00  0.00     0.031 C 
ATOM     53  C   UNL A   1      44.511  31.632  31.301  1.00  0.00     0.029 A 
ATOM     54  C   UNL A   1      44.885  30.354  30.879  1.00  0.00     0.049 A 
ATOM     55  H   UNL A   1      45.182  28.747  32.210  1.00  0.00     0.167 HD
ATOM     56  C   UNL A   1      45.235  28.511  29.234  1.00  0.00     0.074 A 
ATOM     57  C   UNL A   1      45.095  27.297  30.033  1.00  0.00     0.031 C 
ATOM     58  C   UNL A   1      45.224  29.834  29.569  1.00  0.00     0.037 A 
BRANCH  45  59
ATOM     59  C   UNL A   1      43.084  28.280  34.407  1.00  0.00     0.058 A 
ATOM     60  C   UNL A   1      43.274  28.764  35.723  1.00  0.00     0.135 A 
ATOM     61  C   UNL A   1      43.528  26.958  34.186  1.00  0.00     0.135 A 
ATOM     62  F   UNL A   1      42.893  30.008  36.057  1.00  0.00    -0.206 F 
ATOM     63  C   UNL A   1      43.923  28.022  36.715  1.00  0.00     0.059 A 
ATOM     64  C   UNL A   1      44.129  26.182  35.176  1.00  0.00     0.059 A 
ATOM     65  F   UNL A   1      43.493  26.391  32.974  1.00  0.00    -0.206 F 
ATOM     66  C   UNL A   1      44.366  26.738  36.424  1.00  0.00     0.060 A 
BRANCH  66  67
ATOM     67  S   UNL A   1      45.317  25.825  37.654  1.00  0.00     0.124 S 
ATOM     68  O   UNL A   1      45.136  24.452  37.201  1.00  0.00    -0.237 OA
ATOM     69  O   UNL A   1      46.655  26.384  37.488  1.00  0.00    -0.237 OA
ATOM     70  O   UNL A   1      44.656  26.168  38.910  1.00  0.00    -0.744 OA
ENDBRANCH  66  67
ENDBRANCH  45  59
BRANCH  46  71
ATOM     71  C   UNL A   1      43.527  25.088  26.420  1.00  0.00     0.058 A 
ATOM     72  C   UNL A   1      44.390  24.873  25.336  1.00  0.00     0.135 A 
ATOM     73  C   UNL A   1      42.940  23.942  27.000  1.00  0.00     0.135 A 
ATOM     74  F   UNL A   1      44.993  25.911  24.741  1.00  0.00    -0.206 F 
ATOM     75  C   UNL A   1      44.699  23.589  24.882  1.00  0.00     0.059 A 
ATOM     76  C   UNL A   1      43.229  22.651  26.560  1.00  0.00     0.059 A 
ATOM     77  F   UNL A   1      42.138  24.046  28.071  1.00  0.00    -0.206 F 
ATOM     78  C   UNL A   1      44.133  22.482  25.517  1.00  0.00     0.060 A 
BRANCH  78  79
ATOM     79  S   UNL A   1      44.687  20.825  25.054  1.00  0.00     0.124 S 
ATOM     80  O   UNL A   1      44.583  20.869  23.600  1.00  0.00    -0.237 OA
ATOM     81  O   UNL A   1      46.041  20.794  25.597  1.00  0.00    -0.237 OA
ATOM     82  O   UNL A   1      43.730  19.948  25.724  1.00  0.00    -0.744 OA
ENDBRANCH  78  79
ENDBRANCH  46  71
BRANCH  58  83
ATOM     83  C   UNL A   1      45.323  30.852  28.458  1.00  0.00     0.058 A 
ATOM     84  C   UNL A   1      44.214  31.436  27.822  1.00  0.00     0.135 A 
ATOM     85  C   UNL A   1      46.583  31.397  28.166  1.00  0.00     0.135 A 
ATOM     86  F   UNL A   1      42.969  31.044  28.115  1.00  0.00    -0.206 F 
ATOM     87  C   UNL A   1      44.347  32.499  26.928  1.00  0.00     0.059 A 
ATOM     88  C   UNL A   1      46.738  32.477  27.300  1.00  0.00     0.059 A 
ATOM     89  F   UNL A   1      47.676  30.924  28.785  1.00  0.00    -0.206 F 
ATOM     90  C   UNL A   1      45.615  33.022  26.681  1.00  0.00     0.060 A 
BRANCH  90  91
ATOM     91  S   UNL A   1      45.770  34.485  25.633  1.00  0.00     0.124 S 
ATOM     92  O   UNL A   1      45.352  35.554  26.533  1.00  0.00    -0.237 OA
ATOM     93  O   UNL A   1      47.185  34.475  25.275  1.00  0.00    -0.237 OA
ATOM     94  O   UNL A   1      44.857  34.208  24.526  1.00  0.00    -0.744 OA
ENDBRANCH  90  91
ENDBRANCH  58  83
ENDBRANCH  32  33
ENDBRANCH  24  27
ENDBRANCH  22  23
ENDBRANCH   1  22
TORSDOF 16
ENDMDL
