MODEL 1
REMARK VINA RESULT:     -12.4      0.000      0.000
REMARK SMILES CC(C)CN(C)c1cc2c(cc1Cl)C=C(C(=O)NCCCNC(=O)c1ccc(-c3c4nc(c(-c5c(F)cc(S(=O)(=O)[O-])cc5F)c5ccc([nH]5)c(-c5c(F)cc(S(=O)(=O)[O-])cc5F)c5nc(c(-c6c(F)cc(S(=O)(=O)[O-])cc6F)c6ccc3[nH]6)C=C5)C=C4)cc1)[C@@H](C(F)(F)F)O2
REMARK SMILES IDX 20 1 19 2 18 3 16 4 17 5 15 7 7 8 8 9 12 10 9 11 11 12 13 13
REMARK SMILES IDX 10 14 96 15 14 16 91 17 5 18 6 19 4 20 2 21 1 22 3 23 92 24
REMARK SMILES IDX 93 25 94 26 95 27 21 28 22 29 23 30 24 32 25 33 26 34 90 35
REMARK SMILES IDX 27 36 89 37 28 38 29 39 30 40 83 41 31 42 88 43 82 44 84 45
REMARK SMILES IDX 32 46 87 47 81 48 80 49 33 51 67 52 46 53 66 54 47 55 50 56
REMARK SMILES IDX 65 57 85 58 48 59 49 60 64 62 86 63 51 64 34 65 35 66 44 67
REMARK SMILES IDX 36 68 37 69 43 70 45 71 38 72 39 73 40 74 41 75 42 76 68 77
REMARK SMILES IDX 69 78 78 79 70 80 71 81 77 82 79 83 72 84 73 85 74 86 75 87
REMARK SMILES IDX 76 88 52 89 53 90 62 91 54 92 55 93 61 94 63 95 56 96 57 97
REMARK SMILES IDX 58 98 59 99 60 100
REMARK H PARENT 18 6 22 31 84 50 50 61
REMARK Flexibility Score: inf
ROOT
ATOM      1  C   UNL A   1      34.289  31.401  27.644  1.00  0.00     0.042 C 
ENDROOT
BRANCH   1   2
ATOM      2  C   UNL A   1      33.785  30.007  27.311  1.00  0.00     0.118 C 
BRANCH   2   3
ATOM      3  N   UNL A   1      32.685  30.050  26.361  1.00  0.00    -0.352 N 
ATOM      4  C   UNL A   1      31.970  29.159  25.640  1.00  0.00     0.251 C 
ATOM      5  O   UNL A   1      31.080  29.646  24.933  1.00  0.00    -0.270 OA
ATOM      6  H   UNL A   1      32.382  30.972  26.199  1.00  0.00     0.163 HD
BRANCH   4   7
ATOM      7  C   UNL A   1      32.174  27.688  25.657  1.00  0.00     0.067 C 
ATOM      8  C   UNL A   1      34.051  23.031  25.232  1.00  0.00     0.059 A 
ATOM      9  C   UNL A   1      33.136  23.645  26.104  1.00  0.00     0.074 A 
ATOM     10  C   UNL A   1      34.640  23.838  24.229  1.00  0.00     0.065 A 
ATOM     11  C   UNL A   1      32.857  25.005  25.994  1.00  0.00     0.130 A 
ATOM     12  C   UNL A   1      34.440  25.222  24.198  1.00  0.00     0.034 A 
ATOM     13  Cl  UNL A   1      35.606  23.169  22.957  1.00  0.00    -0.082 Cl
ATOM     14  C   UNL A   1      33.555  25.810  25.094  1.00  0.00     0.019 A 
ATOM     15  O   UNL A   1      31.866  25.517  26.791  1.00  0.00    -0.475 OA
ATOM     16  C   UNL A   1      33.324  27.248  25.113  1.00  0.00     0.025 C 
ATOM     17  C   UNL A   1      31.202  26.683  26.211  1.00  0.00     0.314 C 
BRANCH   8  18
ATOM     18  N   UNL A   1      34.379  21.673  25.389  1.00  0.00    -0.373 N 
ATOM     19  C   UNL A   1      33.266  20.807  25.776  1.00  0.00     0.143 C 
BRANCH  18  20
ATOM     20  C   UNL A   1      35.678  21.397  26.045  1.00  0.00     0.119 C 
BRANCH  20  21
ATOM     21  C   UNL A   1      36.786  21.029  25.036  1.00  0.00     0.002 C 
ATOM     22  C   UNL A   1      38.142  21.633  25.416  1.00  0.00     0.009 C 
ATOM     23  C   UNL A   1      36.941  19.511  24.910  1.00  0.00     0.009 C 
ENDBRANCH  20  21
ENDBRANCH  18  20
ENDBRANCH   8  18
BRANCH  17  24
ATOM     24  C   UNL A   1      30.156  26.254  25.153  1.00  0.00     0.429 C 
ATOM     25  F   UNL A   1      29.016  25.827  25.750  1.00  0.00    -0.167 F 
ATOM     26  F   UNL A   1      29.803  27.278  24.337  1.00  0.00    -0.167 F 
ATOM     27  F   UNL A   1      30.586  25.258  24.345  1.00  0.00    -0.167 F 
ENDBRANCH  17  24
ENDBRANCH   4   7
ENDBRANCH   2   3
ENDBRANCH   1   2
BRANCH   1  28
ATOM     28  C   UNL A   1      35.651  31.375  28.323  1.00  0.00     0.118 C 
BRANCH  28  29
ATOM     29  N   UNL A   1      35.572  30.868  29.692  1.00  0.00    -0.352 N 
ATOM     30  C   UNL A   1      36.494  30.162  30.429  1.00  0.00     0.251 C 
ATOM     31  H   UNL A   1      34.727  31.061  30.159  1.00  0.00     0.163 HD
ATOM     32  O   UNL A   1      36.151  29.620  31.477  1.00  0.00    -0.269 OA
BRANCH  30  33
ATOM     33  C   UNL A   1      37.883  30.044  29.945  1.00  0.00     0.039 A 
ATOM     34  C   UNL A   1      38.133  29.862  28.586  1.00  0.00     0.014 A 
ATOM     35  C   UNL A   1      38.944  30.091  30.853  1.00  0.00     0.014 A 
ATOM     36  C   UNL A   1      39.405  29.506  28.166  1.00  0.00     0.010 A 
ATOM     37  C   UNL A   1      40.247  29.853  30.406  1.00  0.00     0.010 A 
ATOM     38  C   UNL A   1      40.481  29.499  29.068  1.00  0.00    -0.014 A 
BRANCH  38  39
ATOM     39  C   UNL A   1      41.829  29.109  28.579  1.00  0.00     0.031 A 
ATOM     40  C   UNL A   1      42.973  30.089  28.612  1.00  0.00     0.074 A 
ATOM     41  C   UNL A   1      42.036  27.837  28.182  1.00  0.00     0.049 A 
ATOM     42  N   UNL A   1      44.214  29.917  28.233  1.00  0.00    -0.248 NA
ATOM     43  C   UNL A   1      42.693  31.437  29.135  1.00  0.00     0.031 C 
ATOM     44  C   UNL A   1      41.008  26.792  28.129  1.00  0.00     0.029 A 
ATOM     45  N   UNL A   1      43.179  27.192  27.784  1.00  0.00    -0.354 N 
ATOM     46  C   UNL A   1      44.854  31.132  28.449  1.00  0.00     0.074 A 
ATOM     47  C   UNL A   1      43.860  32.046  28.967  1.00  0.00     0.031 C 
ATOM     48  C   UNL A   1      41.579  25.627  27.793  1.00  0.00     0.029 A 
ATOM     49  C   UNL A   1      42.993  25.854  27.524  1.00  0.00     0.049 A 
ATOM     50  H   UNL A   1      44.049  27.643  27.691  1.00  0.00     0.167 HD
ATOM     51  C   UNL A   1      46.155  31.450  28.248  1.00  0.00     0.037 A 
ATOM     52  C   UNL A   1      43.859  24.915  27.098  1.00  0.00     0.037 A 
ATOM     53  C   UNL A   1      47.144  30.524  27.762  1.00  0.00     0.049 A 
ATOM     54  C   UNL A   1      45.283  25.310  26.835  1.00  0.00     0.074 A 
ATOM     55  C   UNL A   1      48.490  30.749  27.527  1.00  0.00     0.029 A 
ATOM     56  N   UNL A   1      46.901  29.196  27.445  1.00  0.00    -0.354 N 
ATOM     57  N   UNL A   1      45.862  26.472  27.022  1.00  0.00    -0.248 NA
ATOM     58  C   UNL A   1      46.168  24.274  26.288  1.00  0.00     0.031 C 
ATOM     59  C   UNL A   1      49.051  29.567  27.034  1.00  0.00     0.029 A 
ATOM     60  C   UNL A   1      48.066  28.593  27.003  1.00  0.00     0.049 A 
ATOM     61  H   UNL A   1      46.028  28.747  27.524  1.00  0.00     0.167 HD
ATOM     62  C   UNL A   1      47.182  26.306  26.621  1.00  0.00     0.074 A 
ATOM     63  C   UNL A   1      47.320  24.925  26.205  1.00  0.00     0.031 C 
ATOM     64  C   UNL A   1      48.185  27.216  26.594  1.00  0.00     0.037 A 
BRANCH  51  65
ATOM     65  C   UNL A   1      46.594  32.858  28.548  1.00  0.00     0.058 A 
ATOM     66  C   UNL A   1      46.543  33.868  27.575  1.00  0.00     0.135 A 
ATOM     67  C   UNL A   1      47.003  33.217  29.843  1.00  0.00     0.135 A 
ATOM     68  F   UNL A   1      46.180  33.577  26.316  1.00  0.00    -0.206 F 
ATOM     69  C   UNL A   1      46.889  35.183  27.873  1.00  0.00     0.059 A 
ATOM     70  C   UNL A   1      47.331  34.530  30.170  1.00  0.00     0.059 A 
ATOM     71  F   UNL A   1      47.072  32.289  30.810  1.00  0.00    -0.206 F 
ATOM     72  C   UNL A   1      47.277  35.506  29.175  1.00  0.00     0.060 A 
BRANCH  72  73
ATOM     73  S   UNL A   1      47.695  37.222  29.547  1.00  0.00     0.124 S 
ATOM     74  O   UNL A   1      48.290  37.095  30.874  1.00  0.00    -0.237 OA
ATOM     75  O   UNL A   1      48.619  37.557  28.470  1.00  0.00    -0.237 OA
ATOM     76  O   UNL A   1      46.406  37.906  29.501  1.00  0.00    -0.744 OA
ENDBRANCH  72  73
ENDBRANCH  51  65
BRANCH  52  77
ATOM     77  C   UNL A   1      43.392  23.521  26.879  1.00  0.00     0.058 A 
ATOM     78  C   UNL A   1      43.181  23.026  25.586  1.00  0.00     0.135 A 
ATOM     79  C   UNL A   1      43.174  22.649  27.958  1.00  0.00     0.135 A 
ATOM     80  F   UNL A   1      43.369  23.822  24.523  1.00  0.00    -0.206 F 
ATOM     81  C   UNL A   1      42.761  21.717  25.367  1.00  0.00     0.059 A 
ATOM     82  C   UNL A   1      42.782  21.329  27.765  1.00  0.00     0.059 A 
ATOM     83  F   UNL A   1      43.376  23.071  29.216  1.00  0.00    -0.206 F 
ATOM     84  C   UNL A   1      42.569  20.875  26.465  1.00  0.00     0.060 A 
BRANCH  84  85
ATOM     85  S   UNL A   1      42.074  19.164  26.168  1.00  0.00     0.124 S 
ATOM     86  O   UNL A   1      42.451  18.528  27.425  1.00  0.00    -0.237 OA
ATOM     87  O   UNL A   1      40.642  19.298  25.923  1.00  0.00    -0.237 OA
ATOM     88  O   UNL A   1      42.869  18.782  25.004  1.00  0.00    -0.744 OA
ENDBRANCH  84  85
ENDBRANCH  52  77
BRANCH  64  89
ATOM     89  C   UNL A   1      49.527  26.747  26.109  1.00  0.00     0.058 A 
ATOM     90  C   UNL A   1      49.938  26.952  24.783  1.00  0.00     0.135 A 
ATOM     91  C   UNL A   1      50.434  26.144  26.996  1.00  0.00     0.135 A 
ATOM     92  F   UNL A   1      49.103  27.517  23.897  1.00  0.00    -0.206 F 
ATOM     93  C   UNL A   1      51.198  26.562  24.348  1.00  0.00     0.059 A 
ATOM     94  C   UNL A   1      51.709  25.769  26.588  1.00  0.00     0.059 A 
ATOM     95  F   UNL A   1      50.090  25.934  28.276  1.00  0.00    -0.206 F 
ATOM     96  C   UNL A   1      52.079  25.975  25.259  1.00  0.00     0.060 A 
BRANCH  96  97
ATOM     97  S   UNL A   1      53.728  25.515  24.688  1.00  0.00     0.124 S 
ATOM     98  O   UNL A   1      54.576  26.165  25.683  1.00  0.00    -0.237 OA
ATOM     99  O   UNL A   1      53.684  24.058  24.750  1.00  0.00    -0.237 OA
ATOM    100  O   UNL A   1      53.793  26.079  23.344  1.00  0.00    -0.744 OA
ENDBRANCH  96  97
ENDBRANCH  64  89
ENDBRANCH  38  39
ENDBRANCH  30  33
ENDBRANCH  28  29
ENDBRANCH   1  28
TORSDOF 17
ENDMDL
MODEL 2
REMARK VINA RESULT:     -12.4      2.662      8.723
REMARK SMILES CC(C)CN(C)c1cc2c(cc1Cl)C=C(C(=O)NCCCNC(=O)c1ccc(-c3c4nc(c(-c5c(F)cc(S(=O)(=O)[O-])cc5F)c5ccc([nH]5)c(-c5c(F)cc(S(=O)(=O)[O-])cc5F)c5nc(c(-c6c(F)cc(S(=O)(=O)[O-])cc6F)c6ccc3[nH]6)C=C5)C=C4)cc1)[C@@H](C(F)(F)F)O2
REMARK SMILES IDX 20 1 19 2 18 3 16 4 17 5 15 7 7 8 8 9 12 10 9 11 11 12 13 13
REMARK SMILES IDX 10 14 96 15 14 16 91 17 5 18 6 19 4 20 2 21 1 22 3 23 92 24
REMARK SMILES IDX 93 25 94 26 95 27 21 28 22 29 23 30 24 32 25 33 26 34 90 35
REMARK SMILES IDX 27 36 89 37 28 38 29 39 30 40 83 41 31 42 88 43 82 44 84 45
REMARK SMILES IDX 32 46 87 47 81 48 80 49 33 51 67 52 46 53 66 54 47 55 50 56
REMARK SMILES IDX 65 57 85 58 48 59 49 60 64 62 86 63 51 64 34 65 35 66 44 67
REMARK SMILES IDX 36 68 37 69 43 70 45 71 38 72 39 73 40 74 41 75 42 76 68 77
REMARK SMILES IDX 69 78 78 79 70 80 71 81 77 82 79 83 72 84 73 85 74 86 75 87
REMARK SMILES IDX 76 88 52 89 53 90 62 91 54 92 55 93 61 94 63 95 56 96 57 97
REMARK SMILES IDX 58 98 59 99 60 100
REMARK H PARENT 18 6 22 31 84 50 50 61
REMARK Flexibility Score: inf
ROOT
ATOM      1  C   UNL A   1      38.339  19.133  25.356  1.00  0.00     0.042 C 
ENDROOT
BRANCH   1   2
ATOM      2  C   UNL A   1      37.296  19.957  24.620  1.00  0.00     0.118 C 
BRANCH   2   3
ATOM      3  N   UNL A   1      35.946  19.566  24.993  1.00  0.00    -0.352 N 
ATOM      4  C   UNL A   1      34.751  20.175  25.151  1.00  0.00     0.251 C 
ATOM      5  O   UNL A   1      33.821  19.433  25.484  1.00  0.00    -0.270 OA
ATOM      6  H   UNL A   1      35.888  18.601  25.180  1.00  0.00     0.163 HD
BRANCH   4   7
ATOM      7  C   UNL A   1      34.499  21.625  24.943  1.00  0.00     0.067 C 
ATOM      8  C   UNL A   1      32.883  26.089  23.258  1.00  0.00     0.059 A 
ATOM      9  C   UNL A   1      33.260  25.594  24.517  1.00  0.00     0.074 A 
ATOM     10  C   UNL A   1      32.917  25.191  22.165  1.00  0.00     0.065 A 
ATOM     11  C   UNL A   1      33.619  24.257  24.673  1.00  0.00     0.130 A 
ATOM     12  C   UNL A   1      33.168  23.827  22.351  1.00  0.00     0.034 A 
ATOM     13  Cl  UNL A   1      32.694  25.718  20.531  1.00  0.00    -0.082 Cl
ATOM     14  C   UNL A   1      33.507  23.356  23.615  1.00  0.00     0.019 A 
ATOM     15  O   UNL A   1      34.095  23.865  25.897  1.00  0.00    -0.475 OA
ATOM     16  C   UNL A   1      33.762  21.944  23.864  1.00  0.00     0.025 C 
ATOM     17  C   UNL A   1      35.013  22.730  25.824  1.00  0.00     0.314 C 
BRANCH   8  18
ATOM     18  N   UNL A   1      32.459  27.422  23.119  1.00  0.00    -0.373 N 
ATOM     19  C   UNL A   1      33.534  28.413  23.069  1.00  0.00     0.143 C 
BRANCH  18  20
ATOM     20  C   UNL A   1      31.259  27.801  23.899  1.00  0.00     0.119 C 
BRANCH  20  21
ATOM     21  C   UNL A   1      29.947  27.573  23.121  1.00  0.00     0.002 C 
ATOM     22  C   UNL A   1      28.969  26.671  23.881  1.00  0.00     0.009 C 
ATOM     23  C   UNL A   1      29.250  28.900  22.806  1.00  0.00     0.009 C 
ENDBRANCH  20  21
ENDBRANCH  18  20
ENDBRANCH   8  18
BRANCH  17  24
ATOM     24  C   UNL A   1      36.429  23.191  25.399  1.00  0.00     0.429 C 
ATOM     25  F   UNL A   1      36.598  24.513  25.643  1.00  0.00    -0.167 F 
ATOM     26  F   UNL A   1      37.405  22.545  26.084  1.00  0.00    -0.167 F 
ATOM     27  F   UNL A   1      36.690  22.986  24.088  1.00  0.00    -0.167 F 
ENDBRANCH  17  24
ENDBRANCH   4   7
ENDBRANCH   2   3
ENDBRANCH   1   2
BRANCH   1  28
ATOM     28  C   UNL A   1      39.481  19.989  25.887  1.00  0.00     0.118 C 
BRANCH  28  29
ATOM     29  N   UNL A   1      40.691  19.205  26.125  1.00  0.00    -0.352 N 
ATOM     30  C   UNL A   1      41.988  19.616  26.327  1.00  0.00     0.251 C 
ATOM     31  H   UNL A   1      40.558  18.229  26.142  1.00  0.00     0.163 HD
ATOM     32  O   UNL A   1      42.903  18.799  26.271  1.00  0.00    -0.269 OA
BRANCH  30  33
ATOM     33  C   UNL A   1      42.271  21.041  26.589  1.00  0.00     0.039 A 
ATOM     34  C   UNL A   1      42.225  21.963  25.545  1.00  0.00     0.014 A 
ATOM     35  C   UNL A   1      42.608  21.459  27.880  1.00  0.00     0.014 A 
ATOM     36  C   UNL A   1      42.727  23.241  25.738  1.00  0.00     0.010 A 
ATOM     37  C   UNL A   1      42.997  22.784  28.097  1.00  0.00     0.010 A 
ATOM     38  C   UNL A   1      43.117  23.671  27.016  1.00  0.00    -0.014 A 
BRANCH  38  39
ATOM     39  C   UNL A   1      43.653  25.047  27.180  1.00  0.00     0.031 A 
ATOM     40  C   UNL A   1      42.784  26.151  27.725  1.00  0.00     0.074 A 
ATOM     41  C   UNL A   1      44.955  25.277  26.913  1.00  0.00     0.049 A 
ATOM     42  N   UNL A   1      43.088  27.406  27.941  1.00  0.00    -0.248 NA
ATOM     43  C   UNL A   1      41.395  25.809  28.073  1.00  0.00     0.031 C 
ATOM     44  C   UNL A   1      45.900  24.278  26.403  1.00  0.00     0.029 A 
ATOM     45  N   UNL A   1      45.721  26.404  27.067  1.00  0.00    -0.354 N 
ATOM     46  C   UNL A   1      41.931  28.004  28.425  1.00  0.00     0.074 A 
ATOM     47  C   UNL A   1      40.906  26.984  28.447  1.00  0.00     0.031 C 
ATOM     48  C   UNL A   1      47.127  24.815  26.354  1.00  0.00     0.029 A 
ATOM     49  C   UNL A   1      47.045  26.216  26.747  1.00  0.00     0.049 A 
ATOM     50  H   UNL A   1      45.358  27.265  27.375  1.00  0.00     0.167 HD
ATOM     51  C   UNL A   1      41.745  29.284  28.828  1.00  0.00     0.037 A 
ATOM     52  C   UNL A   1      48.079  27.079  26.750  1.00  0.00     0.037 A 
ATOM     53  C   UNL A   1      42.780  30.285  28.833  1.00  0.00     0.049 A 
ATOM     54  C   UNL A   1      47.831  28.504  27.153  1.00  0.00     0.074 A 
ATOM     55  C   UNL A   1      42.693  31.610  29.226  1.00  0.00     0.029 A 
ATOM     56  N   UNL A   1      44.092  30.072  28.437  1.00  0.00    -0.354 N 
ATOM     57  N   UNL A   1      46.722  29.055  27.584  1.00  0.00    -0.248 NA
ATOM     58  C   UNL A   1      48.969  29.427  27.056  1.00  0.00     0.031 C 
ATOM     59  C   UNL A   1      43.942  32.206  29.032  1.00  0.00     0.029 A 
ATOM     60  C   UNL A   1      44.820  31.243  28.560  1.00  0.00     0.049 A 
ATOM     61  H   UNL A   1      44.453  29.214  28.115  1.00  0.00     0.167 HD
ATOM     62  C   UNL A   1      47.029  30.390  27.815  1.00  0.00     0.074 A 
ATOM     63  C   UNL A   1      48.433  30.556  27.500  1.00  0.00     0.031 C 
ATOM     64  C   UNL A   1      46.219  31.389  28.243  1.00  0.00     0.037 A 
BRANCH  51  65
ATOM     65  C   UNL A   1      40.373  29.686  29.298  1.00  0.00     0.058 A 
ATOM     66  C   UNL A   1      40.098  29.918  30.654  1.00  0.00     0.135 A 
ATOM     67  C   UNL A   1      39.340  29.912  28.373  1.00  0.00     0.135 A 
ATOM     68  F   UNL A   1      41.043  29.699  31.583  1.00  0.00    -0.206 F 
ATOM     69  C   UNL A   1      38.846  30.354  31.079  1.00  0.00     0.059 A 
ATOM     70  C   UNL A   1      38.087  30.370  28.773  1.00  0.00     0.059 A 
ATOM     71  F   UNL A   1      39.549  29.703  27.065  1.00  0.00    -0.206 F 
ATOM     72  C   UNL A   1      37.848  30.581  30.130  1.00  0.00     0.060 A 
BRANCH  72  73
ATOM     73  S   UNL A   1      36.239  31.172  30.699  1.00  0.00     0.124 S 
ATOM     74  O   UNL A   1      35.441  31.056  29.482  1.00  0.00    -0.237 OA
ATOM     75  O   UNL A   1      35.917  30.222  31.759  1.00  0.00    -0.237 OA
ATOM     76  O   UNL A   1      36.513  32.535  31.142  1.00  0.00    -0.744 OA
ENDBRANCH  72  73
ENDBRANCH  51  65
BRANCH  52  77
ATOM     77  C   UNL A   1      49.431  26.617  26.340  1.00  0.00     0.058 A 
ATOM     78  C   UNL A   1      50.283  25.977  27.251  1.00  0.00     0.135 A 
ATOM     79  C   UNL A   1      49.887  26.782  25.022  1.00  0.00     0.135 A 
ATOM     80  F   UNL A   1      49.895  25.802  28.523  1.00  0.00    -0.206 F 
ATOM     81  C   UNL A   1      51.543  25.524  26.874  1.00  0.00     0.059 A 
ATOM     82  C   UNL A   1      51.130  26.313  24.613  1.00  0.00     0.059 A 
ATOM     83  F   UNL A   1      49.103  27.376  24.108  1.00  0.00    -0.206 F 
ATOM     84  C   UNL A   1      51.955  25.693  25.550  1.00  0.00     0.060 A 
BRANCH  84  85
ATOM     85  S   UNL A   1      53.572  25.056  25.058  1.00  0.00     0.124 S 
ATOM     86  O   UNL A   1      54.434  25.616  26.093  1.00  0.00    -0.237 OA
ATOM     87  O   UNL A   1      53.361  23.613  25.114  1.00  0.00    -0.237 OA
ATOM     88  O   UNL A   1      53.756  25.605  23.718  1.00  0.00    -0.744 OA
ENDBRANCH  84  85
ENDBRANCH  52  77
BRANCH  64  89
ATOM     89  C   UNL A   1      46.832  32.749  28.408  1.00  0.00     0.058 A 
ATOM     90  C   UNL A   1      46.816  33.690  27.367  1.00  0.00     0.135 A 
ATOM     91  C   UNL A   1      47.384  33.137  29.640  1.00  0.00     0.135 A 
ATOM     92  F   UNL A   1      46.308  33.363  26.169  1.00  0.00    -0.206 F 
ATOM     93  C   UNL A   1      47.341  34.966  27.536  1.00  0.00     0.059 A 
ATOM     94  C   UNL A   1      47.891  34.417  29.839  1.00  0.00     0.059 A 
ATOM     95  F   UNL A   1      47.414  32.276  30.669  1.00  0.00    -0.206 F 
ATOM     96  C   UNL A   1      47.872  35.322  28.778  1.00  0.00     0.060 A 
BRANCH  96  97
ATOM     97  S   UNL A   1      48.507  36.997  28.994  1.00  0.00     0.124 S 
ATOM     98  O   UNL A   1      47.482  37.592  29.846  1.00  0.00    -0.237 OA
ATOM     99  O   UNL A   1      49.799  36.760  29.630  1.00  0.00    -0.237 OA
ATOM    100  O   UNL A   1      48.570  37.516  27.631  1.00  0.00    -0.744 OA
ENDBRANCH  96  97
ENDBRANCH  64  89
ENDBRANCH  38  39
ENDBRANCH  30  33
ENDBRANCH  28  29
ENDBRANCH   1  28
TORSDOF 17
ENDMDL
MODEL 3
REMARK VINA RESULT:     -12.4      2.456      8.732
REMARK SMILES CC(C)CN(C)c1cc2c(cc1Cl)C=C(C(=O)NCCCNC(=O)c1ccc(-c3c4nc(c(-c5c(F)cc(S(=O)(=O)[O-])cc5F)c5ccc([nH]5)c(-c5c(F)cc(S(=O)(=O)[O-])cc5F)c5nc(c(-c6c(F)cc(S(=O)(=O)[O-])cc6F)c6ccc3[nH]6)C=C5)C=C4)cc1)[C@@H](C(F)(F)F)O2
REMARK SMILES IDX 20 1 19 2 18 3 16 4 17 5 15 7 7 8 8 9 12 10 9 11 11 12 13 13
REMARK SMILES IDX 10 14 96 15 14 16 91 17 5 18 6 19 4 20 2 21 1 22 3 23 92 24
REMARK SMILES IDX 93 25 94 26 95 27 21 28 22 29 23 30 24 32 25 33 26 34 90 35
REMARK SMILES IDX 27 36 89 37 28 38 29 39 30 40 83 41 31 42 88 43 82 44 84 45
REMARK SMILES IDX 32 46 87 47 81 48 80 49 33 51 67 52 46 53 66 54 47 55 50 56
REMARK SMILES IDX 65 57 85 58 48 59 49 60 64 62 86 63 51 64 34 65 35 66 44 67
REMARK SMILES IDX 36 68 37 69 43 70 45 71 38 72 39 73 40 74 41 75 42 76 68 77
REMARK SMILES IDX 69 78 78 79 70 80 71 81 77 82 79 83 72 84 73 85 74 86 75 87
REMARK SMILES IDX 76 88 52 89 53 90 62 91 54 92 55 93 61 94 63 95 56 96 57 97
REMARK SMILES IDX 58 98 59 99 60 100
REMARK H PARENT 18 6 22 31 84 50 50 61
REMARK Flexibility Score: inf
ROOT
ATOM      1  C   UNL A   1      38.240  20.142  24.984  1.00  0.00     0.042 C 
ENDROOT
BRANCH   1   2
ATOM      2  C   UNL A   1      37.118  21.164  25.065  1.00  0.00     0.118 C 
BRANCH   2   3
ATOM      3  N   UNL A   1      35.835  20.529  25.320  1.00  0.00    -0.352 N 
ATOM      4  C   UNL A   1      34.532  20.873  25.240  1.00  0.00     0.251 C 
ATOM      5  O   UNL A   1      33.731  19.986  25.558  1.00  0.00    -0.270 OA
ATOM      6  H   UNL A   1      35.946  19.603  25.634  1.00  0.00     0.163 HD
BRANCH   4   7
ATOM      7  C   UNL A   1      34.025  22.198  24.799  1.00  0.00     0.067 C 
ATOM      8  C   UNL A   1      32.575  27.018  24.552  1.00  0.00     0.059 A 
ATOM      9  C   UNL A   1      33.128  26.111  23.633  1.00  0.00     0.074 A 
ATOM     10  C   UNL A   1      32.364  26.560  25.875  1.00  0.00     0.065 A 
ATOM     11  C   UNL A   1      33.481  24.824  24.033  1.00  0.00     0.130 A 
ATOM     12  C   UNL A   1      32.825  25.307  26.294  1.00  0.00     0.034 A 
ATOM     13  Cl  UNL A   1      31.491  27.492  27.045  1.00  0.00    -0.082 Cl
ATOM     14  C   UNL A   1      33.399  24.441  25.371  1.00  0.00     0.019 A 
ATOM     15  O   UNL A   1      33.899  23.949  23.063  1.00  0.00    -0.475 OA
ATOM     16  C   UNL A   1      33.909  23.133  25.760  1.00  0.00     0.025 C 
ATOM     17  C   UNL A   1      33.629  22.551  23.391  1.00  0.00     0.314 C 
BRANCH   8  18
ATOM     18  N   UNL A   1      32.281  28.335  24.160  1.00  0.00    -0.373 N 
ATOM     19  C   UNL A   1      33.244  29.343  24.604  1.00  0.00     0.143 C 
BRANCH  18  20
ATOM     20  C   UNL A   1      30.854  28.724  24.228  1.00  0.00     0.119 C 
BRANCH  20  21
ATOM     21  C   UNL A   1      30.107  28.473  22.902  1.00  0.00     0.002 C 
ATOM     22  C   UNL A   1      28.625  28.149  23.121  1.00  0.00     0.009 C 
ATOM     23  C   UNL A   1      30.213  29.681  21.966  1.00  0.00     0.009 C 
ENDBRANCH  20  21
ENDBRANCH  18  20
ENDBRANCH   8  18
BRANCH  17  24
ATOM     24  C   UNL A   1      32.150  22.192  23.106  1.00  0.00     0.429 C 
ATOM     25  F   UNL A   1      31.575  21.622  24.193  1.00  0.00    -0.167 F 
ATOM     26  F   UNL A   1      31.406  23.286  22.805  1.00  0.00    -0.167 F 
ATOM     27  F   UNL A   1      31.995  21.334  22.072  1.00  0.00    -0.167 F 
ENDBRANCH  17  24
ENDBRANCH   4   7
ENDBRANCH   2   3
ENDBRANCH   1   2
BRANCH   1  28
ATOM     28  C   UNL A   1      39.444  20.540  25.825  1.00  0.00     0.118 C 
BRANCH  28  29
ATOM     29  N   UNL A   1      40.364  19.422  26.030  1.00  0.00    -0.352 N 
ATOM     30  C   UNL A   1      41.735  19.413  26.147  1.00  0.00     0.251 C 
ATOM     31  H   UNL A   1      39.936  18.538  26.093  1.00  0.00     0.163 HD
ATOM     32  O   UNL A   1      42.346  18.350  26.075  1.00  0.00    -0.269 OA
BRANCH  30  33
ATOM     33  C   UNL A   1      42.461  20.683  26.336  1.00  0.00     0.039 A 
ATOM     34  C   UNL A   1      42.573  21.239  27.610  1.00  0.00     0.014 A 
ATOM     35  C   UNL A   1      43.016  21.340  25.233  1.00  0.00     0.014 A 
ATOM     36  C   UNL A   1      43.034  22.538  27.751  1.00  0.00     0.010 A 
ATOM     37  C   UNL A   1      43.593  22.602  25.400  1.00  0.00     0.010 A 
ATOM     38  C   UNL A   1      43.552  23.238  26.651  1.00  0.00    -0.014 A 
BRANCH  38  39
ATOM     39  C   UNL A   1      44.033  24.631  26.844  1.00  0.00     0.031 A 
ATOM     40  C   UNL A   1      43.107  25.698  27.368  1.00  0.00     0.074 A 
ATOM     41  C   UNL A   1      45.333  24.909  26.622  1.00  0.00     0.049 A 
ATOM     42  N   UNL A   1      43.358  26.961  27.603  1.00  0.00    -0.248 NA
ATOM     43  C   UNL A   1      41.720  25.303  27.666  1.00  0.00     0.031 C 
ATOM     44  C   UNL A   1      46.330  23.950  26.135  1.00  0.00     0.029 A 
ATOM     45  N   UNL A   1      46.052  26.062  26.809  1.00  0.00    -0.354 N 
ATOM     46  C   UNL A   1      42.164  27.513  28.053  1.00  0.00     0.074 A 
ATOM     47  C   UNL A   1      41.177  26.456  28.033  1.00  0.00     0.031 C 
ATOM     48  C   UNL A   1      47.538  24.531  26.132  1.00  0.00     0.029 A 
ATOM     49  C   UNL A   1      47.393  25.925  26.532  1.00  0.00     0.049 A 
ATOM     50  H   UNL A   1      45.648  26.907  27.112  1.00  0.00     0.167 HD
ATOM     51  C   UNL A   1      41.919  28.781  28.460  1.00  0.00     0.037 A 
ATOM     52  C   UNL A   1      48.393  26.824  26.577  1.00  0.00     0.037 A 
ATOM     53  C   UNL A   1      42.916  29.819  28.507  1.00  0.00     0.049 A 
ATOM     54  C   UNL A   1      48.082  28.235  26.982  1.00  0.00     0.074 A 
ATOM     55  C   UNL A   1      42.769  31.136  28.907  1.00  0.00     0.029 A 
ATOM     56  N   UNL A   1      44.247  29.657  28.153  1.00  0.00    -0.354 N 
ATOM     57  N   UNL A   1      46.939  28.743  27.380  1.00  0.00    -0.248 NA
ATOM     58  C   UNL A   1      49.187  29.200  26.930  1.00  0.00     0.031 C 
ATOM     59  C   UNL A   1      44.001  31.779  28.759  1.00  0.00     0.029 A 
ATOM     60  C   UNL A   1      44.929  30.852  28.310  1.00  0.00     0.049 A 
ATOM     61  H   UNL A   1      44.650  28.816  27.836  1.00  0.00     0.167 HD
ATOM     62  C   UNL A   1      47.190  30.086  27.631  1.00  0.00     0.074 A 
ATOM     63  C   UNL A   1      48.597  30.305  27.365  1.00  0.00     0.031 C 
ATOM     64  C   UNL A   1      46.330  31.051  28.040  1.00  0.00     0.037 A 
BRANCH  51  65
ATOM     65  C   UNL A   1      40.519  29.130  28.887  1.00  0.00     0.058 A 
ATOM     66  C   UNL A   1      40.165  29.230  30.241  1.00  0.00     0.135 A 
ATOM     67  C   UNL A   1      39.537  29.439  27.930  1.00  0.00     0.135 A 
ATOM     68  F   UNL A   1      41.058  28.927  31.197  1.00  0.00    -0.206 F 
ATOM     69  C   UNL A   1      38.887  29.616  30.633  1.00  0.00     0.059 A 
ATOM     70  C   UNL A   1      38.259  29.849  28.299  1.00  0.00     0.059 A 
ATOM     71  F   UNL A   1      39.821  29.357  26.622  1.00  0.00    -0.206 F 
ATOM     72  C   UNL A   1      37.941  29.929  29.655  1.00  0.00     0.060 A 
BRANCH  72  73
ATOM     73  S   UNL A   1      36.297  30.454  30.185  1.00  0.00     0.124 S 
ATOM     74  O   UNL A   1      35.511  30.209  28.979  1.00  0.00    -0.237 OA
ATOM     75  O   UNL A   1      36.031  29.558  31.305  1.00  0.00    -0.237 OA
ATOM     76  O   UNL A   1      36.483  31.858  30.537  1.00  0.00    -0.744 OA
ENDBRANCH  72  73
ENDBRANCH  51  65
BRANCH  52  77
ATOM     77  C   UNL A   1      49.774  26.415  26.208  1.00  0.00     0.058 A 
ATOM     78  C   UNL A   1      50.283  26.661  24.926  1.00  0.00     0.135 A 
ATOM     79  C   UNL A   1      50.622  25.793  27.140  1.00  0.00     0.135 A 
ATOM     80  F   UNL A   1      49.510  27.247  23.999  1.00  0.00    -0.206 F 
ATOM     81  C   UNL A   1      51.579  26.300  24.575  1.00  0.00     0.059 A 
ATOM     82  C   UNL A   1      51.931  25.448  26.824  1.00  0.00     0.059 A 
ATOM     83  F   UNL A   1      50.187  25.549  28.387  1.00  0.00    -0.206 F 
ATOM     84  C   UNL A   1      52.397  25.697  25.534  1.00  0.00     0.060 A 
BRANCH  84  85
ATOM     85  S   UNL A   1      54.095  25.278  25.084  1.00  0.00     0.124 S 
ATOM     86  O   UNL A   1      54.247  25.991  23.821  1.00  0.00    -0.237 OA
ATOM     87  O   UNL A   1      54.851  25.810  26.213  1.00  0.00    -0.237 OA
ATOM     88  O   UNL A   1      54.067  23.821  24.988  1.00  0.00    -0.744 OA
ENDBRANCH  84  85
ENDBRANCH  52  77
BRANCH  64  89
ATOM     89  C   UNL A   1      46.888  32.431  28.236  1.00  0.00     0.058 A 
ATOM     90  C   UNL A   1      46.790  33.409  27.234  1.00  0.00     0.135 A 
ATOM     91  C   UNL A   1      47.470  32.797  29.461  1.00  0.00     0.135 A 
ATOM     92  F   UNL A   1      46.250  33.104  26.044  1.00  0.00    -0.206 F 
ATOM     93  C   UNL A   1      47.263  34.700  27.434  1.00  0.00     0.059 A 
ATOM     94  C   UNL A   1      47.927  34.090  29.691  1.00  0.00     0.059 A 
ATOM     95  F   UNL A   1      47.579  31.900  30.453  1.00  0.00    -0.206 F 
ATOM     96  C   UNL A   1      47.825  35.033  28.669  1.00  0.00     0.060 A 
BRANCH  96  97
ATOM     97  S   UNL A   1      48.393  36.726  28.927  1.00  0.00     0.124 S 
ATOM     98  O   UNL A   1      47.945  36.981  30.293  1.00  0.00    -0.237 OA
ATOM     99  O   UNL A   1      49.836  36.601  28.748  1.00  0.00    -0.237 OA
ATOM    100  O   UNL A   1      47.700  37.480  27.888  1.00  0.00    -0.744 OA
ENDBRANCH  96  97
ENDBRANCH  64  89
ENDBRANCH  38  39
ENDBRANCH  30  33
ENDBRANCH  28  29
ENDBRANCH   1  28
TORSDOF 17
ENDMDL
